data_PCOD8180111
_publ_section_title
;
Structure prediction by ZEFSAII (Michael W. Deem and Ramdas Pophale) SiO2 
 PCOD8180111
Probable space group: A M M 2
;
_chemical_formula_sum "Si O2"
_cell_formula_units_Z 40
_cell_length_a 9.107686
_cell_length_b 16.358864
_cell_length_c 12.678551
_cell_angle_alpha 90.000000
_cell_angle_beta 90.000000
_cell_angle_gamma 90.000000
_cell_volume 1888.995021
_symmetry_space_group_name_H-M "A M M 2"
_symmetry_group_IT_number 38
_symmetry_cell_setting 'orthorhombic'
loop_
_space_group_symop_operation_xyz
x,y,z
-x,-y,z
-x,y,z
x,-y,z
x,1/2+y,1/2+z
-x,1/2-y,1/2+z
-x,1/2+y,1/2+z
x,1/2-y,1/2+z
loop_
_atom_site_type_symbol
_atom_site_label
_atom_site_fract_x
_atom_site_fract_y
_atom_site_fract_z
Si Si1 0.825845 0.404333 0.863480
Si Si2 0.159410 0.406880 0.471665
Si Si3 0.339016 0.594803 0.281998
Si Si4 0.328888 0.656726 0.657337
Si Si5 0.670594 0.664023 0.066899
O O1 0.779533 0.500000 0.861718
O O2 0.751360 0.354909 0.768345
O O3 0.000000 0.395355 0.854562
O O4 0.771647 0.360857 0.969704
O O5 0.133009 0.500000 0.440388
O O6 0.237159 0.362970 0.371124
O O7 0.260364 0.406576 0.574853
O O8 0.000000 0.365000 0.491628
O O9 0.500000 0.637402 0.289604
O O10 0.354515 0.500000 0.307208
O O11 0.278487 0.606995 0.164269
O O12 0.500000 0.638713 0.673244
O O13 0.298643 0.744483 0.605628
O O14 0.500000 0.650417 0.036780
#
# Coordination Sequence:
#
# PCOD8180111 Si02
#       5
#     8   8   8   8   8
#     4  11  25  44  66  94 129 169 213 260 314 379
#     4  10  21  37  58  86 120 157 200 250 304 364
#     4   9  18  35  60  87 116 153 197 246 301 362
#     4  11  24  40  62  91 125 163 208 258 308 366
#     4  10  23  41  63  91 124 161 206 258 309 365
#
# _framework density 21.175280999999998
#
# number of rings (size 3 to 8) (size 9 to 14) (size 15 to 20)
#    0.000    1.800    0.000    3.000    2.800    8.400 
#    0.000    2.000    0.000    0.000    0.000    0.000 
#    0.000    0.000    0.000    0.000    0.000    0.000 
#
# Total GULP energy -247953.130258 kJ/mol
# GULP energy per Si atom -12397.656513 kJ/mol
# Density = 2.112708 g / cm^3
# Si number density = 21.175281 Si / 1000 Ang^3
#
#
#
# Elastic Constant Matrix: (Units=GPa)
#
#
# Indices 1 2 3 4 5 6 
#
# 1 138.9293 40.4200 91.4061 0.0000 0.0000 0.0000
# 2 40.4200 51.0948 30.2595 0.0000 0.0000 0.0000
# 3 91.4061 30.2595 186.2177 0.0000 0.0000 0.0000
# 4 0.0000 0.0000 0.0000 27.4855 0.0000 0.0000
# 5 0.0000 0.0000 0.0000 0.0000 26.3015 0.0000
# 6 0.0000 0.0000 0.0000 0.0000 0.0000 20.7915
#
#
#
# Elastic Compliance Matrix: (Units=1/GPa)
#
#
# Indices 1 2 3 4 5 6 
#
# 1 0.012515 -0.006929 -0.005017 0.000000 0.000000 0.000000
# 2 -0.006929 0.025492 -0.000741 0.000000 0.000000 0.000000
# 3 -0.005017 -0.000741 0.007953 0.000000 0.000000 0.000000
# 4 0.000000 0.000000 0.000000 0.036383 0.000000 0.000000
# 5 0.000000 0.000000 0.000000 0.000000 0.038021 0.000000
# 6 0.000000 0.000000 0.000000 0.000000 0.000000 0.048096
#
#
# Mechanical properties :
#
#
# Convention : Reuss Voigt Hill
#
# Bulk Modulus (GPa) = 48.57825 77.82368 63.20096
# Shear Modulus (GPa) = 24.91339 29.19278 27.05309
#
# Velocity S-wave (km/s) = 3.43378 3.71701 3.57820
# Velocity P-wave (km/s) = 6.22189 7.43327 6.85440
#
# Compressibility (1/GPa) = 0.02058535
#
# Stress axis : x y z
#
# Youngs Moduli (GPa) = 79.90663 39.22843 125.73701
#
# Poissons Ratio (x) = 0.27181 0.63082
# Poissons Ratio (y) = 0.55366 0.09320
# Poissons Ratio (z) = 0.40089 0.02908
#
# Static dielectric constant tensor:
#      x y z
#    x 4.177950 0.000000 0.000000 
#    y 0.000000 3.675320 0.000000 
#    z 0.000000 0.000000 3.914750 
# 
# 
# High freq. dielectric constant tensor:
#      x y z
#    x 1.835280 0.000000 0.000000 
#    y 0.000000 1.815700 0.000000 
#    z 0.000000 0.000000 1.844980 
# 
# From -- ./inp_files/7766.got.cif
#   From: 2010.03.12/outbox.cif.g09.slc.cpg/sg38_4_cif.got.tgz:7766.got - 2010.04.14 02:38:36.
