data_PCOD8180222
_publ_section_title
;
Structure prediction by ZEFSAII (Michael W. Deem and Ramdas Pophale) SiO2 
 PCOD8180222
Probable space group: A M M 2
;
_chemical_formula_sum "Si O2"
_cell_formula_units_Z 18
_cell_length_a 7.691544
_cell_length_b 7.564087
_cell_length_c 16.953515
_cell_angle_alpha 90.000000
_cell_angle_beta 90.000000
_cell_angle_gamma 90.000000
_cell_volume 986.347161
_symmetry_space_group_name_H-M "A M M 2"
_symmetry_group_IT_number 38
_symmetry_cell_setting 'orthorhombic'
loop_
_space_group_symop_operation_xyz
x,y,z
-x,-y,z
-x,y,z
x,-y,z
x,1/2+y,1/2+z
-x,1/2-y,1/2+z
-x,1/2+y,1/2+z
x,1/2-y,1/2+z
loop_
_atom_site_type_symbol
_atom_site_label
_atom_site_fract_x
_atom_site_fract_y
_atom_site_fract_z
Si Si1 0.195813 0.800267 0.126920
Si Si2 0.500000 0.298720 0.243161
Si Si3 0.500000 0.500000 0.870470
Si Si4 0.691849 0.000000 0.521928
O O1 0.325770 0.738616 0.194565
O O2 0.209813 0.676354 0.049957
O O3 0.000000 0.787223 0.160647
O O4 0.240388 0.000000 0.100672
O O5 0.500000 0.500000 0.272396
O O6 0.500000 0.176231 0.319568
O O7 0.671938 0.500000 0.926829
O O8 0.500000 0.000000 0.562791
#
# Coordination Sequence:
#
# PCOD8180222 Si02
#       4
#     8   4   2   4
#     4  11  21  36  64  90 114 153 201 247 286 346
#     4  12  21  37  61  89 120 153 198 244 293 352
#     4  10  24  38  60  88 126 162 182 246 308 352
#     4  10  21  39  60  89 114 162 193 238 300 346
#
# _framework density 18.249153
#
# number of rings (size 3 to 8) (size 9 to 14) (size 15 to 20)
#    0.667    0.444    6.667    0.667    0.000    1.778 
#    0.000    4.444    0.000    0.000    0.000    0.000 
#    0.000    0.000    0.000    0.000    0.000    0.000 
#
# Total GULP energy -111578.938454 kJ/mol
# GULP energy per Si atom -12397.659828 kJ/mol
# Density = 1.820762 g / cm^3
# Si number density = 18.249153 Si / 1000 Ang^3
#
#
#
# Elastic Constant Matrix: (Units=GPa)
#
#
# Indices 1 2 3 4 5 6 
#
# 1 102.4449 45.1387 40.7707 0.0000 0.0000 0.0000
# 2 45.1387 203.3022 78.2516 0.0000 0.0000 0.0000
# 3 40.7707 78.2516 126.5180 0.0000 0.0000 0.0000
# 4 0.0000 0.0000 0.0000 32.1599 0.0000 0.0000
# 5 0.0000 0.0000 0.0000 0.0000 11.8571 0.0000
# 6 0.0000 0.0000 0.0000 0.0000 0.0000 27.4641
#
#
#
# Elastic Compliance Matrix: (Units=1/GPa)
#
#
# Indices 1 2 3 4 5 6 
#
# 1 0.011528 -0.001483 -0.002798 0.000000 0.000000 0.000000
# 2 -0.001483 0.006646 -0.003633 0.000000 0.000000 0.000000
# 3 -0.002798 -0.003633 0.011053 0.000000 0.000000 0.000000
# 4 0.000000 0.000000 0.000000 0.031095 0.000000 0.000000
# 5 0.000000 0.000000 0.000000 0.000000 0.084338 0.000000
# 6 0.000000 0.000000 0.000000 0.000000 0.000000 0.036411
#
#
# Mechanical properties :
#
#
# Convention : Reuss Voigt Hill
#
# Bulk Modulus (GPa) = 74.62691 84.50967 79.56829
# Shear Modulus (GPa) = 24.83058 32.16982 28.50020
#
# Velocity S-wave (km/s) = 3.69269 4.20314 3.95616
# Velocity P-wave (km/s) = 7.69178 8.36448 8.03517
#
# Compressibility (1/GPa) = 0.01339999
#
# Stress axis : x y z
#
# Youngs Moduli (GPa) = 86.74430 150.45937 90.47595
#
# Poissons Ratio (x) = 0.22307 0.25315
# Poissons Ratio (y) = 0.12861 0.32870
# Poissons Ratio (z) = 0.24271 0.54662
#
# Static dielectric constant tensor:
#      x y z
#    x 3.473800 0.000000 0.000000 
#    y 0.000000 3.694980 0.000000 
#    z 0.000000 0.000000 3.062590 
# 
# 
# High freq. dielectric constant tensor:
#      x y z
#    x 1.713200 0.000000 0.000000 
#    y 0.000000 1.731610 0.000000 
#    z 0.000000 0.000000 1.673080 
# 
# From -- ./inp_files/15927.got.cif
#   From: 2010.03.12/outbox.cif.g09.slc.cpg/sg38_8_cif.got.tgz:15927.got - 2010.04.14 02:38:36.
