data_PCOD8180498
_publ_section_title
;
Structure prediction by ZEFSAII (Michael W. Deem and Ramdas Pophale) SiO2 
 PCOD8180498
Probable space group: A M M 2
;
_chemical_formula_sum "Si O2"
_cell_formula_units_Z 40
_cell_length_a 8.366855
_cell_length_b 26.239862
_cell_length_c 9.156776
_cell_angle_alpha 90.000000
_cell_angle_beta 90.000000
_cell_angle_gamma 90.000000
_cell_volume 2010.325491
_symmetry_space_group_name_H-M "A M M 2"
_symmetry_group_IT_number 38
_symmetry_cell_setting 'orthorhombic'
loop_
_space_group_symop_operation_xyz
x,y,z
-x,-y,z
-x,y,z
x,-y,z
x,1/2+y,1/2+z
-x,1/2-y,1/2+z
-x,1/2+y,1/2+z
x,1/2-y,1/2+z
loop_
_atom_site_type_symbol
_atom_site_label
_atom_site_fract_x
_atom_site_fract_y
_atom_site_fract_z
Si Si1 0.311043 0.390891 0.764270
Si Si2 0.681274 0.500000 0.751406
Si Si3 0.815623 0.889185 0.586360
Si Si4 0.182552 0.500000 0.055872
Si Si5 0.814125 0.701271 0.283426
Si Si6 0.686092 0.208318 0.099529
O O1 0.500000 0.395302 0.755846
O O2 0.237977 0.445608 0.704918
O O3 0.248871 0.345599 0.661468
O O4 0.266710 0.379706 0.931215
O O5 0.500000 0.500000 0.697118
O O6 0.688940 0.500000 0.927048
O O7 0.790022 0.947437 0.645976
O O8 0.747816 0.850305 0.706923
O O9 0.000000 0.876390 0.561570
O O10 0.000000 0.500000 0.993551
O O11 0.789552 0.747650 0.172820
O O12 0.710210 0.710238 0.426899
O O13 0.000000 0.696786 0.325262
O O14 0.500000 0.216221 0.136746
#
# Coordination Sequence:
#
# PCOD8180498 Si02
#       6
#     8   4   8   4   8   8
#     4   9  18  32  53  78 104 134 170 210 254 302
#     4   8  14  28  49  74 102 132 166 206 249 298
#     4   9  18  32  53  78 104 134 170 210 254 302
#     4   8  14  28  49  74 102 132 166 206 249 298
#     4  11  23  38  55  77 104 137 174 215 261 311
#     4  11  23  38  55  77 104 137 174 215 261 311
#
# _framework density 19.897275
#
# number of rings (size 3 to 8) (size 9 to 14) (size 15 to 20)
#    0.000    2.400    0.000    2.400    0.000    6.400 
#    0.000    1.000    0.000    0.000    0.000    0.000 
#    0.000    0.000    0.000    0.000    0.000    0.000 
#
# Total GULP energy -247821.093618 kJ/mol
# GULP energy per Si atom -12391.054681 kJ/mol
# Density = 1.985199 g / cm^3
# Si number density = 19.897275 Si / 1000 Ang^3
#
#
#
# Elastic Constant Matrix: (Units=GPa)
#
#
# Indices 1 2 3 4 5 6 
#
# 1 23.8847 13.8174 1.8262 0.0000 0.0000 0.0000
# 2 13.8174 175.7560 59.0143 0.0000 0.0000 0.0000
# 3 1.8262 59.0143 85.7563 0.0000 0.0000 0.0000
# 4 0.0000 0.0000 0.0000 35.5129 0.0000 0.0000
# 5 0.0000 0.0000 0.0000 0.0000 23.4407 0.0000
# 6 0.0000 0.0000 0.0000 0.0000 0.0000 22.9032
#
#
#
# Elastic Compliance Matrix: (Units=1/GPa)
#
#
# Indices 1 2 3 4 5 6 
#
# 1 0.044095 -0.004098 0.001881 0.000000 0.000000 0.000000
# 2 -0.004098 0.007780 -0.005267 0.000000 0.000000 0.000000
# 3 0.001881 -0.005267 0.015245 0.000000 0.000000 0.000000
# 4 0.000000 0.000000 0.000000 0.028159 0.000000 0.000000
# 5 0.000000 0.000000 0.000000 0.000000 0.042661 0.000000
# 6 0.000000 0.000000 0.000000 0.000000 0.000000 0.043662
#
#
# Mechanical properties :
#
#
# Convention : Reuss Voigt Hill
#
# Bulk Modulus (GPa) = 19.17443 48.30143 33.73793
# Shear Modulus (GPa) = 23.36947 30.42064 26.89506
#
# Velocity S-wave (km/s) = 3.43082 3.91434 3.68053
# Velocity P-wave (km/s) = 5.03505 6.69010 5.92069
#
# Compressibility (1/GPa) = 0.05215279
#
# Stress axis : x y z
#
# Youngs Moduli (GPa) = 22.67837 128.52830 65.59367
#
# Poissons Ratio (x) = 0.52674 -0.12340
# Poissons Ratio (y) = 0.09294 0.34548
# Poissons Ratio (z) = -0.04266 0.67695
#
# Static dielectric constant tensor:
#      x y z
#    x 3.406720 0.000000 0.000000 
#    y 0.000000 4.432360 0.000000 
#    z 0.000000 0.000000 3.259370 
# 
# 
# High freq. dielectric constant tensor:
#      x y z
#    x 1.761700 0.000000 0.000000 
#    y 0.000000 1.809180 0.000000 
#    z 0.000000 0.000000 1.734320 
# 
# From -- ./inp_files/3484.got.cif
#   From: 2010.03.12/outbox.cif.g09.slc.cpg/sg38_2_cif.got.tgz:3484.got - 2010.04.14 02:38:36.
