data_PCOD8180238
_publ_section_title
;
Structure prediction by ZEFSAII (Michael W. Deem and Ramdas Pophale) SiO2 
 PCOD8180238
Probable space group: A M M 2
;
_chemical_formula_sum "Si O2"
_cell_formula_units_Z 56
_cell_length_a 19.230785
_cell_length_b 8.958908
_cell_length_c 15.879460
_cell_angle_alpha 90.000000
_cell_angle_beta 90.000000
_cell_angle_gamma 90.000000
_cell_volume 2735.821882
_symmetry_space_group_name_H-M "A M M 2"
_symmetry_group_IT_number 38
_symmetry_cell_setting 'orthorhombic'
loop_
_space_group_symop_operation_xyz
x,y,z
-x,-y,z
-x,y,z
x,-y,z
x,1/2+y,1/2+z
-x,1/2-y,1/2+z
-x,1/2+y,1/2+z
x,1/2-y,1/2+z
loop_
_atom_site_type_symbol
_atom_site_label
_atom_site_fract_x
_atom_site_fract_y
_atom_site_fract_z
Si Si1 0.345890 0.828180 0.626080
Si Si2 0.078406 0.169610 0.113768
Si Si3 0.663497 0.323044 0.795511
Si Si4 0.206572 0.829315 0.539619
Si Si5 0.078042 0.330015 0.811612
Si Si6 0.421388 0.177453 0.457759
Si Si7 0.789663 0.174861 0.871067
O O1 0.369453 0.735062 0.707949
O O2 0.262752 0.810404 0.613863
O O3 0.385090 0.764413 0.543354
O O4 0.366375 0.000000 0.641066
O O5 0.130144 0.283381 0.069209
O O6 0.084035 0.193532 0.212618
O O7 0.000000 0.204735 0.083342
O O8 0.098732 0.000000 0.089704
O O9 0.667240 0.500000 0.792963
O O10 0.617785 0.263538 0.874163
O O11 0.741139 0.257005 0.803033
O O12 0.233140 0.726922 0.463517
O O13 0.204234 0.000000 0.508233
O O14 0.096710 0.500000 0.835670
O O15 0.130015 0.218568 0.858129
O O16 0.000000 0.291284 0.841753
O O17 0.500000 0.238037 0.455411
O O18 0.418854 0.000000 0.456892
O O19 0.779923 0.000000 0.860513
#
# Coordination Sequence:
#
# PCOD8180238 Si02
#       7
#     8   8   8   8   8   8   8
#     4  10  21  39  62  91 123 159 203 248 298 359
#     4   9  19  36  56  80 111 148 192 243 298 357
#     4  11  22  39  63  92 124 162 205 249 301 360
#     4  11  22  37  57  82 114 153 199 249 301 358
#     4   9  19  37  59  82 112 151 195 245 302 362
#     4   9  19  39  65  91 125 165 200 241 298 362
#     4  12  24  37  57  84 116 155 201 253 304 355
#
# _framework density 20.469168
#
# number of rings (size 3 to 8) (size 9 to 14) (size 15 to 20)
#    0.000    1.857    1.429    3.857    0.000    5.714 
#    0.000    1.429    0.000    3.000    0.000    0.000 
#    0.000    0.000    0.000    0.000    0.000    0.000 
#
# Total GULP energy -347256.481871 kJ/mol
# GULP energy per Si atom -12402.017210 kJ/mol
# Density = 2.042258 g / cm^3
# Si number density = 20.469168 Si / 1000 Ang^3
#
#
#
# Elastic Constant Matrix: (Units=GPa)
#
#
# Indices 1 2 3 4 5 6 
#
# 1 109.8128 39.8575 51.0965 0.0000 0.0000 0.0000
# 2 39.8575 89.8060 48.0417 0.0000 0.0000 0.0000
# 3 51.0965 48.0417 129.4218 0.0000 0.0000 0.0000
# 4 0.0000 0.0000 0.0000 34.5636 0.0000 0.0000
# 5 0.0000 0.0000 0.0000 0.0000 27.2904 0.0000
# 6 0.0000 0.0000 0.0000 0.0000 0.0000 18.4888
#
#
#
# Elastic Compliance Matrix: (Units=1/GPa)
#
#
# Indices 1 2 3 4 5 6 
#
# 1 0.011965 -0.003473 -0.003435 0.000000 0.000000 0.000000
# 2 -0.003473 0.014902 -0.004161 0.000000 0.000000 0.000000
# 3 -0.003435 -0.004161 0.010627 0.000000 0.000000 0.000000
# 4 0.000000 0.000000 0.000000 0.028932 0.000000 0.000000
# 5 0.000000 0.000000 0.000000 0.000000 0.036643 0.000000
# 6 0.000000 0.000000 0.000000 0.000000 0.000000 0.054087
#
#
# Mechanical properties :
#
#
# Convention : Reuss Voigt Hill
#
# Bulk Modulus (GPa) = 65.11292 67.44799 66.28046
# Shear Modulus (GPa) = 27.11317 28.73821 27.92569
#
# Velocity S-wave (km/s) = 3.64343 3.75103 3.69762
# Velocity P-wave (km/s) = 7.04122 7.19603 7.11905
#
# Compressibility (1/GPa) = 0.01535793
#
# Stress axis : x y z
#
# Youngs Moduli (GPa) = 83.57608 67.10429 94.09855
#
# Poissons Ratio (x) = 0.23305 0.32320
# Poissons Ratio (y) = 0.29025 0.39151
# Poissons Ratio (z) = 0.28706 0.27919
#
# Static dielectric constant tensor:
#      x y z
#    x 3.843560 0.000000 0.000000 
#    y 0.000000 3.440920 0.000000 
#    z 0.000000 0.000000 3.720040 
# 
# 
# High freq. dielectric constant tensor:
#      x y z
#    x 1.800310 0.000000 0.000000 
#    y 0.000000 1.778080 0.000000 
#    z 0.000000 0.000000 1.804390 
# 
# From -- ./inp_files/15434.got.cif
#   From: 2010.03.12/outbox.cif.g09.slc.cpg/sg38_8_cif.got.tgz:15434.got - 2010.04.14 02:38:36.
