data_PCOD8180430
_publ_section_title
;
Structure prediction by ZEFSAII (Michael W. Deem and Ramdas Pophale) SiO2 
 PCOD8180430
Probable space group: A M M 2
;
_chemical_formula_sum "Si O2"
_cell_formula_units_Z 64
_cell_length_a 8.592326
_cell_length_b 19.609593
_cell_length_c 20.573541
_cell_angle_alpha 90.000000
_cell_angle_beta 90.000000
_cell_angle_gamma 90.000000
_cell_volume 3466.477395
_symmetry_space_group_name_H-M "A M M 2"
_symmetry_group_IT_number 38
_symmetry_cell_setting 'orthorhombic'
loop_
_space_group_symop_operation_xyz
x,y,z
-x,-y,z
-x,y,z
x,-y,z
x,1/2+y,1/2+z
-x,1/2-y,1/2+z
-x,1/2+y,1/2+z
x,1/2-y,1/2+z
loop_
_atom_site_type_symbol
_atom_site_label
_atom_site_fract_x
_atom_site_fract_y
_atom_site_fract_z
Si Si1 0.684590 0.573985 0.600590
Si Si2 0.317244 0.284357 0.548376
Si Si3 0.682836 0.716538 0.792761
Si Si4 0.679141 0.923081 0.863107
Si Si5 0.315558 0.574065 0.746175
Si Si6 0.320335 0.576874 0.211308
Si Si7 0.180691 0.210528 0.669378
Si Si8 0.820342 0.207765 0.914372
O O1 0.500000 0.574367 0.603153
O O2 0.741461 0.500000 0.572823
O O3 0.741659 0.637215 0.557050
O O4 0.751588 0.583612 0.673452
O O5 0.500000 0.276329 0.561018
O O6 0.226717 0.236504 0.598362
O O7 0.275377 0.262273 0.475271
O O8 0.500000 0.724119 0.806558
O O9 0.738852 0.637323 0.790585
O O10 0.718073 0.751479 0.723883
O O11 0.776866 0.750982 0.850232
O O12 0.500000 0.911062 0.882549
O O13 0.703051 0.908318 0.787320
O O14 0.784092 0.872046 0.904462
O O15 0.729674 0.000000 0.880266
O O16 0.500000 0.575744 0.741812
O O17 0.260343 0.500000 0.774336
O O18 0.500000 0.586565 0.192216
O O19 0.265973 0.500000 0.194550
O O20 0.215781 0.629639 0.171108
O O21 0.000000 0.223765 0.682798
O O22 0.000000 0.217269 0.929700
#
# Coordination Sequence:
#
# PCOD8180430 Si02
#       8
#     8   8   8   8   8   8   8   8
#     4   8  14  27  50  80 108 136 177 225 267 311
#     4  11  22  38  58  79 107 151 195 232 273 332
#     4  11  20  35  59  83 108 146 190 228 269 331
#     4   9  18  34  56  80 108 147 193 231 267 326
#     4   8  14  27  52  85 111 132 171 227 274 313
#     4   9  18  34  58  85 111 142 185 232 274 328
#     4  12  23  35  55  85 117 147 181 231 285 331
#     4  12  25  38  52  79 116 150 184 234 289 336
#
# _framework density 18.462546
#
# number of rings (size 3 to 8) (size 9 to 14) (size 15 to 20)
#    0.000    2.000    2.500    4.500    0.000    1.000 
#    0.000    2.500    0.000    4.125    0.000    1.750 
#    0.000    0.000    0.000    0.000    0.000    0.000 
#
# Total GULP energy -396714.864012 kJ/mol
# GULP energy per Si atom -12397.339500 kJ/mol
# Density = 1.842052 g / cm^3
# Si number density = 18.462546 Si / 1000 Ang^3
#
#
#
# Elastic Constant Matrix: (Units=GPa)
#
#
# Indices 1 2 3 4 5 6 
#
# 1 54.5248 23.4177 10.1797 0.0000 0.0000 0.0000
# 2 23.4177 105.0917 36.4800 0.0000 0.0000 0.0000
# 3 10.1797 36.4800 73.3517 0.0000 0.0000 0.0000
# 4 0.0000 0.0000 0.0000 20.5157 0.0000 0.0000
# 5 0.0000 0.0000 0.0000 0.0000 21.4967 0.0000
# 6 0.0000 0.0000 0.0000 0.0000 0.0000 13.8439
#
#
#
# Elastic Compliance Matrix: (Units=1/GPa)
#
#
# Indices 1 2 3 4 5 6 
#
# 1 0.020310 -0.004287 -0.000686 0.000000 0.000000 0.000000
# 2 -0.004287 0.012406 -0.005575 0.000000 0.000000 0.000000
# 3 -0.000686 -0.005575 0.016501 0.000000 0.000000 0.000000
# 4 0.000000 0.000000 0.000000 0.048743 0.000000 0.000000
# 5 0.000000 0.000000 0.000000 0.000000 0.046519 0.000000
# 6 0.000000 0.000000 0.000000 0.000000 0.000000 0.072234
#
#
# Mechanical properties :
#
#
# Convention : Reuss Voigt Hill
#
# Bulk Modulus (GPa) = 35.56268 41.45811 38.51039
# Shear Modulus (GPa) = 20.22794 22.03065 21.12930
#
# Velocity S-wave (km/s) = 3.31361 3.45811 3.38663
# Velocity P-wave (km/s) = 5.82614 6.20070 6.01633
#
# Compressibility (1/GPa) = 0.02811937
#
# Stress axis : x y z
#
# Youngs Moduli (GPa) = 49.23726 80.60571 60.60326
#
# Poissons Ratio (x) = 0.34559 0.04159
# Poissons Ratio (y) = 0.21110 0.33786
# Poissons Ratio (z) = 0.03379 0.44937
#
# Static dielectric constant tensor:
#      x y z
#    x 3.093270 0.000000 0.000000 
#    y 0.000000 3.824740 0.000000 
#    z 0.000000 0.000000 3.164910 
# 
# 
# High freq. dielectric constant tensor:
#      x y z
#    x 1.692050 0.000000 0.000000 
#    y 0.000000 1.725600 0.000000 
#    z 0.000000 0.000000 1.689750 
# 
# From -- ./inp_files/20244.got.cif
#   From: 2010.03.12/outbox.cif.g09.slc.cpg/sg38_11_cif.got.tgz:20244.got - 2010.04.14 02:38:36.
