data_PCOD8180778
_publ_section_title
;
Structure prediction by ZEFSAII (Michael W. Deem and Ramdas Pophale) SiO2 
 PCOD8180778
Probable space group: A B M 2
;
_chemical_formula_sum "Si O2"
_cell_formula_units_Z 64
_cell_length_a 19.867340
_cell_length_b 9.053045
_cell_length_c 20.253705
_cell_angle_alpha 90.000000
_cell_angle_beta 90.000000
_cell_angle_gamma 90.000000
_cell_volume 3642.829823
_symmetry_space_group_name_H-M "A B M 2"
_symmetry_group_IT_number 39
_symmetry_cell_setting 'orthorhombic'
loop_
_space_group_symop_operation_xyz
x,y,z
-x,-y,z
-x,1/2+y,z
x,1/2-y,z
x,1/2+y,1/2+z
-x,1/2-y,1/2+z
-x,y,1/2+z
x,-y,1/2+z
loop_
_atom_site_type_symbol
_atom_site_label
_atom_site_fract_x
_atom_site_fract_y
_atom_site_fract_z
Si Si1 0.827079 0.924278 0.283360
Si Si2 0.196424 0.425273 0.428678
Si Si3 0.677626 0.422718 0.738035
Si Si4 0.161855 0.924867 0.068552
Si Si5 0.690765 0.575971 0.606158
Si Si6 0.657866 0.424724 0.963716
Si Si7 0.430048 0.924553 0.846434
Si Si8 0.928605 0.074250 0.185724
O O1 0.840761 0.750000 0.273586
O O2 0.836473 0.974890 0.359735
O O3 0.752214 0.967978 0.260895
O O4 0.880046 0.020478 0.243510
O O5 0.202057 0.250000 0.428849
O O6 0.152193 0.478673 0.492345
O O7 0.271759 0.490864 0.436296
O O8 0.672609 0.250000 0.726973
O O9 0.657837 0.499412 0.669315
O O10 0.624528 0.475741 0.792585
O O11 0.164705 0.750000 0.070247
O O12 0.232880 0.983211 0.097025
O O13 0.101364 0.980647 0.115169
O O14 0.689614 0.750000 0.617487
O O15 0.647957 0.531489 0.540623
O O16 0.662841 0.250000 0.956875
O O17 0.596325 0.480924 0.918260
O O18 0.440266 0.750000 0.845304
O O19 0.500000 0.000000 0.829425
O O20 0.935638 0.250000 0.189228
O O21 0.000000 0.000000 0.195817
#
# Coordination Sequence:
#
# PCOD8180778 Si02
#       8
#     8   8   8   8   8   8   8   8
#     4  10  18  31  54  80 103 133 169 211 259 306
#     4   8  13  26  51  78  99 124 163 207 252 300
#     4  10  19  31  50  77 107 135 168 212 260 306
#     4   8  15  28  49  76 100 125 163 209 249 294
#     4   9  16  29  52  78 100 127 166 211 255 299
#     4   8  14  28  51  75  98 127 168 210 250 303
#     4  10  20  35  52  74 103 139 176 213 257 311
#     4  11  22  36  52  74 105 139 172 210 254 309
#
# _framework density 17.568759
#
# number of rings (size 3 to 8) (size 9 to 14) (size 15 to 20)
#    0.000    2.750    2.500    1.875    0.000    0.500 
#    0.000    1.875    0.000    9.000    0.000    0.000 
#    0.000    0.000    0.000    0.000    0.000    0.000 
#
# Total GULP energy -396578.690394 kJ/mol
# GULP energy per Si atom -12393.084075 kJ/mol
# Density = 1.752877 g / cm^3
# Si number density = 17.568759 Si / 1000 Ang^3
#
#
#
# Elastic Constant Matrix: (Units=GPa)
#
#
# Indices 1 2 3 4 5 6 
#
# 1 111.2671 33.7871 70.7582 0.0000 0.0000 0.0000
# 2 33.7871 29.2326 40.2793 0.0000 0.0000 0.0000
# 3 70.7582 40.2793 167.7783 0.0000 0.0000 0.0000
# 4 0.0000 0.0000 0.0000 24.4374 0.0000 0.0000
# 5 0.0000 0.0000 0.0000 0.0000 24.9301 0.0000
# 6 0.0000 0.0000 0.0000 0.0000 0.0000 20.5471
#
#
#
# Elastic Compliance Matrix: (Units=1/GPa)
#
#
# Indices 1 2 3 4 5 6 
#
# 1 0.014926 -0.012818 -0.003217 0.000000 0.000000 0.000000
# 2 -0.012818 0.062126 -0.009509 0.000000 0.000000 0.000000
# 3 -0.003217 -0.009509 0.009600 0.000000 0.000000 0.000000
# 4 0.000000 0.000000 0.000000 0.040921 0.000000 0.000000
# 5 0.000000 0.000000 0.000000 0.000000 0.040112 0.000000
# 6 0.000000 0.000000 0.000000 0.000000 0.000000 0.048669
#
#
# Mechanical properties :
#
#
# Convention : Reuss Voigt Hill
#
# Bulk Modulus (GPa) = 28.11927 66.43636 47.27781
# Shear Modulus (GPa) = 17.90213 24.87982 21.39098
#
# Velocity S-wave (km/s) = 3.19560 3.76725 3.49314
# Velocity P-wave (km/s) = 5.44572 7.53790 6.57556
#
# Compressibility (1/GPa) = 0.03556280
#
# Stress axis : x y z
#
# Youngs Moduli (GPa) = 66.99847 16.09635 104.16591
#
# Poissons Ratio (x) = 0.20632 0.33515
# Poissons Ratio (y) = 0.85878 0.99052
# Poissons Ratio (z) = 0.21557 0.15306
#
# Static dielectric constant tensor:
#      x y z
#    x 3.215780 0.000000 0.000000 
#    y 0.000000 2.841460 0.000000 
#    z 0.000000 0.000000 3.772380 
# 
# 
# High freq. dielectric constant tensor:
#      x y z
#    x 1.653700 0.000000 0.000000 
#    y 0.000000 1.638520 0.000000 
#    z 0.000000 0.000000 1.699920 
# 
# From -- ./inp_files/13039.got.cif
#   From: 2010.03.12/outbox.cif.g09.slc.cpg/sg39_7_cif.got.tgz:13039.got - 2010.04.14 02:53:20.
