data_PCOD8180884
_publ_section_title
;
Structure prediction by ZEFSAII (Michael W. Deem and Ramdas Pophale) SiO2 
 PCOD8180884
Probable space group: A B M 2
;
_chemical_formula_sum "Si O2"
_cell_formula_units_Z 64
_cell_length_a 20.704061
_cell_length_b 9.166122
_cell_length_c 19.307019
_cell_angle_alpha 90.000000
_cell_angle_beta 90.000000
_cell_angle_gamma 90.000000
_cell_volume 3664.007854
_symmetry_space_group_name_H-M "A B M 2"
_symmetry_group_IT_number 39
_symmetry_cell_setting 'orthorhombic'
loop_
_space_group_symop_operation_xyz
x,y,z
-x,-y,z
-x,1/2+y,z
x,1/2-y,z
x,1/2+y,1/2+z
-x,1/2-y,1/2+z
-x,y,1/2+z
x,-y,1/2+z
loop_
_atom_site_type_symbol
_atom_site_label
_atom_site_fract_x
_atom_site_fract_y
_atom_site_fract_z
Si Si1 0.817042 0.576916 0.134680
Si Si2 0.688031 0.414833 0.145590
Si Si3 0.436850 0.415895 0.147696
Si Si4 0.063685 0.079430 0.388543
Si Si5 0.438342 0.587240 0.482408
Si Si6 0.176187 0.421946 0.491183
Si Si7 0.063863 0.420142 0.230707
Si Si8 0.682125 0.410804 0.981051
O O1 0.805817 0.750000 0.130023
O O2 0.752765 0.502280 0.165539
O O3 0.835871 0.515313 0.059777
O O4 0.874914 0.533567 0.185590
O O5 0.690487 0.250000 0.175793
O O6 0.626301 0.500498 0.176585
O O7 0.681405 0.408443 0.063610
O O8 0.500000 0.500000 0.175639
O O9 0.437156 0.250000 0.175645
O O10 0.436870 0.415745 0.064960
O O11 0.051360 0.250000 0.395005
O O12 0.123736 0.029987 0.435061
O O13 0.078355 0.032852 0.309711
O O14 0.000000 0.000000 0.416899
O O15 0.500000 0.500000 0.453974
O O16 0.443604 0.750000 0.453546
O O17 0.372302 0.519125 0.451933
O O18 0.173200 0.250000 0.509975
O O19 0.246165 0.459905 0.457755
O O20 0.050091 0.250000 0.224655
O O21 0.000000 0.500000 0.202336
O O22 0.665879 0.250000 0.952310
#
# Coordination Sequence:
#
# PCOD8180884 Si02
#       8
#     8   8   8   8   8   8   8   8
#     4  10  19  30  45  67  93 119 149 186 227 271
#     4   9  16  26  39  56  81 114 149 184 224 268
#     4   9  15  22  33  51  77 111 149 186 223 265
#     4   9  18  34  52  69  90 117 150 185 223 267
#     4   9  15  21  31  48  72 105 141 175 210 250
#     4   9  18  31  47  66  90 120 150 183 224 270
#     4   9  19  34  51  69  90 118 150 185 224 268
#     4   8  14  24  36  52  76 106 139 174 213 255
#
# _framework density 17.467210999999999
#
# number of rings (size 3 to 8) (size 9 to 14) (size 15 to 20)
#    0.000    3.000    0.000    2.250    0.000    8.000 
#    0.000    2.500    0.000    0.000    0.000    0.000 
#    0.000    1.000    0.000    5.500    0.000   10.375 
#
# Total GULP energy -396714.354303 kJ/mol
# GULP energy per Si atom -12397.323572 kJ/mol
# Density = 1.742745 g / cm^3
# Si number density = 17.467211 Si / 1000 Ang^3
#
#
#
# Elastic Constant Matrix: (Units=GPa)
#
#
# Indices 1 2 3 4 5 6 
#
# 1 193.0900 90.5290 48.0765 0.0000 0.0000 0.0000
# 2 90.5290 116.5759 29.4690 0.0000 0.0000 0.0000
# 3 48.0765 29.4690 30.3785 0.0000 0.0000 0.0000
# 4 0.0000 0.0000 0.0000 11.6518 0.0000 0.0000
# 5 0.0000 0.0000 0.0000 0.0000 0.9148 0.0000
# 6 0.0000 0.0000 0.0000 0.0000 0.0000 38.1279
#
#
#
# Elastic Compliance Matrix: (Units=1/GPa)
#
#
# Indices 1 2 3 4 5 6 
#
# 1 0.010514 -0.005245 -0.011552 0.000000 0.000000 0.000000
# 2 -0.005245 0.013981 -0.005262 0.000000 0.000000 0.000000
# 3 -0.011552 -0.005262 0.056304 0.000000 0.000000 0.000000
# 4 0.000000 0.000000 0.000000 0.085824 0.000000 0.000000
# 5 0.000000 0.000000 0.000000 0.000000 1.093108 0.000000
# 6 0.000000 0.000000 0.000000 0.000000 0.000000 0.026227
#
#
# Mechanical properties :
#
#
# Convention : Reuss Voigt Hill
#
# Bulk Modulus (GPa) = 27.26134 75.13262 51.19698
# Shear Modulus (GPa) = 3.72494 21.60356 12.66425
#
# Velocity S-wave (km/s) = 1.46190 3.52064 2.69556
# Velocity P-wave (km/s) = 4.30007 7.72227 6.24996
#
# Compressibility (1/GPa) = 0.03668199
#
# Stress axis : x y z
#
# Youngs Moduli (GPa) = 95.11025 71.52399 17.76061
#
# Poissons Ratio (x) = 0.37513 0.20516
# Poissons Ratio (y) = 0.49883 0.09346
# Poissons Ratio (z) = 1.09868 0.37639
#
# Static dielectric constant tensor:
#      x y z
#    x 3.568960 0.000000 0.000000 
#    y 0.000000 3.385140 0.000000 
#    z 0.000000 0.000000 2.687380 
# 
# 
# High freq. dielectric constant tensor:
#      x y z
#    x 1.693670 0.000000 0.000000 
#    y 0.000000 1.683990 0.000000 
#    z 0.000000 0.000000 1.603180 
# 
# From -- ./inp_files/13165.got.cif
#   From: 2010.03.12/outbox.cif.g09.slc.cpg/sg39_7_cif.got.tgz:13165.got - 2010.04.14 02:53:20.
