data_PCOD8180193
_publ_section_title
;
Structure prediction by ZEFSAII (Michael W. Deem and Ramdas Pophale) SiO2 
 PCOD8180193
Probable space group: A M M 2
;
_chemical_formula_sum "Si O2"
_cell_formula_units_Z 40
_cell_length_a 12.559812
_cell_length_b 8.785317
_cell_length_c 18.179729
_cell_angle_alpha 90.000000
_cell_angle_beta 90.000000
_cell_angle_gamma 90.000000
_cell_volume 2005.986383
_symmetry_space_group_name_H-M "A M M 2"
_symmetry_group_IT_number 38
_symmetry_cell_setting 'orthorhombic'
loop_
_space_group_symop_operation_xyz
x,y,z
-x,-y,z
-x,y,z
x,-y,z
x,1/2+y,1/2+z
-x,1/2-y,1/2+z
-x,1/2+y,1/2+z
x,1/2-y,1/2+z
loop_
_atom_site_type_symbol
_atom_site_label
_atom_site_fract_x
_atom_site_fract_y
_atom_site_fract_z
Si Si1 0.000000 0.825947 0.429320
Si Si2 0.620671 0.175202 0.086554
Si Si3 0.000000 0.825028 0.603148
Si Si4 0.805478 0.820551 0.847109
Si Si5 0.811091 0.178136 0.189165
Si Si6 0.623109 0.822999 0.434865
O O1 0.105215 0.745801 0.400098
O O2 0.000000 0.812543 0.516214
O O3 0.000000 0.000000 0.402752
O O4 0.500000 0.213540 0.110406
O O5 0.694437 0.212809 0.156152
O O6 0.632734 0.000000 0.062487
O O7 0.656407 0.275899 0.017190
O O8 0.896367 0.739472 0.631836
O O9 0.000000 0.000000 0.629622
O O10 0.825353 0.765052 0.764971
O O11 0.689908 0.767918 0.874532
O O12 0.812892 0.000000 0.848970
O O13 0.828881 0.000000 0.202664
O O14 0.500000 0.783386 0.420749
O O15 0.647448 0.000000 0.424966
#
# Coordination Sequence:
#
# PCOD8180193 Si02
#       6
#     4   8   4   8   8   8
#     4  11  24  43  66  89 117 153 194 241 292 349
#     4   9  19  37  61  88 117 151 193 241 292 347
#     4  11  24  41  62  87 115 149 192 241 290 345
#     4  12  25  40  60  87 121 157 196 243 293 347
#     4  11  23  39  60  86 119 156 193 237 291 350
#     4  10  21  38  61  88 119 156 198 243 291 346
#
# _framework density 19.940314999999998
#
# number of rings (size 3 to 8) (size 9 to 14) (size 15 to 20)
#    0.000    1.400    0.000    5.400    0.000    8.400 
#    0.000    2.000    0.000    0.000    0.000    0.000 
#    0.000    0.000    0.000    0.000    0.000    0.000 
#
# Total GULP energy -248130.645669 kJ/mol
# GULP energy per Si atom -12406.532283 kJ/mol
# Density = 1.989493 g / cm^3
# Si number density = 19.940315 Si / 1000 Ang^3
#
#
#
# Elastic Constant Matrix: (Units=GPa)
#
#
# Indices 1 2 3 4 5 6 
#
# 1 105.1142 56.1985 46.2631 0.0000 0.0000 0.0000
# 2 56.1985 142.4072 54.3971 0.0000 0.0000 0.0000
# 3 46.2631 54.3971 89.5039 0.0000 0.0000 0.0000
# 4 0.0000 0.0000 0.0000 22.5634 0.0000 0.0000
# 5 0.0000 0.0000 0.0000 0.0000 30.6780 0.0000
# 6 0.0000 0.0000 0.0000 0.0000 0.0000 28.1128
#
#
#
# Elastic Compliance Matrix: (Units=1/GPa)
#
#
# Indices 1 2 3 4 5 6 
#
# 1 0.013515 -0.003471 -0.004876 0.000000 0.000000 0.000000
# 2 -0.003471 0.010037 -0.004306 0.000000 0.000000 0.000000
# 3 -0.004876 -0.004306 0.016310 0.000000 0.000000 0.000000
# 4 0.000000 0.000000 0.000000 0.044320 0.000000 0.000000
# 5 0.000000 0.000000 0.000000 0.000000 0.032597 0.000000
# 6 0.000000 0.000000 0.000000 0.000000 0.000000 0.035571
#
#
# Mechanical properties :
#
#
# Convention : Reuss Voigt Hill
#
# Bulk Modulus (GPa) = 68.70073 72.30475 70.50274
# Shear Modulus (GPa) = 27.39614 28.28194 27.83904
#
# Velocity S-wave (km/s) = 3.71065 3.77016 3.74052
# Velocity P-wave (km/s) = 7.27231 7.43582 7.35452
#
# Compressibility (1/GPa) = 0.01455589
#
# Stress axis : x y z
#
# Youngs Moduli (GPa) = 73.98991 99.63548 61.31163
#
# Poissons Ratio (x) = 0.34583 0.29898
# Poissons Ratio (y) = 0.25681 0.26400
# Poissons Ratio (z) = 0.36080 0.42901
#
# Static dielectric constant tensor:
#      x y z
#    x 3.989960 0.000000 0.000000 
#    y 0.000000 3.835340 0.000000 
#    z 0.000000 0.000000 3.554610 
# 
# 
# High freq. dielectric constant tensor:
#      x y z
#    x 1.792770 0.000000 0.000000 
#    y 0.000000 1.790380 0.000000 
#    z 0.000000 0.000000 1.779800 
# 
# From -- ./inp_files/14321.got.cif
#   From: 2010.03.12/outbox.cif.g09.slc.cpg/sg38_8_cif.got.tgz:14321.got - 2010.04.14 02:38:36.
