data_PCOD8180572
_publ_section_title
;
Structure prediction by ZEFSAII (Michael W. Deem and Ramdas Pophale) SiO2 
 PCOD8180572
Probable space group: A B M 2
;
_chemical_formula_sum "Si O2"
_cell_formula_units_Z 64
_cell_length_a 37.649449
_cell_length_b 18.067374
_cell_length_c 5.185828
_cell_angle_alpha 90.000000
_cell_angle_beta 90.000000
_cell_angle_gamma 90.000000
_cell_volume 3527.538543
_symmetry_space_group_name_H-M "A B M 2"
_symmetry_group_IT_number 39
_symmetry_cell_setting 'orthorhombic'
loop_
_space_group_symop_operation_xyz
x,y,z
-x,-y,z
-x,1/2+y,z
x,1/2-y,z
x,1/2+y,1/2+z
-x,1/2-y,1/2+z
-x,y,1/2+z
x,-y,1/2+z
loop_
_atom_site_type_symbol
_atom_site_label
_atom_site_fract_x
_atom_site_fract_y
_atom_site_fract_z
Si Si1 0.977720 0.836162 0.804930
Si Si2 0.223256 0.664095 0.259166
Si Si3 0.515359 0.915763 0.247851
Si Si4 0.163722 0.952779 0.268536
Si Si5 0.670133 0.049346 0.750994
Si Si6 0.918291 0.046921 0.260019
Si Si7 0.592245 0.454978 0.822112
Si Si8 0.267980 0.663749 0.757385
O O1 0.968109 0.750000 0.796922
O O2 0.940758 0.878811 0.787916
O O3 0.002826 0.858639 0.568048
O O4 0.213536 0.750000 0.272876
O O5 0.186155 0.621911 0.275613
O O6 0.248261 0.640727 0.495711
O O7 0.242814 0.643064 0.995453
O O8 0.497946 0.874482 0.491525
O O9 0.557875 0.905885 0.260769
O O10 0.500000 0.000000 0.237895
O O11 0.122673 0.929014 0.272506
O O12 0.173576 0.001902 0.514221
O O13 0.630234 0.083852 0.768773
O O14 0.696010 0.118269 0.781735
O O15 0.676472 0.010224 0.476781
O O16 0.927760 0.990737 0.489072
O O17 0.590147 0.523801 0.623186
O O18 0.278143 0.750000 0.759721
#
# Coordination Sequence:
#
# PCOD8180572 Si02
#       8
#     8   8   8   8   8   8   8   8
#     4  10  21  36  54  78 106 138 178 220 259 299
#     4  10  21  36  56  77  99 129 169 209 245 295
#     4  10  14  20  34  52  77 116 146 173 226 284
#     4  10  21  36  54  80 108 136 165 209 256 305
#     4  10  21  32  48  71  99 127 158 202 246 287
#     4  10  21  36  54  78 108 138 173 209 254 307
#     4  10  16  25  36  57  87 117 146 188 229 281
#     4  10  21  37  53  73 100 131 167 204 243 296
#
# _framework density 18.142963999999999
#
# number of rings (size 3 to 8) (size 9 to 14) (size 15 to 20)
#    0.000    2.000    2.500    2.250    0.000    5.000 
#    0.000    0.000    0.000    9.000    0.000    0.000 
#    0.000    1.000    0.000    0.000    0.000    5.000 
#
# Total GULP energy -396724.782405 kJ/mol
# GULP energy per Si atom -12397.649450 kJ/mol
# Density = 1.810167 g / cm^3
# Si number density = 18.142964 Si / 1000 Ang^3
#
#
#
# Elastic Constant Matrix: (Units=GPa)
#
#
# Indices 1 2 3 4 5 6 
#
# 1 115.7459 62.0006 16.8142 0.0000 0.0000 0.0000
# 2 62.0006 51.2992 17.7207 0.0000 0.0000 0.0000
# 3 16.8142 17.7207 104.0370 0.0000 0.0000 0.0000
# 4 0.0000 0.0000 0.0000 7.6736 0.0000 0.0000
# 5 0.0000 0.0000 0.0000 0.0000 28.7392 0.0000
# 6 0.0000 0.0000 0.0000 0.0000 0.0000 8.4852
#
#
#
# Elastic Compliance Matrix: (Units=1/GPa)
#
#
# Indices 1 2 3 4 5 6 
#
# 1 0.024633 -0.030172 0.001158 0.000000 0.000000 0.000000
# 2 -0.030172 0.057669 -0.004946 0.000000 0.000000 0.000000
# 3 0.001158 -0.004946 0.010267 0.000000 0.000000 0.000000
# 4 0.000000 0.000000 0.000000 0.130317 0.000000 0.000000
# 5 0.000000 0.000000 0.000000 0.000000 0.034796 0.000000
# 6 0.000000 0.000000 0.000000 0.000000 0.000000 0.117852
#
#
# Mechanical properties :
#
#
# Convention : Reuss Voigt Hill
#
# Bulk Modulus (GPa) = 40.57081 51.57256 46.07169
# Shear Modulus (GPa) = 11.07000 20.61604 15.84302
#
# Velocity S-wave (km/s) = 2.47281 3.37458 2.95826
# Velocity P-wave (km/s) = 5.52841 6.60841 6.09239
#
# Compressibility (1/GPa) = 0.02464826
#
# Stress axis : x y z
#
# Youngs Moduli (GPa) = 40.59513 17.34045 97.39633
#
# Poissons Ratio (x) = 0.52320 -0.11279
# Poissons Ratio (y) = 1.22485 0.48176
# Poissons Ratio (z) = -0.04701 0.08577
#
# Static dielectric constant tensor:
#      x y z
#    x 3.448820 0.000000 0.000000 
#    y 0.000000 2.871640 0.000000 
#    z 0.000000 0.000000 4.319740 
# 
# 
# High freq. dielectric constant tensor:
#      x y z
#    x 1.714560 0.000000 0.000000 
#    y 0.000000 1.650850 0.000000 
#    z 0.000000 0.000000 1.735760 
# 
# From -- ./inp_files/1523.got.cif
#   From: 2010.03.12/outbox.cif.g09.slc.cpg/sg39_1_cif.got.tgz:1523.got - 2010.04.14 02:53:20.
