data_PCOD8180389
_publ_section_title
;
Structure prediction by ZEFSAII (Michael W. Deem and Ramdas Pophale) SiO2 
 PCOD8180389
Probable space group: A M M 2
;
_chemical_formula_sum "Si O2"
_cell_formula_units_Z 48
_cell_length_a 8.493318
_cell_length_b 30.315386
_cell_length_c 9.102858
_cell_angle_alpha 90.000000
_cell_angle_beta 90.000000
_cell_angle_gamma 90.000000
_cell_volume 2343.787616
_symmetry_space_group_name_H-M "A M M 2"
_symmetry_group_IT_number 38
_symmetry_cell_setting 'orthorhombic'
loop_
_space_group_symop_operation_xyz
x,y,z
-x,-y,z
-x,y,z
x,-y,z
x,1/2+y,1/2+z
-x,1/2-y,1/2+z
-x,1/2+y,1/2+z
x,1/2-y,1/2+z
loop_
_atom_site_type_symbol
_atom_site_label
_atom_site_fract_x
_atom_site_fract_y
_atom_site_fract_z
Si Si1 0.182874 0.050560 0.454430
Si Si2 0.316147 0.129972 0.292928
Si Si3 0.684096 0.210634 0.771186
Si Si4 0.315519 0.370346 0.462855
Si Si5 0.181841 0.711508 0.952094
Si Si6 0.183957 0.450015 0.290357
O O1 0.288865 0.080388 0.349198
O O2 0.231610 0.059765 0.622650
O O3 0.000000 0.061659 0.430764
O O4 0.217380 0.000000 0.413126
O O5 0.500000 0.141542 0.301048
O O6 0.218984 0.162521 0.396797
O O7 0.248139 0.134025 0.127634
O O8 0.500000 0.205246 0.733774
O O9 0.752344 0.168793 0.861398
O O10 0.708081 0.254411 0.866196
O O11 0.783214 0.214519 0.623793
O O12 0.500000 0.364767 0.472349
O O13 0.276546 0.417912 0.397684
O O14 0.000000 0.722936 0.924523
O O15 0.230007 0.500000 0.332165
O O16 0.000000 0.442271 0.312642
#
# Coordination Sequence:
#
# PCOD8180389 Si02
#       6
#     8   8   8   8   8   8
#     4   9  19  37  59  84 115 151 194 245 298 352
#     4  11  23  39  58  84 119 157 197 241 292 351
#     4  11  23  42  65  88 118 157 197 239 294 355
#     4  10  23  39  57  83 115 152 193 237 285 342
#     4  12  25  41  63  92 121 152 195 245 295 348
#     4   9  19  36  58  83 112 148 190 237 290 346
#
# _framework density 20.479669999999999
#
# number of rings (size 3 to 8) (size 9 to 14) (size 15 to 20)
#    0.000    1.667    0.000    5.500    0.000    8.667 
#    0.000    5.000    0.000    0.000    0.000    0.000 
#    0.000    0.000    0.000    0.000    0.000    0.000 
#
# Total GULP energy -297728.612865 kJ/mol
# GULP energy per Si atom -12405.358869 kJ/mol
# Density = 2.043306 g / cm^3
# Si number density = 20.479670 Si / 1000 Ang^3
#
#
#
# Elastic Constant Matrix: (Units=GPa)
#
#
# Indices 1 2 3 4 5 6 
#
# 1 43.6574 13.7834 17.6847 0.0000 0.0000 0.0000
# 2 13.7834 111.5567 53.3811 0.0000 0.0000 0.0000
# 3 17.6847 53.3811 126.4927 0.0000 0.0000 0.0000
# 4 0.0000 0.0000 0.0000 41.8312 0.0000 0.0000
# 5 0.0000 0.0000 0.0000 0.0000 30.4924 0.0000
# 6 0.0000 0.0000 0.0000 0.0000 0.0000 34.8518
#
#
#
# Elastic Compliance Matrix: (Units=1/GPa)
#
#
# Indices 1 2 3 4 5 6 
#
# 1 0.024548 -0.001743 -0.002697 0.000000 0.000000 0.000000
# 2 -0.001743 0.011356 -0.004549 0.000000 0.000000 0.000000
# 3 -0.002697 -0.004549 0.010202 0.000000 0.000000 0.000000
# 4 0.000000 0.000000 0.000000 0.023906 0.000000 0.000000
# 5 0.000000 0.000000 0.000000 0.000000 0.032795 0.000000
# 6 0.000000 0.000000 0.000000 0.000000 0.000000 0.028693
#
#
# Mechanical properties :
#
#
# Convention : Reuss Voigt Hill
#
# Bulk Modulus (GPa) = 35.54877 50.15613 42.85245
# Shear Modulus (GPa) = 31.47570 34.55891 33.01730
#
# Velocity S-wave (km/s) = 3.92462 4.11234 4.01958
# Velocity P-wave (km/s) = 6.15894 6.86239 6.52016
#
# Compressibility (1/GPa) = 0.02813037
#
# Stress axis : x y z
#
# Youngs Moduli (GPa) = 40.73622 88.05942 98.01816
#
# Poissons Ratio (x) = 0.15346 0.26432
# Poissons Ratio (y) = 0.07099 0.44585
# Poissons Ratio (z) = 0.10985 0.40055
#
# Static dielectric constant tensor:
#      x y z
#    x 3.475040 0.000000 0.000000 
#    y 0.000000 3.786850 0.000000 
#    z 0.000000 0.000000 3.827690 
# 
# 
# High freq. dielectric constant tensor:
#      x y z
#    x 1.790350 0.000000 0.000000 
#    y 0.000000 1.812820 0.000000 
#    z 0.000000 0.000000 1.807830 
# 
# From -- ./inp_files/3749.got.cif
#   From: 2010.03.12/outbox.cif.g09.slc.cpg/sg38_2_cif.got.tgz:3749.got - 2010.04.14 02:38:36.
