data_PCOD8180773
_publ_section_title
;
Structure prediction by ZEFSAII (Michael W. Deem and Ramdas Pophale) SiO2 
 PCOD8180773
Probable space group: A B M 2
;
_chemical_formula_sum "Si O2"
_cell_formula_units_Z 56
_cell_length_a 14.618844
_cell_length_b 8.805976
_cell_length_c 20.863207
_cell_angle_alpha 90.000000
_cell_angle_beta 90.000000
_cell_angle_gamma 90.000000
_cell_volume 2685.787178
_symmetry_space_group_name_H-M "A B M 2"
_symmetry_group_IT_number 39
_symmetry_cell_setting 'orthorhombic'
loop_
_space_group_symop_operation_xyz
x,y,z
-x,-y,z
-x,1/2+y,z
x,1/2-y,z
x,1/2+y,1/2+z
-x,1/2-y,1/2+z
-x,y,1/2+z
x,-y,1/2+z
loop_
_atom_site_type_symbol
_atom_site_label
_atom_site_fract_x
_atom_site_fract_y
_atom_site_fract_z
Si Si1 0.401006 0.070875 0.260500
Si Si2 0.784051 0.920825 0.953341
Si Si3 0.766361 0.427675 0.312114
Si Si4 0.903692 0.572593 0.558078
Si Si5 0.595197 0.576287 0.006130
Si Si6 0.600426 0.569261 0.632177
Si Si7 0.097141 0.429139 0.702265
O O1 0.413097 0.250000 0.254857
O O2 0.500000 0.000000 0.275569
O O3 0.328111 0.023432 0.314193
O O4 0.354806 0.000854 0.195782
O O5 0.812216 0.750000 0.972663
O O6 0.815653 0.957663 0.880671
O O7 0.672989 0.935523 0.952107
O O8 0.829465 0.030937 0.004775
O O9 0.743357 0.250000 0.303667
O O10 0.830940 0.488907 0.254979
O O11 0.918333 0.750000 0.556814
O O12 0.871745 0.522746 0.629999
O O13 0.000000 0.500000 0.539459
O O14 0.500000 0.500000 0.983133
O O15 0.572284 0.750000 0.024457
O O16 0.644229 0.490690 0.066390
O O17 0.500000 0.500000 0.629486
O O18 0.603598 0.750000 0.636127
O O19 0.087733 0.250000 0.707913
O O20 0.000000 0.500000 0.719272
#
# Coordination Sequence:
#
# PCOD8180773 Si02
#       7
#     8   8   8   8   8   8   8
#     4  11  22  37  57  84 117 158 203 249 299 352
#     4  10  23  40  59  86 123 162 199 247 299 354
#     4  10  22  41  60  86 123 161 202 245 298 354
#     4  10  21  39  64  92 119 152 195 244 301 362
#     4  10  20  35  54  81 115 156 201 246 298 349
#     4  10  18  31  52  78 108 144 189 243 296 346
#     4   9  20  39  64  91 118 151 192 242 297 355
#
# _framework density 20.850498000000002
#
# number of rings (size 3 to 8) (size 9 to 14) (size 15 to 20)
#    0.000    2.000    0.000    5.143    2.000    4.000 
#    0.000    2.857    0.000    0.000    0.000    0.000 
#    0.000    0.000    0.000    0.000    0.000    0.000 
#
# Total GULP energy -347072.574425 kJ/mol
# GULP energy per Si atom -12395.449087 kJ/mol
# Density = 2.080304 g / cm^3
# Si number density = 20.850498 Si / 1000 Ang^3
#
#
#
# Elastic Constant Matrix: (Units=GPa)
#
#
# Indices 1 2 3 4 5 6 
#
# 1 97.6222 38.0733 58.6129 0.0000 0.0000 0.0000
# 2 38.0733 114.9883 38.8088 0.0000 0.0000 0.0000
# 3 58.6129 38.8088 109.5510 0.0000 0.0000 0.0000
# 4 0.0000 0.0000 0.0000 24.7460 0.0000 0.0000
# 5 0.0000 0.0000 0.0000 0.0000 24.9907 0.0000
# 6 0.0000 0.0000 0.0000 0.0000 0.0000 33.0628
#
#
#
# Elastic Compliance Matrix: (Units=1/GPa)
#
#
# Indices 1 2 3 4 5 6 
#
# 1 0.015797 -0.002701 -0.007495 0.000000 0.000000 0.000000
# 2 -0.002701 0.010339 -0.002218 0.000000 0.000000 0.000000
# 3 -0.007495 -0.002218 0.013924 0.000000 0.000000 0.000000
# 4 0.000000 0.000000 0.000000 0.040411 0.000000 0.000000
# 5 0.000000 0.000000 0.000000 0.000000 0.040015 0.000000
# 6 0.000000 0.000000 0.000000 0.000000 0.000000 0.030246
#
#
# Mechanical properties :
#
#
# Convention : Reuss Voigt Hill
#
# Bulk Modulus (GPa) = 65.64728 65.90572 65.77650
# Shear Modulus (GPa) = 27.67999 29.00433 28.34216
#
# Velocity S-wave (km/s) = 3.64750 3.73374 3.69087
# Velocity P-wave (km/s) = 7.02084 7.08979 7.05540
#
# Compressibility (1/GPa) = 0.01523292
#
# Stress axis : x y z
#
# Youngs Moduli (GPa) = 63.30317 96.71845 71.81921
#
# Poissons Ratio (x) = 0.26123 0.53829
# Poissons Ratio (y) = 0.17097 0.15927
# Poissons Ratio (z) = 0.47446 0.21449
#
# Static dielectric constant tensor:
#      x y z
#    x 3.590430 0.000000 0.000000 
#    y 0.000000 3.698950 0.000000 
#    z 0.000000 0.000000 4.393180 
# 
# 
# High freq. dielectric constant tensor:
#      x y z
#    x 1.803810 0.000000 0.000000 
#    y 0.000000 1.814990 0.000000 
#    z 0.000000 0.000000 1.819310 
# 
# From -- ./inp_files/14747.got.cif
#   From: 2010.03.12/outbox.cif.g09.slc.cpg/sg39_8_cif.got.tgz:14747.got - 2010.04.14 02:53:20.
