data_PCOD8180387
_publ_section_title
;
Structure prediction by ZEFSAII (Michael W. Deem and Ramdas Pophale) SiO2 
 PCOD8180387
Probable space group: A M M 2
;
_chemical_formula_sum "Si O2"
_cell_formula_units_Z 32
_cell_length_a 11.936193
_cell_length_b 7.507629
_cell_length_c 17.614829
_cell_angle_alpha 90.000000
_cell_angle_beta 90.000000
_cell_angle_gamma 90.000000
_cell_volume 1578.509017
_symmetry_space_group_name_H-M "A M M 2"
_symmetry_group_IT_number 38
_symmetry_cell_setting 'orthorhombic'
loop_
_space_group_symop_operation_xyz
x,y,z
-x,-y,z
-x,y,z
x,-y,z
x,1/2+y,1/2+z
-x,1/2-y,1/2+z
-x,1/2+y,1/2+z
x,1/2-y,1/2+z
loop_
_atom_site_type_symbol
_atom_site_label
_atom_site_fract_x
_atom_site_fract_y
_atom_site_fract_z
Si Si1 0.000000 0.790965 0.920550
Si Si2 0.631191 0.000000 0.406507
Si Si3 0.631889 0.500000 0.082623
Si Si4 0.227951 0.201316 0.162132
Si Si5 0.776946 0.203906 0.835219
Si Si6 0.000000 0.299717 0.090486
O O1 0.107871 0.730971 0.872941
O O2 0.000000 0.689694 0.999830
O O3 0.000000 0.000000 0.936147
O O4 0.664108 0.000000 0.494526
O O5 0.676757 0.177237 0.366827
O O6 0.500000 0.000000 0.394114
O O7 0.500000 0.500000 0.097125
O O8 0.682332 0.677819 0.118948
O O9 0.209844 0.276364 0.245715
O O10 0.109762 0.199031 0.119141
O O11 0.274812 0.000000 0.163968
O O12 0.749761 0.000000 0.856098
O O13 0.000000 0.500000 0.123075
#
# Coordination Sequence:
#
# PCOD8180387 Si02
#       6
#     4   4   4   8   8   4
#     4  10  23  38  63  99 133 170 216 263 326 400
#     4  11  26  45  67  97 129 173 226 270 324 388
#     4  11  26  47  69  97 133 173 226 278 324 386
#     4  12  24  43  68 100 134 176 219 271 330 393
#     4  11  23  43  67  99 133 172 216 272 327 389
#     4  12  23  38  65  98 138 175 212 266 331 398
#
# _framework density 20.272296000000001
#
# number of rings (size 3 to 8) (size 9 to 14) (size 15 to 20)
#    0.000    0.750    3.750    3.375    1.750    6.000 
#    0.000    2.500    0.000    0.000    0.000    0.000 
#    0.000    0.000    0.000    0.000    0.000    0.000 
#
# Total GULP energy -198515.478468 kJ/mol
# GULP energy per Si atom -12407.217404 kJ/mol
# Density = 2.022615 g / cm^3
# Si number density = 20.272296 Si / 1000 Ang^3
#
#
#
# Elastic Constant Matrix: (Units=GPa)
#
#
# Indices 1 2 3 4 5 6 
#
# 1 107.5793 41.1326 66.7718 0.0000 0.0000 0.0000
# 2 41.1326 122.7632 28.9963 0.0000 0.0000 0.0000
# 3 66.7718 28.9963 148.4779 0.0000 0.0000 0.0000
# 4 0.0000 0.0000 0.0000 17.4207 0.0000 0.0000
# 5 0.0000 0.0000 0.0000 0.0000 -3.7448 0.0000
# 6 0.0000 0.0000 0.0000 0.0000 0.0000 -5.8308
#
#
#
# Elastic Compliance Matrix: (Units=1/GPa)
#
#
# Indices 1 2 3 4 5 6 
#
# 1 0.014122 -0.003388 -0.005689 0.000000 0.000000 0.000000
# 2 -0.003388 0.009352 -0.000303 0.000000 0.000000 0.000000
# 3 -0.005689 -0.000303 0.009353 0.000000 0.000000 0.000000
# 4 0.000000 0.000000 0.000000 0.057403 0.000000 0.000000
# 5 0.000000 0.000000 0.000000 0.000000 -0.267035 0.000000
# 6 0.000000 0.000000 0.000000 0.000000 0.000000 -0.171504
#
#
# Mechanical properties :
#
#
# Convention : Reuss Voigt Hill
#
# Bulk Modulus (GPa) = 71.08747 72.51354 71.80050
# Shear Modulus (GPa) = -15.39123 17.69701 1.15289
#
# Velocity S-wave (km/s) = -2.75839 2.95780 0.75494
# Velocity P-wave (km/s) = 4.99975 6.89291 6.02120
#
# Compressibility (1/GPa) = 0.01406718
#
# Stress axis : x y z
#
# Youngs Moduli (GPa) = 70.81198 106.92409 106.92209
#
# Poissons Ratio (x) = 0.36225 0.60829
# Poissons Ratio (y) = 0.23990 0.03239
# Poissons Ratio (z) = 0.40286 0.03239
#
# Static dielectric constant tensor:
#      x y z
#    x 3.591230 0.000000 0.000000 
#    y 0.000000 3.777490 0.000000 
#    z 0.000000 0.000000 3.821240 
# 
# 
# High freq. dielectric constant tensor:
#      x y z
#    x 1.786940 0.000000 0.000000 
#    y 0.000000 1.808260 0.000000 
#    z 0.000000 0.000000 1.809200 
# 
# From -- ./inp_files/13340.got.cif
#   From: 2010.03.12/outbox.cif.g09.slc.cpg/sg38_7_cif.got.tgz:13340.got - 2010.04.14 02:38:36.
