data_PCOD8180477
_publ_section_title
;
Structure prediction by ZEFSAII (Michael W. Deem and Ramdas Pophale) SiO2 
 PCOD8180477
Probable space group: A M M 2
;
_chemical_formula_sum "Si O2"
_cell_formula_units_Z 64
_cell_length_a 23.645256
_cell_length_b 9.039480
_cell_length_c 15.592737
_cell_angle_alpha 90.000000
_cell_angle_beta 90.000000
_cell_angle_gamma 90.000000
_cell_volume 3332.804372
_symmetry_space_group_name_H-M "A M M 2"
_symmetry_group_IT_number 38
_symmetry_cell_setting 'orthorhombic'
loop_
_space_group_symop_operation_xyz
x,y,z
-x,-y,z
-x,y,z
x,-y,z
x,1/2+y,1/2+z
-x,1/2-y,1/2+z
-x,1/2+y,1/2+z
x,1/2-y,1/2+z
loop_
_atom_site_type_symbol
_atom_site_label
_atom_site_fract_x
_atom_site_fract_y
_atom_site_fract_z
Si Si1 0.934965 0.173789 0.033210
Si Si2 0.866467 0.176291 0.869794
Si Si3 0.065035 0.326211 0.206378
Si Si4 0.738899 0.175755 0.869794
Si Si5 0.435975 0.170007 0.269777
Si Si6 0.564025 0.670007 0.969811
Si Si7 0.670093 0.674944 0.534282
Si Si8 0.670093 0.825056 0.705306
O O1 0.912852 0.250000 0.119794
O O2 0.000000 0.215341 0.015017
O O3 0.926905 0.000000 0.044358
O O4 0.898252 0.235979 0.954233
O O5 0.898252 0.235979 0.785356
O O6 0.802646 0.237792 0.869794
O O7 0.867956 0.000000 0.869794
O O8 0.073095 0.500000 0.195230
O O9 0.000000 0.284659 0.224572
O O10 0.706912 0.234140 0.785291
O O11 0.738926 0.000000 0.869794
O O12 0.706912 0.234141 0.954297
O O13 0.500000 0.203311 0.240388
O O14 0.429241 0.204835 0.369794
O O15 0.394954 0.276895 0.217000
O O16 0.420127 0.000000 0.250567
O O17 0.500000 0.703311 0.999200
O O18 0.579873 0.500000 0.989021
O O19 0.605046 0.776895 0.022588
O O20 0.673469 0.500000 0.543668
O O21 0.695151 0.750000 0.619794
O O22 0.673469 0.000000 0.695920
#
# Coordination Sequence:
#
# PCOD8180477 Si02
#       8
#     8   8   8   8   8   8   8   8
#     4   9  17  30  51  79 108 138 173 213 259 310
#     4   9  17  32  54  75 101 140 180 217 256 308
#     4   9  17  30  51  79 108 138 173 213 259 310
#     4   9  20  37  54  75 104 137 178 223 264 306
#     4   9  18  34  57  83 109 136 168 211 264 318
#     4   9  18  34  57  83 109 136 168 211 264 318
#     4  11  22  37  56  79 105 138 178 219 264 316
#     4  11  22  37  56  79 105 138 178 219 264 316
#
# _framework density 19.203047999999999
#
# number of rings (size 3 to 8) (size 9 to 14) (size 15 to 20)
#    0.000    2.500    1.250    1.875    0.000    3.500 
#    0.000    1.875    0.000    7.500    0.000    0.000 
#    0.000    0.000    0.000    0.000    0.000    0.000 
#
# Total GULP energy -396845.040978 kJ/mol
# GULP energy per Si atom -12401.407531 kJ/mol
# Density = 1.915934 g / cm^3
# Si number density = 19.203048 Si / 1000 Ang^3
#
#
#
# Elastic Constant Matrix: (Units=GPa)
#
#
# Indices 1 2 3 4 5 6 
#
# 1 120.1202 29.2500 83.9623 0.0000 0.0000 0.0000
# 2 29.2500 46.0499 43.1471 0.0000 0.0000 0.0000
# 3 83.9623 43.1471 174.4873 0.0000 0.0000 0.0000
# 4 0.0000 0.0000 0.0000 31.5573 0.0000 0.0000
# 5 0.0000 0.0000 0.0000 0.0000 15.6827 0.0000
# 6 0.0000 0.0000 0.0000 0.0000 0.0000 16.2309
#
#
#
# Elastic Compliance Matrix: (Units=1/GPa)
#
#
# Indices 1 2 3 4 5 6 
#
# 1 0.012873 -0.003088 -0.005431 0.000000 0.000000 0.000000
# 2 -0.003088 0.029005 -0.005686 0.000000 0.000000 0.000000
# 3 -0.005431 -0.005686 0.009750 0.000000 0.000000 0.000000
# 4 0.000000 0.000000 0.000000 0.031688 0.000000 0.000000
# 5 0.000000 0.000000 0.000000 0.000000 0.063765 0.000000
# 6 0.000000 0.000000 0.000000 0.000000 0.000000 0.061611
#
#
# Mechanical properties :
#
#
# Convention : Reuss Voigt Hill
#
# Bulk Modulus (GPa) = 43.07034 72.59738 57.83386
# Shear Modulus (GPa) = 20.42129 24.98070 22.70100
#
# Velocity S-wave (km/s) = 3.26458 3.61067 3.44198
# Velocity P-wave (km/s) = 6.05703 7.43437 6.78076
#
# Compressibility (1/GPa) = 0.02321783
#
# Stress axis : x y z
#
# Youngs Moduli (GPa) = 77.68172 34.47678 102.55957
#
# Poissons Ratio (x) = 0.10647 0.55698
# Poissons Ratio (y) = 0.23990 0.58318
# Poissons Ratio (z) = 0.42187 0.19604
#
# Static dielectric constant tensor:
#      x y z
#    x 3.562920 0.000000 0.000000 
#    y 0.000000 3.149420 0.000000 
#    z 0.000000 0.000000 3.691680 
# 
# 
# High freq. dielectric constant tensor:
#      x y z
#    x 1.741820 0.000000 0.000000 
#    y 0.000000 1.715250 0.000000 
#    z 0.000000 0.000000 1.758550 
# 
# From -- ./inp_files/15891.got.cif
#   From: 2010.03.12/outbox.cif.g09.slc.cpg/sg38_8_cif.got.tgz:15891.got - 2010.04.14 02:38:36.
