data_PCOD8180532
_publ_section_title
;
Structure prediction by ZEFSAII (Michael W. Deem and Ramdas Pophale) SiO2 
 PCOD8180532
Probable space group: A M M 2
;
_chemical_formula_sum "Si O2"
_cell_formula_units_Z 48
_cell_length_a 7.538329
_cell_length_b 9.483712
_cell_length_c 34.864852
_cell_angle_alpha 90.000000
_cell_angle_beta 90.000000
_cell_angle_gamma 90.000000
_cell_volume 2492.535030
_symmetry_space_group_name_H-M "A M M 2"
_symmetry_group_IT_number 38
_symmetry_cell_setting 'orthorhombic'
loop_
_space_group_symop_operation_xyz
x,y,z
-x,-y,z
-x,y,z
x,-y,z
x,1/2+y,1/2+z
-x,1/2-y,1/2+z
-x,1/2+y,1/2+z
x,1/2-y,1/2+z
loop_
_atom_site_type_symbol
_atom_site_label
_atom_site_fract_x
_atom_site_fract_y
_atom_site_fract_z
Si Si1 0.710659 0.841482 0.153250
Si Si2 0.296694 0.165425 0.927859
Si Si3 0.000000 0.332821 0.370089
Si Si4 0.704231 0.835458 0.726637
Si Si5 0.289656 0.842681 0.499135
Si Si6 0.288943 0.158692 0.583788
Si Si7 0.000000 0.666266 0.285061
O O1 0.500000 0.844729 0.151032
O O2 0.770846 0.753598 0.190308
O O3 0.789952 0.765407 0.115433
O O4 0.787618 0.000000 0.155636
O O5 0.500000 0.208653 0.919068
O O6 0.220427 0.237907 0.966339
O O7 0.177103 0.217148 0.892289
O O8 0.278264 0.000000 0.934714
O O9 0.000000 0.264690 0.327519
O O10 0.000000 0.500000 0.367120
O O11 0.500000 0.803582 0.737009
O O12 0.822755 0.786546 0.762631
O O13 0.732341 0.000000 0.716894
O O14 0.500000 0.841916 0.499438
O O15 0.222225 0.794531 0.541355
O O16 0.219411 0.000000 0.490211
O O17 0.500000 0.161432 0.585431
O O18 0.222483 0.000000 0.592670
O O19 0.000000 0.500000 0.289570
#
# Coordination Sequence:
#
# PCOD8180532 Si02
#       7
#     8   8   4   8   8   8   4
#     4   9  16  25  40  65  96 128 159 192 232 276
#     4   9  17  29  47  70  95 125 157 189 231 280
#     4   9  18  32  49  72  99 120 147 194 241 279
#     4   9  17  30  49  71  94 122 156 193 232 275
#     4   8  14  25  42  65  94 127 160 195 233 270
#     4   8  13  22  38  62  92 125 161 198 232 268
#     4   9  18  32  51  74  95 118 153 194 235 281
#
# _framework density 19.257503
#
# number of rings (size 3 to 8) (size 9 to 14) (size 15 to 20)
#    0.000    3.333    0.000    1.500    0.000    3.333 
#    0.000    7.500    0.000    3.000    0.000    5.833 
#    0.000    0.000    0.000    0.000    0.000    0.000 
#
# Total GULP energy -297453.276210 kJ/mol
# GULP energy per Si atom -12393.886509 kJ/mol
# Density = 1.921367 g / cm^3
# Si number density = 19.257503 Si / 1000 Ang^3
#
#
#
# Elastic Constant Matrix: (Units=GPa)
#
#
# Indices 1 2 3 4 5 6 
#
# 1 68.0566 25.3634 57.7048 0.0000 0.0000 0.0000
# 2 25.3634 78.7138 75.8602 0.0000 0.0000 0.0000
# 3 57.7048 75.8602 205.3264 0.0000 0.0000 0.0000
# 4 0.0000 0.0000 0.0000 24.7940 0.0000 0.0000
# 5 0.0000 0.0000 0.0000 0.0000 -24.2458 0.0000
# 6 0.0000 0.0000 0.0000 0.0000 0.0000 3.5020
#
#
#
# Elastic Compliance Matrix: (Units=1/GPa)
#
#
# Indices 1 2 3 4 5 6 
#
# 1 0.019411 -0.001549 -0.004883 0.000000 0.000000 0.000000
# 2 -0.001549 0.019853 -0.006900 0.000000 0.000000 0.000000
# 3 -0.004883 -0.006900 0.008792 0.000000 0.000000 0.000000
# 4 0.000000 0.000000 0.000000 0.040332 0.000000 0.000000
# 5 0.000000 0.000000 0.000000 0.000000 -0.041244 0.000000
# 6 0.000000 0.000000 0.000000 0.000000 0.000000 0.285550
#
#
# Mechanical properties :
#
#
# Convention : Reuss Voigt Hill
#
# Bulk Modulus (GPa) = 46.74429 74.43929 60.59179
# Shear Modulus (GPa) = 13.64303 13.68792 13.66547
#
# Velocity S-wave (km/s) = 2.66457 2.66894 2.66676
# Velocity P-wave (km/s) = 5.81313 6.94524 6.40425
#
# Compressibility (1/GPa) = 0.02139299
#
# Stress axis : x y z
#
# Youngs Moduli (GPa) = 51.51663 50.37093 113.74243
#
# Poissons Ratio (x) = 0.07800 0.55542
# Poissons Ratio (y) = 0.07978 0.78478
# Poissons Ratio (z) = 0.25156 0.34754
#
# Static dielectric constant tensor:
#      x y z
#    x 3.258350 0.000000 0.000000 
#    y 0.000000 3.466710 0.000000 
#    z 0.000000 0.000000 3.895790 
# 
# 
# High freq. dielectric constant tensor:
#      x y z
#    x 1.731510 0.000000 0.000000 
#    y 0.000000 1.720080 0.000000 
#    z 0.000000 0.000000 1.749930 
# 
# From -- ./inp_files/24397.got.cif
#   From: 2010.03.12/outbox.cif.g09.slc.cpg/sg38_13_cif.got.tgz:24397.got - 2010.04.14 02:38:36.
