data_PCOD8180225
_publ_section_title
;
Structure prediction by ZEFSAII (Michael W. Deem and Ramdas Pophale) SiO2 
 PCOD8180225
Probable space group: A M M 2
;
_chemical_formula_sum "Si O2"
_cell_formula_units_Z 64
_cell_length_a 8.991985
_cell_length_b 30.695588
_cell_length_c 11.944995
_cell_angle_alpha 90.000000
_cell_angle_beta 90.000000
_cell_angle_gamma 90.000000
_cell_volume 3296.989038
_symmetry_space_group_name_H-M "A M M 2"
_symmetry_group_IT_number 38
_symmetry_cell_setting 'orthorhombic'
loop_
_space_group_symop_operation_xyz
x,y,z
-x,-y,z
-x,y,z
x,-y,z
x,1/2+y,1/2+z
-x,1/2-y,1/2+z
-x,1/2+y,1/2+z
x,1/2-y,1/2+z
loop_
_atom_site_type_symbol
_atom_site_label
_atom_site_fract_x
_atom_site_fract_y
_atom_site_fract_z
Si Si1 0.168433 0.333373 0.461680
Si Si2 0.673444 0.202869 0.748512
Si Si3 0.676623 0.451535 0.232592
Si Si4 0.325608 0.373608 0.079386
Si Si5 0.170510 0.548410 0.690515
Si Si6 0.323926 0.422907 0.474985
Si Si7 0.831971 0.289677 0.694814
Si Si8 0.174915 0.372802 0.841009
O O1 0.229854 0.308139 0.355683
O O2 0.271618 0.373791 0.491427
O O3 0.173271 0.300440 0.564497
O O4 0.000000 0.349191 0.439214
O O5 0.500000 0.200151 0.779174
O O6 0.713122 0.169378 0.649829
O O7 0.715131 0.251287 0.712135
O O8 0.500000 0.448494 0.235452
O O9 0.729698 0.500000 0.196897
O O10 0.738491 0.416029 0.144717
O O11 0.737097 0.441036 0.356754
O O12 0.500000 0.378469 0.060176
O O13 0.249321 0.369289 0.960707
O O14 0.184839 0.500000 0.743377
O O15 0.260512 0.548132 0.575008
O O16 0.234251 0.583762 0.778091
O O17 0.000000 0.560250 0.662551
O O18 0.500000 0.424907 0.479153
O O19 0.780245 0.330954 0.768018
O O20 0.000000 0.275679 0.728810
O O21 0.000000 0.375808 0.858738
#
# Coordination Sequence:
#
# PCOD8180225 Si02
#       8
#     8   8   8   8   8   8   8   8
#     4  11  22  40  65  90 120 157 199 242 296 357
#     4  11  24  41  61  90 123 153 193 245 301 351
#     4   9  18  35  58  83 116 154 188 232 291 348
#     4  10  22  40  58  84 118 154 195 242 294 349
#     4  10  21  39  61  86 120 159 197 244 302 358
#     4  11  20  35  60  91 124 154 195 245 298 352
#     4  10  23  42  62  86 117 156 199 241 291 352
#     4  10  22  41  60  83 116 156 199 243 292 350
#
# _framework density 19.411650999999999
#
# number of rings (size 3 to 8) (size 9 to 14) (size 15 to 20)
#    0.000    1.750    2.500    1.500    1.750    4.250 
#    0.000    0.000    0.000    1.500    0.000    0.000 
#    0.000    0.000    0.000    0.000    0.000    0.000 
#
# Total GULP energy -396875.407626 kJ/mol
# GULP energy per Si atom -12402.356488 kJ/mol
# Density = 1.936747 g / cm^3
# Si number density = 19.411651 Si / 1000 Ang^3
#
#
#
# Elastic Constant Matrix: (Units=GPa)
#
#
# Indices 1 2 3 4 5 6 
#
# 1 47.0179 31.4874 45.6765 0.0000 0.0000 0.0000
# 2 31.4874 133.8798 56.4107 0.0000 0.0000 0.0000
# 3 45.6765 56.4107 143.8588 0.0000 0.0000 0.0000
# 4 0.0000 0.0000 0.0000 -22.0705 0.0000 0.0000
# 5 0.0000 0.0000 0.0000 0.0000 33.5775 0.0000
# 6 0.0000 0.0000 0.0000 0.0000 0.0000 54.4400
#
#
#
# Elastic Compliance Matrix: (Units=1/GPa)
#
#
# Indices 1 2 3 4 5 6 
#
# 1 0.032398 -0.003936 -0.008743 0.000000 0.000000 0.000000
# 2 -0.003936 0.009426 -0.002447 0.000000 0.000000 0.000000
# 3 -0.008743 -0.002447 0.010687 0.000000 0.000000 0.000000
# 4 0.000000 0.000000 0.000000 -0.045309 0.000000 0.000000
# 5 0.000000 0.000000 0.000000 0.000000 0.029782 0.000000
# 6 0.000000 0.000000 0.000000 0.000000 0.000000 0.018369
#
#
# Mechanical properties :
#
#
# Convention : Reuss Voigt Hill
#
# Bulk Modulus (GPa) = 44.92467 65.76729 55.34598
# Shear Modulus (GPa) = 53.74997 25.93484 39.84241
#
# Velocity S-wave (km/s) = 5.26779 3.65916 4.53537
# Velocity P-wave (km/s) = 7.75841 7.19767 7.48329
#
# Compressibility (1/GPa) = 0.02225948
#
# Stress axis : x y z
#
# Youngs Moduli (GPa) = 30.86596 106.09101 93.57410
#
# Poissons Ratio (x) = 0.41754 0.81816
# Poissons Ratio (y) = 0.12148 0.22893
# Poissons Ratio (z) = 0.26987 0.25955
#
# Static dielectric constant tensor:
#      x y z
#    x 3.433640 0.000000 0.000000 
#    y 0.000000 4.154650 0.000000 
#    z 0.000000 0.000000 3.628990 
# 
# 
# High freq. dielectric constant tensor:
#      x y z
#    x 1.741010 0.000000 0.000000 
#    y 0.000000 1.768770 0.000000 
#    z 0.000000 0.000000 1.759350 
# 
# From -- ./inp_files/8531.got.cif
#   From: 2010.03.12/outbox.cif.g09.slc.cpg/sg38_5_cif.got.tgz:8531.got - 2010.04.14 02:38:36.
