data_PCOD8180674
_publ_section_title
;
Structure prediction by ZEFSAII (Michael W. Deem and Ramdas Pophale) SiO2 
 PCOD8180674
Probable space group: A B M 2
;
_chemical_formula_sum "Si O2"
_cell_formula_units_Z 48
_cell_length_a 9.823575
_cell_length_b 8.558757
_cell_length_c 30.848205
_cell_angle_alpha 90.000000
_cell_angle_beta 90.000000
_cell_angle_gamma 90.000000
_cell_volume 2593.642772
_symmetry_space_group_name_H-M "A B M 2"
_symmetry_group_IT_number 39
_symmetry_cell_setting 'orthorhombic'
loop_
_space_group_symop_operation_xyz
x,y,z
-x,-y,z
-x,1/2+y,z
x,1/2-y,z
x,1/2+y,1/2+z
-x,1/2-y,1/2+z
-x,y,1/2+z
x,-y,1/2+z
loop_
_atom_site_type_symbol
_atom_site_label
_atom_site_fract_x
_atom_site_fract_y
_atom_site_fract_z
Si Si1 0.849191 0.431973 0.430190
Si Si2 0.852008 0.070136 0.525894
Si Si3 0.353475 0.565401 0.269502
Si Si4 0.151684 0.066307 0.610944
Si Si5 0.643437 0.066386 0.862841
Si Si6 0.848525 0.934404 0.199275
O O1 0.851582 0.250000 0.417057
O O2 0.783685 0.451980 0.478568
O O3 0.757097 0.530895 0.398059
O O4 0.000000 0.500000 0.427175
O O5 0.863292 0.250000 0.538952
O O6 0.772873 0.982756 0.565711
O O7 0.000000 0.000000 0.520280
O O8 0.500000 0.500000 0.255546
O O9 0.355830 0.750000 0.265860
O O10 0.315112 0.515267 0.318011
O O11 0.239564 0.497330 0.238460
O O12 0.152240 0.250000 0.616981
O O13 0.219243 0.990116 0.653682
O O14 0.000000 0.000000 0.606694
O O15 0.630339 0.250000 0.854856
O O16 0.500000 0.000000 0.879828
O O17 0.853748 0.750000 0.200792
O O18 0.000000 0.000000 0.203786
#
# Coordination Sequence:
#
# PCOD8180674 Si02
#       6
#     8   8   8   8   8   8
#     4  10  20  34  53  80 110 140 176 219 265 310
#     4   9  16  27  45  70 102 137 172 211 256 306
#     4  11  22  39  59  80 105 137 176 215 260 315
#     4  10  17  27  45  71 103 138 174 212 257 308
#     4  11  22  38  58  79 104 138 177 216 261 314
#     4  11  21  35  54  80 110 140 176 219 265 309
#
# _framework density 18.506789000000001
#
# number of rings (size 3 to 8) (size 9 to 14) (size 15 to 20)
#    0.000    1.667    0.000   10.000    0.000    2.667 
#    0.000    3.333    0.000    1.000    0.000    2.333 
#    0.000    0.000    0.000    0.000    0.000    0.000 
#
# Total GULP energy -297504.287063 kJ/mol
# GULP energy per Si atom -12396.011961 kJ/mol
# Density = 1.846467 g / cm^3
# Si number density = 18.506789 Si / 1000 Ang^3
#
#
#
# Elastic Constant Matrix: (Units=GPa)
#
#
# Indices 1 2 3 4 5 6 
#
# 1 61.1096 34.0758 58.6092 0.0000 0.0000 0.0000
# 2 34.0758 172.2868 51.0750 0.0000 0.0000 0.0000
# 3 58.6092 51.0750 121.0762 0.0000 0.0000 0.0000
# 4 0.0000 0.0000 0.0000 13.8089 0.0000 0.0000
# 5 0.0000 0.0000 0.0000 0.0000 -6.7748 0.0000
# 6 0.0000 0.0000 0.0000 0.0000 0.0000 25.5919
#
#
#
# Elastic Compliance Matrix: (Units=1/GPa)
#
#
# Indices 1 2 3 4 5 6 
#
# 1 0.031096 -0.001929 -0.014239 0.000000 0.000000 0.000000
# 2 -0.001929 0.006754 -0.001915 0.000000 0.000000 0.000000
# 3 -0.014239 -0.001915 0.015960 0.000000 0.000000 0.000000
# 4 0.000000 0.000000 0.000000 0.072417 0.000000 0.000000
# 5 0.000000 0.000000 0.000000 0.000000 -0.147606 0.000000
# 6 0.000000 0.000000 0.000000 0.000000 0.000000 0.039075
#
#
# Mechanical properties :
#
#
# Convention : Reuss Voigt Hill
#
# Bulk Modulus (GPa) = 56.67932 71.33251 64.00591
# Shear Modulus (GPa) = 83.69348 20.57272 52.13310
#
# Velocity S-wave (km/s) = 6.73211 3.33773 5.31327
# Velocity P-wave (km/s) = 9.54574 7.31311 8.50302
#
# Compressibility (1/GPa) = 0.01764312
#
# Stress axis : x y z
#
# Youngs Moduli (GPa) = 32.15853 148.06986 62.65797
#
# Poissons Ratio (x) = 0.28565 0.89217
# Poissons Ratio (y) = 0.06204 0.11999
# Poissons Ratio (z) = 0.45790 0.28357
#
# Static dielectric constant tensor:
#      x y z
#    x 2.971200 0.000000 0.000000 
#    y 0.000000 3.716700 0.000000 
#    z 0.000000 0.000000 4.217070 
# 
# 
# High freq. dielectric constant tensor:
#      x y z
#    x 1.664070 0.000000 0.000000 
#    y 0.000000 1.745020 0.000000 
#    z 0.000000 0.000000 1.743400 
# 
# From -- ./inp_files/16913.got.cif
#   From: 2010.03.12/outbox.cif.g09.slc.cpg/sg39_9_cif.got.tgz:16913.got - 2010.04.14 02:53:20.
