data_PCOD8180323
_publ_section_title
;
Structure prediction by ZEFSAII (Michael W. Deem and Ramdas Pophale) SiO2 
 PCOD8180323
Probable space group: A M M 2
;
_chemical_formula_sum "Si O2"
_cell_formula_units_Z 56
_cell_length_a 9.107889
_cell_length_b 16.564263
_cell_length_c 19.561165
_cell_angle_alpha 90.000000
_cell_angle_beta 90.000000
_cell_angle_gamma 90.000000
_cell_volume 2951.104327
_symmetry_space_group_name_H-M "A M M 2"
_symmetry_group_IT_number 38
_symmetry_cell_setting 'orthorhombic'
loop_
_space_group_symop_operation_xyz
x,y,z
-x,-y,z
-x,y,z
x,-y,z
x,1/2+y,1/2+z
-x,1/2-y,1/2+z
-x,1/2+y,1/2+z
x,1/2-y,1/2+z
loop_
_atom_site_type_symbol
_atom_site_label
_atom_site_fract_x
_atom_site_fract_y
_atom_site_fract_z
Si Si1 0.336625 0.909882 0.689800
Si Si2 0.672181 0.000000 0.927554
Si Si3 0.672652 0.826050 0.889309
Si Si4 0.674776 0.500000 0.582884
Si Si5 0.832195 0.755571 0.508220
Si Si6 0.828382 0.270989 0.259210
Si Si7 0.168592 0.845548 0.140428
Si Si8 0.335141 0.410485 0.028178
O O1 0.500000 0.881821 0.713832
O O2 0.213795 0.852385 0.720115
O O3 0.327698 0.909094 0.609095
O O4 0.306929 0.000000 0.717322
O O5 0.718181 0.079092 0.883879
O O6 0.500000 0.000000 0.939575
O O7 0.738906 0.000000 0.005095
O O8 0.500000 0.813939 0.884867
O O9 0.728492 0.800208 0.963169
O O10 0.745750 0.770104 0.831613
O O11 0.500000 0.500000 0.584519
O O12 0.729822 0.578768 0.623308
O O13 0.811050 0.726491 0.585864
O O14 0.781877 0.847896 0.498425
O O15 0.000000 0.748286 0.483955
O O16 0.785502 0.192549 0.213840
O O17 0.000000 0.272233 0.273560
O O18 0.000000 0.874848 0.141445
O O19 0.500000 0.387353 0.004173
O O20 0.294256 0.500000 0.001220
#
# Coordination Sequence:
#
# PCOD8180323 Si02
#       8
#     8   4   8   4   8   8   8   8
#     4   9  18  32  51  78 112 149 186 225 270 322
#     4   9  20  37  57  87 123 156 193 244 301 355
#     4  11  23  40  59  83 119 159 198 245 299 358
#     4  11  21  37  65  95 117 146 201 256 301 357
#     4  11  21  36  58  86 116 152 193 239 296 358
#     4  11  23  39  56  83 118 157 198 238 290 356
#     4  10  22  39  59  86 122 156 192 242 302 359
#     4   9  18  33  55  83 112 145 188 235 282 334
#
# _framework density 18.975947999999999
#
# number of rings (size 3 to 8) (size 9 to 14) (size 15 to 20)
#    0.000    1.857    2.857    2.357    1.000    2.286 
#    0.000    2.500    1.571    0.000    0.000    0.000 
#    0.000    0.000    0.000    0.000    0.000    0.000 
#
# Total GULP energy -347155.382970 kJ/mol
# GULP energy per Si atom -12398.406535 kJ/mol
# Density = 1.893276 g / cm^3
# Si number density = 18.975948 Si / 1000 Ang^3
#
#
#
# Elastic Constant Matrix: (Units=GPa)
#
#
# Indices 1 2 3 4 5 6 
#
# 1 86.8646 46.8290 38.1195 0.0000 0.0000 0.0000
# 2 46.8290 95.9649 24.3422 0.0000 0.0000 0.0000
# 3 38.1195 24.3422 70.5480 0.0000 0.0000 0.0000
# 4 0.0000 0.0000 0.0000 27.5213 0.0000 0.0000
# 5 0.0000 0.0000 0.0000 0.0000 31.3100 0.0000
# 6 0.0000 0.0000 0.0000 0.0000 0.0000 34.4002
#
#
#
# Elastic Compliance Matrix: (Units=1/GPa)
#
#
# Indices 1 2 3 4 5 6 
#
# 1 0.018756 -0.007213 -0.007646 0.000000 0.000000 0.000000
# 2 -0.007213 0.014194 -0.001000 0.000000 0.000000 0.000000
# 3 -0.007646 -0.001000 0.018651 0.000000 0.000000 0.000000
# 4 0.000000 0.000000 0.000000 0.036335 0.000000 0.000000
# 5 0.000000 0.000000 0.000000 0.000000 0.031939 0.000000
# 6 0.000000 0.000000 0.000000 0.000000 0.000000 0.029070
#
#
# Mechanical properties :
#
#
# Convention : Reuss Voigt Hill
#
# Bulk Modulus (GPa) = 50.29344 52.43988 51.36666
# Shear Modulus (GPa) = 26.69651 28.25209 27.47430
#
# Velocity S-wave (km/s) = 3.75488 3.86273 3.80919
# Velocity P-wave (km/s) = 6.73500 6.89849 6.81723
#
# Compressibility (1/GPa) = 0.01988331
#
# Stress axis : x y z
#
# Youngs Moduli (GPa) = 53.31615 70.45215 53.61633
#
# Poissons Ratio (x) = 0.50818 0.40993
# Poissons Ratio (y) = 0.38458 0.05362
# Poissons Ratio (z) = 0.40764 0.07045
#
# Static dielectric constant tensor:
#      x y z
#    x 3.450620 0.000000 0.000000 
#    y 0.000000 3.739930 0.000000 
#    z 0.000000 0.000000 3.344620 
# 
# 
# High freq. dielectric constant tensor:
#      x y z
#    x 1.733950 0.000000 0.000000 
#    y 0.000000 1.736310 0.000000 
#    z 0.000000 0.000000 1.721480 
# 
# From -- ./inp_files/19850.got.cif
#   From: 2010.03.12/outbox.cif.g09.slc.cpg/sg38_10_cif.got.tgz:19850.got - 2010.04.14 02:38:36.
