data_PCOD8180140
_publ_section_title
;
Structure prediction by ZEFSAII (Michael W. Deem and Ramdas Pophale) SiO2 
 PCOD8180140
Probable space group: A M M 2
;
_chemical_formula_sum "Si O2"
_cell_formula_units_Z 48
_cell_length_a 10.055233
_cell_length_b 8.697110
_cell_length_c 27.454694
_cell_angle_alpha 90.000000
_cell_angle_beta 90.000000
_cell_angle_gamma 90.000000
_cell_volume 2400.953279
_symmetry_space_group_name_H-M "A M M 2"
_symmetry_group_IT_number 38
_symmetry_cell_setting 'orthorhombic'
loop_
_space_group_symop_operation_xyz
x,y,z
-x,-y,z
-x,y,z
x,-y,z
x,1/2+y,1/2+z
-x,1/2-y,1/2+z
-x,1/2+y,1/2+z
x,1/2-y,1/2+z
loop_
_atom_site_type_symbol
_atom_site_label
_atom_site_fract_x
_atom_site_fract_y
_atom_site_fract_z
Si Si1 0.000000 0.318625 0.562551
Si Si2 0.765697 0.820831 0.739431
Si Si3 0.648422 0.817634 0.420586
Si Si4 0.500000 0.180629 0.202167
Si Si5 0.728755 0.182988 0.527055
Si Si6 0.500000 0.182789 0.091757
Si Si7 0.000000 0.320331 0.167092
Si Si8 0.848720 0.177758 0.339002
O O1 0.124836 0.242602 0.536617
O O2 0.000000 0.283959 0.619656
O O3 0.000000 0.500000 0.554360
O O4 0.628573 0.734130 0.731378
O O5 0.869405 0.775873 0.697428
O O6 0.828415 0.775140 0.790675
O O7 0.736395 0.000000 0.739251
O O8 0.500000 0.760875 0.406801
O O9 0.685186 0.755856 0.474054
O O10 0.752392 0.754281 0.380868
O O11 0.655484 0.000000 0.421611
O O12 0.500000 0.244431 0.147150
O O13 0.500000 0.000000 0.201146
O O14 0.631721 0.252344 0.567191
O O15 0.723305 0.000000 0.530654
O O16 0.500000 0.000000 0.088736
O O17 0.000000 0.500000 0.152909
O O18 0.000000 0.196784 0.357320
O O19 0.815559 0.000000 0.327939
#
# Coordination Sequence:
#
# PCOD8180140 Si02
#       8
#     4   8   8   4   8   4   4   8
#     4  12  26  40  59  92 129 163 204 261 313 362
#     4  11  23  41  63  90 124 159 201 255 307 361
#     4   9  19  37  62  92 120 154 205 253 292 352
#     4  11  25  41  60  89 122 163 206 249 300 365
#     4  11  22  40  66  92 123 166 211 253 301 365
#     4  11  23  41  64  93 128 161 202 257 314 365
#     4  10  22  42  65  88 119 163 208 251 301 368
#     4  10  21  37  62  92 122 159 202 249 301 359
#
# _framework density 19.992059000000001
#
# number of rings (size 3 to 8) (size 9 to 14) (size 15 to 20)
#    0.000    1.500    1.667    3.250    2.333    5.333 
#    0.000    1.667    0.000    0.000    0.000    0.000 
#    0.000    0.000    0.000    0.000    0.000    0.000 
#
# Total GULP energy -297712.799070 kJ/mol
# GULP energy per Si atom -12404.699961 kJ/mol
# Density = 1.994656 g / cm^3
# Si number density = 19.992059 Si / 1000 Ang^3
#
#
#
# Elastic Constant Matrix: (Units=GPa)
#
#
# Indices 1 2 3 4 5 6 
#
# 1 151.2460 21.1241 42.8260 0.0000 0.0000 0.0000
# 2 21.1241 49.8806 19.8650 0.0000 0.0000 0.0000
# 3 42.8260 19.8650 101.6495 0.0000 0.0000 0.0000
# 4 0.0000 0.0000 0.0000 27.2195 0.0000 0.0000
# 5 0.0000 0.0000 0.0000 0.0000 42.5221 0.0000
# 6 0.0000 0.0000 0.0000 0.0000 0.0000 30.1355
#
#
#
# Elastic Compliance Matrix: (Units=1/GPa)
#
#
# Indices 1 2 3 4 5 6 
#
# 1 0.007712 -0.002138 -0.002831 0.000000 0.000000 0.000000
# 2 -0.002138 0.022333 -0.003463 0.000000 0.000000 0.000000
# 3 -0.002831 -0.003463 0.011707 0.000000 0.000000 0.000000
# 4 0.000000 0.000000 0.000000 0.036738 0.000000 0.000000
# 5 0.000000 0.000000 0.000000 0.000000 0.023517 0.000000
# 6 0.000000 0.000000 0.000000 0.000000 0.000000 0.033183
#
#
# Mechanical properties :
#
#
# Convention : Reuss Voigt Hill
#
# Bulk Modulus (GPa) = 40.18332 52.26737 46.22534
# Shear Modulus (GPa) = 31.18118 34.57282 32.87700
#
# Velocity S-wave (km/s) = 3.95356 4.16303 4.05965
# Velocity P-wave (km/s) = 6.40188 7.02201 6.71910
#
# Compressibility (1/GPa) = 0.02488595
#
# Stress axis : x y z
#
# Youngs Moduli (GPa) = 129.66627 44.77708 85.41577
#
# Poissons Ratio (x) = 0.09575 0.24184
# Poissons Ratio (y) = 0.27729 0.29584
# Poissons Ratio (z) = 0.36712 0.15508
#
# Static dielectric constant tensor:
#      x y z
#    x 3.924400 0.000000 0.000000 
#    y 0.000000 3.466550 0.000000 
#    z 0.000000 0.000000 3.798380 
# 
# 
# High freq. dielectric constant tensor:
#      x y z
#    x 1.800880 0.000000 0.000000 
#    y 0.000000 1.765050 0.000000 
#    z 0.000000 0.000000 1.789180 
# 
# From -- ./inp_files/24463.got.cif
#   From: 2010.03.12/outbox.cif.g09.slc.cpg/sg38_13_cif.got.tgz:24463.got - 2010.04.14 02:38:36.
