data_PCOD8180944
_publ_section_title
;
Structure prediction by ZEFSAII (Michael W. Deem and Ramdas Pophale) SiO2 
 PCOD8180944
Probable space group: A B M 2
;
_chemical_formula_sum "Si O2"
_cell_formula_units_Z 64
_cell_length_a 14.770356
_cell_length_b 8.839596
_cell_length_c 24.651058
_cell_angle_alpha 90.000000
_cell_angle_beta 90.000000
_cell_angle_gamma 90.000000
_cell_volume 3218.540239
_symmetry_space_group_name_H-M "A B M 2"
_symmetry_group_IT_number 39
_symmetry_cell_setting 'orthorhombic'
loop_
_space_group_symop_operation_xyz
x,y,z
-x,-y,z
-x,1/2+y,z
x,1/2-y,z
x,1/2+y,1/2+z
-x,1/2-y,1/2+z
-x,y,1/2+z
x,-y,1/2+z
loop_
_atom_site_type_symbol
_atom_site_label
_atom_site_fract_x
_atom_site_fract_y
_atom_site_fract_z
Si Si1 0.693135 0.419702 0.367850
Si Si2 0.865115 0.076363 0.835488
Si Si3 0.411584 0.079781 0.768135
Si Si4 0.277379 0.928754 0.180534
Si Si5 0.090389 0.071114 0.724006
Si Si6 0.399227 0.930524 0.080843
Si Si7 0.092164 0.071482 0.457481
Si Si8 0.279444 0.925718 0.489015
O O1 0.733758 0.250000 0.358733
O O2 0.759406 0.544507 0.343433
O O3 0.601376 0.437572 0.332934
O O4 0.672678 0.445511 0.430676
O O5 0.880641 0.250000 0.819793
O O6 0.909983 0.034620 0.893289
O O7 0.904518 0.974746 0.787376
O O8 0.425176 0.250000 0.749669
O O9 0.325612 0.015375 0.735642
O O10 0.500000 0.000000 0.747100
O O11 0.271996 0.750000 0.175700
O O12 0.174447 0.990241 0.187285
O O13 0.334628 0.991104 0.129565
O O14 0.084769 0.250000 0.721722
O O15 0.000000 0.000000 0.698068
O O16 0.408972 0.750000 0.080820
O O17 0.500000 0.000000 0.085032
O O18 0.347260 0.983779 0.027326
O O19 0.095838 0.250000 0.468806
O O20 0.178434 0.995783 0.487294
O O21 0.000000 0.000000 0.482212
O O22 0.272504 0.750000 0.506118
#
# Coordination Sequence:
#
# PCOD8180944 Si02
#       8
#     8   8   8   8   8   8   8   8
#     4   9  18  34  55  78 115 157 190 231 288 342
#     4  10  19  31  51  82 117 156 199 237 280 335
#     4  10  19  34  54  81 111 147 185 228 286 346
#     4   9  20  39  61  81 112 151 191 237 293 345
#     4  11  21  36  56  82 116 154 194 237 286 345
#     4  11  23  42  66  89 112 148 195 247 299 352
#     4  10  20  34  54  84 121 160 200 242 287 344
#     4  10  21  38  60  87 116 153 197 243 293 349
#
# _framework density 19.884789999999999
#
# number of rings (size 3 to 8) (size 9 to 14) (size 15 to 20)
#    0.000    2.000    1.250    2.625    0.000    4.000 
#    0.000    5.000    0.000    1.500    0.000    0.000 
#    0.000    0.000    0.000    0.000    0.000    0.000 
#
# Total GULP energy -396595.495577 kJ/mol
# GULP energy per Si atom -12393.609237 kJ/mol
# Density = 1.983953 g / cm^3
# Si number density = 19.884790 Si / 1000 Ang^3
#
#
#
# Elastic Constant Matrix: (Units=GPa)
#
#
# Indices 1 2 3 4 5 6 
#
# 1 166.9072 54.4985 64.0796 0.0000 0.0000 0.0000
# 2 54.4985 76.9258 32.6896 0.0000 0.0000 0.0000
# 3 64.0796 32.6896 91.7117 0.0000 0.0000 0.0000
# 4 0.0000 0.0000 0.0000 19.7479 0.0000 0.0000
# 5 0.0000 0.0000 0.0000 0.0000 28.8561 0.0000
# 6 0.0000 0.0000 0.0000 0.0000 0.0000 36.3490
#
#
#
# Elastic Compliance Matrix: (Units=1/GPa)
#
#
# Indices 1 2 3 4 5 6 
#
# 1 0.009365 -0.004542 -0.004924 0.000000 0.000000 0.000000
# 2 -0.004542 0.017523 -0.003072 0.000000 0.000000 0.000000
# 3 -0.004924 -0.003072 0.015440 0.000000 0.000000 0.000000
# 4 0.000000 0.000000 0.000000 0.050638 0.000000 0.000000
# 5 0.000000 0.000000 0.000000 0.000000 0.034655 0.000000
# 6 0.000000 0.000000 0.000000 0.000000 0.000000 0.027511
#
#
# Mechanical properties :
#
#
# Convention : Reuss Voigt Hill
#
# Bulk Modulus (GPa) = 57.97119 70.89781 64.43450
# Shear Modulus (GPa) = 26.88763 29.27574 28.08168
#
# Velocity S-wave (km/s) = 3.68118 3.84118 3.76203
# Velocity P-wave (km/s) = 6.87640 7.44342 7.16552
#
# Compressibility (1/GPa) = 0.01724995
#
# Stress axis : x y z
#
# Youngs Moduli (GPa) = 106.78005 57.06798 64.76866
#
# Poissons Ratio (x) = 0.25921 0.31895
# Poissons Ratio (y) = 0.48500 0.19899
# Poissons Ratio (z) = 0.52583 0.17533
#
# Static dielectric constant tensor:
#      x y z
#    x 3.736320 0.000000 0.000000 
#    y 0.000000 3.541720 0.000000 
#    z 0.000000 0.000000 3.556300 
# 
# 
# High freq. dielectric constant tensor:
#      x y z
#    x 1.780740 0.000000 0.000000 
#    y 0.000000 1.768370 0.000000 
#    z 0.000000 0.000000 1.758990 
# 
# From -- ./inp_files/16232.got.cif
#   From: 2010.03.12/outbox.cif.g09.slc.cpg/sg39_9_cif.got.tgz:16232.got - 2010.04.14 02:53:20.
