data_PCOD8180188
_publ_section_title
;
Structure prediction by ZEFSAII (Michael W. Deem and Ramdas Pophale) SiO2 
 PCOD8180188
Probable space group: A M M 2
;
_chemical_formula_sum "Si O2"
_cell_formula_units_Z 48
_cell_length_a 8.897343
_cell_length_b 23.422757
_cell_length_c 11.608394
_cell_angle_alpha 90.000000
_cell_angle_beta 90.000000
_cell_angle_gamma 90.000000
_cell_volume 2419.192827
_symmetry_space_group_name_H-M "A M M 2"
_symmetry_group_IT_number 38
_symmetry_cell_setting 'orthorhombic'
loop_
_space_group_symop_operation_xyz
x,y,z
-x,-y,z
-x,y,z
x,-y,z
x,1/2+y,1/2+z
-x,1/2-y,1/2+z
-x,1/2+y,1/2+z
x,1/2-y,1/2+z
loop_
_atom_site_type_symbol
_atom_site_label
_atom_site_fract_x
_atom_site_fract_y
_atom_site_fract_z
Si Si1 0.829093 0.843838 0.959130
Si Si2 0.675472 0.152231 0.195204
Si Si3 0.821493 0.866978 0.584496
Si Si4 0.824099 0.438616 0.292489
Si Si5 0.825593 0.234186 0.739322
Si Si6 0.821393 0.566601 0.859055
O O1 0.799097 0.907357 0.913230
O O2 0.795720 0.801803 0.853886
O O3 0.000000 0.835858 0.003310
O O4 0.715514 0.835307 0.062958
O O5 0.500000 0.143730 0.210987
O O6 0.729293 0.209114 0.260345
O O7 0.755321 0.094939 0.243220
O O8 0.750749 0.906651 0.683905
O O9 0.777911 0.801764 0.622855
O O10 0.761032 0.892290 0.463285
O O11 0.000000 0.870647 0.583968
O O12 0.746509 0.500000 0.303323
O O13 0.000000 0.443584 0.266792
O O14 0.000000 0.251145 0.729229
O O15 0.768610 0.500000 0.872302
O O16 0.000000 0.568118 0.852418
#
# Coordination Sequence:
#
# PCOD8180188 Si02
#       6
#     8   8   8   8   8   8
#     4   9  19  36  57  82 110 143 188 237 284 339
#     4  12  26  39  54  79 117 158 195 236 288 355
#     4   8  15  30  56  89 116 140 176 234 294 339
#     4   8  13  25  51  86 115 135 166 222 285 334
#     4   9  19  37  61  86 112 144 190 245 297 347
#     4  10  21  38  61  88 117 153 199 243 289 349
#
# _framework density 19.841328000000001
#
# number of rings (size 3 to 8) (size 9 to 14) (size 15 to 20)
#    0.000    2.667    0.000    4.000    2.333    3.667 
#    0.000    1.667    0.000    1.000    0.000    0.000 
#    0.000    0.000    0.000    0.000    0.000    0.000 
#
# Total GULP energy -297352.809156 kJ/mol
# GULP energy per Si atom -12389.700381 kJ/mol
# Density = 1.979617 g / cm^3
# Si number density = 19.841328 Si / 1000 Ang^3
#
#
#
# Elastic Constant Matrix: (Units=GPa)
#
#
# Indices 1 2 3 4 5 6 
#
# 1 44.8619 33.2050 25.4873 0.0000 0.0000 0.0000
# 2 33.2050 115.4700 34.3737 0.0000 0.0000 0.0000
# 3 25.4873 34.3737 86.6239 0.0000 0.0000 0.0000
# 4 0.0000 0.0000 0.0000 20.1585 0.0000 0.0000
# 5 0.0000 0.0000 0.0000 0.0000 8.1869 0.0000
# 6 0.0000 0.0000 0.0000 0.0000 0.0000 7.4888
#
#
#
# Elastic Compliance Matrix: (Units=1/GPa)
#
#
# Indices 1 2 3 4 5 6 
#
# 1 0.031127 -0.007058 -0.006358 0.000000 0.000000 0.000000
# 2 -0.007058 0.011421 -0.002455 0.000000 0.000000 0.000000
# 3 -0.006358 -0.002455 0.014389 0.000000 0.000000 0.000000
# 4 0.000000 0.000000 0.000000 0.049607 0.000000 0.000000
# 5 0.000000 0.000000 0.000000 0.000000 0.122146 0.000000
# 6 0.000000 0.000000 0.000000 0.000000 0.000000 0.133532
#
#
# Mechanical properties :
#
#
# Convention : Reuss Voigt Hill
#
# Bulk Modulus (GPa) = 39.69129 48.12087 43.90608
# Shear Modulus (GPa) = 12.42662 17.42616 14.92639
#
# Velocity S-wave (km/s) = 2.50531 2.96679 2.74576
# Velocity P-wave (km/s) = 5.33072 6.00344 5.67705
#
# Compressibility (1/GPa) = 0.02519444
#
# Stress axis : x y z
#
# Youngs Moduli (GPa) = 32.12647 87.55889 69.49751
#
# Poissons Ratio (x) = 0.61803 0.44184
# Poissons Ratio (y) = 0.22676 0.17063
# Poissons Ratio (z) = 0.20425 0.21497
#
# Static dielectric constant tensor:
#      x y z
#    x 3.038320 0.000000 0.000000 
#    y 0.000000 4.385250 0.000000 
#    z 0.000000 0.000000 3.675990 
# 
# 
# High freq. dielectric constant tensor:
#      x y z
#    x 1.710600 0.000000 0.000000 
#    y 0.000000 1.788270 0.000000 
#    z 0.000000 0.000000 1.776280 
# 
# From -- ./inp_files/8131.got.cif
#   From: 2010.03.12/outbox.cif.g09.slc.cpg/sg38_5_cif.got.tgz:8131.got - 2010.04.14 02:38:36.
