data_PCOD8180907
_publ_section_title
;
Structure prediction by ZEFSAII (Michael W. Deem and Ramdas Pophale) SiO2 
 PCOD8180907
Probable space group: A B M 2
;
_chemical_formula_sum "Si O2"
_cell_formula_units_Z 64
_cell_length_a 15.222129
_cell_length_b 8.867317
_cell_length_c 30.423567
_cell_angle_alpha 90.000000
_cell_angle_beta 90.000000
_cell_angle_gamma 90.000000
_cell_volume 4106.556136
_symmetry_space_group_name_H-M "A B M 2"
_symmetry_group_IT_number 39
_symmetry_cell_setting 'orthorhombic'
loop_
_space_group_symop_operation_xyz
x,y,z
-x,-y,z
-x,1/2+y,z
x,1/2-y,z
x,1/2+y,1/2+z
-x,1/2-y,1/2+z
-x,y,1/2+z
x,-y,1/2+z
loop_
_atom_site_type_symbol
_atom_site_label
_atom_site_fract_x
_atom_site_fract_y
_atom_site_fract_z
Si Si1 0.095939 0.928382 0.154370
Si Si2 0.413357 0.919418 0.403148
Si Si3 0.904615 0.072689 0.343369
Si Si4 0.092912 0.575579 0.248192
Si Si5 0.234613 0.576071 0.006902
Si Si6 0.903771 0.570945 0.067734
Si Si7 0.412607 0.920318 0.507781
Si Si8 0.763210 0.076973 0.903129
O O1 0.090951 0.750000 0.145171
O O2 0.143467 0.964140 0.201957
O O3 0.142448 0.009639 0.112893
O O4 0.000000 0.000000 0.156777
O O5 0.409999 0.750000 0.384674
O O6 0.416399 0.919602 0.455471
O O7 0.500000 0.000000 0.384063
O O8 0.328052 0.007399 0.386080
O O9 0.914243 0.250000 0.350647
O O10 0.861077 0.035078 0.294915
O O11 0.843336 0.007882 0.380877
O O12 0.000000 0.000000 0.348060
O O13 0.071607 0.750000 0.247205
O O14 0.000000 0.500000 0.248115
O O15 0.227306 0.750000 0.021048
O O16 0.156000 0.479876 0.027298
O O17 0.327668 0.512280 0.024069
O O18 0.226581 0.556176 0.954942
O O19 0.911349 0.750000 0.068746
O O20 0.000000 0.500000 0.061580
O O21 0.407682 0.750000 0.526033
O O22 0.500000 0.000000 0.526772
O O23 0.764758 0.250000 0.889012
#
# Coordination Sequence:
#
# PCOD8180907 Si02
#       8
#     8   8   8   8   8   8   8   8
#     4   9  15  26  43  62  83 106 135 172 215 258
#     4   9  16  27  44  64  85 109 138 175 218 260
#     4  10  19  31  45  62  86 116 149 182 216 254
#     4   8  15  26  42  62  82 106 136 172 214 258
#     4  10  20  33  46  61  84 115 150 185 218 253
#     4  11  21  32  45  62  85 114 148 182 217 257
#     4   9  16  27  44  65  86 109 138 174 217 260
#     4  10  20  32  45  62  85 115 150 184 217 254
#
# _framework density 15.584834000000001
#
# number of rings (size 3 to 8) (size 9 to 14) (size 15 to 20)
#    0.000    2.500    0.000    4.125    0.000    6.000 
#    0.000    0.000    0.000    0.000    0.000    0.000 
#    0.000    1.000    0.000    8.000    0.000    5.500 
#
# Total GULP energy -396483.703494 kJ/mol
# GULP energy per Si atom -12390.115734 kJ/mol
# Density = 1.554936 g / cm^3
# Si number density = 15.584834 Si / 1000 Ang^3
#
#
#
# Elastic Constant Matrix: (Units=GPa)
#
#
# Indices 1 2 3 4 5 6 
#
# 1 88.7722 49.3079 35.9641 0.0000 0.0000 0.0000
# 2 49.3079 119.6651 37.9427 0.0000 0.0000 0.0000
# 3 35.9641 37.9427 45.4225 0.0000 0.0000 0.0000
# 4 0.0000 0.0000 0.0000 21.5069 0.0000 0.0000
# 5 0.0000 0.0000 0.0000 0.0000 0.5919 0.0000
# 6 0.0000 0.0000 0.0000 0.0000 0.0000 27.7315
#
#
#
# Elastic Compliance Matrix: (Units=1/GPa)
#
#
# Indices 1 2 3 4 5 6 
#
# 1 0.017832 -0.003905 -0.010857 0.000000 0.000000 0.000000
# 2 -0.003905 0.012223 -0.007118 0.000000 0.000000 0.000000
# 3 -0.010857 -0.007118 0.036557 0.000000 0.000000 0.000000
# 4 0.000000 0.000000 0.000000 0.046497 0.000000 0.000000
# 5 0.000000 0.000000 0.000000 0.000000 1.689571 0.000000
# 6 0.000000 0.000000 0.000000 0.000000 0.000000 0.036060
#
#
# Mechanical properties :
#
#
# Convention : Reuss Voigt Hill
#
# Bulk Modulus (GPa) = 43.75920 55.58769 49.67345
# Shear Modulus (GPa) = 2.64534 18.67573 10.66053
#
# Velocity S-wave (km/s) = 1.30425 3.46544 2.61824
# Velocity P-wave (km/s) = 5.51426 7.19428 6.40955
#
# Compressibility (1/GPa) = 0.02285234
#
# Stress axis : x y z
#
# Youngs Moduli (GPa) = 56.07759 81.81458 27.35431
#
# Poissons Ratio (x) = 0.31952 0.29698
# Poissons Ratio (y) = 0.21901 0.19470
# Poissons Ratio (z) = 0.60882 0.58234
#
# Static dielectric constant tensor:
#      x y z
#    x 2.784000 0.000000 0.000000 
#    y 0.000000 3.187060 0.000000 
#    z 0.000000 0.000000 3.313190 
# 
# 
# High freq. dielectric constant tensor:
#      x y z
#    x 1.564660 0.000000 0.000000 
#    y 0.000000 1.621040 0.000000 
#    z 0.000000 0.000000 1.575900 
# 
# From -- ./inp_files/17952.got.cif
#   From: 2010.03.12/outbox.cif.g09.slc.cpg/sg39_9_cif.got.tgz:17952.got - 2010.04.14 02:53:20.
