data_PCOD8180245
_publ_section_title
;
Structure prediction by ZEFSAII (Michael W. Deem and Ramdas Pophale) SiO2 
 PCOD8180245
Probable space group: A M M 2
;
_chemical_formula_sum "Si O2"
_cell_formula_units_Z 48
_cell_length_a 8.839309
_cell_length_b 16.837199
_cell_length_c 16.723153
_cell_angle_alpha 90.000000
_cell_angle_beta 90.000000
_cell_angle_gamma 90.000000
_cell_volume 2488.893560
_symmetry_space_group_name_H-M "A M M 2"
_symmetry_group_IT_number 38
_symmetry_cell_setting 'orthorhombic'
loop_
_space_group_symop_operation_xyz
x,y,z
-x,-y,z
-x,y,z
x,-y,z
x,1/2+y,1/2+z
-x,1/2-y,1/2+z
-x,1/2+y,1/2+z
x,1/2-y,1/2+z
loop_
_atom_site_type_symbol
_atom_site_label
_atom_site_fract_x
_atom_site_fract_y
_atom_site_fract_z
Si Si1 0.825739 0.500000 0.758910
Si Si2 0.677744 0.643300 0.667901
Si Si3 0.676256 0.151266 0.526835
Si Si4 0.174395 0.500000 0.947828
Si Si5 0.327669 0.321417 0.208158
Si Si6 0.820260 0.681759 0.504479
Si Si7 0.178369 0.911475 0.849618
O O1 0.745190 0.577938 0.726056
O O2 0.807878 0.500000 0.853330
O O3 0.000000 0.500000 0.732246
O O4 0.500000 0.630420 0.656671
O O5 0.713547 0.728476 0.706736
O O6 0.754363 0.636775 0.581368
O O7 0.500000 0.159940 0.506394
O O8 0.700940 0.140380 0.621402
O O9 0.759879 0.229276 0.495511
O O10 0.744348 0.076824 0.481913
O O11 0.000000 0.500000 0.974312
O O12 0.500000 0.334031 0.235137
O O13 0.220034 0.364636 0.269927
O O14 0.760593 0.633921 0.427537
O O15 0.000000 0.683627 0.510733
O O16 0.000000 0.916694 0.854003
O O17 0.248816 0.000000 0.847373
#
# Coordination Sequence:
#
# PCOD8180245 Si02
#       7
#     4   8   8   4   8   8   8
#     4  11  25  41  61  90 123 158 199 249 304 363
#     4  10  22  41  63  90 120 156 202 248 302 361
#     4  10  22  41  63  88 121 159 201 249 304 359
#     4  11  25  41  61  92 123 156 203 249 302 365
#     4   9  21  40  61  87 118 155 198 245 296 353
#     4  10  21  39  63  89 121 160 202 248 300 357
#     4  10  23  39  58  88 122 156 197 244 294 349
#
# _framework density 19.285678000000001
#
# number of rings (size 3 to 8) (size 9 to 14) (size 15 to 20)
#    0.000    2.000    0.000    3.000    4.667    7.000 
#    0.000    0.000    0.000    0.000    0.000    0.000 
#    0.000    0.000    0.000    0.000    0.000    0.000 
#
# Total GULP energy -297695.102786 kJ/mol
# GULP energy per Si atom -12403.962616 kJ/mol
# Density = 1.924178 g / cm^3
# Si number density = 19.285678 Si / 1000 Ang^3
#
#
#
# Elastic Constant Matrix: (Units=GPa)
#
#
# Indices 1 2 3 4 5 6 
#
# 1 88.9490 46.8755 47.9982 0.0000 0.0000 0.0000
# 2 46.8755 114.5608 69.2614 0.0000 0.0000 0.0000
# 3 47.9982 69.2614 107.5589 0.0000 0.0000 0.0000
# 4 0.0000 0.0000 0.0000 20.4728 0.0000 0.0000
# 5 0.0000 0.0000 0.0000 0.0000 18.2152 0.0000
# 6 0.0000 0.0000 0.0000 0.0000 0.0000 27.4710
#
#
#
# Elastic Compliance Matrix: (Units=1/GPa)
#
#
# Indices 1 2 3 4 5 6 
#
# 1 0.015653 -0.003573 -0.004685 0.000000 0.000000 0.000000
# 2 -0.003573 0.015109 -0.008135 0.000000 0.000000 0.000000
# 3 -0.004685 -0.008135 0.016626 0.000000 0.000000 0.000000
# 4 0.000000 0.000000 0.000000 0.048845 0.000000 0.000000
# 5 0.000000 0.000000 0.000000 0.000000 0.054899 0.000000
# 6 0.000000 0.000000 0.000000 0.000000 0.000000 0.036402
#
#
# Mechanical properties :
#
#
# Convention : Reuss Voigt Hill
#
# Bulk Modulus (GPa) = 68.47545 71.03767 69.75656
# Shear Modulus (GPa) = 22.20371 23.02738 22.61555
#
# Velocity S-wave (km/s) = 3.39677 3.45920 3.42813
# Velocity P-wave (km/s) = 7.13912 7.27112 7.20542
#
# Compressibility (1/GPa) = 0.01460377
#
# Stress axis : x y z
#
# Youngs Moduli (GPa) = 63.88541 66.18509 60.14587
#
# Poissons Ratio (x) = 0.23645 0.28176
# Poissons Ratio (y) = 0.22824 0.48929
# Poissons Ratio (z) = 0.29928 0.53842
#
# Static dielectric constant tensor:
#      x y z
#    x 3.583060 0.000000 0.000000 
#    y 0.000000 3.733910 0.000000 
#    z 0.000000 0.000000 3.569490 
# 
# 
# High freq. dielectric constant tensor:
#      x y z
#    x 1.757880 0.000000 0.000000 
#    y 0.000000 1.762000 0.000000 
#    z 0.000000 0.000000 1.757630 
# 
# From -- ./inp_files/12122.got.cif
#   From: 2010.03.12/outbox.cif.g09.slc.cpg/sg38_7_cif.got.tgz:12122.got - 2010.04.14 02:38:36.
