data_PCOD8180074
_publ_section_title
;
Structure prediction by ZEFSAII (Michael W. Deem and Ramdas Pophale) SiO2 
 PCOD8180074
Probable space group: A M M 2
;
_chemical_formula_sum "Si O2"
_cell_formula_units_Z 56
_cell_length_a 13.489678
_cell_length_b 22.949591
_cell_length_c 9.155823
_cell_angle_alpha 90.000000
_cell_angle_beta 90.000000
_cell_angle_gamma 90.000000
_cell_volume 2834.483424
_symmetry_space_group_name_H-M "A M M 2"
_symmetry_group_IT_number 38
_symmetry_cell_setting 'orthorhombic'
loop_
_space_group_symop_operation_xyz
x,y,z
-x,-y,z
-x,y,z
x,-y,z
x,1/2+y,1/2+z
-x,1/2-y,1/2+z
-x,1/2+y,1/2+z
x,1/2-y,1/2+z
loop_
_atom_site_type_symbol
_atom_site_label
_atom_site_fract_x
_atom_site_fract_y
_atom_site_fract_z
Si Si1 0.111556 0.174815 0.569810
Si Si2 0.385071 0.880540 0.877645
Si Si3 0.723892 0.176175 0.110908
Si Si4 0.888333 0.291874 0.400281
Si Si5 0.388620 0.000000 0.779666
Si Si6 0.386347 0.500000 0.935662
Si Si7 0.714759 0.121790 0.417461
Si Si8 0.385769 0.703669 0.127148
O O1 0.121933 0.224622 0.446903
O O2 0.138232 0.201847 0.728678
O O3 0.189524 0.123804 0.526315
O O4 0.000000 0.148980 0.570268
O O5 0.500000 0.888250 0.846610
O O6 0.332558 0.941992 0.836539
O O7 0.348410 0.828537 0.773150
O O8 0.363150 0.864121 0.044177
O O9 0.749818 0.151490 0.268024
O O10 0.686942 0.242254 0.112631
O O11 0.817590 0.169138 0.002626
O O12 0.000000 0.313923 0.428988
O O13 0.500000 0.000000 0.843422
O O14 0.390723 0.000000 0.607547
O O15 0.500000 0.500000 0.873151
O O16 0.325320 0.442987 0.884962
O O17 0.626888 0.160362 0.489175
O O18 0.500000 0.724046 0.134476
#
# Coordination Sequence:
#
# PCOD8180074 Si02
#       8
#     8   8   8   8   4   4   8   8
#     4  10  21  39  63  92 125 161 203 251 306 369
#     4  10  21  37  57  81 114 158 204 247 293 347
#     4  12  24  35  56  91 126 156 195 245 311 369
#     4  10  21  37  60  92 128 163 198 244 306 377
#     4   9  18  37  61  80 103 153 210 250 285 338
#     4  11  24  43  64  86 119 167 217 256 296 356
#     4  12  24  39  62  90 121 165 206 252 306 366
#     4  11  22  37  56  82 121 162 200 245 301 362
#
# _framework density 19.756686999999999
#
# number of rings (size 3 to 8) (size 9 to 14) (size 15 to 20)
#    0.000    1.286    2.857    3.429    0.000    5.714 
#    0.000    1.071    0.000    0.000    0.000    1.500 
#    0.000    0.000    0.000    0.000    0.000    0.000 
#
# Total GULP energy -347131.199200 kJ/mol
# GULP energy per Si atom -12397.542829 kJ/mol
# Density = 1.971172 g / cm^3
# Si number density = 19.756687 Si / 1000 Ang^3
#
#
#
# Elastic Constant Matrix: (Units=GPa)
#
#
# Indices 1 2 3 4 5 6 
#
# 1 97.6661 43.2781 40.0432 0.0000 0.0000 0.0000
# 2 43.2781 99.3705 33.1738 0.0000 0.0000 0.0000
# 3 40.0432 33.1738 107.2299 0.0000 0.0000 0.0000
# 4 0.0000 0.0000 0.0000 1.3264 0.0000 0.0000
# 5 0.0000 0.0000 0.0000 0.0000 29.8898 0.0000
# 6 0.0000 0.0000 0.0000 0.0000 0.0000 21.6485
#
#
#
# Elastic Compliance Matrix: (Units=1/GPa)
#
#
# Indices 1 2 3 4 5 6 
#
# 1 0.013888 -0.004814 -0.003697 0.000000 0.000000 0.000000
# 2 -0.004814 0.012891 -0.002190 0.000000 0.000000 0.000000
# 3 -0.003697 -0.002190 0.011384 0.000000 0.000000 0.000000
# 4 0.000000 0.000000 0.000000 0.753899 0.000000 0.000000
# 5 0.000000 0.000000 0.000000 0.000000 0.033456 0.000000
# 6 0.000000 0.000000 0.000000 0.000000 0.000000 0.046193
#
#
# Mechanical properties :
#
#
# Convention : Reuss Voigt Hill
#
# Bulk Modulus (GPa) = 59.66534 59.69518 59.68026
# Shear Modulus (GPa) = 5.56359 23.09103 14.32731
#
# Velocity S-wave (km/s) = 1.67993 3.42244 2.69585
# Velocity P-wave (km/s) = 5.83340 6.77482 6.32166
#
# Compressibility (1/GPa) = 0.01676015
#
# Stress axis : x y z
#
# Youngs Moduli (GPa) = 72.00438 77.57133 87.84334
#
# Poissons Ratio (x) = 0.37346 0.32474
# Poissons Ratio (y) = 0.34666 0.19241
# Poissons Ratio (z) = 0.26619 0.16991
#
# Static dielectric constant tensor:
#      x y z
#    x 3.697630 0.000000 0.000000 
#    y 0.000000 3.703100 0.000000 
#    z 0.000000 0.000000 3.594560 
# 
# 
# High freq. dielectric constant tensor:
#      x y z
#    x 1.768360 0.000000 0.000000 
#    y 0.000000 1.744000 0.000000 
#    z 0.000000 0.000000 1.775560 
# 
# From -- ./inp_files/5755.got.cif
#   From: 2010.03.12/outbox.cif.g09.slc.cpg/sg38_3_cif.got.tgz:5755.got - 2010.04.14 02:38:36.
