data_PCOD8180306
_publ_section_title
;
Structure prediction by ZEFSAII (Michael W. Deem and Ramdas Pophale) SiO2 
 PCOD8180306
Probable space group: A M M 2
;
_chemical_formula_sum "Si O2"
_cell_formula_units_Z 64
_cell_length_a 18.690086
_cell_length_b 13.583792
_cell_length_c 12.580389
_cell_angle_alpha 90.000000
_cell_angle_beta 90.000000
_cell_angle_gamma 90.000000
_cell_volume 3193.937348
_symmetry_space_group_name_H-M "A M M 2"
_symmetry_group_IT_number 38
_symmetry_cell_setting 'orthorhombic'
loop_
_space_group_symop_operation_xyz
x,y,z
-x,-y,z
-x,y,z
x,-y,z
x,1/2+y,1/2+z
-x,1/2-y,1/2+z
-x,1/2+y,1/2+z
x,1/2-y,1/2+z
loop_
_atom_site_type_symbol
_atom_site_label
_atom_site_fract_x
_atom_site_fract_y
_atom_site_fract_z
Si Si1 0.706410 0.384051 0.519720
Si Si2 0.080478 0.111119 0.518370
Si Si3 0.420598 0.116309 0.870495
Si Si4 0.080478 0.611119 0.268960
Si Si5 0.579402 0.883691 0.416834
Si Si6 0.293590 0.884051 0.267609
Si Si7 0.185232 0.750000 0.893665
Si Si8 0.415154 0.892451 0.643664
O O1 0.721525 0.500000 0.501670
O O2 0.632695 0.350905 0.463027
O O3 0.698981 0.359182 0.643664
O O4 0.769598 0.321018 0.469405
O O5 0.087760 0.119700 0.643665
O O6 0.136626 0.183998 0.467912
O O7 0.000000 0.139589 0.482840
O O8 0.097648 0.000000 0.481258
O O9 0.500000 0.155709 0.900014
O O10 0.393567 0.160751 0.755399
O O11 0.423359 0.000000 0.857580
O O12 0.097649 0.500000 0.306072
O O13 0.136625 0.684000 0.319418
O O14 0.000000 0.639587 0.304490
O O15 0.500000 0.844291 0.387315
O O16 0.632695 0.850905 0.324302
O O17 0.606434 0.839249 0.531930
O O18 0.576641 0.000000 0.429749
O O19 0.230403 0.821018 0.317924
O O20 0.278475 0.000000 0.285659
O O21 0.500000 0.904552 0.643664
O O22 0.378224 0.000000 0.643665
#
# Coordination Sequence:
#
# PCOD8180306 Si02
#       8
#     8   8   8   8   8   8   8   8
#     4  10  22  38  54  78 114 153 191 234 283 335
#     4   9  19  37  61  88 115 143 181 228 272 320
#     4   8  14  28  51  76 102 140 190 240 287 333
#     4   9  19  37  61  88 115 143 181 228 272 320
#     4   8  14  28  51  76 102 140 190 240 287 333
#     4  10  22  38  54  78 114 153 191 234 283 335
#     4  12  21  36  57  84 114 154 186 222 273 338
#     4   7  10  20  42  72 100 124 164 229 290 330
#
# _framework density 20.037963000000001
#
# number of rings (size 3 to 8) (size 9 to 14) (size 15 to 20)
#    0.000    2.875    0.000    4.125    0.000    0.500 
#    4.500    3.125    0.000    0.000    0.000   10.500 
#    0.000    0.000    0.000    0.250    0.000    0.250 
#
# Total GULP energy -396494.960578 kJ/mol
# GULP energy per Si atom -12390.467518 kJ/mol
# Density = 1.999236 g / cm^3
# Si number density = 20.037963 Si / 1000 Ang^3
#
#
#
# Elastic Constant Matrix: (Units=GPa)
#
#
# Indices 1 2 3 4 5 6 
#
# 1 136.6131 57.8722 80.7622 0.0000 0.0000 0.0000
# 2 57.8722 79.5801 60.1872 0.0000 0.0000 0.0000
# 3 80.7622 60.1872 130.3637 0.0000 0.0000 0.0000
# 4 0.0000 0.0000 0.0000 20.8358 0.0000 0.0000
# 5 0.0000 0.0000 0.0000 0.0000 39.7294 0.0000
# 6 0.0000 0.0000 0.0000 0.0000 0.0000 7.7556
#
#
#
# Elastic Compliance Matrix: (Units=1/GPa)
#
#
# Indices 1 2 3 4 5 6 
#
# 1 0.012755 -0.005070 -0.005562 0.000000 0.000000 0.000000
# 2 -0.005070 0.021323 -0.006704 0.000000 0.000000 0.000000
# 3 -0.005562 -0.006704 0.014211 0.000000 0.000000 0.000000
# 4 0.000000 0.000000 0.000000 0.047994 0.000000 0.000000
# 5 0.000000 0.000000 0.000000 0.000000 0.025170 0.000000
# 6 0.000000 0.000000 0.000000 0.000000 0.000000 0.128940
#
#
# Mechanical properties :
#
#
# Convention : Reuss Voigt Hill
#
# Bulk Modulus (GPa) = 73.42347 82.68888 78.05618
# Shear Modulus (GPa) = 17.26497 23.51319 20.38908
#
# Velocity S-wave (km/s) = 2.93851 3.42926 3.19332
# Velocity P-wave (km/s) = 6.94513 7.55218 7.25501
#
# Compressibility (1/GPa) = 0.01361962
#
# Stress axis : x y z
#
# Youngs Moduli (GPa) = 78.39801 46.89809 70.36652
#
# Poissons Ratio (x) = 0.23776 0.39135
# Poissons Ratio (y) = 0.39746 0.47172
# Poissons Ratio (z) = 0.43601 0.31439
#
# Static dielectric constant tensor:
#      x y z
#    x 3.690780 0.000000 0.000000 
#    y 0.000000 3.777290 0.000000 
#    z 0.000000 0.000000 3.879150 
# 
# 
# High freq. dielectric constant tensor:
#      x y z
#    x 1.767030 0.000000 0.000000 
#    y 0.000000 1.785310 0.000000 
#    z 0.000000 0.000000 1.790490 
# 
# From -- ./inp_files/10602.got.cif
#   From: 2010.03.12/outbox.cif.g09.slc.cpg/sg38_6_cif.got.tgz:10602.got - 2010.04.14 02:38:36.
