data_PCOD8180574
_publ_section_title
;
Structure prediction by ZEFSAII (Michael W. Deem and Ramdas Pophale) SiO2 
 PCOD8180574
Probable space group: A B M 2
;
_chemical_formula_sum "Si O2"
_cell_formula_units_Z 64
_cell_length_a 36.935260
_cell_length_b 15.456497
_cell_length_c 5.274139
_cell_angle_alpha 90.000000
_cell_angle_beta 90.000000
_cell_angle_gamma 90.000000
_cell_volume 3010.951818
_symmetry_space_group_name_H-M "A B M 2"
_symmetry_group_IT_number 39
_symmetry_cell_setting 'orthorhombic'
loop_
_space_group_symop_operation_xyz
x,y,z
-x,-y,z
-x,1/2+y,z
x,1/2-y,z
x,1/2+y,1/2+z
-x,1/2-y,1/2+z
-x,y,1/2+z
x,-y,1/2+z
loop_
_atom_site_type_symbol
_atom_site_label
_atom_site_fract_x
_atom_site_fract_y
_atom_site_fract_z
Si Si1 0.132829 0.402491 0.087490
Si Si2 0.406125 0.552888 0.045067
Si Si3 0.977816 0.648889 0.588875
Si Si4 0.671932 0.055044 0.127077
Si Si5 0.785786 0.853376 0.085385
Si Si6 0.898034 0.903957 0.587485
Si Si7 0.515190 0.098628 0.098170
Si Si8 0.744966 0.351456 0.085557
O O1 0.175896 0.400673 0.089274
O O2 0.116857 0.354731 0.337046
O O3 0.118182 0.500017 0.085785
O O4 0.117182 0.354712 0.836934
O O5 0.407764 0.475534 0.251340
O O6 0.367604 0.601009 0.093679
O O7 0.441431 0.610284 0.096047
O O8 0.967815 0.750000 0.588797
O O9 0.941318 0.593226 0.588871
O O10 0.000021 0.623180 0.338963
O O11 0.702862 0.125235 0.085588
O O12 0.675573 0.018534 0.411852
O O13 0.790854 0.750000 0.085564
O O14 0.763891 0.887200 0.330982
O O15 0.764816 0.887525 0.836330
O O16 0.500768 0.146100 0.350215
O O17 0.500000 0.000000 0.098448
O O18 0.748159 0.250000 0.086553
#
# Coordination Sequence:
#
# PCOD8180574 Si02
#       8
#     8   8   8   8   8   8   8   8
#     4  10  21  38  53  82 113 139 178 213 269 317
#     4  10  16  25  39  59  95 129 160 213 256 322
#     4  10  21  38  60  85 111 143 185 225 258 301
#     4  10  21  35  50  79 109 139 176 220 283 324
#     4  10  21  38  61  81 105 139 182 228 265 313
#     4  10  21  38  56  81 115 149 175 214 265 319
#     4  10  14  20  34  55  81 126 165 196 255 310
#     4  10  21  40  59  80 107 142 185 225 271 330
#
# _framework density 21.255737
#
# number of rings (size 3 to 8) (size 9 to 14) (size 15 to 20)
#    0.000    2.000    2.500    2.250    0.000    1.000 
#   13.500    7.500    0.000    0.000    0.000    0.000 
#    0.000    1.000    0.000    0.000    0.000    5.000 
#
# Total GULP energy -396581.458268 kJ/mol
# GULP energy per Si atom -12393.170571 kJ/mol
# Density = 2.120736 g / cm^3
# Si number density = 21.255737 Si / 1000 Ang^3
#
#
#
# Elastic Constant Matrix: (Units=GPa)
#
#
# Indices 1 2 3 4 5 6 
#
# 1 223.8909 23.2384 82.4249 0.0000 0.0000 0.0000
# 2 23.2384 17.4497 7.5048 0.0000 0.0000 0.0000
# 3 82.4249 7.5048 217.2629 0.0000 0.0000 0.0000
# 4 0.0000 0.0000 0.0000 0.0495 0.0000 0.0000
# 5 0.0000 0.0000 0.0000 0.0000 42.0130 0.0000
# 6 0.0000 0.0000 0.0000 0.0000 0.0000 5.7888
#
#
#
# Elastic Compliance Matrix: (Units=1/GPa)
#
#
# Indices 1 2 3 4 5 6 
#
# 1 0.005937 -0.007043 -0.002009 0.000000 0.000000 0.000000
# 2 -0.007043 0.066526 0.000374 0.000000 0.000000 0.000000
# 3 -0.002009 0.000374 0.005352 0.000000 0.000000 0.000000
# 4 0.000000 0.000000 0.000000 20.209163 0.000000 0.000000
# 5 0.000000 0.000000 0.000000 0.000000 0.023802 0.000000
# 6 0.000000 0.000000 0.000000 0.000000 0.000000 0.172747
#
#
# Mechanical properties :
#
#
# Convention : Reuss Voigt Hill
#
# Bulk Modulus (GPa) = 16.54012 76.10442 46.32227
# Shear Modulus (GPa) = 0.24365 32.59928 16.42146
#
# Velocity S-wave (km/s) = 0.33894 3.92046 2.78252
# Velocity P-wave (km/s) = 2.81985 7.50834 5.67128
#
# Compressibility (1/GPa) = 0.06045904
#
# Stress axis : x y z
#
# Youngs Moduli (GPa) = 168.43254 15.03180 186.84497
#
# Poissons Ratio (x) = 0.10586 0.37540
# Poissons Ratio (y) = 1.18620 -0.06985
# Poissons Ratio (z) = 0.33840 -0.00562
#
# Static dielectric constant tensor:
#      x y z
#    x 4.055810 0.000000 0.000000 
#    y 0.000000 3.240980 0.000000 
#    z 0.000000 0.000000 8.612980 
# 
# 
# High freq. dielectric constant tensor:
#      x y z
#    x 1.852550 0.000000 0.000000 
#    y 0.000000 1.759550 0.000000 
#    z 0.000000 0.000000 1.874510 
# 
# From -- ./inp_files/1539.got.cif
#   From: 2010.03.12/outbox.cif.g09.slc.cpg/sg39_1_cif.got.tgz:1539.got - 2010.04.14 02:53:20.
