data_PCOD8180479
_publ_section_title
;
Structure prediction by ZEFSAII (Michael W. Deem and Ramdas Pophale) SiO2 
 PCOD8180479
Probable space group: A M M 2
;
_chemical_formula_sum "Si O2"
_cell_formula_units_Z 48
_cell_length_a 20.709111
_cell_length_b 7.788351
_cell_length_c 14.587322
_cell_angle_alpha 90.000000
_cell_angle_beta 90.000000
_cell_angle_gamma 90.000000
_cell_volume 2352.786618
_symmetry_space_group_name_H-M "A M M 2"
_symmetry_group_IT_number 38
_symmetry_cell_setting 'orthorhombic'
loop_
_space_group_symop_operation_xyz
x,y,z
-x,-y,z
-x,y,z
x,-y,z
x,1/2+y,1/2+z
-x,1/2-y,1/2+z
-x,1/2+y,1/2+z
x,1/2-y,1/2+z
loop_
_atom_site_type_symbol
_atom_site_label
_atom_site_fract_x
_atom_site_fract_y
_atom_site_fract_z
Si Si1 0.423491 0.500000 0.556360
Si Si2 0.000000 0.204762 0.313031
Si Si3 0.865450 0.693335 0.743620
Si Si4 0.777508 0.307506 0.398171
Si Si5 0.368920 0.808382 0.894144
Si Si6 0.423828 0.000000 0.271257
Si Si7 0.859982 0.306907 0.057267
Si Si8 0.000000 0.703435 0.016611
O O1 0.500000 0.500000 0.556723
O O2 0.399359 0.330718 0.497827
O O3 0.398260 0.500000 0.663793
O O4 0.935232 0.276891 0.266251
O O5 0.000000 0.277679 0.414851
O O6 0.000000 0.000000 0.315466
O O7 0.875323 0.500000 0.710210
O O8 0.817522 0.689874 0.829233
O O9 0.833762 0.801007 0.661044
O O10 0.778552 0.500000 0.360284
O O11 0.704265 0.241863 0.406787
O O12 0.811824 0.304515 0.496553
O O13 0.403355 0.671013 0.827604
O O14 0.371839 0.000000 0.847749
O O15 0.500000 0.000000 0.266923
O O16 0.859927 0.500000 0.017996
O O17 0.933266 0.229133 0.061652
O O18 0.000000 0.500000 0.020546
#
# Coordination Sequence:
#
# PCOD8180479 Si02
#       8
#     4   4   8   8   8   4   8   4
#     4   9  20  44  69 101 139 170 216 269 312 377
#     4   9  17  34  56  79 106 146 198 253 318 375
#     4  11  22  37  59  83 114 153 199 257 313 375
#     4  11  23  41  59  85 120 159 204 248 302 367
#     4   9  23  43  65  95 141 176 214 271 317 377
#     4  11  22  40  75 107 133 178 222 259 324 387
#     4  11  22  37  59  83 115 154 200 255 315 378
#     4   9  17  34  56  79 108 146 196 257 316 371
#
# _framework density 20.401340999999999
#
# number of rings (size 3 to 8) (size 9 to 14) (size 15 to 20)
#    0.500    1.333    1.667    2.500    2.333    1.333 
#    1.500    3.333    0.000    0.000    0.000    0.000 
#    0.000    0.000    0.000    0.000    0.000    0.000 
#
# Total GULP energy -297345.313349 kJ/mol
# GULP energy per Si atom -12389.388056 kJ/mol
# Density = 2.035491 g / cm^3
# Si number density = 20.401341 Si / 1000 Ang^3
#
#
#
# Elastic Constant Matrix: (Units=GPa)
#
#
# Indices 1 2 3 4 5 6 
#
# 1 126.5991 24.6541 50.6121 0.0000 0.0000 0.0000
# 2 24.6541 65.4124 32.0627 0.0000 0.0000 0.0000
# 3 50.6121 32.0627 156.7298 0.0000 0.0000 0.0000
# 4 0.0000 0.0000 0.0000 30.9283 0.0000 0.0000
# 5 0.0000 0.0000 0.0000 0.0000 -10.6907 0.0000
# 6 0.0000 0.0000 0.0000 0.0000 0.0000 22.4009
#
#
#
# Elastic Compliance Matrix: (Units=1/GPa)
#
#
# Indices 1 2 3 4 5 6 
#
# 1 0.009365 -0.002276 -0.002559 0.000000 0.000000 0.000000
# 2 -0.002276 0.017544 -0.002854 0.000000 0.000000 0.000000
# 3 -0.002559 -0.002854 0.007791 0.000000 0.000000 0.000000
# 4 0.000000 0.000000 0.000000 0.032333 0.000000 0.000000
# 5 0.000000 0.000000 0.000000 0.000000 -0.093539 0.000000
# 6 0.000000 0.000000 0.000000 0.000000 0.000000 0.044641
#
#
# Mechanical properties :
#
#
# Convention : Reuss Voigt Hill
#
# Bulk Modulus (GPa) = 51.75193 62.59990 57.17591
# Shear Modulus (GPa) = 125.14864 24.62186 74.88525
#
# Velocity S-wave (km/s) = 7.84070 3.47778 6.06512
# Velocity P-wave (km/s) = 10.36295 6.84671 8.78260
#
# Compressibility (1/GPa) = 0.01932295
#
# Stress axis : x y z
#
# Youngs Moduli (GPa) = 106.78045 56.99846 128.36010
#
# Poissons Ratio (x) = 0.12970 0.32843
# Poissons Ratio (y) = 0.24298 0.36637
# Poissons Ratio (z) = 0.27322 0.16269
#
# Static dielectric constant tensor:
#      x y z
#    x 3.722660 0.000000 0.000000 
#    y 0.000000 3.390170 0.000000 
#    z 0.000000 0.000000 3.743170 
# 
# 
# High freq. dielectric constant tensor:
#      x y z
#    x 1.791670 0.000000 0.000000 
#    y 0.000000 1.779090 0.000000 
#    z 0.000000 0.000000 1.800530 
# 
# From -- ./inp_files/15091.got.cif
#   From: 2010.03.12/outbox.cif.g09.slc.cpg/sg38_8_cif.got.tgz:15091.got - 2010.04.14 02:38:36.
