data_PCOD8180949
_publ_section_title
;
Structure prediction by ZEFSAII (Michael W. Deem and Ramdas Pophale) SiO2 
 PCOD8180949
Probable space group: A B M 2
;
_chemical_formula_sum "Si O2"
_cell_formula_units_Z 64
_cell_length_a 14.578170
_cell_length_b 9.234790
_cell_length_c 24.531542
_cell_angle_alpha 90.000000
_cell_angle_beta 90.000000
_cell_angle_gamma 90.000000
_cell_volume 3302.591678
_symmetry_space_group_name_H-M "A B M 2"
_symmetry_group_IT_number 39
_symmetry_cell_setting 'orthorhombic'
loop_
_space_group_symop_operation_xyz
x,y,z
-x,-y,z
-x,1/2+y,z
x,1/2-y,z
x,1/2+y,1/2+z
-x,1/2-y,1/2+z
-x,y,1/2+z
x,-y,1/2+z
loop_
_atom_site_type_symbol
_atom_site_label
_atom_site_fract_x
_atom_site_fract_y
_atom_site_fract_z
Si Si1 0.582974 0.084788 0.449360
Si Si2 0.324288 0.916111 0.862352
Si Si3 0.910562 0.084009 0.268911
Si Si4 0.728828 0.583220 0.242575
Si Si5 0.150312 0.412726 0.888666
Si Si6 0.402257 0.921871 0.643297
Si Si7 0.718454 0.916538 0.044574
Si Si8 0.088205 0.082243 0.007905
O O1 0.554538 0.250000 0.441737
O O2 0.673187 0.065407 0.485490
O O3 0.500000 0.000000 0.478885
O O4 0.597369 0.012900 0.390132
O O5 0.339712 0.750000 0.878355
O O6 0.328258 0.941442 0.797828
O O7 0.227061 0.965304 0.886002
O O8 0.915543 0.250000 0.249513
O O9 0.911447 0.074122 0.334645
O O10 0.819891 0.014285 0.242105
O O11 0.000000 0.000000 0.247000
O O12 0.760127 0.750000 0.236895
O O13 0.659475 0.537114 0.195158
O O14 0.194292 0.250000 0.891565
O O15 0.091316 0.441496 0.942691
O O16 0.419885 0.750000 0.638748
O O17 0.345278 0.985880 0.591506
O O18 0.500000 0.000000 0.647082
O O19 0.728786 0.750000 0.060503
O O20 0.820914 0.982212 0.038203
O O21 0.077630 0.250000 0.022057
O O22 0.000000 0.000000 0.031596
#
# Coordination Sequence:
#
# PCOD8180949 Si02
#       8
#     8   8   8   8   8   8   8   8
#     4  11  21  35  54  79 110 144 180 221 273 336
#     4  10  19  32  51  78 111 146 181 221 270 325
#     4  10  19  31  52  81 114 152 191 229 274 324
#     4   9  20  37  56  80 112 145 185 231 277 329
#     4   9  17  31  50  74 109 150 186 223 268 320
#     4  10  21  40  64  85 105 139 183 234 286 332
#     4   9  19  37  59  79 109 145 179 224 278 330
#     4  10  19  33  52  78 110 145 182 219 268 322
#
# _framework density 19.378720000000001
#
# number of rings (size 3 to 8) (size 9 to 14) (size 15 to 20)
#    0.000    2.250    1.250    1.875    0.000    2.500 
#    0.000    3.125    0.000    1.500    0.000    0.000 
#    0.000    0.000    0.000    0.000    0.000    0.000 
#
# Total GULP energy -396704.579981 kJ/mol
# GULP energy per Si atom -12397.018124 kJ/mol
# Density = 1.933461 g / cm^3
# Si number density = 19.378720 Si / 1000 Ang^3
#
#
#
# Elastic Constant Matrix: (Units=GPa)
#
#
# Indices 1 2 3 4 5 6 
#
# 1 147.7809 66.7743 53.9586 0.0000 0.0000 0.0000
# 2 66.7743 96.9810 44.3620 0.0000 0.0000 0.0000
# 3 53.9586 44.3620 86.1421 0.0000 0.0000 0.0000
# 4 0.0000 0.0000 0.0000 18.0971 0.0000 0.0000
# 5 0.0000 0.0000 0.0000 0.0000 23.7657 0.0000
# 6 0.0000 0.0000 0.0000 0.0000 0.0000 38.8052
#
#
#
# Elastic Compliance Matrix: (Units=1/GPa)
#
#
# Indices 1 2 3 4 5 6 
#
# 1 0.010698 -0.005626 -0.003804 0.000000 0.000000 0.000000
# 2 -0.005626 0.016447 -0.004946 0.000000 0.000000 0.000000
# 3 -0.003804 -0.004946 0.016539 0.000000 0.000000 0.000000
# 4 0.000000 0.000000 0.000000 0.055257 0.000000 0.000000
# 5 0.000000 0.000000 0.000000 0.000000 0.042077 0.000000
# 6 0.000000 0.000000 0.000000 0.000000 0.000000 0.025770
#
#
# Mechanical properties :
#
#
# Convention : Reuss Voigt Hill
#
# Bulk Modulus (GPa) = 66.96950 73.45486 70.21218
# Shear Modulus (GPa) = 24.93558 27.18754 26.06156
#
# Velocity S-wave (km/s) = 3.59102 3.74967 3.67120
# Velocity P-wave (km/s) = 7.19911 7.53219 7.36753
#
# Compressibility (1/GPa) = 0.01493217
#
# Stress axis : x y z
#
# Youngs Moduli (GPa) = 93.47943 60.80023 60.46459
#
# Poissons Ratio (x) = 0.34204 0.22999
# Poissons Ratio (y) = 0.52588 0.29907
# Poissons Ratio (z) = 0.35557 0.30074
#
# Static dielectric constant tensor:
#      x y z
#    x 3.493150 0.000000 0.000000 
#    y 0.000000 3.460810 0.000000 
#    z 0.000000 0.000000 3.482020 
# 
# 
# High freq. dielectric constant tensor:
#      x y z
#    x 1.757060 0.000000 0.000000 
#    y 0.000000 1.742250 0.000000 
#    z 0.000000 0.000000 1.737720 
# 
# From -- ./inp_files/16208.got.cif
#   From: 2010.03.12/outbox.cif.g09.slc.cpg/sg39_9_cif.got.tgz:16208.got - 2010.04.14 02:53:20.
