data_PCOD8180671
_publ_section_title
;
Structure prediction by ZEFSAII (Michael W. Deem and Ramdas Pophale) SiO2 
 PCOD8180671
Probable space group: A B M 2
;
_chemical_formula_sum "Si O2"
_cell_formula_units_Z 48
_cell_length_a 15.738224
_cell_length_b 8.667820
_cell_length_c 19.425478
_cell_angle_alpha 90.000000
_cell_angle_beta 90.000000
_cell_angle_gamma 90.000000
_cell_volume 2649.947809
_symmetry_space_group_name_H-M "A B M 2"
_symmetry_group_IT_number 39
_symmetry_cell_setting 'orthorhombic'
loop_
_space_group_symop_operation_xyz
x,y,z
-x,-y,z
-x,1/2+y,z
x,1/2-y,z
x,1/2+y,1/2+z
-x,1/2-y,1/2+z
-x,y,1/2+z
x,-y,1/2+z
loop_
_atom_site_type_symbol
_atom_site_label
_atom_site_fract_x
_atom_site_fract_y
_atom_site_fract_z
Si Si1 0.410618 0.567460 0.332490
Si Si2 0.733421 0.929979 0.087450
Si Si3 0.411583 0.067462 0.989745
Si Si4 0.918789 0.569508 0.092593
Si Si5 0.260083 0.433074 0.243228
Si Si6 0.085472 0.931299 0.242806
O O1 0.500000 0.500000 0.306055
O O2 0.410627 0.750000 0.323249
O O3 0.395216 0.516447 0.411315
O O4 0.336975 0.493279 0.288114
O O5 0.714887 0.750000 0.091147
O O6 0.828070 0.959744 0.055543
O O7 0.726960 0.995927 0.165057
O O8 0.663536 0.004931 0.036902
O O9 0.415429 0.250000 0.995354
O O10 0.500000 0.000000 0.017487
O O11 0.931437 0.750000 0.108140
O O12 0.916536 0.475042 0.162996
O O13 0.000000 0.500000 0.049930
O O14 0.256014 0.250000 0.244639
O O15 0.171712 0.497424 0.274915
O O16 0.086734 0.750000 0.254092
O O17 0.000000 0.000000 0.278764
#
# Coordination Sequence:
#
# PCOD8180671 Si02
#       6
#     8   8   8   8   8   8
#     4  10  20  34  52  71  93 125 162 199 241 291
#     4   8  16  30  48  70  95 124 155 193 240 281
#     4   9  18  34  52  69  91 122 160 196 235 285
#     4   9  15  25  42  65  94 126 158 192 234 281
#     4  10  19  32  50  73 101 128 159 200 242 284
#     4  10  17  27  44  68  98 129 162 196 236 284
#
# _framework density 18.113565000000001
#
# number of rings (size 3 to 8) (size 9 to 14) (size 15 to 20)
#    0.000    2.667    0.000    5.000    0.000    1.333 
#    0.000    6.667    0.000    1.000    0.000    2.333 
#    0.000    0.000    0.000    0.000    0.000    0.000 
#
# Total GULP energy -297413.706691 kJ/mol
# GULP energy per Si atom -12392.237779 kJ/mol
# Density = 1.807234 g / cm^3
# Si number density = 18.113565 Si / 1000 Ang^3
#
#
#
# Elastic Constant Matrix: (Units=GPa)
#
#
# Indices 1 2 3 4 5 6 
#
# 1 212.9387 54.6731 68.8532 0.0000 0.0000 0.0000
# 2 54.6731 79.8911 23.7711 0.0000 0.0000 0.0000
# 3 68.8532 23.7711 51.2852 0.0000 0.0000 0.0000
# 4 0.0000 0.0000 0.0000 13.2066 0.0000 0.0000
# 5 0.0000 0.0000 0.0000 0.0000 -1.4922 0.0000
# 6 0.0000 0.0000 0.0000 0.0000 0.0000 36.2793
#
#
#
# Elastic Compliance Matrix: (Units=1/GPa)
#
#
# Indices 1 2 3 4 5 6 
#
# 1 0.008851 -0.002925 -0.010528 0.000000 0.000000 0.000000
# 2 -0.002925 0.015486 -0.003251 0.000000 0.000000 0.000000
# 3 -0.010528 -0.003251 0.035140 0.000000 0.000000 0.000000
# 4 0.000000 0.000000 0.000000 0.075720 0.000000 0.000000
# 5 0.000000 0.000000 0.000000 0.000000 -0.670167 0.000000
# 6 0.000000 0.000000 0.000000 0.000000 0.000000 0.027564
#
#
# Mechanical properties :
#
#
# Convention : Reuss Voigt Hill
#
# Bulk Modulus (GPa) = 38.35863 70.96777 54.66320
# Shear Modulus (GPa) = -10.74554 22.71992 5.98719
#
# Velocity S-wave (km/s) = -2.43828 3.54546 1.82004
# Velocity P-wave (km/s) = 3.64634 7.48497 5.88730
#
# Compressibility (1/GPa) = 0.02606975
#
# Stress axis : x y z
#
# Youngs Moduli (GPa) = 112.97867 64.57446 28.45799
#
# Poissons Ratio (x) = 0.18887 0.29959
# Poissons Ratio (y) = 0.33045 0.09252
# Poissons Ratio (z) = 1.18939 0.20993
#
# Static dielectric constant tensor:
#      x y z
#    x 4.175300 0.000000 0.000000 
#    y 0.000000 3.285200 0.000000 
#    z 0.000000 0.000000 3.095000 
# 
# 
# High freq. dielectric constant tensor:
#      x y z
#    x 1.730960 0.000000 0.000000 
#    y 0.000000 1.697770 0.000000 
#    z 0.000000 0.000000 1.645480 
# 
# From -- ./inp_files/12664.got.cif
#   From: 2010.03.12/outbox.cif.g09.slc.cpg/sg39_7_cif.got.tgz:12664.got - 2010.04.14 02:53:20.
