data_PCOD8180462
_publ_section_title
;
Structure prediction by ZEFSAII (Michael W. Deem and Ramdas Pophale) SiO2 
 PCOD8180462
Probable space group: A M M 2
;
_chemical_formula_sum "Si O2"
_cell_formula_units_Z 48
_cell_length_a 17.296324
_cell_length_b 7.861913
_cell_length_c 19.033028
_cell_angle_alpha 90.000000
_cell_angle_beta 90.000000
_cell_angle_gamma 90.000000
_cell_volume 2588.152916
_symmetry_space_group_name_H-M "A M M 2"
_symmetry_group_IT_number 38
_symmetry_cell_setting 'orthorhombic'
loop_
_space_group_symop_operation_xyz
x,y,z
-x,-y,z
-x,y,z
x,-y,z
x,1/2+y,1/2+z
-x,1/2-y,1/2+z
-x,1/2+y,1/2+z
x,1/2-y,1/2+z
loop_
_atom_site_type_symbol
_atom_site_label
_atom_site_fract_x
_atom_site_fract_y
_atom_site_fract_z
Si Si1 0.360361 0.798664 0.298910
Si Si2 0.361959 0.301377 0.954834
Si Si3 0.811084 0.310197 0.792473
Si Si4 0.500000 0.703811 0.705774
Si Si5 0.500000 0.307586 0.551473
Si Si6 0.912499 0.000000 0.960006
Si Si7 0.912698 0.500000 0.292241
Si Si8 0.811241 0.811252 0.459706
O O1 0.373759 0.720873 0.377061
O O2 0.275095 0.751811 0.269757
O O3 0.424204 0.725180 0.245862
O O4 0.366201 0.000000 0.305534
O O5 0.376514 0.500000 0.950234
O O6 0.275704 0.261591 0.983215
O O7 0.422983 0.226650 0.008456
O O8 0.831343 0.500000 0.763169
O O9 0.871154 0.170496 0.763049
O O10 0.813849 0.316670 0.876106
O O11 0.500000 0.500000 0.707487
O O12 0.500000 0.785669 0.627459
O O13 0.500000 0.500000 0.573800
O O14 0.910395 0.000000 0.876152
O O15 0.870134 0.169417 0.989322
O O16 0.000000 0.000000 0.988316
O O17 0.000000 0.500000 0.263850
O O18 0.833782 0.000000 0.488498
#
# Coordination Sequence:
#
# PCOD8180462 Si02
#       8
#     8   8   8   4   4   4   4   8
#     4   8  14  28  51  67  80 119 168 198 223 265
#     4   9  17  31  50  65  83 122 166 198 228 270
#     4   8  14  25  41  61  83 114 156 192 223 268
#     4   9  17  29  45  67  94 121 150 196 236 280
#     4  11  22  29  41  69  98 123 144 192 248 287
#     4   9  16  24  38  61  93 127 147 180 236 281
#     4   9  16  24  36  59  93 125 145 178 234 281
#     4   8  15  26  41  62  85 116 157 193 226 271
#
# _framework density 18.546043999999998
#
# number of rings (size 3 to 8) (size 9 to 14) (size 15 to 20)
#    0.000    3.333    0.000    2.750    1.167    2.000 
#    1.500    3.333    3.667    0.000    0.000    0.000 
#    0.000    1.333    0.667    0.000    0.000    0.000 
#
# Total GULP energy -297393.121243 kJ/mol
# GULP energy per Si atom -12391.380052 kJ/mol
# Density = 1.850383 g / cm^3
# Si number density = 18.546044 Si / 1000 Ang^3
#
#
#
# Elastic Constant Matrix: (Units=GPa)
#
#
# Indices 1 2 3 4 5 6 
#
# 1 167.1633 77.1879 44.0525 0.0000 0.0000 0.0000
# 2 77.1879 93.0708 21.4420 0.0000 0.0000 0.0000
# 3 44.0525 21.4420 55.8139 0.0000 0.0000 0.0000
# 4 0.0000 0.0000 0.0000 7.4110 0.0000 0.0000
# 5 0.0000 0.0000 0.0000 0.0000 0.7956 0.0000
# 6 0.0000 0.0000 0.0000 0.0000 0.0000 32.1893
#
#
#
# Elastic Compliance Matrix: (Units=1/GPa)
#
#
# Indices 1 2 3 4 5 6 
#
# 1 0.011163 -0.007930 -0.005764 0.000000 0.000000 0.000000
# 2 -0.007930 0.017421 -0.000434 0.000000 0.000000 0.000000
# 3 -0.005764 -0.000434 0.022633 0.000000 0.000000 0.000000
# 4 0.000000 0.000000 0.000000 0.134935 0.000000 0.000000
# 5 0.000000 0.000000 0.000000 0.000000 1.256961 0.000000
# 6 0.000000 0.000000 0.000000 0.000000 0.000000 0.031066
#
#
# Mechanical properties :
#
#
# Convention : Reuss Voigt Hill
#
# Bulk Modulus (GPa) = 43.55189 66.82366 55.18778
# Shear Modulus (GPa) = 3.31107 19.63687 11.47397
#
# Velocity S-wave (km/s) = 1.33761 3.25748 2.49002
# Velocity P-wave (km/s) = 5.09114 7.08926 6.17160
#
# Compressibility (1/GPa) = 0.02296112
#
# Stress axis : x y z
#
# Youngs Moduli (GPa) = 89.58300 57.40169 44.18366
#
# Poissons Ratio (x) = 0.45519 0.25468
# Poissons Ratio (y) = 0.71038 0.01917
# Poissons Ratio (z) = 0.51637 0.02490
#
# Static dielectric constant tensor:
#      x y z
#    x 3.640130 0.000000 0.000000 
#    y 0.000000 3.493750 0.000000 
#    z 0.000000 0.000000 3.062310 
# 
# 
# High freq. dielectric constant tensor:
#      x y z
#    x 1.724500 0.000000 0.000000 
#    y 0.000000 1.712800 0.000000 
#    z 0.000000 0.000000 1.649580 
# 
# From -- ./inp_files/18273.got.cif
#   From: 2010.03.12/outbox.cif.g09.slc.cpg/sg38_10_cif.got.tgz:18273.got - 2010.04.14 02:38:36.
