data_PCOD8180775
_publ_section_title
;
Structure prediction by ZEFSAII (Michael W. Deem and Ramdas Pophale) SiO2 
 PCOD8180775
Probable space group: A B M 2
;
_chemical_formula_sum "Si O2"
_cell_formula_units_Z 56
_cell_length_a 19.840944
_cell_length_b 8.949359
_cell_length_c 15.247073
_cell_angle_alpha 90.000000
_cell_angle_beta 90.000000
_cell_angle_gamma 90.000000
_cell_volume 2707.327165
_symmetry_space_group_name_H-M "A B M 2"
_symmetry_group_IT_number 39
_symmetry_cell_setting 'orthorhombic'
loop_
_space_group_symop_operation_xyz
x,y,z
-x,-y,z
-x,1/2+y,z
x,1/2-y,z
x,1/2+y,1/2+z
-x,1/2-y,1/2+z
-x,y,1/2+z
x,-y,1/2+z
loop_
_atom_site_type_symbol
_atom_site_label
_atom_site_fract_x
_atom_site_fract_y
_atom_site_fract_z
Si Si1 0.198459 0.080142 0.549770
Si Si2 0.336988 0.424218 0.802461
Si Si3 0.066683 0.419575 0.841096
Si Si4 0.934186 0.582855 0.050272
Si Si5 0.427936 0.572732 0.946541
Si Si6 0.659472 0.576358 0.605728
Si Si7 0.798897 0.078876 0.841688
O O1 0.189115 0.250000 0.580641
O O2 0.266278 0.005633 0.590076
O O3 0.204588 0.068756 0.445824
O O4 0.133895 0.992285 0.586463
O O5 0.340687 0.250000 0.828896
O O6 0.380798 0.524521 0.866655
O O7 0.366042 0.450360 0.704427
O O8 0.260142 0.477987 0.801950
O O9 0.069540 0.250000 0.806276
O O10 0.131155 0.510876 0.806157
O O11 0.000000 0.500000 0.803755
O O12 0.065520 0.422245 0.945720
O O13 0.936389 0.750000 0.086251
O O14 0.000000 0.500000 0.087887
O O15 0.500000 0.500000 0.934140
O O16 0.435872 0.750000 0.945197
O O17 0.395392 0.511749 0.037376
O O18 0.667943 0.750000 0.583357
O O19 0.791980 0.250000 0.810115
#
# Coordination Sequence:
#
# PCOD8180775 Si02
#       7
#     8   8   8   8   8   8   8
#     4   9  16  31  53  75 105 150 192 236 288 343
#     4  11  22  38  62  92 122 156 197 242 291 346
#     4   9  16  26  42  70 107 147 195 247 299 354
#     4   9  16  25  40  69 105 143 188 240 289 344
#     4  11  23  44  67  92 123 157 193 234 287 346
#     4   9  20  39  62  87 120 158 196 237 289 347
#     4  10  18  31  53  79 112 154 197 243 296 351
#
# _framework density 20.684607
#
# number of rings (size 3 to 8) (size 9 to 14) (size 15 to 20)
#    0.000    2.286    1.429    2.143    0.000    4.571 
#    0.000    5.714    0.000    0.857    0.000    4.000 
#    0.000    0.000    0.000    0.000    0.000    0.000 
#
# Total GULP energy -347210.490441 kJ/mol
# GULP energy per Si atom -12400.374659 kJ/mol
# Density = 2.063753 g / cm^3
# Si number density = 20.684607 Si / 1000 Ang^3
#
#
#
# Elastic Constant Matrix: (Units=GPa)
#
#
# Indices 1 2 3 4 5 6 
#
# 1 134.5105 40.1943 32.7011 0.0000 0.0000 0.0000
# 2 40.1943 106.8294 25.1742 0.0000 0.0000 0.0000
# 3 32.7011 25.1742 60.6702 0.0000 0.0000 0.0000
# 4 0.0000 0.0000 0.0000 17.8848 0.0000 0.0000
# 5 0.0000 0.0000 0.0000 0.0000 1.5316 0.0000
# 6 0.0000 0.0000 0.0000 0.0000 0.0000 38.5276
#
#
#
# Elastic Compliance Matrix: (Units=1/GPa)
#
#
# Indices 1 2 3 4 5 6 
#
# 1 0.009130 -0.002522 -0.003875 0.000000 0.000000 0.000000
# 2 -0.002522 0.011072 -0.003235 0.000000 0.000000 0.000000
# 3 -0.003875 -0.003235 0.019913 0.000000 0.000000 0.000000
# 4 0.000000 0.000000 0.000000 0.055914 0.000000 0.000000
# 5 0.000000 0.000000 0.000000 0.000000 0.652914 0.000000
# 6 0.000000 0.000000 0.000000 0.000000 0.000000 0.025955
#
#
# Mechanical properties :
#
#
# Convention : Reuss Voigt Hill
#
# Bulk Modulus (GPa) = 47.95629 55.34988 51.65309
# Shear Modulus (GPa) = 6.24133 25.18483 15.71308
#
# Velocity S-wave (km/s) = 1.73895 3.49315 2.75917
# Velocity P-wave (km/s) = 5.22176 6.56403 5.93099
#
# Compressibility (1/GPa) = 0.02085232
#
# Stress axis : x y z
#
# Youngs Moduli (GPa) = 109.52955 90.31866 50.21815
#
# Poissons Ratio (x) = 0.22779 0.19457
# Poissons Ratio (y) = 0.27624 0.16244
# Poissons Ratio (z) = 0.42437 0.29216
#
# Static dielectric constant tensor:
#      x y z
#    x 3.912500 0.000000 0.000000 
#    y 0.000000 3.713340 0.000000 
#    z 0.000000 0.000000 3.440410 
# 
# 
# High freq. dielectric constant tensor:
#      x y z
#    x 1.815920 0.000000 0.000000 
#    y 0.000000 1.802010 0.000000 
#    z 0.000000 0.000000 1.787490 
# 
# From -- ./inp_files/10375.got.cif
#   From: 2010.03.12/outbox.cif.g09.slc.cpg/sg39_6_cif.got.tgz:10375.got - 2010.04.14 02:53:20.
