data_PCOD8180952
_publ_section_title
;
Structure prediction by ZEFSAII (Michael W. Deem and Ramdas Pophale) SiO2 
 PCOD8180952
Probable space group: A B M 2
;
_chemical_formula_sum "Si O2"
_cell_formula_units_Z 56
_cell_length_a 19.799871
_cell_length_b 8.879601
_cell_length_c 15.473073
_cell_angle_alpha 90.000000
_cell_angle_beta 90.000000
_cell_angle_gamma 90.000000
_cell_volume 2720.397623
_symmetry_space_group_name_H-M "A B M 2"
_symmetry_group_IT_number 39
_symmetry_cell_setting 'orthorhombic'
loop_
_space_group_symop_operation_xyz
x,y,z
-x,-y,z
-x,1/2+y,z
x,1/2-y,z
x,1/2+y,1/2+z
-x,1/2-y,1/2+z
-x,y,1/2+z
x,-y,1/2+z
loop_
_atom_site_type_symbol
_atom_site_label
_atom_site_fract_x
_atom_site_fract_y
_atom_site_fract_z
Si Si1 0.436262 0.925485 0.463420
Si Si2 0.436928 0.076445 0.649571
Si Si3 0.842971 0.577118 0.403359
Si Si4 0.835265 0.576817 0.210714
Si Si5 0.072695 0.927219 0.551905
Si Si6 0.710398 0.575269 0.642753
Si Si7 0.712774 0.574885 0.958613
O O1 0.450373 0.750000 0.474846
O O2 0.362824 0.952002 0.419555
O O3 0.500000 0.000000 0.411133
O O4 0.433420 0.005620 0.555214
O O5 0.454690 0.250000 0.642569
O O6 0.362441 0.050794 0.690529
O O7 0.500000 0.000000 0.701569
O O8 0.847328 0.750000 0.433229
O O9 0.869302 0.557303 0.305005
O O10 0.888224 0.477812 0.466328
O O11 0.765258 0.523458 0.404253
O O12 0.814680 0.750000 0.194880
O O13 0.887269 0.521076 0.137568
O O14 0.768377 0.474065 0.208797
O O15 0.063778 0.750000 0.548545
O O16 0.000000 0.000000 0.554755
O O17 0.718630 0.750000 0.616556
O O18 0.717333 0.472816 0.558310
O O19 0.732748 0.750000 0.952872
#
# Coordination Sequence:
#
# PCOD8180952 Si02
#       7
#     8   8   8   8   8   8   8
#     4   9  16  25  41  68 104 145 192 243 297 351
#     4   9  16  25  40  69 105 144 192 243 294 349
#     4  11  23  40  63  93 124 159 201 247 294 349
#     4  10  23  41  62  90 125 159 198 244 295 350
#     4  11  24  44  68  94 125 160 194 238 291 349
#     4  10  19  31  53  82 113 153 201 248 296 354
#     4  10  19  32  52  80 115 156 198 247 302 355
#
# _framework density 20.585227
#
# number of rings (size 3 to 8) (size 9 to 14) (size 15 to 20)
#    0.000    2.000    1.429    3.429    0.000    5.714 
#    0.000    1.429    0.000    0.857    0.000    0.000 
#    0.000    0.000    0.000    0.000    0.000    0.000 
#
# Total GULP energy -347028.748723 kJ/mol
# GULP energy per Si atom -12393.883883 kJ/mol
# Density = 2.053837 g / cm^3
# Si number density = 20.585227 Si / 1000 Ang^3
#
#
#
# Elastic Constant Matrix: (Units=GPa)
#
#
# Indices 1 2 3 4 5 6 
#
# 1 162.1462 58.7309 45.7643 0.0000 0.0000 0.0000
# 2 58.7309 96.1705 25.2544 0.0000 0.0000 0.0000
# 3 45.7643 25.2544 79.1131 0.0000 0.0000 0.0000
# 4 0.0000 0.0000 0.0000 19.6734 0.0000 0.0000
# 5 0.0000 0.0000 0.0000 0.0000 1.8064 0.0000
# 6 0.0000 0.0000 0.0000 0.0000 0.0000 40.8265
#
#
#
# Elastic Compliance Matrix: (Units=1/GPa)
#
#
# Indices 1 2 3 4 5 6 
#
# 1 0.008805 -0.004409 -0.003686 0.000000 0.000000 0.000000
# 2 -0.004409 0.013557 -0.001777 0.000000 0.000000 0.000000
# 3 -0.003686 -0.001777 0.015340 0.000000 0.000000 0.000000
# 4 0.000000 0.000000 0.000000 0.050830 0.000000 0.000000
# 5 0.000000 0.000000 0.000000 0.000000 0.553582 0.000000
# 6 0.000000 0.000000 0.000000 0.000000 0.000000 0.024494
#
#
# Mechanical properties :
#
#
# Convention : Reuss Voigt Hill
#
# Bulk Modulus (GPa) = 55.68714 66.32546 61.00630
# Shear Modulus (GPa) = 7.22191 26.30661 16.76426
#
# Velocity S-wave (km/s) = 1.87508 3.57870 2.85684
# Velocity P-wave (km/s) = 5.63902 7.02610 6.37042
#
# Compressibility (1/GPa) = 0.01795747
#
# Stress axis : x y z
#
# Youngs Moduli (GPa) = 113.57823 73.75994 65.19109
#
# Poissons Ratio (x) = 0.32521 0.24027
# Poissons Ratio (y) = 0.50077 0.11587
# Poissons Ratio (z) = 0.41861 0.13110
#
# Static dielectric constant tensor:
#      x y z
#    x 4.452180 0.000000 0.000000 
#    y 0.000000 3.789360 0.000000 
#    z 0.000000 0.000000 3.322650 
# 
# 
# High freq. dielectric constant tensor:
#      x y z
#    x 1.818700 0.000000 0.000000 
#    y 0.000000 1.816460 0.000000 
#    z 0.000000 0.000000 1.765190 
# 
# From -- ./inp_files/10350.got.cif
#   From: 2010.03.12/outbox.cif.g09.slc.cpg/sg39_6_cif.got.tgz:10350.got - 2010.04.14 02:53:20.
