data_PCOD8180324
_publ_section_title
;
Structure prediction by ZEFSAII (Michael W. Deem and Ramdas Pophale) SiO2 
 PCOD8180324
Probable space group: A M M 2
;
_chemical_formula_sum "Si O2"
_cell_formula_units_Z 48
_cell_length_a 8.582600
_cell_length_b 20.145252
_cell_length_c 14.363383
_cell_angle_alpha 90.000000
_cell_angle_beta 90.000000
_cell_angle_gamma 90.000000
_cell_volume 2483.409384
_symmetry_space_group_name_H-M "A M M 2"
_symmetry_group_IT_number 38
_symmetry_cell_setting 'orthorhombic'
loop_
_space_group_symop_operation_xyz
x,y,z
-x,-y,z
-x,y,z
x,-y,z
x,1/2+y,1/2+z
-x,1/2-y,1/2+z
-x,1/2+y,1/2+z
x,1/2-y,1/2+z
loop_
_atom_site_type_symbol
_atom_site_label
_atom_site_fract_x
_atom_site_fract_y
_atom_site_fract_z
Si Si1 0.680497 0.181876 0.415450
Si Si2 0.820905 0.575636 0.045910
Si Si3 0.679361 0.424788 0.423493
Si Si4 0.321515 0.866631 0.726682
Si Si5 0.180597 0.304024 0.521947
Si Si6 0.180385 0.774734 0.230321
O O1 0.500000 0.166344 0.429211
O O2 0.778399 0.122271 0.459580
O O3 0.718951 0.251839 0.463627
O O4 0.719450 0.185764 0.306340
O O5 0.790335 0.500000 0.015375
O O6 0.715341 0.592232 0.134415
O O7 0.000000 0.587637 0.073315
O O8 0.500000 0.410038 0.448108
O O9 0.725160 0.500000 0.448003
O O10 0.709531 0.413999 0.314164
O O11 0.787838 0.377659 0.485037
O O12 0.500000 0.842164 0.723043
O O13 0.210567 0.803494 0.735339
O O14 0.230400 0.301651 0.629535
O O15 0.000000 0.285375 0.509890
O O16 0.000000 0.787696 0.251268
#
# Coordination Sequence:
#
# PCOD8180324 Si02
#       6
#     8   8   8   8   8   8
#     4  12  24  39  63  90 120 158 202 252 303 360
#     4  11  24  41  61  88 124 164 204 250 306 365
#     4  10  22  39  59  87 124 161 198 245 300 355
#     4  11  21  35  60  92 125 160 199 246 302 360
#     4  11  23  39  62  88 119 159 201 247 296 357
#     4  11  23  39  61  90 123 157 202 251 298 354
#
# _framework density 19.328267
#
# number of rings (size 3 to 8) (size 9 to 14) (size 15 to 20)
#    0.000    1.000    3.333    4.000    0.000    5.000 
#    0.000    0.833    0.000    1.000    0.000    0.000 
#    0.000    0.000    0.000    0.000    0.000    0.000 
#
# Total GULP energy -297773.497409 kJ/mol
# GULP energy per Si atom -12407.229059 kJ/mol
# Density = 1.928428 g / cm^3
# Si number density = 19.328267 Si / 1000 Ang^3
#
#
#
# Elastic Constant Matrix: (Units=GPa)
#
#
# Indices 1 2 3 4 5 6 
#
# 1 48.8230 12.7785 26.3579 0.0000 0.0000 0.0000
# 2 12.7785 101.5389 35.7708 0.0000 0.0000 0.0000
# 3 26.3579 35.7708 111.9784 0.0000 0.0000 0.0000
# 4 0.0000 0.0000 0.0000 32.3903 0.0000 0.0000
# 5 0.0000 0.0000 0.0000 0.0000 28.4689 0.0000
# 6 0.0000 0.0000 0.0000 0.0000 0.0000 28.6915
#
#
#
# Elastic Compliance Matrix: (Units=1/GPa)
#
#
# Indices 1 2 3 4 5 6 
#
# 1 0.023580 -0.001141 -0.005186 0.000000 0.000000 0.000000
# 2 -0.001141 0.011152 -0.003294 0.000000 0.000000 0.000000
# 3 -0.005186 -0.003294 0.011203 0.000000 0.000000 0.000000
# 4 0.000000 0.000000 0.000000 0.030873 0.000000 0.000000
# 5 0.000000 0.000000 0.000000 0.000000 0.035126 0.000000
# 6 0.000000 0.000000 0.000000 0.000000 0.000000 0.034854
#
#
# Mechanical properties :
#
#
# Convention : Reuss Voigt Hill
#
# Bulk Modulus (GPa) = 37.46070 45.79497 41.62784
# Shear Modulus (GPa) = 28.58303 30.40569 29.49436
#
# Velocity S-wave (km/s) = 3.84971 3.97056 3.91060
# Velocity P-wave (km/s) = 6.25970 6.69068 6.47877
#
# Compressibility (1/GPa) = 0.02669464
#
# Stress axis : x y z
#
# Youngs Moduli (GPa) = 42.40800 89.66638 89.25938
#
# Poissons Ratio (x) = 0.10227 0.46291
# Poissons Ratio (y) = 0.04837 0.29403
# Poissons Ratio (z) = 0.21993 0.29537
#
# Static dielectric constant tensor:
#      x y z
#    x 3.589090 0.000000 0.000000 
#    y 0.000000 3.488770 0.000000 
#    z 0.000000 0.000000 3.626640 
# 
# 
# High freq. dielectric constant tensor:
#      x y z
#    x 1.761370 0.000000 0.000000 
#    y 0.000000 1.745050 0.000000 
#    z 0.000000 0.000000 1.755580 
# 
# From -- ./inp_files/12024.got.cif
#   From: 2010.03.12/outbox.cif.g09.slc.cpg/sg38_7_cif.got.tgz:12024.got - 2010.04.14 02:38:36.
