data_PCOD8180821
_publ_section_title
;
Structure prediction by ZEFSAII (Michael W. Deem and Ramdas Pophale) SiO2 
 PCOD8180821
Probable space group: A B M 2
;
_chemical_formula_sum "Si O2"
_cell_formula_units_Z 52
_cell_length_a 20.909565
_cell_length_b 9.196121
_cell_length_c 13.843087
_cell_angle_alpha 90.000000
_cell_angle_beta 90.000000
_cell_angle_gamma 90.000000
_cell_volume 2661.844144
_symmetry_space_group_name_H-M "A B M 2"
_symmetry_group_IT_number 39
_symmetry_cell_setting 'orthorhombic'
loop_
_space_group_symop_operation_xyz
x,y,z
-x,-y,z
-x,1/2+y,z
x,1/2-y,z
x,1/2+y,1/2+z
-x,1/2-y,1/2+z
-x,y,1/2+z
x,-y,1/2+z
loop_
_atom_site_type_symbol
_atom_site_label
_atom_site_fract_x
_atom_site_fract_y
_atom_site_fract_z
Si Si1 0.000000 0.000000 0.778200
Si Si2 0.107865 0.585128 0.137715
Si Si3 0.799111 0.924630 0.270862
Si Si4 0.436316 0.579048 0.638779
Si Si5 0.335887 0.421625 0.764026
Si Si6 0.897461 0.588661 0.423218
Si Si7 0.440141 0.914155 0.414865
O O1 0.958645 0.096625 0.852282
O O2 0.045992 0.090550 0.707493
O O3 0.134122 0.750000 0.133845
O O4 0.162626 0.477576 0.176288
O O5 0.089965 0.521208 0.030157
O O6 0.792658 0.750000 0.266868
O O7 0.838042 0.982874 0.365249
O O8 0.731536 0.001579 0.274932
O O9 0.500000 0.500000 0.679176
O O10 0.438101 0.750000 0.665080
O O11 0.373822 0.500067 0.678662
O O12 0.430212 0.550019 0.525893
O O13 0.328072 0.250000 0.742668
O O14 0.374177 0.453096 0.862406
O O15 0.875834 0.750000 0.445987
O O16 0.459453 0.750000 0.396461
O O17 0.500000 0.000000 0.370158
#
# Coordination Sequence:
#
# PCOD8180821 Si02
#       7
#     4   8   8   8   8   8   8
#     4  10  18  32  56  88 116 142 176 220 266 318
#     4  10  20  36  58  82 111 146 182 222 267 318
#     4  10  22  39  55  76 108 144 184 228 272 323
#     4  10  20  36  56  82 113 145 181 224 274 326
#     4  11  22  37  57  81 108 143 185 228 275 326
#     4   9  19  35  54  79 111 145 180 219 267 320
#     4   9  20  36  55  80 111 143 179 223 271 326
#
# _framework density 19.535329000000001
#
# number of rings (size 3 to 8) (size 9 to 14) (size 15 to 20)
#    0.000    2.154    0.000    2.769    0.000    4.923 
#    0.000    7.692    0.000    0.000    0.000    0.000 
#    0.000    0.000    0.000    0.000    0.000    0.000 
#
# Total GULP energy -322196.975778 kJ/mol
# GULP energy per Si atom -12392.191376 kJ/mol
# Density = 1.949087 g / cm^3
# Si number density = 19.535329 Si / 1000 Ang^3
#
#
#
# Elastic Constant Matrix: (Units=GPa)
#
#
# Indices 1 2 3 4 5 6 
#
# 1 159.9388 61.1720 73.4975 0.0000 0.0000 0.0000
# 2 61.1720 103.5722 50.9771 0.0000 0.0000 0.0000
# 3 73.4975 50.9771 137.0462 0.0000 0.0000 0.0000
# 4 0.0000 0.0000 0.0000 21.0649 0.0000 0.0000
# 5 0.0000 0.0000 0.0000 0.0000 20.5024 0.0000
# 6 0.0000 0.0000 0.0000 0.0000 0.0000 34.4883
#
#
#
# Elastic Compliance Matrix: (Units=1/GPa)
#
#
# Indices 1 2 3 4 5 6 
#
# 1 0.009346 -0.003737 -0.003622 0.000000 0.000000 0.000000
# 2 -0.003737 0.013313 -0.002948 0.000000 0.000000 0.000000
# 3 -0.003622 -0.002948 0.010336 0.000000 0.000000 0.000000
# 4 0.000000 0.000000 0.000000 0.047472 0.000000 0.000000
# 5 0.000000 0.000000 0.000000 0.000000 0.048775 0.000000
# 6 0.000000 0.000000 0.000000 0.000000 0.000000 0.028995
#
#
# Mechanical properties :
#
#
# Convention : Reuss Voigt Hill
#
# Bulk Modulus (GPa) = 80.77042 85.76116 83.26579
# Shear Modulus (GPa) = 27.32540 29.53849 28.43195
#
# Velocity S-wave (km/s) = 3.74407 3.89273 3.81912
# Velocity P-wave (km/s) = 7.75412 8.01251 7.88437
#
# Compressibility (1/GPa) = 0.01238077
#
# Stress axis : x y z
#
# Youngs Moduli (GPa) = 106.99335 75.11260 96.74987
#
# Poissons Ratio (x) = 0.28072 0.35045
# Poissons Ratio (y) = 0.39987 0.28520
# Poissons Ratio (z) = 0.38756 0.22142
#
# Static dielectric constant tensor:
#      x y z
#    x 3.547310 0.000000 0.000000 
#    y 0.000000 3.491730 0.000000 
#    z 0.000000 0.000000 4.145020 
# 
# 
# High freq. dielectric constant tensor:
#      x y z
#    x 1.758260 0.000000 0.000000 
#    y 0.000000 1.753880 0.000000 
#    z 0.000000 0.000000 1.775190 
# 
# From -- ./inp_files/10272.got.cif
#   From: 2010.03.12/outbox.cif.g09.slc.cpg/sg39_6_cif.got.tgz:10272.got - 2010.04.14 02:53:20.
