data_PCOD8180597
_publ_section_title
;
Structure prediction by ZEFSAII (Michael W. Deem and Ramdas Pophale) SiO2 
 PCOD8180597
Probable space group: A B M 2
;
_chemical_formula_sum "Si O2"
_cell_formula_units_Z 64
_cell_length_a 35.989600
_cell_length_b 17.224408
_cell_length_c 5.269079
_cell_angle_alpha 90.000000
_cell_angle_beta 90.000000
_cell_angle_gamma 90.000000
_cell_volume 3266.299723
_symmetry_space_group_name_H-M "A B M 2"
_symmetry_group_IT_number 39
_symmetry_cell_setting 'orthorhombic'
loop_
_space_group_symop_operation_xyz
x,y,z
-x,-y,z
-x,1/2+y,z
x,1/2-y,z
x,1/2+y,1/2+z
-x,1/2-y,1/2+z
-x,y,1/2+z
x,-y,1/2+z
loop_
_atom_site_type_symbol
_atom_site_label
_atom_site_fract_x
_atom_site_fract_y
_atom_site_fract_z
Si Si1 0.978103 0.158490 0.289290
Si Si2 0.759813 0.340100 0.329890
Si Si3 0.365259 0.090297 0.336128
Si Si4 0.285746 0.841172 0.830975
Si Si5 0.603252 0.416213 0.335879
Si Si6 0.515723 0.414623 0.355942
Si Si7 0.173402 0.451759 0.790791
Si Si8 0.088978 0.548816 0.322175
O O1 0.972744 0.250000 0.290510
O O2 0.937219 0.122796 0.292172
O O3 0.000720 0.130264 0.536400
O O4 0.768470 0.250000 0.323625
O O5 0.736313 0.364847 0.083781
O O6 0.799678 0.379723 0.329534
O O7 0.738039 0.363347 0.584432
O O8 0.321508 0.103799 0.322409
O O9 0.384715 0.129518 0.090311
O O10 0.376632 0.999864 0.347696
O O11 0.381515 0.130322 0.591038
O O12 0.296708 0.750000 0.831685
O O13 0.559338 0.422199 0.316111
O O14 0.500000 0.500000 0.406374
O O15 0.495999 0.370979 0.117869
O O16 0.181112 0.486574 0.513131
O O17 0.131261 0.420880 0.808729
O O18 0.080882 0.510709 0.594537
#
# Coordination Sequence:
#
# PCOD8180597 Si02
#       8
#     8   8   8   8   8   8   8   8
#     4  10  21  36  54  81 115 147 187 235 275 320
#     4  10  21  39  58  78 103 139 179 223 265 321
#     4  10  18  32  45  66  99 128 155 198 249 293
#     4  10  21  37  55  74 100 133 176 215 253 305
#     4  10  19  30  45  70 104 127 154 205 248 306
#     4  10  16  25  41  63  94 127 158 189 238 301
#     4  10  21  39  56  84 113 140 177 231 278 322
#     4  10  21  36  57  80 112 147 183 224 274 332
#
# _framework density 19.594038000000001
#
# number of rings (size 3 to 8) (size 9 to 14) (size 15 to 20)
#    0.000    2.000    0.000    6.000    0.000    2.000 
#   13.500    0.000    0.000    9.000    0.000    0.000 
#    0.000   37.000    0.000    0.000    0.000    0.000 
#
# Total GULP energy -396690.038975 kJ/mol
# GULP energy per Si atom -12396.563718 kJ/mol
# Density = 1.954944 g / cm^3
# Si number density = 19.594038 Si / 1000 Ang^3
#
#
#
# Elastic Constant Matrix: (Units=GPa)
#
#
# Indices 1 2 3 4 5 6 
#
# 1 147.8909 48.0906 45.5501 0.0000 0.0000 0.0000
# 2 48.0906 26.6452 12.2769 0.0000 0.0000 0.0000
# 3 45.5501 12.2769 171.0757 0.0000 0.0000 0.0000
# 4 0.0000 0.0000 0.0000 7.2329 0.0000 0.0000
# 5 0.0000 0.0000 0.0000 0.0000 31.0362 0.0000
# 6 0.0000 0.0000 0.0000 0.0000 0.0000 10.6080
#
#
#
# Elastic Compliance Matrix: (Units=1/GPa)
#
#
# Indices 1 2 3 4 5 6 
#
# 1 0.017305 -0.030105 -0.002447 0.000000 0.000000 0.000000
# 2 -0.030105 0.091187 0.001472 0.000000 0.000000 0.000000
# 3 -0.002447 0.001472 0.006391 0.000000 0.000000 0.000000
# 4 0.000000 0.000000 0.000000 0.138257 0.000000 0.000000
# 5 0.000000 0.000000 0.000000 0.000000 0.032220 0.000000
# 6 0.000000 0.000000 0.000000 0.000000 0.000000 0.094268
#
#
# Mechanical properties :
#
#
# Convention : Reuss Voigt Hill
#
# Bulk Modulus (GPa) = 18.96721 61.93855 40.45288
# Shear Modulus (GPa) = 10.88459 25.75504 18.31981
#
# Velocity S-wave (km/s) = 2.35947 3.62944 3.06104
# Velocity P-wave (km/s) = 4.13811 7.01736 5.76052
#
# Compressibility (1/GPa) = 0.05272257
#
# Stress axis : x y z
#
# Youngs Moduli (GPa) = 57.78695 10.96643 156.46263
#
# Poissons Ratio (x) = 0.33015 0.38288
# Poissons Ratio (y) = 1.73969 -0.23029
# Poissons Ratio (z) = 0.14141 -0.01614
#
# Static dielectric constant tensor:
#      x y z
#    x 3.581360 0.000000 0.000000 
#    y 0.000000 3.009270 0.000000 
#    z 0.000000 0.000000 5.296170 
# 
# 
# High freq. dielectric constant tensor:
#      x y z
#    x 1.772710 0.000000 0.000000 
#    y 0.000000 1.707780 0.000000 
#    z 0.000000 0.000000 1.805030 
# 
# From -- ./inp_files/1536.got.cif
#   From: 2010.03.12/outbox.cif.g09.slc.cpg/sg39_1_cif.got.tgz:1536.got - 2010.04.14 02:53:20.
