data_PCOD8180282
_publ_section_title
;
Structure prediction by ZEFSAII (Michael W. Deem and Ramdas Pophale) SiO2 
 PCOD8180282
Probable space group: A M M 2
;
_chemical_formula_sum "Si O2"
_cell_formula_units_Z 48
_cell_length_a 7.776756
_cell_length_b 7.715865
_cell_length_c 38.340893
_cell_angle_alpha 90.000000
_cell_angle_beta 90.000000
_cell_angle_gamma 90.000000
_cell_volume 2300.622258
_symmetry_space_group_name_H-M "A M M 2"
_symmetry_group_IT_number 38
_symmetry_cell_setting 'orthorhombic'
loop_
_space_group_symop_operation_xyz
x,y,z
-x,-y,z
-x,y,z
x,-y,z
x,1/2+y,1/2+z
-x,1/2-y,1/2+z
-x,1/2+y,1/2+z
x,1/2-y,1/2+z
loop_
_atom_site_type_symbol
_atom_site_label
_atom_site_fract_x
_atom_site_fract_y
_atom_site_fract_z
Si Si1 0.000000 0.298038 0.014290
Si Si2 0.000000 0.296367 0.937287
Si Si3 0.690606 0.703815 0.563317
Si Si4 0.702826 0.307349 0.638379
Si Si5 0.302904 0.000000 0.833076
Si Si6 0.802221 0.807171 0.211834
Si Si7 0.195965 0.000000 0.756114
Si Si8 0.697857 0.201109 0.386564
O O1 0.827071 0.244542 0.033728
O O2 0.000000 0.500000 0.009888
O O3 0.000000 0.210572 0.975824
O O4 0.174081 0.239638 0.917378
O O5 0.000000 0.500000 0.941099
O O6 0.500000 0.775329 0.552756
O O7 0.676152 0.500000 0.568763
O O8 0.750113 0.783569 0.601057
O O9 0.500000 0.309321 0.641720
O O10 0.781353 0.500000 0.638075
O O11 0.779500 0.219716 0.673235
O O12 0.196384 0.000000 0.797750
O O13 0.257891 0.825049 0.854167
O O14 0.500000 0.000000 0.822189
O O15 0.717208 0.674586 0.239990
O O16 0.000000 0.830756 0.220797
O O17 0.714108 0.000000 0.214118
O O18 0.000000 0.000000 0.743066
O O19 0.500000 0.229184 0.398850
O O20 0.729224 0.000000 0.375804
#
# Coordination Sequence:
#
# PCOD8180282 Si02
#       8
#     4   4   8   8   4   8   4   8
#     4  11  23  37  55  87 121 152 189 235 293 361
#     4   9  20  38  60  84 111 150 193 222 276 348
#     4   9  19  37  57  80 114 153 197 246 293 345
#     4   8  15  30  53  75  97 138 193 240 281 331
#     4  10  22  38  58  86 114 146 190 231 285 348
#     4   9  18  33  51  74 105 143 186 230 284 340
#     4  10  22  36  50  78 116 146 178 232 288 333
#     4   9  19  38  61  86 116 148 188 237 283 337
#
# _framework density 20.863921000000001
#
# number of rings (size 3 to 8) (size 9 to 14) (size 15 to 20)
#    0.000    2.833    0.000    1.250    2.333    2.333 
#    4.500    1.667    0.000    0.000    0.000    0.000 
#    0.000    0.000    0.000    0.000    0.000    0.000 
#
# Total GULP energy -297315.472157 kJ/mol
# GULP energy per Si atom -12388.144673 kJ/mol
# Density = 2.081643 g / cm^3
# Si number density = 20.863921 Si / 1000 Ang^3
#
#
#
# Elastic Constant Matrix: (Units=GPa)
#
#
# Indices 1 2 3 4 5 6 
#
# 1 81.9157 25.6433 64.8783 0.0000 0.0000 0.0000
# 2 25.6433 83.1046 58.9268 0.0000 0.0000 0.0000
# 3 64.8783 58.9268 183.7926 0.0000 0.0000 0.0000
# 4 0.0000 0.0000 0.0000 27.3287 0.0000 0.0000
# 5 0.0000 0.0000 0.0000 0.0000 14.0444 0.0000
# 6 0.0000 0.0000 0.0000 0.0000 0.0000 10.1426
#
#
#
# Elastic Compliance Matrix: (Units=1/GPa)
#
#
# Indices 1 2 3 4 5 6 
#
# 1 0.017051 -0.001286 -0.005607 0.000000 0.000000 0.000000
# 2 -0.001286 0.015670 -0.004570 0.000000 0.000000 0.000000
# 3 -0.005607 -0.004570 0.008885 0.000000 0.000000 0.000000
# 4 0.000000 0.000000 0.000000 0.036592 0.000000 0.000000
# 5 0.000000 0.000000 0.000000 0.000000 0.071203 0.000000
# 6 0.000000 0.000000 0.000000 0.000000 0.000000 0.098595
#
#
# Mechanical properties :
#
#
# Convention : Reuss Voigt Hill
#
# Bulk Modulus (GPa) = 53.53021 71.96775 62.74898
# Shear Modulus (GPa) = 18.04093 23.59410 20.81752
#
# Velocity S-wave (km/s) = 2.94376 3.36647 3.16219
# Velocity P-wave (km/s) = 6.10466 7.04837 6.59342
#
# Compressibility (1/GPa) = 0.01868104
#
# Stress axis : x y z
#
# Youngs Moduli (GPa) = 58.64864 63.81444 112.54494
#
# Poissons Ratio (x) = 0.08205 0.63099
# Poissons Ratio (y) = 0.07541 0.51436
# Poissons Ratio (z) = 0.32882 0.29165
#
# Static dielectric constant tensor:
#      x y z
#    x 3.717430 0.000000 0.000000 
#    y 0.000000 3.648270 0.000000 
#    z 0.000000 0.000000 3.997750 
# 
# 
# High freq. dielectric constant tensor:
#      x y z
#    x 1.808450 0.000000 0.000000 
#    y 0.000000 1.801050 0.000000 
#    z 0.000000 0.000000 1.811440 
# 
# From -- ./inp_files/24443.got.cif
#   From: 2010.03.12/outbox.cif.g09.slc.cpg/sg38_13_cif.got.tgz:24443.got - 2010.04.14 02:38:36.
