data_PCOD8180147
_publ_section_title
;
Structure prediction by ZEFSAII (Michael W. Deem and Ramdas Pophale) SiO2 
 PCOD8180147
Probable space group: A M M 2
;
_chemical_formula_sum "Si O2"
_cell_formula_units_Z 64
_cell_length_a 14.148505
_cell_length_b 9.060956
_cell_length_c 26.098026
_cell_angle_alpha 90.000000
_cell_angle_beta 90.000000
_cell_angle_gamma 90.000000
_cell_volume 3345.740346
_symmetry_space_group_name_H-M "A M M 2"
_symmetry_group_IT_number 38
_symmetry_cell_setting 'orthorhombic'
loop_
_space_group_symop_operation_xyz
x,y,z
-x,-y,z
-x,y,z
x,-y,z
x,1/2+y,1/2+z
-x,1/2-y,1/2+z
-x,1/2+y,1/2+z
x,1/2-y,1/2+z
loop_
_atom_site_type_symbol
_atom_site_label
_atom_site_fract_x
_atom_site_fract_y
_atom_site_fract_z
Si Si1 0.895128 0.826900 0.973000
Si Si2 0.112013 0.662868 0.873110
Si Si3 0.605937 0.675331 0.316292
Si Si4 0.287040 0.173917 0.025466
Si Si5 0.611043 0.326204 0.626965
Si Si6 0.393015 0.824742 0.927901
Si Si7 0.280999 0.324435 0.218767
Si Si8 0.107968 0.674917 0.759130
O O1 0.852403 0.765429 0.919574
O O2 0.000000 0.764121 0.985776
O O3 0.899319 0.000000 0.964738
O O4 0.824921 0.787358 0.020286
O O5 0.156029 0.500000 0.880408
O O6 0.137677 0.726360 0.816756
O O7 0.000000 0.651760 0.875770
O O8 0.500000 0.737212 0.307717
O O9 0.602269 0.500000 0.314910
O O10 0.645122 0.729187 0.372002
O O11 0.672504 0.734305 0.271382
O O12 0.334132 0.236742 0.076924
O O13 0.304214 0.000000 0.025723
O O14 0.335121 0.244995 0.974982
O O15 0.500000 0.290932 0.621569
O O16 0.628297 0.500000 0.634826
O O17 0.654691 0.237637 0.673725
O O18 0.500000 0.771257 0.934232
O O19 0.386711 0.000000 0.930179
O O20 0.276481 0.500000 0.214382
O O21 0.175082 0.257662 0.218146
O O22 0.120015 0.500000 0.753654
O O23 0.000000 0.720717 0.746982
#
# Coordination Sequence:
#
# PCOD8180147 Si02
#       8
#     8   8   8   8   8   8   8   8
#     4   9  17  28  45  73 107 137 168 214 268 318
#     4   8  15  29  48  70 101 142 179 209 249 308
#     4   8  15  27  43  69 105 137 165 205 265 328
#     4   9  17  29  48  72 100 133 176 224 267 314
#     4  10  21  38  58  78 101 136 185 235 279 327
#     4   8  13  23  41  66  96 127 160 206 262 313
#     4  11  22  34  54  81 109 141 179 223 275 330
#     4   9  19  36  55  76 107 146 185 223 264 315
#
# _framework density 19.128800999999999
#
# number of rings (size 3 to 8) (size 9 to 14) (size 15 to 20)
#    0.000    3.000    0.000    2.625    1.750    3.000 
#    0.000    2.500    0.000    2.250    0.000    0.000 
#    0.000    0.000    0.000    0.000    0.000    0.000 
#
# Total GULP energy -396528.748386 kJ/mol
# GULP energy per Si atom -12391.523387 kJ/mol
# Density = 1.908526 g / cm^3
# Si number density = 19.128801 Si / 1000 Ang^3
#
#
#
# Elastic Constant Matrix: (Units=GPa)
#
#
# Indices 1 2 3 4 5 6 
#
# 1 106.1237 31.8321 71.0401 0.0000 0.0000 0.0000
# 2 31.8321 33.5067 30.4506 0.0000 0.0000 0.0000
# 3 71.0401 30.4506 124.0973 0.0000 0.0000 0.0000
# 4 0.0000 0.0000 0.0000 24.3285 0.0000 0.0000
# 5 0.0000 0.0000 0.0000 0.0000 37.0229 0.0000
# 6 0.0000 0.0000 0.0000 0.0000 0.0000 15.7736
#
#
#
# Elastic Compliance Matrix: (Units=1/GPa)
#
#
# Indices 1 2 3 4 5 6 
#
# 1 0.017394 -0.009621 -0.007596 0.000000 0.000000 0.000000
# 2 -0.009621 0.043732 -0.005223 0.000000 0.000000 0.000000
# 3 -0.007596 -0.005223 0.013688 0.000000 0.000000 0.000000
# 4 0.000000 0.000000 0.000000 0.041104 0.000000 0.000000
# 5 0.000000 0.000000 0.000000 0.000000 0.027010 0.000000
# 6 0.000000 0.000000 0.000000 0.000000 0.000000 0.063397
#
#
# Mechanical properties :
#
#
# Convention : Reuss Voigt Hill
#
# Bulk Modulus (GPa) = 33.40808 58.93036 46.16922
# Shear Modulus (GPa) = 19.14353 24.11865 21.63109
#
# Velocity S-wave (km/s) = 3.16693 3.55470 3.36640
# Velocity P-wave (km/s) = 5.55655 6.90811 6.26886
#
# Compressibility (1/GPa) = 0.02993288
#
# Stress axis : x y z
#
# Youngs Moduli (GPa) = 57.49119 22.86665 73.05417
#
# Poissons Ratio (x) = 0.22000 0.55495
# Poissons Ratio (y) = 0.55313 0.38157
# Poissons Ratio (z) = 0.43673 0.11944
#
# Static dielectric constant tensor:
#      x y z
#    x 3.674740 0.000000 0.000000 
#    y 0.000000 3.092460 0.000000 
#    z 0.000000 0.000000 3.739590 
# 
# 
# High freq. dielectric constant tensor:
#      x y z
#    x 1.752300 0.000000 0.000000 
#    y 0.000000 1.694660 0.000000 
#    z 0.000000 0.000000 1.735490 
# 
# From -- ./inp_files/22916.got.cif
#   From: 2010.03.12/outbox.cif.g09.slc.cpg/sg38_12_cif.got.tgz:22916.got - 2010.04.14 02:38:36.
