data_PCOD8180466
_publ_section_title
;
Structure prediction by ZEFSAII (Michael W. Deem and Ramdas Pophale) SiO2 
 PCOD8180466
Probable space group: A M M 2
;
_chemical_formula_sum "Si O2"
_cell_formula_units_Z 48
_cell_length_a 8.750354
_cell_length_b 29.991198
_cell_length_c 10.087232
_cell_angle_alpha 90.000000
_cell_angle_beta 90.000000
_cell_angle_gamma 90.000000
_cell_volume 2647.228602
_symmetry_space_group_name_H-M "A M M 2"
_symmetry_group_IT_number 38
_symmetry_cell_setting 'orthorhombic'
loop_
_space_group_symop_operation_xyz
x,y,z
-x,-y,z
-x,y,z
x,-y,z
x,1/2+y,1/2+z
-x,1/2-y,1/2+z
-x,1/2+y,1/2+z
x,1/2-y,1/2+z
loop_
_atom_site_type_symbol
_atom_site_label
_atom_site_fract_x
_atom_site_fract_y
_atom_site_fract_z
Si Si1 0.821223 0.383745 0.210200
Si Si2 0.319084 0.289620 0.185463
Si Si3 0.318497 0.549379 0.707843
Si Si4 0.675144 0.447773 0.006068
Si Si5 0.682144 0.882664 0.989523
Si Si6 0.679598 0.216810 0.984114
O O1 0.757204 0.336963 0.156529
O O2 0.785976 0.421577 0.103468
O O3 0.744248 0.398385 0.347946
O O4 0.000000 0.379510 0.232435
O O5 0.500000 0.295991 0.170240
O O6 0.277171 0.272082 0.332437
O O7 0.249325 0.253963 0.081494
O O8 0.500000 0.548200 0.699525
O O9 0.254326 0.500000 0.673848
O O10 0.251611 0.584812 0.602992
O O11 0.270834 0.563303 0.856309
O O12 0.500000 0.432602 0.027985
O O13 0.692007 0.500000 0.034641
O O14 0.500000 0.884178 0.982763
O O15 0.740634 0.832531 0.021081
O O16 0.500000 0.217561 0.005387
#
# Coordination Sequence:
#
# PCOD8180466 Si02
#       6
#     8   8   8   8   8   8
#     4  11  22  34  48  71 104 139 171 201 240 294
#     4   9  17  32  51  71  95 124 163 210 256 296
#     4   8  15  29  52  80 102 121 155 204 252 297
#     4   9  18  34  55  77 100 128 164 207 253 297
#     4   9  17  32  53  76 101 129 164 207 252 296
#     4   8  15  27  47  72  94 120 157 201 245 288
#
# _framework density 18.132169999999999
#
# number of rings (size 3 to 8) (size 9 to 14) (size 15 to 20)
#    0.000    3.000    0.000    3.500    0.000    2.333 
#    0.000   10.833    0.000    1.000    0.000    0.000 
#    0.000    0.000    0.000    0.000    0.000    0.000 
#
# Total GULP energy -297531.346463 kJ/mol
# GULP energy per Si atom -12397.139436 kJ/mol
# Density = 1.809090 g / cm^3
# Si number density = 18.132170 Si / 1000 Ang^3
#
#
#
# Elastic Constant Matrix: (Units=GPa)
#
#
# Indices 1 2 3 4 5 6 
#
# 1 34.2775 23.0633 22.0198 0.0000 0.0000 0.0000
# 2 23.0633 98.0590 82.1750 0.0000 0.0000 0.0000
# 3 22.0198 82.1750 123.8284 0.0000 0.0000 0.0000
# 4 0.0000 0.0000 0.0000 42.7533 0.0000 0.0000
# 5 0.0000 0.0000 0.0000 0.0000 4.1790 0.0000
# 6 0.0000 0.0000 0.0000 0.0000 0.0000 8.2352
#
#
#
# Elastic Compliance Matrix: (Units=1/GPa)
#
#
# Indices 1 2 3 4 5 6 
#
# 1 0.034817 -0.006760 -0.001705 0.000000 0.000000 0.000000
# 2 -0.006760 0.024287 -0.014915 0.000000 0.000000 0.000000
# 3 -0.001705 -0.014915 0.018277 0.000000 0.000000 0.000000
# 4 0.000000 0.000000 0.000000 0.023390 0.000000 0.000000
# 5 0.000000 0.000000 0.000000 0.000000 0.239293 0.000000
# 6 0.000000 0.000000 0.000000 0.000000 0.000000 0.121430
#
#
# Mechanical properties :
#
#
# Convention : Reuss Voigt Hill
#
# Bulk Modulus (GPa) = 32.65792 56.74233 44.70013
# Shear Modulus (GPa) = 9.64388 19.62728 14.63558
#
# Velocity S-wave (km/s) = 2.30872 3.29364 2.84414
# Velocity P-wave (km/s) = 5.01568 6.76947 5.95747
#
# Compressibility (1/GPa) = 0.03062044
#
# Stress axis : x y z
#
# Youngs Moduli (GPa) = 28.72124 41.17403 54.71318
#
# Poissons Ratio (x) = 0.27833 0.09331
# Poissons Ratio (y) = 0.19415 0.81607
# Poissons Ratio (z) = 0.04898 0.61413
#
# Static dielectric constant tensor:
#      x y z
#    x 2.893120 0.000000 0.000000 
#    y 0.000000 3.623810 0.000000 
#    z 0.000000 0.000000 3.528640 
# 
# 
# High freq. dielectric constant tensor:
#      x y z
#    x 1.657250 0.000000 0.000000 
#    y 0.000000 1.706420 0.000000 
#    z 0.000000 0.000000 1.707990 
# 
# From -- ./inp_files/3755.got.cif
#   From: 2010.03.12/outbox.cif.g09.slc.cpg/sg38_2_cif.got.tgz:3755.got - 2010.04.14 02:38:36.
