data_PCOD8180420
_publ_section_title
;
Structure prediction by ZEFSAII (Michael W. Deem and Ramdas Pophale) SiO2 
 PCOD8180420
Probable space group: A M M 2
;
_chemical_formula_sum "Si O2"
_cell_formula_units_Z 40
_cell_length_a 9.040111
_cell_length_b 21.323754
_cell_length_c 12.469337
_cell_angle_alpha 90.000000
_cell_angle_beta 90.000000
_cell_angle_gamma 90.000000
_cell_volume 2403.702910
_symmetry_space_group_name_H-M "A M M 2"
_symmetry_group_IT_number 38
_symmetry_cell_setting 'orthorhombic'
loop_
_space_group_symop_operation_xyz
x,y,z
-x,-y,z
-x,y,z
x,-y,z
x,1/2+y,1/2+z
-x,1/2-y,1/2+z
-x,1/2+y,1/2+z
x,1/2-y,1/2+z
loop_
_atom_site_type_symbol
_atom_site_label
_atom_site_fract_x
_atom_site_fract_y
_atom_site_fract_z
Si Si1 0.675387 0.069711 0.644610
Si Si2 0.327605 0.838663 0.461211
Si Si3 0.668682 0.201123 0.047140
Si Si4 0.672534 0.669182 0.314233
Si Si5 0.825474 0.297146 0.757779
O O1 0.500000 0.065650 0.641466
O O2 0.730416 0.105906 0.538342
O O3 0.724405 0.106837 0.751839
O O4 0.745382 0.000000 0.647216
O O5 0.500000 0.845478 0.433774
O O6 0.296449 0.773382 0.520815
O O7 0.237693 0.842378 0.350413
O O8 0.500000 0.193392 0.084962
O O9 0.774207 0.176793 0.142013
O O10 0.700437 0.159490 0.941025
O O11 0.500000 0.684607 0.292248
O O12 0.765000 0.727084 0.269822
O O13 0.000000 0.296995 0.764863
#
# Coordination Sequence:
#
# PCOD8180420 Si02
#       5
#     8   8   8   8   8
#     4   9  16  29  52  77  97 120 156 199 238 282
#     4   9  17  30  48  69  96 126 156 190 237 288
#     4   9  16  28  47  67  93 127 156 189 239 289
#     4   9  17  31  48  69  96 125 156 191 239 289
#     4  11  20  28  44  69  98 126 157 199 237 277
#
# _framework density 16.640989999999999
#
# number of rings (size 3 to 8) (size 9 to 14) (size 15 to 20)
#    0.000    2.600    2.000    3.000    0.000    3.200 
#    0.000    0.000    0.000    3.600    0.000    5.600 
#    0.000    0.000    0.000    0.000    0.000    0.000 
#
# Total GULP energy -247950.639215 kJ/mol
# GULP energy per Si atom -12397.531961 kJ/mol
# Density = 1.660311 g / cm^3
# Si number density = 16.640990 Si / 1000 Ang^3
#
#
#
# Elastic Constant Matrix: (Units=GPa)
#
#
# Indices 1 2 3 4 5 6 
#
# 1 68.5789 22.5843 56.5208 0.0000 0.0000 0.0000
# 2 22.5843 97.4665 66.0068 0.0000 0.0000 0.0000
# 3 56.5208 66.0068 156.7577 0.0000 0.0000 0.0000
# 4 0.0000 0.0000 0.0000 24.4682 0.0000 0.0000
# 5 0.0000 0.0000 0.0000 0.0000 8.9744 0.0000
# 6 0.0000 0.0000 0.0000 0.0000 0.0000 6.3155
#
#
#
# Elastic Compliance Matrix: (Units=1/GPa)
#
#
# Indices 1 2 3 4 5 6 
#
# 1 0.020756 0.000362 -0.007636 0.000000 0.000000 0.000000
# 2 0.000362 0.014359 -0.006177 0.000000 0.000000 0.000000
# 3 -0.007636 -0.006177 0.011734 0.000000 0.000000 0.000000
# 4 0.000000 0.000000 0.000000 0.040869 0.000000 0.000000
# 5 0.000000 0.000000 0.000000 0.000000 0.111428 0.000000
# 6 0.000000 0.000000 0.000000 0.000000 0.000000 0.158341
#
#
# Mechanical properties :
#
#
# Convention : Reuss Voigt Hill
#
# Bulk Modulus (GPa) = 50.13380 68.11412 59.12396
# Shear Modulus (GPa) = 12.78648 19.79770 16.29209
#
# Velocity S-wave (km/s) = 2.77496 3.45294 3.13235
# Velocity P-wave (km/s) = 6.36076 7.54436 6.97770
#
# Compressibility (1/GPa) = 0.01994662
#
# Stress axis : x y z
#
# Youngs Moduli (GPa) = 48.17853 69.64197 85.22581
#
# Poissons Ratio (x) = -0.02521 0.65081
# Poissons Ratio (y) = -0.01744 0.52642
# Poissons Ratio (z) = 0.36791 0.43017
#
# Static dielectric constant tensor:
#      x y z
#    x 2.840440 0.000000 0.000000 
#    y 0.000000 3.030070 0.000000 
#    z 0.000000 0.000000 3.430110 
# 
# 
# High freq. dielectric constant tensor:
#      x y z
#    x 1.612820 0.000000 0.000000 
#    y 0.000000 1.595960 0.000000 
#    z 0.000000 0.000000 1.658920 
# 
# From -- ./inp_files/7947.got.cif
#   From: 2010.03.12/outbox.cif.g09.slc.cpg/sg38_4_cif.got.tgz:7947.got - 2010.04.14 02:38:36.
