data_PCOD8180154
_publ_section_title
;
Structure prediction by ZEFSAII (Michael W. Deem and Ramdas Pophale) SiO2 
 PCOD8180154
Probable space group: A M M 2
;
_chemical_formula_sum "Si O2"
_cell_formula_units_Z 48
_cell_length_a 14.181006
_cell_length_b 7.831641
_cell_length_c 20.432375
_cell_angle_alpha 90.000000
_cell_angle_beta 90.000000
_cell_angle_gamma 90.000000
_cell_volume 2269.230765
_symmetry_space_group_name_H-M "A M M 2"
_symmetry_group_IT_number 38
_symmetry_cell_setting 'orthorhombic'
loop_
_space_group_symop_operation_xyz
x,y,z
-x,-y,z
-x,y,z
x,-y,z
x,1/2+y,1/2+z
-x,1/2-y,1/2+z
-x,1/2+y,1/2+z
x,1/2-y,1/2+z
loop_
_atom_site_type_symbol
_atom_site_label
_atom_site_fract_x
_atom_site_fract_y
_atom_site_fract_z
Si Si1 0.273178 0.194298 0.149460
Si Si2 0.760974 0.188651 0.511680
Si Si3 0.113267 0.000000 0.974844
Si Si4 0.608328 0.698487 0.770511
Si Si5 0.392975 0.194964 0.912940
Si Si6 0.107415 0.808757 0.238998
Si Si7 0.888342 0.000000 0.827012
O O1 0.334603 0.273695 0.208746
O O2 0.163944 0.205546 0.171329
O O3 0.304758 0.000000 0.136136
O O4 0.287505 0.299014 0.083076
O O5 0.843401 0.330117 0.507308
O O6 0.678593 0.202562 0.458309
O O7 0.806158 0.000000 0.503804
O O8 0.150762 0.000000 0.900402
O O9 0.000000 0.000000 0.982433
O O10 0.500000 0.732175 0.754753
O O11 0.632368 0.500000 0.779731
O O12 0.638885 0.792053 0.837242
O O13 0.500000 0.268069 0.920344
O O14 0.389480 0.000000 0.935584
O O15 0.147003 0.672171 0.291279
O O16 0.000000 0.768117 0.220762
O O17 0.118941 0.000000 0.269131
O O18 0.000000 0.000000 0.830630
#
# Coordination Sequence:
#
# PCOD8180154 Si02
#       7
#     8   8   4   8   8   8   4
#     4  10  21  38  58  87 126 165 207 259 317 378
#     4  12  26  43  65  95 129 175 228 268 327 395
#     4  11  26  48  67  91 135 172 216 281 332 389
#     4   9  19  36  61  93 126 164 210 260 320 384
#     4  10  21  40  66  95 132 175 217 267 328 392
#     4   9  19  35  58  90 122 152 195 251 313 378
#     4   9  20  38  62  89 115 154 199 251 317 377
#
# _framework density 21.152543999999999
#
# number of rings (size 3 to 8) (size 9 to 14) (size 15 to 20)
#    0.000    2.000    1.667    0.500    3.500    4.000 
#    0.000    3.333    0.000    0.000    0.000    0.000 
#    0.000    0.000    0.000    0.000    0.000    0.000 
#
# Total GULP energy -297583.536384 kJ/mol
# GULP energy per Si atom -12399.314016 kJ/mol
# Density = 2.110440 g / cm^3
# Si number density = 21.152544 Si / 1000 Ang^3
#
#
#
# Elastic Constant Matrix: (Units=GPa)
#
#
# Indices 1 2 3 4 5 6 
#
# 1 93.4911 30.9373 49.8464 0.0000 0.0000 0.0000
# 2 30.9373 121.2780 43.4404 0.0000 0.0000 0.0000
# 3 49.8464 43.4404 129.8204 0.0000 0.0000 0.0000
# 4 0.0000 0.0000 0.0000 30.5957 0.0000 0.0000
# 5 0.0000 0.0000 0.0000 0.0000 25.1627 0.0000
# 6 0.0000 0.0000 0.0000 0.0000 0.0000 14.1335
#
#
#
# Elastic Compliance Matrix: (Units=1/GPa)
#
#
# Indices 1 2 3 4 5 6 
#
# 1 0.013803 -0.001844 -0.004683 0.000000 0.000000 0.000000
# 2 -0.001844 0.009615 -0.002509 0.000000 0.000000 0.000000
# 3 -0.004683 -0.002509 0.010341 0.000000 0.000000 0.000000
# 4 0.000000 0.000000 0.000000 0.032684 0.000000 0.000000
# 5 0.000000 0.000000 0.000000 0.000000 0.039741 0.000000
# 6 0.000000 0.000000 0.000000 0.000000 0.000000 0.070754
#
#
# Mechanical properties :
#
#
# Convention : Reuss Voigt Hill
#
# Bulk Modulus (GPa) = 63.74918 65.89308 64.82113
# Shear Modulus (GPa) = 24.97018 28.66941 26.81980
#
# Velocity S-wave (km/s) = 3.43954 3.68552 3.56465
# Velocity P-wave (km/s) = 6.78065 7.02351 6.90315
#
# Compressibility (1/GPa) = 0.01568648
#
# Stress axis : x y z
#
# Youngs Moduli (GPa) = 72.44739 104.00790 96.70519
#
# Poissons Ratio (x) = 0.19176 0.45287
# Poissons Ratio (y) = 0.13357 0.24266
# Poissons Ratio (z) = 0.33927 0.26099
#
# Static dielectric constant tensor:
#      x y z
#    x 3.770910 0.000000 0.000000 
#    y 0.000000 3.852360 0.000000 
#    z 0.000000 0.000000 3.865470 
# 
# 
# High freq. dielectric constant tensor:
#      x y z
#    x 1.824730 0.000000 0.000000 
#    y 0.000000 1.826810 0.000000 
#    z 0.000000 0.000000 1.825250 
# 
# From -- ./inp_files/18201.got.cif
#   From: 2010.03.12/outbox.cif.g09.slc.cpg/sg38_10_cif.got.tgz:18201.got - 2010.04.14 02:38:36.
