data_PCOD8180471
_publ_section_title
;
Structure prediction by ZEFSAII (Michael W. Deem and Ramdas Pophale) SiO2 
 PCOD8180471
Probable space group: A M M 2
;
_chemical_formula_sum "Si O2"
_cell_formula_units_Z 64
_cell_length_a 14.169554
_cell_length_b 8.721732
_cell_length_c 25.815872
_cell_angle_alpha 90.000000
_cell_angle_beta 90.000000
_cell_angle_gamma 90.000000
_cell_volume 3190.404266
_symmetry_space_group_name_H-M "A M M 2"
_symmetry_group_IT_number 38
_symmetry_cell_setting 'orthorhombic'
loop_
_space_group_symop_operation_xyz
x,y,z
-x,-y,z
-x,y,z
x,-y,z
x,1/2+y,1/2+z
-x,1/2-y,1/2+z
-x,1/2+y,1/2+z
x,1/2-y,1/2+z
loop_
_atom_site_type_symbol
_atom_site_label
_atom_site_fract_x
_atom_site_fract_y
_atom_site_fract_z
Si Si1 0.109168 0.178419 0.593900
Si Si2 0.794504 0.678224 0.496794
Si Si3 0.394279 0.182792 0.727247
Si Si4 0.395687 0.317669 0.449807
Si Si5 0.611335 0.833502 0.838809
Si Si6 0.895235 0.681720 0.786891
Si Si7 0.216866 0.319372 0.688605
Si Si8 0.112325 0.174197 0.401274
O O1 0.159172 0.216406 0.540000
O O2 0.156313 0.274815 0.639117
O O3 0.000000 0.225589 0.589641
O O4 0.121302 0.000000 0.605824
O O5 0.806336 0.500000 0.511414
O O6 0.683499 0.725062 0.492169
O O7 0.844216 0.708153 0.442005
O O8 0.500000 0.237420 0.712357
O O9 0.363283 0.250739 0.784332
O O10 0.321877 0.248551 0.684771
O O11 0.390192 0.000000 0.728447
O O12 0.500000 0.257239 0.467079
O O13 0.399818 0.500000 0.442429
O O14 0.364808 0.246359 0.393230
O O15 0.500000 0.858255 0.837846
O O16 0.661486 0.000000 0.838866
O O17 0.902427 0.500000 0.782352
O O18 0.831836 0.748391 0.740486
O O19 0.852522 0.723902 0.843537
O O20 0.000000 0.752518 0.780784
O O21 0.225666 0.500000 0.690382
O O22 0.000000 0.185148 0.402969
O O23 0.143974 0.000000 0.414099
#
# Coordination Sequence:
#
# PCOD8180471 Si02
#       8
#     8   8   8   8   8   8   8   8
#     4  11  25  45  65  82 105 145 193 238 288 352
#     4  11  22  34  56  88 114 142 185 239 291 331
#     4   9  18  33  54  81 116 158 199 235 275 331
#     4   8  15  29  49  77 114 151 186 224 271 327
#     4   7  11  23  45  72 105 148 190 224 261 310
#     4   8  16  32  53  78 110 147 182 219 277 350
#     4  11  22  36  59  88 115 146 187 240 297 343
#     4   9  18  34  54  76 109 152 187 217 269 347
#
# _framework density 20.060154000000001
#
# number of rings (size 3 to 8) (size 9 to 14) (size 15 to 20)
#    0.000    2.750    0.000    4.125    1.750    3.500 
#    0.000    1.250    0.000    5.250    0.000    0.000 
#    0.000    0.000    0.000    0.000    0.000    0.000 
#
# Total GULP energy -396530.265743 kJ/mol
# GULP energy per Si atom -12391.570804 kJ/mol
# Density = 2.001450 g / cm^3
# Si number density = 20.060154 Si / 1000 Ang^3
#
#
#
# Elastic Constant Matrix: (Units=GPa)
#
#
# Indices 1 2 3 4 5 6 
#
# 1 104.8227 23.3647 56.5528 0.0000 0.0000 0.0000
# 2 23.3647 31.5698 13.4778 0.0000 0.0000 0.0000
# 3 56.5528 13.4778 95.9496 0.0000 0.0000 0.0000
# 4 0.0000 0.0000 0.0000 24.9462 0.0000 0.0000
# 5 0.0000 0.0000 0.0000 0.0000 35.1094 0.0000
# 6 0.0000 0.0000 0.0000 0.0000 0.0000 22.0777
#
#
#
# Elastic Compliance Matrix: (Units=1/GPa)
#
#
# Indices 1 2 3 4 5 6 
#
# 1 0.015754 -0.008186 -0.008135 0.000000 0.000000 0.000000
# 2 -0.008186 0.037950 -0.000506 0.000000 0.000000 0.000000
# 3 -0.008135 -0.000506 0.015288 0.000000 0.000000 0.000000
# 4 0.000000 0.000000 0.000000 0.040086 0.000000 0.000000
# 5 0.000000 0.000000 0.000000 0.000000 0.028482 0.000000
# 6 0.000000 0.000000 0.000000 0.000000 0.000000 0.045295
#
#
# Mechanical properties :
#
#
# Convention : Reuss Voigt Hill
#
# Bulk Modulus (GPa) = 28.29856 46.57030 37.43443
# Shear Modulus (GPa) = 21.90205 25.68979 23.79592
#
# Velocity S-wave (km/s) = 3.30785 3.58248 3.44790
# Velocity P-wave (km/s) = 5.35973 6.35437 5.87812
#
# Compressibility (1/GPa) = 0.03533749
#
# Stress axis : x y z
#
# Youngs Moduli (GPa) = 63.47717 26.35027 65.40996
#
# Poissons Ratio (x) = 0.21571 0.53213
# Poissons Ratio (y) = 0.51963 0.03309
# Poissons Ratio (z) = 0.51641 0.01333
#
# Static dielectric constant tensor:
#      x y z
#    x 3.832740 0.000000 0.000000 
#    y 0.000000 3.190880 0.000000 
#    z 0.000000 0.000000 3.762930 
# 
# 
# High freq. dielectric constant tensor:
#      x y z
#    x 1.789860 0.000000 0.000000 
#    y 0.000000 1.741240 0.000000 
#    z 0.000000 0.000000 1.775000 
# 
# From -- ./inp_files/22911.got.cif
#   From: 2010.03.12/outbox.cif.g09.slc.cpg/sg38_12_cif.got.tgz:22911.got - 2010.04.14 02:38:36.
