data_PCOD8180165
_publ_section_title
;
Structure prediction by ZEFSAII (Michael W. Deem and Ramdas Pophale) SiO2 
 PCOD8180165
Probable space group: A M M 2
;
_chemical_formula_sum "Si O2"
_cell_formula_units_Z 52
_cell_length_a 22.316019
_cell_length_b 23.366635
_cell_length_c 5.090988
_cell_angle_alpha 90.000000
_cell_angle_beta 90.000000
_cell_angle_gamma 90.000000
_cell_volume 2654.697070
_symmetry_space_group_name_H-M "A M M 2"
_symmetry_group_IT_number 38
_symmetry_cell_setting 'orthorhombic'
loop_
_space_group_symop_operation_xyz
x,y,z
-x,-y,z
-x,y,z
x,-y,z
x,1/2+y,1/2+z
-x,1/2-y,1/2+z
-x,1/2+y,1/2+z
x,1/2-y,1/2+z
loop_
_atom_site_type_symbol
_atom_site_label
_atom_site_fract_x
_atom_site_fract_y
_atom_site_fract_z
Si Si1 0.216346 0.066969 0.630880
Si Si2 0.356262 0.933423 0.629745
Si Si3 0.612645 0.369013 0.630899
Si Si4 0.721533 0.213489 0.197994
Si Si5 0.069373 0.212688 0.188593
Si Si6 0.172992 0.869180 0.133628
Si Si7 0.500000 0.788387 0.130749
O O1 0.286322 0.083430 0.636036
O O2 0.188688 0.083635 0.351247
O O3 0.206858 0.000000 0.677913
O O4 0.181532 0.102046 0.851714
O O5 0.386164 0.917542 0.353458
O O6 0.364821 0.000000 0.680602
O O7 0.392888 0.899603 0.851229
O O8 0.674163 0.335214 0.640516
O O9 0.558151 0.326445 0.676773
O O10 0.712493 0.234626 0.495321
O O11 0.787098 0.187549 0.163112
O O12 0.086355 0.242721 0.461058
O O13 0.105104 0.153047 0.159883
O O14 0.000000 0.195329 0.174455
O O15 0.500000 0.736822 0.338253
#
# Coordination Sequence:
#
# PCOD8180165 Si02
#       7
#     8   8   8   8   8   8   4
#     4  11  22  38  60  88 120 155 195 242 302 356
#     4  11  22  41  64  90 119 153 195 247 302 352
#     4  12  23  42  62  88 118 158 196 242 290 357
#     4  12  22  34  54  85 117 145 185 242 289 336
#     4  10  21  38  59  85 121 162 198 236 289 353
#     4  12  21  37  59  89 118 152 200 242 299 345
#     4  12  26  46  65  86 119 166 200 232 286 366
#
# _framework density 19.587924000000001
#
# number of rings (size 3 to 8) (size 9 to 14) (size 15 to 20)
#    0.000    0.615    3.077    6.462    0.000    2.462 
#    0.000    2.308    0.000    2.769    0.000    0.000 
#    0.000    0.000    0.000    0.000    0.000    0.000 
#
# Total GULP energy -322608.786506 kJ/mol
# GULP energy per Si atom -12408.030250 kJ/mol
# Density = 1.954334 g / cm^3
# Si number density = 19.587924 Si / 1000 Ang^3
#
#
#
# Elastic Constant Matrix: (Units=GPa)
#
#
# Indices 1 2 3 4 5 6 
#
# 1 72.3096 32.6782 15.8907 0.0000 0.0000 0.0000
# 2 32.6782 74.2819 17.1557 0.0000 0.0000 0.0000
# 3 15.8907 17.1557 84.2109 0.0000 0.0000 0.0000
# 4 0.0000 0.0000 0.0000 41.5731 0.0000 0.0000
# 5 0.0000 0.0000 0.0000 0.0000 23.8064 0.0000
# 6 0.0000 0.0000 0.0000 0.0000 0.0000 29.4689
#
#
#
# Elastic Compliance Matrix: (Units=1/GPa)
#
#
# Indices 1 2 3 4 5 6 
#
# 1 0.017523 -0.007288 -0.001822 0.000000 0.000000 0.000000
# 2 -0.007288 0.017158 -0.002120 0.000000 0.000000 0.000000
# 3 -0.001822 -0.002120 0.012651 0.000000 0.000000 0.000000
# 4 0.000000 0.000000 0.000000 0.024054 0.000000 0.000000
# 5 0.000000 0.000000 0.000000 0.000000 0.042005 0.000000
# 6 0.000000 0.000000 0.000000 0.000000 0.000000 0.033934
#
#
# Mechanical properties :
#
#
# Convention : Reuss Voigt Hill
#
# Bulk Modulus (GPa) = 40.20642 40.25017 40.22830
# Shear Modulus (GPa) = 28.07775 29.97488 29.02632
#
# Velocity S-wave (km/s) = 3.79016 3.91612 3.85365
# Velocity P-wave (km/s) = 6.30273 6.40633 6.35474
#
# Compressibility (1/GPa) = 0.02487165
#
# Stress axis : x y z
#
# Youngs Moduli (GPa) = 57.06634 58.28148 79.04711
#
# Poissons Ratio (x) = 0.42476 0.14402
# Poissons Ratio (y) = 0.41591 0.16760
# Poissons Ratio (z) = 0.10397 0.12357
#
# Static dielectric constant tensor:
#      x y z
#    x 3.433310 0.000000 0.000000 
#    y 0.000000 3.500150 0.000000 
#    z 0.000000 0.000000 3.819950 
# 
# 
# High freq. dielectric constant tensor:
#      x y z
#    x 1.749770 0.000000 0.000000 
#    y 0.000000 1.765800 0.000000 
#    z 0.000000 0.000000 1.785330 
# 
# From -- ./inp_files/1896.got.cif
#   From: 2010.03.12/outbox.cif.g09.slc.cpg/sg38_1_cif.got.tgz:1896.got - 2010.04.14 02:38:36.
