data_PCOD8180189
_publ_section_title
;
Structure prediction by ZEFSAII (Michael W. Deem and Ramdas Pophale) SiO2 
 PCOD8180189
Probable space group: A M M 2
;
_chemical_formula_sum "Si O2"
_cell_formula_units_Z 56
_cell_length_a 19.127341
_cell_length_b 9.298044
_cell_length_c 16.058958
_cell_angle_alpha 90.000000
_cell_angle_beta 90.000000
_cell_angle_gamma 90.000000
_cell_volume 2856.035227
_symmetry_space_group_name_H-M "A M M 2"
_symmetry_group_IT_number 38
_symmetry_cell_setting 'orthorhombic'
loop_
_space_group_symop_operation_xyz
x,y,z
-x,-y,z
-x,y,z
x,-y,z
x,1/2+y,1/2+z
-x,1/2-y,1/2+z
-x,1/2+y,1/2+z
x,1/2-y,1/2+z
loop_
_atom_site_type_symbol
_atom_site_label
_atom_site_fract_x
_atom_site_fract_y
_atom_site_fract_z
Si Si1 0.578880 0.336205 0.334670
Si Si2 0.296739 0.333698 0.101552
Si Si3 0.082108 0.666946 0.186358
Si Si4 0.421183 0.337372 0.529715
Si Si5 0.704752 0.164879 0.261444
Si Si6 0.155616 0.833029 0.521483
Si Si7 0.150592 0.333612 0.838008
O O1 0.500000 0.304057 0.303814
O O2 0.599594 0.500000 0.312671
O O3 0.583657 0.309824 0.432289
O O4 0.631114 0.227524 0.290834
O O5 0.305753 0.500000 0.123634
O O6 0.371766 0.273949 0.075963
O O7 0.267818 0.251577 0.181904
O O8 0.238972 0.308614 0.030167
O O9 0.103244 0.500000 0.194613
O O10 0.114645 0.734432 0.100899
O O11 0.109800 0.745703 0.268339
O O12 0.000000 0.689564 0.181103
O O13 0.500000 0.309834 0.561008
O O14 0.398027 0.500000 0.551001
O O15 0.765468 0.181017 0.329853
O O16 0.691935 0.000000 0.237167
O O17 0.132201 0.771726 0.430814
O O18 0.137273 0.000000 0.520654
O O19 0.128353 0.500000 0.829117
#
# Coordination Sequence:
#
# PCOD8180189 Si02
#       7
#     8   8   8   8   8   8   8
#     4   9  19  36  56  78 107 147 193 238 290 352
#     4  11  21  35  57  81 110 148 194 242 289 346
#     4  10  21  39  62  88 120 155 191 232 282 344
#     4   9  19  36  55  77 109 146 186 237 295 350
#     4  11  22  35  54  82 115 148 191 244 295 343
#     4   9  19  37  60  86 116 153 194 234 283 343
#     4  10  21  38  61  88 118 153 194 239 288 344
#
# _framework density 19.607602
#
# number of rings (size 3 to 8) (size 9 to 14) (size 15 to 20)
#    0.000    2.143    1.429    2.571    0.000    4.286 
#    0.000    5.000    0.000    0.000    0.000    0.000 
#    0.000    0.000    0.000    0.000    0.000    0.000 
#
# Total GULP energy -347127.348671 kJ/mol
# GULP energy per Si atom -12397.405310 kJ/mol
# Density = 1.956297 g / cm^3
# Si number density = 19.607602 Si / 1000 Ang^3
#
#
#
# Elastic Constant Matrix: (Units=GPa)
#
#
# Indices 1 2 3 4 5 6 
#
# 1 80.0948 41.3549 52.3992 0.0000 0.0000 0.0000
# 2 41.3549 91.9407 53.1785 0.0000 0.0000 0.0000
# 3 52.3992 53.1785 146.3875 0.0000 0.0000 0.0000
# 4 0.0000 0.0000 0.0000 30.4901 0.0000 0.0000
# 5 0.0000 0.0000 0.0000 0.0000 27.3902 0.0000
# 6 0.0000 0.0000 0.0000 0.0000 0.0000 27.4672
#
#
#
# Elastic Compliance Matrix: (Units=1/GPa)
#
#
# Indices 1 2 3 4 5 6 
#
# 1 0.018356 -0.005641 -0.004521 0.000000 0.000000 0.000000
# 2 -0.005641 0.015504 -0.003613 0.000000 0.000000 0.000000
# 3 -0.004521 -0.003613 0.009762 0.000000 0.000000 0.000000
# 4 0.000000 0.000000 0.000000 0.032798 0.000000 0.000000
# 5 0.000000 0.000000 0.000000 0.000000 0.036509 0.000000
# 6 0.000000 0.000000 0.000000 0.000000 0.000000 0.036407
#
#
# Mechanical properties :
#
#
# Convention : Reuss Voigt Hill
#
# Bulk Modulus (GPa) = 62.22414 68.03204 65.12809
# Shear Modulus (GPa) = 27.43594 28.50218 27.96906
#
# Velocity S-wave (km/s) = 3.74471 3.81679 3.78092
# Velocity P-wave (km/s) = 7.10639 7.36179 7.23521
#
# Compressibility (1/GPa) = 0.01607093
#
# Stress axis : x y z
#
# Youngs Moduli (GPa) = 54.47884 64.50080 102.43928
#
# Poissons Ratio (x) = 0.36388 0.46313
# Poissons Ratio (y) = 0.30734 0.37008
# Poissons Ratio (z) = 0.24630 0.23302
#
# Static dielectric constant tensor:
#      x y z
#    x 3.610690 0.000000 0.000000 
#    y 0.000000 3.425550 0.000000 
#    z 0.000000 0.000000 3.755530 
# 
# 
# High freq. dielectric constant tensor:
#      x y z
#    x 1.765360 0.000000 0.000000 
#    y 0.000000 1.744790 0.000000 
#    z 0.000000 0.000000 1.771380 
# 
# From -- ./inp_files/15435.got.cif
#   From: 2010.03.12/outbox.cif.g09.slc.cpg/sg38_8_cif.got.tgz:15435.got - 2010.04.14 02:38:36.
