data_PCOD8180070
_publ_section_title
;
Structure prediction by ZEFSAII (Michael W. Deem and Ramdas Pophale) SiO2 
 PCOD8180070
Probable space group: A M M 2
;
_chemical_formula_sum "Si O2"
_cell_formula_units_Z 64
_cell_length_a 9.128208
_cell_length_b 24.758717
_cell_length_c 15.197720
_cell_angle_alpha 90.000000
_cell_angle_beta 90.000000
_cell_angle_gamma 90.000000
_cell_volume 3434.726036
_symmetry_space_group_name_H-M "A M M 2"
_symmetry_group_IT_number 38
_symmetry_cell_setting 'orthorhombic'
loop_
_space_group_symop_operation_xyz
x,y,z
-x,-y,z
-x,y,z
x,-y,z
x,1/2+y,1/2+z
-x,1/2-y,1/2+z
-x,1/2+y,1/2+z
x,1/2-y,1/2+z
loop_
_atom_site_type_symbol
_atom_site_label
_atom_site_fract_x
_atom_site_fract_y
_atom_site_fract_z
Si Si1 0.830767 0.438335 0.928050
Si Si2 0.828122 0.337910 0.262784
Si Si3 0.673635 0.857580 0.934271
Si Si4 0.674045 0.560661 0.582707
Si Si5 0.326588 0.889738 0.266047
Si Si6 0.826422 0.352733 0.068747
Si Si7 0.831648 0.765442 0.030823
Si Si8 0.834197 0.284870 0.733577
O O1 0.810408 0.500000 0.957376
O O2 0.737020 0.427810 0.841488
O O3 0.000000 0.424667 0.908164
O O4 0.771196 0.401869 0.008555
O O5 0.740148 0.369637 0.338244
O O6 0.768598 0.359782 0.168702
O O7 0.793834 0.274109 0.269811
O O8 0.000000 0.349128 0.274276
O O9 0.500000 0.856487 0.928652
O O10 0.730456 0.904141 0.000357
O O11 0.729990 0.799637 0.966630
O O12 0.500000 0.559708 0.584003
O O13 0.737016 0.500000 0.573587
O O14 0.731333 0.586891 0.673277
O O15 0.500000 0.890620 0.272136
O O16 0.271437 0.828503 0.278756
O O17 0.773547 0.296198 0.026415
O O18 0.000000 0.349485 0.075978
O O19 0.814541 0.787458 0.129139
O O20 0.000000 0.769937 0.999004
O O21 0.000000 0.299506 0.759944
#
# Coordination Sequence:
#
# PCOD8180070 Si02
#       8
#     8   8   8   8   8   8   8   8
#     4  10  21  37  57  81 108 140 184 232 271 318
#     4   9  19  36  56  77 107 146 182 219 268 329
#     4  11  21  33  52  81 112 141 180 226 268 316
#     4   9  19  36  54  72 104 150 186 213 260 323
#     4  11  21  34  54  80 111 145 179 221 271 328
#     4   8  17  36  58  77 101 140 184 220 267 323
#     4   9  17  32  54  77 104 140 178 216 262 321
#     4   9  18  33  53  77 107 144 182 217 261 321
#
# _framework density 18.633217999999999
#
# number of rings (size 3 to 8) (size 9 to 14) (size 15 to 20)
#    0.000    2.500    1.250    2.625    1.750    1.250 
#    0.000    3.125    0.000    4.500    0.000    0.000 
#    0.000    0.000    0.000    0.000    0.000    0.000 
#
# Total GULP energy -396803.019968 kJ/mol
# GULP energy per Si atom -12400.094374 kJ/mol
# Density = 1.859081 g / cm^3
# Si number density = 18.633218 Si / 1000 Ang^3
#
#
#
# Elastic Constant Matrix: (Units=GPa)
#
#
# Indices 1 2 3 4 5 6 
#
# 1 53.2365 34.9490 40.1019 0.0000 0.0000 0.0000
# 2 34.9490 112.4949 67.8667 0.0000 0.0000 0.0000
# 3 40.1019 67.8667 127.9049 0.0000 0.0000 0.0000
# 4 0.0000 0.0000 0.0000 30.6933 0.0000 0.0000
# 5 0.0000 0.0000 0.0000 0.0000 27.1505 0.0000
# 6 0.0000 0.0000 0.0000 0.0000 0.0000 17.9434
#
#
#
# Elastic Compliance Matrix: (Units=1/GPa)
#
#
# Indices 1 2 3 4 5 6 
#
# 1 0.026164 -0.004677 -0.005722 0.000000 0.000000 0.000000
# 2 -0.004677 0.013910 -0.005915 0.000000 0.000000 0.000000
# 3 -0.005722 -0.005915 0.012751 0.000000 0.000000 0.000000
# 4 0.000000 0.000000 0.000000 0.032580 0.000000 0.000000
# 5 0.000000 0.000000 0.000000 0.000000 0.036832 0.000000
# 6 0.000000 0.000000 0.000000 0.000000 0.000000 0.055731
#
#
# Mechanical properties :
#
#
# Convention : Reuss Voigt Hill
#
# Bulk Modulus (GPa) = 49.50702 64.38572 56.94637
# Shear Modulus (GPa) = 23.00674 25.20536 24.10605
#
# Velocity S-wave (km/s) = 3.51767 3.68191 3.60073
# Velocity P-wave (km/s) = 6.56700 7.25979 6.92207
#
# Compressibility (1/GPa) = 0.02019916
#
# Stress axis : x y z
#
# Youngs Moduli (GPa) = 38.21986 71.88864 78.42750
#
# Poissons Ratio (x) = 0.33619 0.44875
# Poissons Ratio (y) = 0.17874 0.46387
# Poissons Ratio (z) = 0.21869 0.42520
#
# Static dielectric constant tensor:
#      x y z
#    x 3.099010 0.000000 0.000000 
#    y 0.000000 3.458660 0.000000 
#    z 0.000000 0.000000 3.558070 
# 
# 
# High freq. dielectric constant tensor:
#      x y z
#    x 1.692230 0.000000 0.000000 
#    y 0.000000 1.716260 0.000000 
#    z 0.000000 0.000000 1.729610 
# 
# From -- ./inp_files/12858.got.cif
#   From: 2010.03.12/outbox.cif.g09.slc.cpg/sg38_7_cif.got.tgz:12858.got - 2010.04.14 02:38:36.
