data_PCOD8180956
_publ_section_title
;
Structure prediction by ZEFSAII (Michael W. Deem and Ramdas Pophale) SiO2 
 PCOD8180956
Probable space group: A B M 2
;
_chemical_formula_sum "Si O2"
_cell_formula_units_Z 48
_cell_length_a 9.076037
_cell_length_b 16.883379
_cell_length_c 15.376880
_cell_angle_alpha 90.000000
_cell_angle_beta 90.000000
_cell_angle_gamma 90.000000
_cell_volume 2356.263482
_symmetry_space_group_name_H-M "A B M 2"
_symmetry_group_IT_number 39
_symmetry_cell_setting 'orthorhombic'
loop_
_space_group_symop_operation_xyz
x,y,z
-x,-y,z
-x,1/2+y,z
x,1/2-y,z
x,1/2+y,1/2+z
-x,1/2-y,1/2+z
-x,y,1/2+z
x,-y,1/2+z
loop_
_atom_site_type_symbol
_atom_site_label
_atom_site_fract_x
_atom_site_fract_y
_atom_site_fract_z
Si Si1 0.670376 0.158875 0.079900
Si Si2 0.986799 0.657681 0.641294
Si Si3 0.173688 0.657530 0.479736
Si Si4 0.934550 0.413308 0.315524
Si Si5 0.518608 0.090488 0.429896
Si Si6 0.629060 0.341414 0.268678
O O1 0.672508 0.250000 0.051168
O O2 0.833064 0.125987 0.101538
O O3 0.574341 0.147206 0.169115
O O4 0.606283 0.110765 0.999530
O O5 0.968506 0.750000 0.655625
O O6 0.028492 0.621100 0.734917
O O7 0.115034 0.635565 0.574801
O O8 0.209992 0.750000 0.471576
O O9 0.051166 0.634005 0.406877
O O10 0.322382 0.607963 0.470721
O O11 0.762094 0.403135 0.289181
O O12 0.000000 0.500000 0.332289
O O13 0.500739 0.139615 0.338978
O O14 0.500000 0.000000 0.404917
O O15 0.683843 0.250000 0.280308
#
# Coordination Sequence:
#
# PCOD8180956 Si02
#       6
#     8   8   8   8   8   8
#     4   9  18  36  60  81 104 142 188 226 265 323
#     4   9  19  36  58  81 106 141 184 224 266 323
#     4  10  21  39  59  78 109 151 186 219 268 331
#     4  10  19  31  54  82 109 142 178 222 271 321
#     4  11  22  34  54  82 111 143 180 228 277 322
#     4   9  19  38  59  76 106 151 187 217 267 334
#
# _framework density 20.371237000000001
#
# number of rings (size 3 to 8) (size 9 to 14) (size 15 to 20)
#    0.000    2.333    0.000    5.000    0.000    6.667 
#    0.000    3.333    0.000    4.000    0.000    0.000 
#    0.000    0.000    0.000    0.000    0.000    0.000 
#
# Total GULP energy -297361.265115 kJ/mol
# GULP energy per Si atom -12390.052713 kJ/mol
# Density = 2.032487 g / cm^3
# Si number density = 20.371237 Si / 1000 Ang^3
#
#
#
# Elastic Constant Matrix: (Units=GPa)
#
#
# Indices 1 2 3 4 5 6 
#
# 1 41.8550 30.2333 5.7935 0.0000 0.0000 0.0000
# 2 30.2333 77.1537 24.0692 0.0000 0.0000 0.0000
# 3 5.7935 24.0692 41.3558 0.0000 0.0000 0.0000
# 4 0.0000 0.0000 0.0000 4.3032 0.0000 0.0000
# 5 0.0000 0.0000 0.0000 0.0000 32.2134 0.0000
# 6 0.0000 0.0000 0.0000 0.0000 0.0000 27.6911
#
#
#
# Elastic Compliance Matrix: (Units=1/GPa)
#
#
# Indices 1 2 3 4 5 6 
#
# 1 0.033765 -0.014363 0.003629 0.000000 0.000000 0.000000
# 2 -0.014363 0.021946 -0.010761 0.000000 0.000000 0.000000
# 3 0.003629 -0.010761 0.029935 0.000000 0.000000 0.000000
# 4 0.000000 0.000000 0.000000 0.232384 0.000000 0.000000
# 5 0.000000 0.000000 0.000000 0.000000 0.031043 0.000000
# 6 0.000000 0.000000 0.000000 0.000000 0.000000 0.036113
#
#
# Mechanical properties :
#
#
# Convention : Reuss Voigt Hill
#
# Bulk Modulus (GPa) = 23.44298 31.17294 27.30796
# Shear Modulus (GPa) = 11.30216 19.52611 15.41414
#
# Velocity S-wave (km/s) = 2.35800 3.09935 2.75373
# Velocity P-wave (km/s) = 4.35274 5.30505 4.85232
#
# Compressibility (1/GPa) = 0.04265669
#
# Stress axis : x y z
#
# Youngs Moduli (GPa) = 29.61679 45.56547 33.40591
#
# Poissons Ratio (x) = 0.65446 -0.12124
# Poissons Ratio (y) = 0.42539 0.35947
# Poissons Ratio (z) = -0.10749 0.49032
#
# Static dielectric constant tensor:
#      x y z
#    x 3.351290 0.000000 0.000000 
#    y 0.000000 3.536690 0.000000 
#    z 0.000000 0.000000 4.245260 
# 
# 
# High freq. dielectric constant tensor:
#      x y z
#    x 1.755540 0.000000 0.000000 
#    y 0.000000 1.783250 0.000000 
#    z 0.000000 0.000000 1.823630 
# 
# From -- ./inp_files/8362.got.cif
#   From: 2010.03.12/outbox.cif.g09.slc.cpg/sg39_5_cif.got.tgz:8362.got - 2010.04.14 02:53:20.
