data_PCOD8180672
_publ_section_title
;
Structure prediction by ZEFSAII (Michael W. Deem and Ramdas Pophale) SiO2 
 PCOD8180672
Probable space group: A B M 2
;
_chemical_formula_sum "Si O2"
_cell_formula_units_Z 48
_cell_length_a 10.008986
_cell_length_b 8.683638
_cell_length_c 30.751471
_cell_angle_alpha 90.000000
_cell_angle_beta 90.000000
_cell_angle_gamma 90.000000
_cell_volume 2672.745995
_symmetry_space_group_name_H-M "A B M 2"
_symmetry_group_IT_number 39
_symmetry_cell_setting 'orthorhombic'
loop_
_space_group_symop_operation_xyz
x,y,z
-x,-y,z
-x,1/2+y,z
x,1/2-y,z
x,1/2+y,1/2+z
-x,1/2-y,1/2+z
-x,y,1/2+z
x,-y,1/2+z
loop_
_atom_site_type_symbol
_atom_site_label
_atom_site_fract_x
_atom_site_fract_y
_atom_site_fract_z
Si Si1 0.645613 0.070398 0.978100
Si Si2 0.648363 0.432345 0.393085
Si Si3 0.861155 0.930782 0.640074
Si Si4 0.354992 0.570250 0.073649
Si Si5 0.858326 0.068025 0.239959
Si Si6 0.647648 0.067294 0.804776
O O1 0.637003 0.250000 0.967244
O O2 0.500000 0.000000 0.981674
O O3 0.723241 0.986778 0.937756
O O4 0.709891 0.038912 0.025618
O O5 0.500000 0.500000 0.395853
O O6 0.648228 0.250000 0.389309
O O7 0.713985 0.503936 0.349663
O O8 0.870658 0.750000 0.634018
O O9 0.744285 0.000301 0.609741
O O10 0.832307 0.975646 0.689844
O O11 0.000000 0.000000 0.623833
O O12 0.500000 0.500000 0.080066
O O13 0.373363 0.750000 0.080955
O O14 0.856951 0.250000 0.248157
O O15 0.739866 0.986709 0.265595
O O16 0.000000 0.000000 0.255572
O O17 0.638731 0.250000 0.806348
O O18 0.500000 0.000000 0.797746
#
# Coordination Sequence:
#
# PCOD8180672 Si02
#       6
#     8   8   8   8   8   8
#     4   9  15  25  42  65  95 128 161 197 241 290
#     4  10  17  27  44  68  98 129 163 201 244 294
#     4   9  19  35  53  73  98 130 167 204 243 293
#     4   9  18  31  48  73 102 130 163 204 246 289
#     4  10  20  36  55  75 100 132 170 208 250 302
#     4  11  21  34  52  76 104 133 167 208 254 298
#
# _framework density 17.959057999999999
#
# number of rings (size 3 to 8) (size 9 to 14) (size 15 to 20)
#    0.000    2.333    0.000    6.000    0.000    2.667 
#    0.000    1.667    0.000    1.000    0.000    4.667 
#    0.000    0.000    0.000    0.000    0.000    0.000 
#
# Total GULP energy -297444.309052 kJ/mol
# GULP energy per Si atom -12393.512877 kJ/mol
# Density = 1.791818 g / cm^3
# Si number density = 17.959058 Si / 1000 Ang^3
#
#
#
# Elastic Constant Matrix: (Units=GPa)
#
#
# Indices 1 2 3 4 5 6 
#
# 1 83.7691 39.0581 72.2174 0.0000 0.0000 0.0000
# 2 39.0581 112.4932 56.6784 0.0000 0.0000 0.0000
# 3 72.2174 56.6784 136.6270 0.0000 0.0000 0.0000
# 4 0.0000 0.0000 0.0000 21.0264 0.0000 0.0000
# 5 0.0000 0.0000 0.0000 0.0000 -9.1852 0.0000
# 6 0.0000 0.0000 0.0000 0.0000 0.0000 23.8439
#
#
#
# Elastic Compliance Matrix: (Units=1/GPa)
#
#
# Indices 1 2 3 4 5 6 
#
# 1 0.022388 -0.002289 -0.010884 0.000000 0.000000 0.000000
# 2 -0.002289 0.011473 -0.003549 0.000000 0.000000 0.000000
# 3 -0.010884 -0.003549 0.014545 0.000000 0.000000 0.000000
# 4 0.000000 0.000000 0.000000 0.047559 0.000000 0.000000
# 5 0.000000 0.000000 0.000000 0.000000 -0.108871 0.000000
# 6 0.000000 0.000000 0.000000 0.000000 0.000000 0.041940
#
#
# Mechanical properties :
#
#
# Convention : Reuss Voigt Hill
#
# Bulk Modulus (GPa) = 66.84492 74.31078 70.57785
# Shear Modulus (GPa) = 74.11237 18.13271 46.12254
#
# Velocity S-wave (km/s) = 6.43094 3.18098 5.07324
# Velocity P-wave (km/s) = 9.61479 7.41345 8.58497
#
# Compressibility (1/GPa) = 0.01496000
#
# Stress axis : x y z
#
# Youngs Moduli (GPa) = 44.66638 87.16482 68.75433
#
# Poissons Ratio (x) = 0.19956 0.74833
# Poissons Ratio (y) = 0.10226 0.24402
# Poissons Ratio (z) = 0.48615 0.30936
#
# Static dielectric constant tensor:
#      x y z
#    x 3.255570 0.000000 0.000000 
#    y 0.000000 3.502650 0.000000 
#    z 0.000000 0.000000 4.387120 
# 
# 
# High freq. dielectric constant tensor:
#      x y z
#    x 1.644310 0.000000 0.000000 
#    y 0.000000 1.707320 0.000000 
#    z 0.000000 0.000000 1.718830 
# 
# From -- ./inp_files/17602.got.cif
#   From: 2010.03.12/outbox.cif.g09.slc.cpg/sg39_9_cif.got.tgz:17602.got - 2010.04.14 02:53:20.
