data_PCOD8180489
_publ_section_title
;
Structure prediction by ZEFSAII (Michael W. Deem and Ramdas Pophale) SiO2 
 PCOD8180489
Probable space group: A M M 2
;
_chemical_formula_sum "Si O2"
_cell_formula_units_Z 48
_cell_length_a 13.988388
_cell_length_b 15.218690
_cell_length_c 11.773955
_cell_angle_alpha 90.000000
_cell_angle_beta 90.000000
_cell_angle_gamma 90.000000
_cell_volume 2506.497710
_symmetry_space_group_name_H-M "A M M 2"
_symmetry_group_IT_number 38
_symmetry_cell_setting 'orthorhombic'
loop_
_space_group_symop_operation_xyz
x,y,z
-x,-y,z
-x,y,z
x,-y,z
x,1/2+y,1/2+z
-x,1/2-y,1/2+z
-x,1/2+y,1/2+z
x,1/2-y,1/2+z
loop_
_atom_site_type_symbol
_atom_site_label
_atom_site_fract_x
_atom_site_fract_y
_atom_site_fract_z
Si Si1 0.703207 0.160682 0.540260
Si Si2 0.606784 0.099309 0.757594
Si Si3 0.108300 0.103221 0.635132
Si Si4 0.297923 0.356691 0.488541
Si Si5 0.611508 0.000000 0.141480
Si Si6 0.610938 0.000000 0.410257
Si Si7 0.105012 0.604021 0.392388
O O1 0.661447 0.157519 0.666737
O O2 0.818216 0.151228 0.549790
O O3 0.672129 0.255259 0.493570
O O4 0.659934 0.087386 0.458181
O O5 0.500000 0.136056 0.773561
O O6 0.659854 0.099666 0.876635
O O7 0.605714 0.000000 0.710948
O O8 0.125063 0.137194 0.763845
O O9 0.000000 0.123832 0.595558
O O10 0.129718 0.000000 0.629115
O O11 0.337265 0.412092 0.594869
O O12 0.182657 0.360478 0.481646
O O13 0.500000 0.000000 0.105396
O O14 0.623934 0.000000 0.275782
O O15 0.500000 0.000000 0.445909
O O16 0.107578 0.500000 0.391011
O O17 0.000000 0.636909 0.431989
#
# Coordination Sequence:
#
# PCOD8180489 Si02
#       7
#     8   8   8   8   4   4   8
#     4  12  24  39  64  92 125 159 201 255 308 359
#     4  11  22  40  65  90 118 159 211 262 302 352
#     4   9  17  34  63  93 119 152 199 252 305 359
#     4  12  24  39  64  92 125 159 201 255 308 359
#     4  11  26  45  60  83 124 169 205 244 302 366
#     4  11  26  45  60  83 124 169 205 244 302 366
#     4   9  17  34  63  93 119 152 199 252 305 359
#
# _framework density 19.150226
#
# number of rings (size 3 to 8) (size 9 to 14) (size 15 to 20)
#    0.000    1.333    5.000    2.000    2.333    3.333 
#    0.000    0.000    0.000    2.000    0.000    0.000 
#    0.000    0.000    0.000    0.000    0.000    0.000 
#
# Total GULP energy -297617.104384 kJ/mol
# GULP energy per Si atom -12400.712683 kJ/mol
# Density = 1.910664 g / cm^3
# Si number density = 19.150226 Si / 1000 Ang^3
#
#
#
# Elastic Constant Matrix: (Units=GPa)
#
#
# Indices 1 2 3 4 5 6 
#
# 1 147.8049 39.4605 45.3985 0.0000 0.0000 0.0000
# 2 39.4605 105.5416 28.3489 0.0000 0.0000 0.0000
# 3 45.3985 28.3489 73.7470 0.0000 0.0000 0.0000
# 4 0.0000 0.0000 0.0000 14.9354 0.0000 0.0000
# 5 0.0000 0.0000 0.0000 0.0000 29.0463 0.0000
# 6 0.0000 0.0000 0.0000 0.0000 0.0000 9.2711
#
#
#
# Elastic Compliance Matrix: (Units=1/GPa)
#
#
# Indices 1 2 3 4 5 6 
#
# 1 0.008715 -0.002027 -0.004586 0.000000 0.000000 0.000000
# 2 -0.002027 0.011037 -0.002995 0.000000 0.000000 0.000000
# 3 -0.004586 -0.002995 0.017534 0.000000 0.000000 0.000000
# 4 0.000000 0.000000 0.000000 0.066955 0.000000 0.000000
# 5 0.000000 0.000000 0.000000 0.000000 0.034428 0.000000
# 6 0.000000 0.000000 0.000000 0.000000 0.000000 0.107862
#
#
# Mechanical properties :
#
#
# Convention : Reuss Voigt Hill
#
# Bulk Modulus (GPa) = 55.33692 61.50102 58.41897
# Shear Modulus (GPa) = 18.39779 24.90960 21.65369
#
# Velocity S-wave (km/s) = 3.10289 3.61050 3.36628
# Velocity P-wave (km/s) = 6.46500 7.04029 6.75877
#
# Compressibility (1/GPa) = 0.01807112
#
# Stress axis : x y z
#
# Youngs Moduli (GPa) = 114.73962 90.60267 57.03066
#
# Poissons Ratio (x) = 0.18363 0.26155
# Poissons Ratio (y) = 0.23254 0.17081
# Poissons Ratio (z) = 0.52621 0.27137
#
# Static dielectric constant tensor:
#      x y z
#    x 4.170140 0.000000 0.000000 
#    y 0.000000 3.252550 0.000000 
#    z 0.000000 0.000000 3.358030 
# 
# 
# High freq. dielectric constant tensor:
#      x y z
#    x 1.765960 0.000000 0.000000 
#    y 0.000000 1.726200 0.000000 
#    z 0.000000 0.000000 1.728120 
# 
# From -- ./inp_files/10044.got.cif
#   From: 2010.03.12/outbox.cif.g09.slc.cpg/sg38_6_cif.got.tgz:10044.got - 2010.04.14 02:38:36.
