data_PCOD8180095
_publ_section_title
;
Structure prediction by ZEFSAII (Michael W. Deem and Ramdas Pophale) SiO2 
 PCOD8180095
Probable space group: A M M 2
;
_chemical_formula_sum "Si O2"
_cell_formula_units_Z 64
_cell_length_a 9.426209
_cell_length_b 22.109810
_cell_length_c 15.198039
_cell_angle_alpha 90.000000
_cell_angle_beta 90.000000
_cell_angle_gamma 90.000000
_cell_volume 3167.448993
_symmetry_space_group_name_H-M "A M M 2"
_symmetry_group_IT_number 38
_symmetry_cell_setting 'orthorhombic'
loop_
_space_group_symop_operation_xyz
x,y,z
-x,-y,z
-x,y,z
x,-y,z
x,1/2+y,1/2+z
-x,1/2-y,1/2+z
-x,1/2+y,1/2+z
x,1/2-y,1/2+z
loop_
_atom_site_type_symbol
_atom_site_label
_atom_site_fract_x
_atom_site_fract_y
_atom_site_fract_z
Si Si1 0.661652 0.265448 0.716150
Si Si2 0.658173 0.071343 0.957117
Si Si3 0.157380 0.571563 0.299821
Si Si4 0.831967 0.305890 0.879549
Si Si5 0.661150 0.567661 0.133055
Si Si6 0.338325 0.398363 0.647853
Si Si7 0.662799 0.688605 0.049669
Si Si8 0.162255 0.934000 0.307120
O O1 0.500000 0.254849 0.748573
O O2 0.765133 0.265573 0.800939
O O3 0.675779 0.327807 0.664795
O O4 0.708226 0.215014 0.645010
O O5 0.500000 0.099086 0.947468
O O6 0.758448 0.100174 0.882288
O O7 0.651042 0.000000 0.945113
O O8 0.724222 0.088374 0.051362
O O9 0.148993 0.500000 0.310127
O O10 0.237739 0.588969 0.211224
O O11 0.000000 0.599851 0.297059
O O12 0.791766 0.377108 0.867168
O O13 0.000000 0.294667 0.882641
O O14 0.762556 0.285980 0.972134
O O15 0.500000 0.568887 0.168992
O O16 0.700187 0.500000 0.099111
O O17 0.679965 0.615591 0.054218
O O18 0.500000 0.421135 0.652927
O O19 0.251204 0.436554 0.717991
O O20 0.500000 0.706740 0.028815
O O21 0.000000 0.924495 0.279653
O O22 0.183500 0.000000 0.354445
#
# Coordination Sequence:
#
# PCOD8180095 Si02
#       8
#     8   8   8   8   8   8   8   8
#     4   9  19  38  59  78 105 142 183 228 273 320
#     4   9  16  26  42  66  98 134 172 216 265 316
#     4   9  17  29  45  67  98 135 172 212 261 316
#     4  10  21  37  58  83 113 147 181 224 273 322
#     4   9  18  34  55  78 105 137 175 221 272 323
#     4   9  17  30  49  73 100 134 179 227 269 313
#     4  10  21  38  60  84 109 143 184 226 274 326
#     4   9  18  32  50  75 109 146 179 213 263 324
#
# _framework density 20.205534
#
# number of rings (size 3 to 8) (size 9 to 14) (size 15 to 20)
#    0.000    2.750    0.000    1.125    0.000    4.750 
#    2.250    1.250    0.000    0.000    0.000    0.000 
#    0.000    0.000    0.000    0.000    0.000    0.000 
#
# Total GULP energy -396676.883854 kJ/mol
# GULP energy per Si atom -12396.152620 kJ/mol
# Density = 2.015955 g / cm^3
# Si number density = 20.205534 Si / 1000 Ang^3
#
#
#
# Elastic Constant Matrix: (Units=GPa)
#
#
# Indices 1 2 3 4 5 6 
#
# 1 101.0492 19.1935 67.4839 0.0000 0.0000 0.0000
# 2 19.1935 53.2004 23.8936 0.0000 0.0000 0.0000
# 3 67.4839 23.8936 111.8947 0.0000 0.0000 0.0000
# 4 0.0000 0.0000 0.0000 20.6408 0.0000 0.0000
# 5 0.0000 0.0000 0.0000 0.0000 17.8665 0.0000
# 6 0.0000 0.0000 0.0000 0.0000 0.0000 18.7140
#
#
#
# Elastic Compliance Matrix: (Units=1/GPa)
#
#
# Indices 1 2 3 4 5 6 
#
# 1 0.016702 -0.001661 -0.009718 0.000000 0.000000 0.000000
# 2 -0.001661 0.020956 -0.003473 0.000000 0.000000 0.000000
# 3 -0.009718 -0.003473 0.015540 0.000000 0.000000 0.000000
# 4 0.000000 0.000000 0.000000 0.048448 0.000000 0.000000
# 5 0.000000 0.000000 0.000000 0.000000 0.055971 0.000000
# 6 0.000000 0.000000 0.000000 0.000000 0.000000 0.053436
#
#
# Mechanical properties :
#
#
# Convention : Reuss Voigt Hill
#
# Bulk Modulus (GPa) = 42.56615 54.14290 48.35452
# Shear Modulus (GPa) = 20.11364 21.81580 20.96472
#
# Velocity S-wave (km/s) = 3.15850 3.28943 3.22463
# Velocity P-wave (km/s) = 5.86633 6.42506 6.15204
#
# Compressibility (1/GPa) = 0.02349285
#
# Stress axis : x y z
#
# Youngs Moduli (GPa) = 59.87386 47.71915 64.35138
#
# Poissons Ratio (x) = 0.07926 0.62538
# Poissons Ratio (y) = 0.09945 0.22350
# Poissons Ratio (z) = 0.58187 0.16574
#
# Static dielectric constant tensor:
#      x y z
#    x 3.765180 0.000000 0.000000 
#    y 0.000000 3.577680 0.000000 
#    z 0.000000 0.000000 3.471260 
# 
# 
# High freq. dielectric constant tensor:
#      x y z
#    x 1.782400 0.000000 0.000000 
#    y 0.000000 1.775830 0.000000 
#    z 0.000000 0.000000 1.776480 
# 
# From -- ./inp_files/12828.got.cif
#   From: 2010.03.12/outbox.cif.g09.slc.cpg/sg38_7_cif.got.tgz:12828.got - 2010.04.14 02:38:36.
