data_PCOD8180995
_publ_section_title
;
Structure prediction by ZEFSAII (Michael W. Deem and Ramdas Pophale) SiO2 
 PCOD8180995
Probable space group: A B M 2
;
_chemical_formula_sum "Si O2"
_cell_formula_units_Z 64
_cell_length_a 20.774710
_cell_length_b 8.951288
_cell_length_c 18.419079
_cell_angle_alpha 90.000000
_cell_angle_beta 90.000000
_cell_angle_gamma 90.000000
_cell_volume 3425.219526
_symmetry_space_group_name_H-M "A B M 2"
_symmetry_group_IT_number 39
_symmetry_cell_setting 'orthorhombic'
loop_
_space_group_symop_operation_xyz
x,y,z
-x,-y,z
-x,1/2+y,z
x,1/2-y,z
x,1/2+y,1/2+z
-x,1/2-y,1/2+z
-x,y,1/2+z
x,-y,1/2+z
loop_
_atom_site_type_symbol
_atom_site_label
_atom_site_fract_x
_atom_site_fract_y
_atom_site_fract_z
Si Si1 0.187050 0.426760 0.906230
Si Si2 0.309295 0.924110 0.320053
Si Si3 0.933470 0.425903 0.151860
Si Si4 0.694231 0.574806 0.650748
Si Si5 0.437497 0.417072 0.321509
Si Si6 0.813975 0.572727 0.073056
Si Si7 0.065308 0.924682 0.319700
Si Si8 0.436327 0.580653 0.648657
O O1 0.186875 0.250000 0.896895
O O2 0.249780 0.491037 0.865476
O O3 0.123477 0.491914 0.867314
O O4 0.188218 0.475977 0.989349
O O5 0.319054 0.750000 0.333985
O O6 0.296681 0.957316 0.235764
O O7 0.373271 0.003133 0.349626
O O8 0.936455 0.250000 0.137064
O O9 0.876334 0.497714 0.106883
O O10 0.920652 0.462484 0.235978
O O11 0.000000 0.500000 0.125766
O O12 0.697806 0.750000 0.633306
O O13 0.750160 0.487977 0.610162
O O14 0.626183 0.510844 0.622483
O O15 0.500000 0.500000 0.353365
O O16 0.438032 0.250000 0.352071
O O17 0.439420 0.419333 0.235021
O O18 0.817848 0.750000 0.082824
O O19 0.057319 0.750000 0.332080
O O20 0.000000 0.000000 0.347215
O O21 0.500000 0.500000 0.617102
O O22 0.432957 0.750000 0.618846
#
# Coordination Sequence:
#
# PCOD8180995 Si02
#       8
#     8   8   8   8   8   8   8   8
#     4   9  19  35  53  73 100 135 171 207 250 298
#     4   9  17  32  53  73  96 131 172 212 254 299
#     4  10  20  36  58  81 105 133 167 208 252 300
#     4  10  19  32  52  76 102 134 172 213 256 303
#     4   9  16  26  43  71 103 131 162 204 253 303
#     4  11  22  35  52  75 105 138 171 209 253 302
#     4   9  18  35  57  79 102 130 166 206 248 295
#     4   9  16  27  45  72 104 134 167 209 257 306
#
# _framework density 18.684933000000001
#
# number of rings (size 3 to 8) (size 9 to 14) (size 15 to 20)
#    0.000    2.500    0.000    2.625    0.000    6.500 
#    0.000    4.375    0.000    0.750    0.000    3.500 
#    0.000    0.000    0.000    0.000    0.000    0.000 
#
# Total GULP energy -396834.384223 kJ/mol
# GULP energy per Si atom -12401.074507 kJ/mol
# Density = 1.864241 g / cm^3
# Si number density = 18.684933 Si / 1000 Ang^3
#
#
#
# Elastic Constant Matrix: (Units=GPa)
#
#
# Indices 1 2 3 4 5 6 
#
# 1 206.6412 70.1214 72.3616 0.0000 0.0000 0.0000
# 2 70.1214 89.0064 42.1650 0.0000 0.0000 0.0000
# 3 72.3616 42.1650 65.6653 0.0000 0.0000 0.0000
# 4 0.0000 0.0000 0.0000 16.1519 0.0000 0.0000
# 5 0.0000 0.0000 0.0000 0.0000 -9.6824 0.0000
# 6 0.0000 0.0000 0.0000 0.0000 0.0000 41.3311
#
#
#
# Elastic Compliance Matrix: (Units=1/GPa)
#
#
# Indices 1 2 3 4 5 6 
#
# 1 0.008484 -0.003241 -0.007269 0.000000 0.000000 0.000000
# 2 -0.003241 0.017385 -0.007592 0.000000 0.000000 0.000000
# 3 -0.007269 -0.007592 0.028113 0.000000 0.000000 0.000000
# 4 0.000000 0.000000 0.000000 0.061912 0.000000 0.000000
# 5 0.000000 0.000000 0.000000 0.000000 -0.103280 0.000000
# 6 0.000000 0.000000 0.000000 0.000000 0.000000 0.024195
#
#
# Mechanical properties :
#
#
# Convention : Reuss Voigt Hill
#
# Bulk Modulus (GPa) = 56.24251 81.17876 68.71063
# Shear Modulus (GPa) = 63.34070 21.33779 42.33925
#
# Velocity S-wave (km/s) = 5.82863 3.38298 4.76537
# Velocity P-wave (km/s) = 8.68695 7.66811 8.19338
#
# Compressibility (1/GPa) = 0.01778015
#
# Stress axis : x y z
#
# Youngs Moduli (GPa) = 117.86405 57.52138 35.57028
#
# Poissons Ratio (x) = 0.18642 0.25854
# Poissons Ratio (y) = 0.38198 0.27004
# Poissons Ratio (z) = 0.85670 0.43669
#
# Static dielectric constant tensor:
#      x y z
#    x 3.918200 0.000000 0.000000 
#    y 0.000000 3.430760 0.000000 
#    z 0.000000 0.000000 3.166590 
# 
# 
# High freq. dielectric constant tensor:
#      x y z
#    x 1.746750 0.000000 0.000000 
#    y 0.000000 1.722950 0.000000 
#    z 0.000000 0.000000 1.688750 
# 
# From -- ./inp_files/13119.got.cif
#   From: 2010.03.12/outbox.cif.g09.slc.cpg/sg39_7_cif.got.tgz:13119.got - 2010.04.14 02:53:20.
