data_PCOD8180240
_publ_section_title
;
Structure prediction by ZEFSAII (Michael W. Deem and Ramdas Pophale) SiO2 
 PCOD8180240
Probable space group: A M M 2
;
_chemical_formula_sum "Si O2"
_cell_formula_units_Z 48
_cell_length_a 14.145021
_cell_length_b 17.022766
_cell_length_c 9.492824
_cell_angle_alpha 90.000000
_cell_angle_beta 90.000000
_cell_angle_gamma 90.000000
_cell_volume 2285.752244
_symmetry_space_group_name_H-M "A M M 2"
_symmetry_group_IT_number 38
_symmetry_cell_setting 'orthorhombic'
loop_
_space_group_symop_operation_xyz
x,y,z
-x,-y,z
-x,y,z
x,-y,z
x,1/2+y,1/2+z
-x,1/2-y,1/2+z
-x,1/2+y,1/2+z
x,1/2-y,1/2+z
loop_
_atom_site_type_symbol
_atom_site_label
_atom_site_fract_x
_atom_site_fract_y
_atom_site_fract_z
Si Si1 0.609194 0.091461 0.913650
Si Si2 0.772387 0.145115 0.086624
Si Si3 0.893519 0.086398 0.847014
Si Si4 0.889075 0.804004 0.592129
Si Si5 0.395678 0.592838 0.094311
Si Si6 0.775685 0.408195 0.902762
O O1 0.500000 0.106670 0.946170
O O2 0.634081 0.115971 0.753253
O O3 0.634650 0.000000 0.939472
O O4 0.667681 0.147983 0.018750
O O5 0.822751 0.228735 0.088531
O O6 0.763627 0.107409 0.238995
O O7 0.832079 0.087753 0.987282
O O8 0.860997 0.150539 0.734177
O O9 0.000000 0.103603 0.893676
O O10 0.883191 0.000000 0.777691
O O11 0.866146 0.859870 0.459245
O O12 0.000000 0.781582 0.586135
O O13 0.500000 0.628012 0.057962
O O14 0.402887 0.500000 0.084469
O O15 0.317538 0.623773 0.984487
O O16 0.792581 0.500000 0.930828
#
# Coordination Sequence:
#
# PCOD8180240 Si02
#       6
#     8   8   8   8   8   8
#     4   9  18  35  61  91 123 162 205 245 290 353
#     4  12  23  37  59  92 128 156 190 246 313 364
#     4  10  21  39  63  87 114 158 212 253 289 350
#     4  11  25  44  62  82 117 165 207 246 301 366
#     4   8  16  34  60  88 118 154 196 240 288 347
#     4  11  23  38  61  93 123 155 200 254 306 355
#
# _framework density 20.999652000000001
#
# number of rings (size 3 to 8) (size 9 to 14) (size 15 to 20)
#    0.000    1.833    0.000    5.500    0.000    5.667 
#    0.000    2.500    0.000    3.000    0.000    0.000 
#    0.000    0.000    0.000    0.000    0.000    0.000 
#
# Total GULP energy -297581.332344 kJ/mol
# GULP energy per Si atom -12399.222181 kJ/mol
# Density = 2.095186 g / cm^3
# Si number density = 20.999652 Si / 1000 Ang^3
#
#
#
# Elastic Constant Matrix: (Units=GPa)
#
#
# Indices 1 2 3 4 5 6 
#
# 1 126.7754 52.6446 67.3695 0.0000 0.0000 0.0000
# 2 52.6446 88.4415 33.1942 0.0000 0.0000 0.0000
# 3 67.3695 33.1942 132.3888 0.0000 0.0000 0.0000
# 4 0.0000 0.0000 0.0000 25.7621 0.0000 0.0000
# 5 0.0000 0.0000 0.0000 0.0000 27.3639 0.0000
# 6 0.0000 0.0000 0.0000 0.0000 0.0000 34.1317
#
#
#
# Elastic Compliance Matrix: (Units=1/GPa)
#
#
# Indices 1 2 3 4 5 6 
#
# 1 0.013065 -0.005830 -0.005187 0.000000 0.000000 0.000000
# 2 -0.005830 0.015083 -0.000815 0.000000 0.000000 0.000000
# 3 -0.005187 -0.000815 0.010397 0.000000 0.000000 0.000000
# 4 0.000000 0.000000 0.000000 0.038817 0.000000 0.000000
# 5 0.000000 0.000000 0.000000 0.000000 0.036545 0.000000
# 6 0.000000 0.000000 0.000000 0.000000 0.000000 0.029298
#
#
# Mechanical properties :
#
#
# Convention : Reuss Voigt Hill
#
# Bulk Modulus (GPa) = 67.19653 72.66913 69.93283
# Shear Modulus (GPa) = 29.09847 30.41137 29.75492
#
# Velocity S-wave (km/s) = 3.72649 3.80963 3.76829
# Velocity P-wave (km/s) = 7.11224 7.35058 7.23239
#
# Compressibility (1/GPa) = 0.01488172
#
# Stress axis : x y z
#
# Youngs Moduli (GPa) = 76.53801 66.29846 96.17903
#
# Poissons Ratio (x) = 0.38655 0.49886
# Poissons Ratio (y) = 0.44625 0.07838
# Poissons Ratio (z) = 0.39699 0.05403
#
# Static dielectric constant tensor:
#      x y z
#    x 4.241510 0.000000 0.000000 
#    y 0.000000 3.635170 0.000000 
#    z 0.000000 0.000000 3.821980 
# 
# 
# High freq. dielectric constant tensor:
#      x y z
#    x 1.836440 0.000000 0.000000 
#    y 0.000000 1.805140 0.000000 
#    z 0.000000 0.000000 1.821320 
# 
# From -- ./inp_files/5456.got.cif
#   From: 2010.03.12/outbox.cif.g09.slc.cpg/sg38_3_cif.got.tgz:5456.got - 2010.04.14 02:38:36.
