data_PCOD8180716
_publ_section_title
;
Structure prediction by ZEFSAII (Michael W. Deem and Ramdas Pophale) SiO2 
 PCOD8180716
Probable space group: A B M 2
;
_chemical_formula_sum "Si O2"
_cell_formula_units_Z 56
_cell_length_a 5.250543
_cell_length_b 20.649082
_cell_length_c 28.513726
_cell_angle_alpha 90.000000
_cell_angle_beta 90.000000
_cell_angle_gamma 90.000000
_cell_volume 3091.426607
_symmetry_space_group_name_H-M "A B M 2"
_symmetry_group_IT_number 39
_symmetry_cell_setting 'orthorhombic'
loop_
_space_group_symop_operation_xyz
x,y,z
-x,-y,z
-x,1/2+y,z
x,1/2-y,z
x,1/2+y,1/2+z
-x,1/2-y,1/2+z
-x,y,1/2+z
x,-y,1/2+z
loop_
_atom_site_type_symbol
_atom_site_label
_atom_site_fract_x
_atom_site_fract_y
_atom_site_fract_z
Si Si1 0.971551 0.827311 0.887610
Si Si2 0.527967 0.826296 0.438395
Si Si3 0.954038 0.429000 0.090261
Si Si4 0.536873 0.121463 0.626940
Si Si5 0.311619 0.676757 0.040406
Si Si6 0.468528 0.173810 0.230114
Si Si7 0.968038 0.172703 0.281103
O O1 0.969313 0.750000 0.889235
O O2 0.728106 0.855769 0.915689
O O3 0.964906 0.852520 0.834370
O O4 0.225380 0.855132 0.912027
O O5 0.523919 0.750000 0.430997
O O6 0.541071 0.844079 0.493318
O O7 0.698117 0.429555 0.122542
O O8 0.919802 0.374459 0.049419
O O9 0.000000 0.500000 0.067797
O O10 0.192300 0.413273 0.123373
O O11 0.507895 0.173123 0.584147
O O12 0.523505 0.158600 0.675505
O O13 0.201787 0.750000 0.035846
O O14 0.466824 0.250000 0.236928
O O15 0.718320 0.144698 0.255232
O O16 0.216833 0.144569 0.254717
O O17 0.969611 0.250000 0.279593
#
# Coordination Sequence:
#
# PCOD8180716 Si02
#       7
#     8   8   8   8   8   8   8
#     4   9  16  27  41  61  94 137 171 204 252 310
#     4   9  17  27  42  65  96 131 172 208 252 310
#     4  10  22  38  55  73 105 146 179 220 257 311
#     4  10  21  34  53  72 104 138 174 219 261 313
#     4   9  21  33  52  79 109 142 177 219 265 316
#     4  10  18  29  45  71 101 134 173 210 258 313
#     4   9  17  27  42  63  97 137 172 208 255 313
#
# _framework density 18.114612999999999
#
# number of rings (size 3 to 8) (size 9 to 14) (size 15 to 20)
#    0.857    1.714    0.000    2.571    2.000    4.571 
#    0.000    0.000    0.000    0.000    0.000    0.000 
#    0.000   17.143    0.000    0.000    0.000    0.000 
#
# Total GULP energy -346973.611945 kJ/mol
# GULP energy per Si atom -12391.914712 kJ/mol
# Density = 1.807338 g / cm^3
# Si number density = 18.114613 Si / 1000 Ang^3
#
#
#
# Elastic Constant Matrix: (Units=GPa)
#
#
# Indices 1 2 3 4 5 6 
#
# 1 158.1912 16.3399 68.0651 0.0000 0.0000 0.0000
# 2 16.3399 36.5555 10.6993 0.0000 0.0000 0.0000
# 3 68.0651 10.6993 156.8554 0.0000 0.0000 0.0000
# 4 0.0000 0.0000 0.0000 1.6582 0.0000 0.0000
# 5 0.0000 0.0000 0.0000 0.0000 29.1163 0.0000
# 6 0.0000 0.0000 0.0000 0.0000 0.0000 9.7082
#
#
#
# Elastic Compliance Matrix: (Units=1/GPa)
#
#
# Indices 1 2 3 4 5 6 
#
# 1 0.008010 -0.002615 -0.003298 0.000000 0.000000 0.000000
# 2 -0.002615 0.028767 -0.000827 0.000000 0.000000 0.000000
# 3 -0.003298 -0.000827 0.007863 0.000000 0.000000 0.000000
# 4 0.000000 0.000000 0.000000 0.603046 0.000000 0.000000
# 5 0.000000 0.000000 0.000000 0.000000 0.034345 0.000000
# 6 0.000000 0.000000 0.000000 0.000000 0.000000 0.103006
#
#
# Mechanical properties :
#
#
# Convention : Reuss Voigt Hill
#
# Bulk Modulus (GPa) = 32.09310 60.20118 46.14714
# Shear Modulus (GPa) = 6.18120 25.19639 15.68879
#
# Velocity S-wave (km/s) = 1.84924 3.73358 2.94612
# Velocity P-wave (km/s) = 4.72385 7.20360 6.09124
#
# Compressibility (1/GPa) = 0.03115935
#
# Stress axis : x y z
#
# Youngs Moduli (GPa) = 124.83617 34.76219 127.18294
#
# Poissons Ratio (x) = 0.09092 0.41940
# Poissons Ratio (y) = 0.32650 0.10522
# Poissons Ratio (z) = 0.41166 0.02876
#
# Static dielectric constant tensor:
#      x y z
#    x 3.626560 0.000000 0.000000 
#    y 0.000000 2.706820 0.000000 
#    z 0.000000 0.000000 3.318640 
# 
# 
# High freq. dielectric constant tensor:
#      x y z
#    x 1.718720 0.000000 0.000000 
#    y 0.000000 1.624580 0.000000 
#    z 0.000000 0.000000 1.705230 
# 
# From -- ./inp_files/16596.got.cif
#   From: 2010.03.12/outbox.cif.g09.slc.cpg/sg39_9_cif.got.tgz:16596.got - 2010.04.14 02:53:20.
