data_PCOD8180055
_publ_section_title
;
Structure prediction by ZEFSAII (Michael W. Deem and Ramdas Pophale) SiO2 
 PCOD8180055
Probable space group: A M M 2
;
_chemical_formula_sum "Si O2"
_cell_formula_units_Z 64
_cell_length_a 13.834192
_cell_length_b 8.923176
_cell_length_c 25.799483
_cell_angle_alpha 90.000000
_cell_angle_beta 90.000000
_cell_angle_gamma 90.000000
_cell_volume 3184.815374
_symmetry_space_group_name_H-M "A M M 2"
_symmetry_group_IT_number 38
_symmetry_cell_setting 'orthorhombic'
loop_
_space_group_symop_operation_xyz
x,y,z
-x,-y,z
-x,y,z
x,-y,z
x,1/2+y,1/2+z
-x,1/2-y,1/2+z
-x,1/2+y,1/2+z
x,1/2-y,1/2+z
loop_
_atom_site_type_symbol
_atom_site_label
_atom_site_fract_x
_atom_site_fract_y
_atom_site_fract_z
Si Si1 0.112611 0.174694 0.562340
Si Si2 0.781525 0.677500 0.467549
Si Si3 0.391440 0.327624 0.715348
Si Si4 0.389332 0.176250 0.422419
Si Si5 0.614786 0.832281 0.817869
Si Si6 0.884875 0.831551 0.753809
Si Si7 0.204271 0.327888 0.659136
Si Si8 0.106598 0.323378 0.367754
O O1 0.155810 0.269510 0.515732
O O2 0.167356 0.218838 0.614673
O O3 0.000000 0.213937 0.568557
O O4 0.128895 0.000000 0.551745
O O5 0.772552 0.500000 0.469751
O O6 0.674186 0.749125 0.468198
O O7 0.830351 0.740102 0.414961
O O8 0.500000 0.274835 0.699701
O O9 0.393179 0.500000 0.732801
O O10 0.347391 0.235377 0.763733
O O11 0.319853 0.303797 0.666607
O O12 0.500000 0.223822 0.432227
O O13 0.351156 0.236573 0.367083
O O14 0.376335 0.000000 0.423507
O O15 0.500000 0.831362 0.815022
O O16 0.656381 0.000000 0.824463
O O17 0.848134 0.710963 0.712847
O O18 0.845134 0.788067 0.811502
O O19 0.000000 0.827105 0.756405
O O20 0.851096 0.000000 0.738408
O O21 0.180973 0.500000 0.644831
O O22 0.096421 0.500000 0.374234
O O23 0.000000 0.249880 0.371598
#
# Coordination Sequence:
#
# PCOD8180055 Si02
#       8
#     8   8   8   8   8   8   8   8
#     4  11  25  45  66  87 114 153 198 244 298 363
#     4  11  22  37  62  92 118 150 197 251 302 351
#     4   9  19  36  55  79 116 157 194 235 291 355
#     4  10  21  37  56  81 120 165 203 242 291 349
#     4   9  17  30  51  80 113 152 199 245 286 335
#     4   9  18  34  55  80 114 153 187 226 286 359
#     4  11  23  37  58  87 114 148 197 249 298 347
#     4   8  16  32  54  82 115 149 184 226 287 357
#
# _framework density 20.095357
#
# number of rings (size 3 to 8) (size 9 to 14) (size 15 to 20)
#    0.000    2.250    0.000    3.375    1.750    6.500 
#    0.000    1.250    0.000    3.750    0.000    0.000 
#    0.000    0.000    0.000    0.000    0.000    0.000 
#
# Total GULP energy -396798.386421 kJ/mol
# GULP energy per Si atom -12399.949576 kJ/mol
# Density = 2.004962 g / cm^3
# Si number density = 20.095357 Si / 1000 Ang^3
#
#
#
# Elastic Constant Matrix: (Units=GPa)
#
#
# Indices 1 2 3 4 5 6 
#
# 1 79.7634 39.3748 49.1785 0.0000 0.0000 0.0000
# 2 39.3748 76.5751 31.3370 0.0000 0.0000 0.0000
# 3 49.1785 31.3370 100.7275 0.0000 0.0000 0.0000
# 4 0.0000 0.0000 0.0000 34.3229 0.0000 0.0000
# 5 0.0000 0.0000 0.0000 0.0000 33.8322 0.0000
# 6 0.0000 0.0000 0.0000 0.0000 0.0000 26.8667
#
#
#
# Elastic Compliance Matrix: (Units=1/GPa)
#
#
# Indices 1 2 3 4 5 6 
#
# 1 0.021241 -0.007652 -0.007990 0.000000 0.000000 0.000000
# 2 -0.007652 0.017721 -0.001777 0.000000 0.000000 0.000000
# 3 -0.007990 -0.001777 0.014381 0.000000 0.000000 0.000000
# 4 0.000000 0.000000 0.000000 0.029135 0.000000 0.000000
# 5 0.000000 0.000000 0.000000 0.000000 0.029558 0.000000
# 6 0.000000 0.000000 0.000000 0.000000 0.000000 0.037221
#
#
# Mechanical properties :
#
#
# Convention : Reuss Voigt Hill
#
# Bulk Modulus (GPa) = 54.03907 55.20519 54.62213
# Shear Modulus (GPa) = 26.27936 28.14939 27.21438
#
# Velocity S-wave (km/s) = 3.62018 3.74677 3.68402
# Velocity P-wave (km/s) = 6.66513 6.80066 6.73324
#
# Compressibility (1/GPa) = 0.01850513
#
# Stress axis : x y z
#
# Youngs Moduli (GPa) = 47.07946 56.42995 69.53385
#
# Poissons Ratio (x) = 0.43182 0.55556
# Poissons Ratio (y) = 0.36026 0.12357
# Poissons Ratio (z) = 0.37615 0.10028
#
# Static dielectric constant tensor:
#      x y z
#    x 3.901860 0.000000 0.000000 
#    y 0.000000 3.553620 0.000000 
#    z 0.000000 0.000000 3.580530 
# 
# 
# High freq. dielectric constant tensor:
#      x y z
#    x 1.798660 0.000000 0.000000 
#    y 0.000000 1.774250 0.000000 
#    z 0.000000 0.000000 1.767210 
# 
# From -- ./inp_files/22914.got.cif
#   From: 2010.03.12/outbox.cif.g09.slc.cpg/sg38_12_cif.got.tgz:22914.got - 2010.04.14 02:38:36.
