data_PCOD8180206
_publ_section_title
;
Structure prediction by ZEFSAII (Michael W. Deem and Ramdas Pophale) SiO2 
 PCOD8180206
Probable space group: A M M 2
;
_chemical_formula_sum "Si O2"
_cell_formula_units_Z 56
_cell_length_a 19.678150
_cell_length_b 14.863745
_cell_length_c 9.204141
_cell_angle_alpha 90.000000
_cell_angle_beta 90.000000
_cell_angle_gamma 90.000000
_cell_volume 2692.128439
_symmetry_space_group_name_H-M "A M M 2"
_symmetry_group_IT_number 38
_symmetry_cell_setting 'orthorhombic'
loop_
_space_group_symop_operation_xyz
x,y,z
-x,-y,z
-x,y,z
x,-y,z
x,1/2+y,1/2+z
-x,1/2-y,1/2+z
-x,1/2+y,1/2+z
x,1/2-y,1/2+z
loop_
_atom_site_type_symbol
_atom_site_label
_atom_site_fract_x
_atom_site_fract_y
_atom_site_fract_z
Si Si1 0.198280 0.598610 0.438290
Si Si2 0.201898 0.900164 0.609559
Si Si3 0.606375 0.746532 0.747105
Si Si4 0.076248 0.843325 0.443540
Si Si5 0.297880 0.248138 0.997553
Si Si6 0.500000 0.605251 0.854145
Si Si7 0.500000 0.605399 0.200234
Si Si8 0.924237 0.344385 0.605679
O O1 0.231892 0.500000 0.436665
O O2 0.185848 0.633005 0.273522
O O3 0.247555 0.665236 0.524990
O O4 0.127825 0.589519 0.526205
O O5 0.132028 0.906234 0.518243
O O6 0.258576 0.839339 0.533999
O O7 0.233073 0.000000 0.612240
O O8 0.630871 0.736421 0.581765
O O9 0.565376 0.656995 0.790973
O O10 0.564832 0.840239 0.763153
O O11 0.677844 0.751936 0.831350
O O12 0.082168 0.749109 0.523357
O O13 0.094361 0.831596 0.274383
O O14 0.000000 0.883548 0.462564
O O15 0.500000 0.500000 0.804941
O O16 0.500000 0.611443 0.027077
O O17 0.500000 0.500000 0.250933
O O18 0.000000 0.384548 0.589846
#
# Coordination Sequence:
#
# PCOD8180206 Si02
#       8
#     8   8   8   8   8   4   4   8
#     4  11  25  42  62  92 128 169 218 269 323 383
#     4  11  25  42  63  92 126 170 220 268 322 384
#     4  11  24  42  69  98 130 170 206 256 308 365
#     4  10  21  38  62  90 122 164 215 271 330 386
#     4  12  24  43  64  93 133 171 213 252 314 374
#     4  10  22  43  70 103 132 161 209 256 302 366
#     4  10  22  43  72 101 130 167 209 250 304 372
#     4  10  21  38  62  90 123 165 214 269 331 387
#
# _framework density 20.801386000000001
#
# number of rings (size 3 to 8) (size 9 to 14) (size 15 to 20)
#    0.000    1.286    4.286    0.857    2.000    5.143 
#    0.000    3.571    0.000    0.000    0.000    0.000 
#    0.000    0.000    0.000    0.000    0.000    0.000 
#
# Total GULP energy -347155.758612 kJ/mol
# GULP energy per Si atom -12398.419950 kJ/mol
# Density = 2.075404 g / cm^3
# Si number density = 20.801386 Si / 1000 Ang^3
#
#
#
# Elastic Constant Matrix: (Units=GPa)
#
#
# Indices 1 2 3 4 5 6 
#
# 1 115.2253 55.3386 42.7138 0.0000 0.0000 0.0000
# 2 55.3386 135.4225 35.4587 0.0000 0.0000 0.0000
# 3 42.7138 35.4587 90.3563 0.0000 0.0000 0.0000
# 4 0.0000 0.0000 0.0000 27.5152 0.0000 0.0000
# 5 0.0000 0.0000 0.0000 0.0000 45.3670 0.0000
# 6 0.0000 0.0000 0.0000 0.0000 0.0000 7.1424
#
#
#
# Elastic Compliance Matrix: (Units=1/GPa)
#
#
# Indices 1 2 3 4 5 6 
#
# 1 0.012079 -0.003835 -0.004205 0.000000 0.000000 0.000000
# 2 -0.003835 0.009447 -0.001895 0.000000 0.000000 0.000000
# 3 -0.004205 -0.001895 0.013799 0.000000 0.000000 0.000000
# 4 0.000000 0.000000 0.000000 0.036344 0.000000 0.000000
# 5 0.000000 0.000000 0.000000 0.000000 0.022042 0.000000
# 6 0.000000 0.000000 0.000000 0.000000 0.000000 0.140010
#
#
# Mechanical properties :
#
#
# Convention : Reuss Voigt Hill
#
# Bulk Modulus (GPa) = 64.70023 67.55850 66.12936
# Shear Modulus (GPa) = 19.32421 29.83778 24.58099
#
# Velocity S-wave (km/s) = 3.05123 3.79147 3.44132
# Velocity P-wave (km/s) = 6.60187 7.19134 6.90290
#
# Compressibility (1/GPa) = 0.01545590
#
# Stress axis : x y z
#
# Youngs Moduli (GPa) = 82.78607 105.84829 72.47040
#
# Poissons Ratio (x) = 0.40592 0.30476
# Poissons Ratio (y) = 0.31748 0.13730
# Poissons Ratio (z) = 0.34814 0.20054
#
# Static dielectric constant tensor:
#      x y z
#    x 3.818150 0.000000 0.000000 
#    y 0.000000 3.598540 0.000000 
#    z 0.000000 0.000000 3.842580 
# 
# 
# High freq. dielectric constant tensor:
#      x y z
#    x 1.817490 0.000000 0.000000 
#    y 0.000000 1.807310 0.000000 
#    z 0.000000 0.000000 1.823340 
# 
# From -- ./inp_files/6758.got.cif
#   From: 2010.03.12/outbox.cif.g09.slc.cpg/sg38_4_cif.got.tgz:6758.got - 2010.04.14 02:38:36.
