data_PCOD8180547
_publ_section_title
;
Structure prediction by ZEFSAII (Michael W. Deem and Ramdas Pophale) SiO2 
 PCOD8180547
Probable space group: A M M 2
;
_chemical_formula_sum "Si O2"
_cell_formula_units_Z 64
_cell_length_a 15.417054
_cell_length_b 9.406270
_cell_length_c 30.119088
_cell_angle_alpha 90.000000
_cell_angle_beta 90.000000
_cell_angle_gamma 90.000000
_cell_volume 4367.778957
_symmetry_space_group_name_H-M "A M M 2"
_symmetry_group_IT_number 38
_symmetry_cell_setting 'orthorhombic'
loop_
_space_group_symop_operation_xyz
x,y,z
-x,-y,z
-x,y,z
x,-y,z
x,1/2+y,1/2+z
-x,1/2-y,1/2+z
-x,1/2+y,1/2+z
x,1/2-y,1/2+z
loop_
_atom_site_type_symbol
_atom_site_label
_atom_site_fract_x
_atom_site_fract_y
_atom_site_fract_z
Si Si1 0.097817 0.668061 0.349430
Si Si2 0.592173 0.839349 0.278594
Si Si3 0.900670 0.334584 0.614197
Si Si4 0.222056 0.661082 0.787606
Si Si5 0.595438 0.834223 0.690459
Si Si6 0.242457 0.835695 0.184091
Si Si7 0.103256 0.658336 0.447822
Si Si8 0.103164 0.659712 0.029057
O O1 0.101718 0.500000 0.344509
O O2 0.157837 0.735081 0.312268
O O3 0.130562 0.712341 0.398708
O O4 0.000000 0.722900 0.341670
O O5 0.500000 0.825418 0.305507
O O6 0.679747 0.815566 0.307320
O O7 0.590582 0.724281 0.240109
O O8 0.599166 0.000000 0.258221
O O9 0.892295 0.500000 0.601906
O O10 0.842374 0.291921 0.656260
O O11 0.866268 0.245890 0.572199
O O12 0.000000 0.295656 0.626073
O O13 0.190420 0.500000 0.795280
O O14 0.222480 0.699062 0.735405
O O15 0.500000 0.809835 0.667861
O O16 0.674093 0.752330 0.665826
O O17 0.618297 0.000000 0.691876
O O18 0.264669 0.000000 0.177151
O O19 0.140260 0.500000 0.456756
O O20 0.141128 0.764748 0.484910
O O21 0.000000 0.651869 0.450037
O O22 0.140410 0.500000 0.031326
O O23 0.000000 0.658487 0.026676
#
# Coordination Sequence:
#
# PCOD8180547 Si02
#       8
#     8   8   8   8   8   8   8   8
#     4   9  18  30  41  55  78 109 141 168 196 233
#     4   8  14  26  42  57  75 100 129 162 201 243
#     4   9  17  29  43  57  77 108 142 170 195 229
#     4   9  17  27  40  59  80 104 136 171 202 230
#     4   9  16  25  39  59  79  99 126 163 207 246
#     4   9  18  30  42  57  78 108 143 171 196 231
#     4   8  14  26  42  56  72  98 131 163 196 237
#     4   9  16  25  39  60  81  98 122 161 207 246
#
# _framework density 14.652756
#
# number of rings (size 3 to 8) (size 9 to 14) (size 15 to 20)
#    0.000    3.250    0.000    2.250    0.000    6.000 
#    0.000    2.500    0.000    1.500    0.000    0.000 
#    0.000    1.000    0.000    7.500    0.000    4.125 
#
# Total GULP energy -396445.239612 kJ/mol
# GULP energy per Si atom -12388.913738 kJ/mol
# Density = 1.461941 g / cm^3
# Si number density = 14.652756 Si / 1000 Ang^3
#
#
#
# Elastic Constant Matrix: (Units=GPa)
#
#
# Indices 1 2 3 4 5 6 
#
# 1 87.9723 42.8757 46.1600 0.0000 0.0000 0.0000
# 2 42.8757 67.7089 40.0451 0.0000 0.0000 0.0000
# 3 46.1600 40.0451 69.9912 0.0000 0.0000 0.0000
# 4 0.0000 0.0000 0.0000 20.4715 0.0000 0.0000
# 5 0.0000 0.0000 0.0000 0.0000 0.6707 0.0000
# 6 0.0000 0.0000 0.0000 0.0000 0.0000 21.1998
#
#
#
# Elastic Compliance Matrix: (Units=1/GPa)
#
#
# Indices 1 2 3 4 5 6 
#
# 1 0.019426 -0.007140 -0.008726 0.000000 0.000000 0.000000
# 2 -0.007140 0.024947 -0.009564 0.000000 0.000000 0.000000
# 3 -0.008726 -0.009564 0.025515 0.000000 0.000000 0.000000
# 4 0.000000 0.000000 0.000000 0.048849 0.000000 0.000000
# 5 0.000000 0.000000 0.000000 0.000000 1.491079 0.000000
# 6 0.000000 0.000000 0.000000 0.000000 0.000000 0.047170
#
#
# Mechanical properties :
#
#
# Convention : Reuss Voigt Hill
#
# Bulk Modulus (GPa) = 52.55940 53.75935 53.15937
# Shear Modulus (GPa) = 2.91683 14.90781 8.91232
#
# Velocity S-wave (km/s) = 1.41243 3.19314 2.46892
# Velocity P-wave (km/s) = 6.21352 7.09672 6.66975
#
# Compressibility (1/GPa) = 0.01902609
#
# Stress axis : x y z
#
# Youngs Moduli (GPa) = 51.47721 40.08462 39.19268
#
# Poissons Ratio (x) = 0.28621 0.34201
# Poissons Ratio (y) = 0.36756 0.37485
# Poissons Ratio (z) = 0.44922 0.38339
#
# Static dielectric constant tensor:
#      x y z
#    x 2.968730 0.000000 0.000000 
#    y 0.000000 2.934290 0.000000 
#    z 0.000000 0.000000 2.677310 
# 
# 
# High freq. dielectric constant tensor:
#      x y z
#    x 1.540960 0.000000 0.000000 
#    y 0.000000 1.567090 0.000000 
#    z 0.000000 0.000000 1.524170 
# 
# From -- ./inp_files/24006.got.cif
#   From: 2010.03.12/outbox.cif.g09.slc.cpg/sg38_13_cif.got.tgz:24006.got - 2010.04.14 02:38:36.
