data_PCOD8180490
_publ_section_title
;
Structure prediction by ZEFSAII (Michael W. Deem and Ramdas Pophale) SiO2 
 PCOD8180490
Probable space group: A M M 2
;
_chemical_formula_sum "Si O2"
_cell_formula_units_Z 56
_cell_length_a 13.980331
_cell_length_b 14.837983
_cell_length_c 12.085898
_cell_angle_alpha 90.000000
_cell_angle_beta 90.000000
_cell_angle_gamma 90.000000
_cell_volume 2507.097638
_symmetry_space_group_name_H-M "A M M 2"
_symmetry_group_IT_number 38
_symmetry_cell_setting 'orthorhombic'
loop_
_space_group_symop_operation_xyz
x,y,z
-x,-y,z
-x,y,z
x,-y,z
x,1/2+y,1/2+z
-x,1/2-y,1/2+z
-x,1/2+y,1/2+z
x,1/2-y,1/2+z
loop_
_atom_site_type_symbol
_atom_site_label
_atom_site_fract_x
_atom_site_fract_y
_atom_site_fract_z
Si Si1 0.809112 0.398469 0.372050
Si Si2 0.891406 0.653582 0.145655
Si Si3 0.606938 0.767084 0.638936
Si Si4 0.718843 0.899899 0.239198
Si Si5 0.273301 0.601001 0.995273
Si Si6 0.397806 0.896484 0.845088
Si Si7 0.104821 0.859920 0.100260
O O1 0.812546 0.500000 0.327531
O O2 0.843076 0.340403 0.267098
O O3 0.699547 0.374082 0.412897
O O4 0.878797 0.387582 0.473866
O O5 0.889636 0.753494 0.100843
O O6 0.000000 0.614910 0.151815
O O7 0.828598 0.596877 0.058633
O O8 0.500000 0.744772 0.598138
O O9 0.654180 0.673162 0.676452
O O10 0.662135 0.817356 0.540427
O O11 0.605777 0.837377 0.736909
O O12 0.737842 0.874301 0.366447
O O13 0.821668 0.906651 0.181959
O O14 0.671379 0.000000 0.229324
O O15 0.318590 0.500000 0.007702
O O16 0.500000 0.877129 0.908560
O O17 0.395506 0.000000 0.807050
O O18 0.000000 0.894213 0.135263
#
# Coordination Sequence:
#
# PCOD8180490 Si02
#       7
#     8   8   8   8   8   8   8
#     4  11  22  40  66  95 133 174 222 285 341 398
#     4  11  24  39  64  99 134 174 226 285 345 406
#     4  11  23  42  70  99 133 178 226 275 334 405
#     4  11  26  46  68  98 140 183 226 280 343 410
#     4  11  24  44  70 102 140 180 223 280 345 413
#     4   9  18  34  62 100 134 167 215 276 337 395
#     4  11  25  43  67  97 132 179 233 281 337 409
#
# _framework density 22.336584999999999
#
# number of rings (size 3 to 8) (size 9 to 14) (size 15 to 20)
#    0.000    1.286    2.857    1.714    4.000    5.143 
#    0.000    5.000    0.000    1.714    0.000    2.000 
#    0.000    0.000    0.000    0.000    0.000    0.000 
#
# Total GULP energy -347017.321132 kJ/mol
# GULP energy per Si atom -12393.475755 kJ/mol
# Density = 2.228575 g / cm^3
# Si number density = 22.336585 Si / 1000 Ang^3
#
#
#
# Elastic Constant Matrix: (Units=GPa)
#
#
# Indices 1 2 3 4 5 6 
#
# 1 167.1684 47.7519 48.5130 0.0000 0.0000 0.0000
# 2 47.7519 93.0363 46.4919 0.0000 0.0000 0.0000
# 3 48.5130 46.4919 113.4893 0.0000 0.0000 0.0000
# 4 0.0000 0.0000 0.0000 36.5364 0.0000 0.0000
# 5 0.0000 0.0000 0.0000 0.0000 18.9907 0.0000
# 6 0.0000 0.0000 0.0000 0.0000 0.0000 30.0942
#
#
#
# Elastic Compliance Matrix: (Units=1/GPa)
#
#
# Indices 1 2 3 4 5 6 
#
# 1 0.007357 -0.002772 -0.002009 0.000000 0.000000 0.000000
# 2 -0.002772 0.014560 -0.004780 0.000000 0.000000 0.000000
# 3 -0.002009 -0.004780 0.011628 0.000000 0.000000 0.000000
# 4 0.000000 0.000000 0.000000 0.027370 0.000000 0.000000
# 5 0.000000 0.000000 0.000000 0.000000 0.052657 0.000000
# 6 0.000000 0.000000 0.000000 0.000000 0.000000 0.033229
#
#
# Mechanical properties :
#
#
# Convention : Reuss Voigt Hill
#
# Bulk Modulus (GPa) = 69.33243 73.24527 71.28885
# Shear Modulus (GPa) = 29.28590 32.52006 30.90298
#
# Velocity S-wave (km/s) = 3.62486 3.81978 3.72360
# Velocity P-wave (km/s) = 6.97329 7.23305 7.10436
#
# Compressibility (1/GPa) = 0.01442327
#
# Stress axis : x y z
#
# Youngs Moduli (GPa) = 135.92672 68.68289 85.99702
#
# Poissons Ratio (x) = 0.19038 0.17279
# Poissons Ratio (y) = 0.37678 0.41103
# Poissons Ratio (z) = 0.27312 0.32828
#
# Static dielectric constant tensor:
#      x y z
#    x 4.732530 0.000000 0.000000 
#    y 0.000000 4.133840 0.000000 
#    z 0.000000 0.000000 3.780070 
# 
# 
# High freq. dielectric constant tensor:
#      x y z
#    x 1.887070 0.000000 0.000000 
#    y 0.000000 1.895590 0.000000 
#    z 0.000000 0.000000 1.867400 
# 
# From -- ./inp_files/10094.got.cif
#   From: 2010.03.12/outbox.cif.g09.slc.cpg/sg38_6_cif.got.tgz:10094.got - 2010.04.14 02:38:36.
