data_PCOD8180098
_publ_section_title
;
Structure prediction by ZEFSAII (Michael W. Deem and Ramdas Pophale) SiO2 
 PCOD8180098
Probable space group: A M M 2
;
_chemical_formula_sum "Si O2"
_cell_formula_units_Z 64
_cell_length_a 14.826246
_cell_length_b 9.052520
_cell_length_c 24.325842
_cell_angle_alpha 90.000000
_cell_angle_beta 90.000000
_cell_angle_gamma 90.000000
_cell_volume 3264.890170
_symmetry_space_group_name_H-M "A M M 2"
_symmetry_group_IT_number 38
_symmetry_cell_setting 'orthorhombic'
loop_
_space_group_symop_operation_xyz
x,y,z
-x,-y,z
-x,y,z
x,-y,z
x,1/2+y,1/2+z
-x,1/2-y,1/2+z
-x,1/2+y,1/2+z
x,1/2-y,1/2+z
loop_
_atom_site_type_symbol
_atom_site_label
_atom_site_fract_x
_atom_site_fract_y
_atom_site_fract_z
Si Si1 0.244003 0.328794 0.794440
Si Si2 0.101485 0.674884 0.220371
Si Si3 0.251853 0.325378 0.921058
Si Si4 0.106785 0.663691 0.099669
Si Si5 0.393045 0.334036 0.104038
Si Si6 0.602571 0.328426 0.711905
Si Si7 0.394613 0.173077 0.994902
Si Si8 0.105605 0.828182 0.991989
O O1 0.221259 0.500000 0.788136
O O2 0.162231 0.241116 0.767873
O O3 0.252749 0.281898 0.857370
O O4 0.338181 0.288874 0.764972
O O5 0.102635 0.500000 0.225161
O O6 0.139133 0.720898 0.159696
O O7 0.000000 0.735086 0.228888
O O8 0.256308 0.500000 0.930550
O O9 0.340373 0.250442 0.946251
O O10 0.159785 0.262393 0.946478
O O11 0.146351 0.500000 0.086999
O O12 0.138305 0.776014 0.052372
O O13 0.000000 0.652618 0.101928
O O14 0.500000 0.332736 0.104661
O O15 0.354699 0.500000 0.099625
O O16 0.357484 0.261190 0.160140
O O17 0.358515 0.240166 0.052218
O O18 0.500000 0.281411 0.725511
O O19 0.607661 0.500000 0.696350
O O20 0.500000 0.206667 0.985757
O O21 0.374194 0.000000 0.995343
O O22 0.000000 0.795624 0.982969
O O23 0.128302 0.000000 0.986312
#
# Coordination Sequence:
#
# PCOD8180098 Si02
#       8
#     8   8   8   8   8   8   8   8
#     4  10  23  39  55  79 107 141 188 233 272 318
#     4   9  19  36  58  83 111 144 178 216 269 328
#     4  11  24  40  57  79 109 147 192 235 274 324
#     4   8  15  31  55  82 111 142 178 220 271 333
#     4   9  17  31  54  85 116 144 178 219 266 325
#     4   9  18  35  57  79 108 145 181 222 273 325
#     4  10  21  38  60  85 113 145 181 225 278 331
#     4  10  21  37  58  84 113 146 184 228 279 331
#
# _framework density 19.602498000000001
#
# number of rings (size 3 to 8) (size 9 to 14) (size 15 to 20)
#    0.000    2.500    0.000    2.250    0.000    7.250 
#    0.000    7.500    0.000    1.500    0.000    0.000 
#    0.000    0.000    0.000    0.000    0.000    0.000 
#
# Total GULP energy -396807.488590 kJ/mol
# GULP energy per Si atom -12400.234018 kJ/mol
# Density = 1.955788 g / cm^3
# Si number density = 19.602498 Si / 1000 Ang^3
#
#
#
# Elastic Constant Matrix: (Units=GPa)
#
#
# Indices 1 2 3 4 5 6 
#
# 1 92.4688 48.2687 69.1283 0.0000 0.0000 0.0000
# 2 48.2687 102.9051 80.1509 0.0000 0.0000 0.0000
# 3 69.1283 80.1509 179.9280 0.0000 0.0000 0.0000
# 4 0.0000 0.0000 0.0000 27.9305 0.0000 0.0000
# 5 0.0000 0.0000 0.0000 0.0000 46.7766 0.0000
# 6 0.0000 0.0000 0.0000 0.0000 0.0000 26.2283
#
#
#
# Elastic Compliance Matrix: (Units=1/GPa)
#
#
# Indices 1 2 3 4 5 6 
#
# 1 0.016296 -0.004237 -0.004373 0.000000 0.000000 0.000000
# 2 -0.004237 0.015983 -0.005492 0.000000 0.000000 0.000000
# 3 -0.004373 -0.005492 0.009684 0.000000 0.000000 0.000000
# 4 0.000000 0.000000 0.000000 0.035803 0.000000 0.000000
# 5 0.000000 0.000000 0.000000 0.000000 0.021378 0.000000
# 6 0.000000 0.000000 0.000000 0.000000 0.000000 0.038127
#
#
# Mechanical properties :
#
#
# Convention : Reuss Voigt Hill
#
# Bulk Modulus (GPa) = 72.68450 85.59971 79.14211
# Shear Modulus (GPa) = 29.40114 32.03733 30.71923
#
# Velocity S-wave (km/s) = 3.87701 4.04709 3.96297
# Velocity P-wave (km/s) = 7.56316 8.09946 7.83590
#
# Compressibility (1/GPa) = 0.01375809
#
# Stress axis : x y z
#
# Youngs Moduli (GPa) = 61.36564 62.56790 103.26043
#
# Poissons Ratio (x) = 0.26513 0.45158
# Poissons Ratio (y) = 0.26004 0.56706
# Poissons Ratio (z) = 0.26836 0.34360
#
# Static dielectric constant tensor:
#      x y z
#    x 3.356220 0.000000 0.000000 
#    y 0.000000 3.608480 0.000000 
#    z 0.000000 0.000000 3.693000 
# 
# 
# High freq. dielectric constant tensor:
#      x y z
#    x 1.762800 0.000000 0.000000 
#    y 0.000000 1.763480 0.000000 
#    z 0.000000 0.000000 1.763000 
# 
# From -- ./inp_files/22977.got.cif
#   From: 2010.03.12/outbox.cif.g09.slc.cpg/sg38_12_cif.got.tgz:22977.got - 2010.04.14 02:38:36.
