data_PCOD8180911
_publ_section_title
;
Structure prediction by ZEFSAII (Michael W. Deem and Ramdas Pophale) SiO2 
 PCOD8180911
Probable space group: A B M 2
;
_chemical_formula_sum "Si O2"
_cell_formula_units_Z 64
_cell_length_a 14.248863
_cell_length_b 8.696539
_cell_length_c 31.280539
_cell_angle_alpha 90.000000
_cell_angle_beta 90.000000
_cell_angle_gamma 90.000000
_cell_volume 3876.152789
_symmetry_space_group_name_H-M "A B M 2"
_symmetry_group_IT_number 39
_symmetry_cell_setting 'orthorhombic'
loop_
_space_group_symop_operation_xyz
x,y,z
-x,-y,z
-x,1/2+y,z
x,1/2-y,z
x,1/2+y,1/2+z
-x,1/2-y,1/2+z
-x,y,1/2+z
x,-y,1/2+z
loop_
_atom_site_type_symbol
_atom_site_label
_atom_site_fract_x
_atom_site_fract_y
_atom_site_fract_z
Si Si1 0.905711 0.427996 0.019200
Si Si2 0.902145 0.567985 0.111228
Si Si3 0.397400 0.430494 0.817176
Si Si4 0.282229 0.932380 0.142892
Si Si5 0.293730 0.927305 0.987045
Si Si6 0.398189 0.569830 0.223592
Si Si7 0.397207 0.930346 0.901595
Si Si8 0.602597 0.431127 0.565061
O O1 0.923904 0.250000 0.029733
O O2 0.881441 0.513067 0.063224
O O3 0.000000 0.500000 0.998392
O O4 0.818832 0.450668 0.987071
O O5 0.905473 0.750000 0.112561
O O6 0.820171 0.507313 0.141738
O O7 0.000000 0.500000 0.128359
O O8 0.500000 0.500000 0.817765
O O9 0.401257 0.250000 0.824449
O O10 0.354398 0.472147 0.770497
O O11 0.346225 0.506146 0.858270
O O12 0.272953 0.750000 0.139940
O O13 0.327206 0.989059 0.187471
O O14 0.346611 0.989597 0.104549
O O15 0.319347 0.750000 0.997452
O O16 0.330408 0.977405 0.940721
O O17 0.340787 0.036212 0.021911
O O18 0.500000 0.500000 0.215925
O O19 0.412885 0.750000 0.219784
O O20 0.408574 0.750000 0.897571
O O21 0.500000 0.000000 0.909326
O O22 0.500000 0.500000 0.560143
O O23 0.597419 0.250000 0.573033
#
# Coordination Sequence:
#
# PCOD8180911 Si02
#       8
#     8   8   8   8   8   8   8   8
#     4  10  19  33  52  71  95 125 159 204 248 288
#     4  11  21  34  52  74  96 126 163 204 248 293
#     4   9  16  29  47  69  94 124 159 199 242 284
#     4  11  21  35  51  71  99 130 164 204 244 289
#     4  10  21  35  50  69  97 130 164 201 243 288
#     4   9  19  32  49  71  98 130 164 200 242 288
#     4  10  19  31  47  70  96 128 163 199 242 287
#     4  12  24  35  48  67  96 133 170 201 237 286
#
# _framework density 16.511218
#
# number of rings (size 3 to 8) (size 9 to 14) (size 15 to 20)
#    0.000    1.750    1.250    6.000    0.000    5.000 
#    0.000    0.000    0.000    0.000    0.000    0.875 
#    0.000    4.000    0.000    0.000    0.000    0.000 
#
# Total GULP energy -396726.022977 kJ/mol
# GULP energy per Si atom -12397.688218 kJ/mol
# Density = 1.647364 g / cm^3
# Si number density = 16.511218 Si / 1000 Ang^3
#
#
#
# Elastic Constant Matrix: (Units=GPa)
#
#
# Indices 1 2 3 4 5 6 
#
# 1 105.7743 39.4789 62.1939 0.0000 0.0000 0.0000
# 2 39.4789 94.3577 46.7361 0.0000 0.0000 0.0000
# 3 62.1939 46.7361 137.2112 0.0000 0.0000 0.0000
# 4 0.0000 0.0000 0.0000 19.4893 0.0000 0.0000
# 5 0.0000 0.0000 0.0000 0.0000 -10.0627 0.0000
# 6 0.0000 0.0000 0.0000 0.0000 0.0000 25.5841
#
#
#
# Elastic Compliance Matrix: (Units=1/GPa)
#
#
# Indices 1 2 3 4 5 6 
#
# 1 0.013639 -0.003181 -0.005099 0.000000 0.000000 0.000000
# 2 -0.003181 0.013491 -0.003153 0.000000 0.000000 0.000000
# 3 -0.005099 -0.003153 0.010673 0.000000 0.000000 0.000000
# 4 0.000000 0.000000 0.000000 0.051310 0.000000 0.000000
# 5 0.000000 0.000000 0.000000 0.000000 -0.099377 0.000000
# 6 0.000000 0.000000 0.000000 0.000000 0.000000 0.039087
#
#
# Mechanical properties :
#
#
# Convention : Reuss Voigt Hill
#
# Bulk Modulus (GPa) = 66.94787 70.46235 68.70511
# Shear Modulus (GPa) = 88.23106 19.59775 53.91441
#
# Velocity S-wave (km/s) = 7.31799 3.44893 5.72050
# Velocity P-wave (km/s) = 10.58485 7.65691 9.23762
#
# Compressibility (1/GPa) = 0.01493700
#
# Stress axis : x y z
#
# Youngs Moduli (GPa) = 73.31655 74.12466 93.69259
#
# Poissons Ratio (x) = 0.23581 0.47772
# Poissons Ratio (y) = 0.23324 0.29543
# Poissons Ratio (z) = 0.37383 0.23373
#
# Static dielectric constant tensor:
#      x y z
#    x 3.222800 0.000000 0.000000 
#    y 0.000000 3.264140 0.000000 
#    z 0.000000 0.000000 3.616220 
# 
# 
# High freq. dielectric constant tensor:
#      x y z
#    x 1.615780 0.000000 0.000000 
#    y 0.000000 1.652780 0.000000 
#    z 0.000000 0.000000 1.627790 
# 
# From -- ./inp_files/17976.got.cif
#   From: 2010.03.12/outbox.cif.g09.slc.cpg/sg39_9_cif.got.tgz:17976.got - 2010.04.14 02:53:20.
