data_PCOD8180410
_publ_section_title
;
Structure prediction by ZEFSAII (Michael W. Deem and Ramdas Pophale) SiO2 
 PCOD8180410
Probable space group: A M M 2
;
_chemical_formula_sum "Si O2"
_cell_formula_units_Z 40
_cell_length_a 8.425691
_cell_length_b 28.389780
_cell_length_c 7.808790
_cell_angle_alpha 90.000000
_cell_angle_beta 90.000000
_cell_angle_gamma 90.000000
_cell_volume 1867.890007
_symmetry_space_group_name_H-M "A M M 2"
_symmetry_group_IT_number 38
_symmetry_cell_setting 'orthorhombic'
loop_
_space_group_symop_operation_xyz
x,y,z
-x,-y,z
-x,y,z
x,-y,z
x,1/2+y,1/2+z
-x,1/2-y,1/2+z
-x,1/2+y,1/2+z
x,1/2-y,1/2+z
loop_
_atom_site_type_symbol
_atom_site_label
_atom_site_fract_x
_atom_site_fract_y
_atom_site_fract_z
Si Si1 0.815787 0.390232 0.130830
Si Si2 0.312111 0.611174 0.484401
Si Si3 0.816427 0.298421 0.636245
Si Si4 0.318291 0.704302 0.001888
Si Si5 0.684369 0.945263 0.318697
O O1 0.761475 0.412095 0.312935
O O2 0.000000 0.377815 0.131322
O O3 0.716919 0.342361 0.108697
O O4 0.781671 0.427511 0.981829
O O5 0.500000 0.611966 0.469212
O O6 0.242847 0.663979 0.497081
O O7 0.255837 0.580945 0.647805
O O8 0.711735 0.307013 0.804002
O O9 0.794541 0.246457 0.561157
O O10 0.000000 0.306283 0.680783
O O11 0.500000 0.719237 0.030643
O O12 0.500000 0.934643 0.352121
O O13 0.718456 0.000000 0.292422
#
# Coordination Sequence:
#
# PCOD8180410 Si02
#       5
#     8   8   8   8   8
#     4  12  25  42  66  98 136 175 218 277 337 393
#     4  11  23  42  68  97 133 177 223 272 328 398
#     4  12  24  40  62  94 133 172 217 275 333 390
#     4  12  24  41  63  91 129 176 224 270 323 396
#     4  10  23  45  72  99 130 173 226 280 334 397
#
# _framework density 21.414539000000001
#
# number of rings (size 3 to 8) (size 9 to 14) (size 15 to 20)
#    0.000    0.600    2.000    7.200    0.000    2.000 
#    0.000    2.000    0.000    0.000    0.000    0.000 
#    0.000    0.000    0.000    0.000    0.000    0.000 
#
# Total GULP energy -248182.176681 kJ/mol
# GULP energy per Si atom -12409.108834 kJ/mol
# Density = 2.136580 g / cm^3
# Si number density = 21.414539 Si / 1000 Ang^3
#
#
#
# Elastic Constant Matrix: (Units=GPa)
#
#
# Indices 1 2 3 4 5 6 
#
# 1 95.2265 15.1675 34.5397 0.0000 0.0000 0.0000
# 2 15.1675 83.4404 36.3626 0.0000 0.0000 0.0000
# 3 34.5397 36.3626 152.2743 0.0000 0.0000 0.0000
# 4 0.0000 0.0000 0.0000 24.1964 0.0000 0.0000
# 5 0.0000 0.0000 0.0000 0.0000 22.9520 0.0000
# 6 0.0000 0.0000 0.0000 0.0000 0.0000 21.3404
#
#
#
# Elastic Compliance Matrix: (Units=1/GPa)
#
#
# Indices 1 2 3 4 5 6 
#
# 1 0.011527 -0.001067 -0.002360 0.000000 0.000000 0.000000
# 2 -0.001067 0.013475 -0.002976 0.000000 0.000000 0.000000
# 3 -0.002360 -0.002976 0.007813 0.000000 0.000000 0.000000
# 4 0.000000 0.000000 0.000000 0.041328 0.000000 0.000000
# 5 0.000000 0.000000 0.000000 0.000000 0.043569 0.000000
# 6 0.000000 0.000000 0.000000 0.000000 0.000000 0.046859
#
#
# Mechanical properties :
#
#
# Convention : Reuss Voigt Hill
#
# Bulk Modulus (GPa) = 49.97455 55.89786 52.93620
# Shear Modulus (GPa) = 27.16681 30.02253 28.59467
#
# Velocity S-wave (km/s) = 3.56563 3.74835 3.65813
# Velocity P-wave (km/s) = 6.35130 6.70022 6.52809
#
# Compressibility (1/GPa) = 0.02001019
#
# Stress axis : x y z
#
# Youngs Moduli (GPa) = 86.75157 74.20932 127.99179
#
# Poissons Ratio (x) = 0.07918 0.30204
# Poissons Ratio (y) = 0.09256 0.38089
# Poissons Ratio (z) = 0.20472 0.22084
#
# Static dielectric constant tensor:
#      x y z
#    x 3.824150 0.000000 0.000000 
#    y 0.000000 3.778770 0.000000 
#    z 0.000000 0.000000 4.093760 
# 
# 
# High freq. dielectric constant tensor:
#      x y z
#    x 1.845560 0.000000 0.000000 
#    y 0.000000 1.831070 0.000000 
#    z 0.000000 0.000000 1.857110 
# 
# From -- ./inp_files/3465.got.cif
#   From: 2010.03.12/outbox.cif.g09.slc.cpg/sg38_2_cif.got.tgz:3465.got - 2010.04.14 02:38:36.
