data_PCOD8180440
_publ_section_title
;
Structure prediction by ZEFSAII (Michael W. Deem and Ramdas Pophale) SiO2 
 PCOD8180440
Probable space group: A M M 2
;
_chemical_formula_sum "Si O2"
_cell_formula_units_Z 64
_cell_length_a 9.057550
_cell_length_b 27.863947
_cell_length_c 14.802763
_cell_angle_alpha 90.000000
_cell_angle_beta 90.000000
_cell_angle_gamma 90.000000
_cell_volume 3735.907902
_symmetry_space_group_name_H-M "A M M 2"
_symmetry_group_IT_number 38
_symmetry_cell_setting 'orthorhombic'
loop_
_space_group_symop_operation_xyz
x,y,z
-x,-y,z
-x,y,z
x,-y,z
x,1/2+y,1/2+z
-x,1/2-y,1/2+z
-x,1/2+y,1/2+z
x,1/2-y,1/2+z
loop_
_atom_site_type_symbol
_atom_site_label
_atom_site_fract_x
_atom_site_fract_y
_atom_site_fract_z
Si Si1 0.326466 0.279533 0.600400
Si Si2 0.325856 0.554177 0.608816
Si Si3 0.674794 0.825943 0.794978
Si Si4 0.827564 0.445481 0.792808
Si Si5 0.324034 0.635785 0.478829
Si Si6 0.825815 0.861326 0.423963
Si Si7 0.324361 0.828475 0.595165
Si Si8 0.673196 0.717584 0.804497
O O1 0.500000 0.277273 0.588366
O O2 0.257476 0.318215 0.531733
O O3 0.267928 0.226137 0.578823
O O4 0.289028 0.296678 0.701648
O O5 0.500000 0.559111 0.620678
O O6 0.277935 0.500000 0.585403
O O7 0.255148 0.571406 0.702449
O O8 0.267171 0.587248 0.526614
O O9 0.500000 0.823733 0.789922
O O10 0.729485 0.843513 0.696384
O O11 0.727192 0.772199 0.819412
O O12 0.730023 0.861888 0.874334
O O13 0.783102 0.500000 0.819072
O O14 0.779567 0.410589 0.874071
O O15 0.000000 0.441269 0.772767
O O16 0.500000 0.637592 0.482620
O O17 0.754697 0.863146 0.523634
O O18 0.765253 0.815736 0.370517
O O19 0.000000 0.856763 0.432848
O O20 0.500000 0.833147 0.584534
O O21 0.500000 0.711390 0.826393
#
# Coordination Sequence:
#
# PCOD8180440 Si02
#       8
#     8   8   8   8   8   8   8   8
#     4   8  14  24  42  67  88 111 145 179 210 251
#     4   9  17  28  45  71  96 115 140 178 223 265
#     4   8  15  27  45  67  88 118 158 187 207 248
#     4   9  19  35  50  63  85 117 147 176 215 267
#     4   9  14  22  40  65  91 114 140 178 219 256
#     4  11  21  30  44  67  90 114 147 184 226 268
#     4   9  17  30  46  63  85 115 152 187 216 252
#     4   9  16  28  46  67  91 118 149 181 212 253
#
# _framework density 17.131042000000001
#
# number of rings (size 3 to 8) (size 9 to 14) (size 15 to 20)
#    0.000    3.000    0.000    3.375    0.000    4.000 
#    0.000    2.500    0.000    7.500    0.000    1.750 
#    0.000    0.000    0.000    0.000    0.000    0.000 
#
# Total GULP energy -396609.236314 kJ/mol
# GULP energy per Si atom -12394.038635 kJ/mol
# Density = 1.709205 g / cm^3
# Si number density = 17.131042 Si / 1000 Ang^3
#
#
#
# Elastic Constant Matrix: (Units=GPa)
#
#
# Indices 1 2 3 4 5 6 
#
# 1 27.8328 24.7922 33.2772 0.0000 0.0000 0.0000
# 2 24.7922 89.7611 84.0525 0.0000 0.0000 0.0000
# 3 33.2772 84.0525 159.2367 0.0000 0.0000 0.0000
# 4 0.0000 0.0000 0.0000 31.1342 0.0000 0.0000
# 5 0.0000 0.0000 0.0000 0.0000 7.9936 0.0000
# 6 0.0000 0.0000 0.0000 0.0000 0.0000 15.8034
#
#
#
# Elastic Compliance Matrix: (Units=1/GPa)
#
#
# Indices 1 2 3 4 5 6 
#
# 1 0.050689 -0.008070 -0.006333 0.000000 0.000000 0.000000
# 2 -0.008070 0.023314 -0.010620 0.000000 0.000000 0.000000
# 3 -0.006333 -0.010620 0.013209 0.000000 0.000000 0.000000
# 4 0.000000 0.000000 0.000000 0.032119 0.000000 0.000000
# 5 0.000000 0.000000 0.000000 0.000000 0.125100 0.000000
# 6 0.000000 0.000000 0.000000 0.000000 0.000000 0.063277
#
#
# Mechanical properties :
#
#
# Convention : Reuss Voigt Hill
#
# Bulk Modulus (GPa) = 26.90606 62.34159 44.62382
# Shear Modulus (GPa) = 13.50825 19.96682 16.73754
#
# Velocity S-wave (km/s) = 2.81111 3.41770 3.12914
# Velocity P-wave (km/s) = 5.12607 7.21417 6.25783
#
# Compressibility (1/GPa) = 0.03716635
#
# Stress axis : x y z
#
# Youngs Moduli (GPa) = 19.72803 42.89267 75.70539
#
# Poissons Ratio (x) = 0.34614 0.47947
# Poissons Ratio (y) = 0.15920 0.80397
# Poissons Ratio (z) = 0.12494 0.45551
#
# Static dielectric constant tensor:
#      x y z
#    x 2.784830 0.000000 0.000000 
#    y 0.000000 3.341100 0.000000 
#    z 0.000000 0.000000 3.535940 
# 
# 
# High freq. dielectric constant tensor:
#      x y z
#    x 1.616810 0.000000 0.000000 
#    y 0.000000 1.643600 0.000000 
#    z 0.000000 0.000000 1.669450 
# 
# From -- ./inp_files/13114.got.cif
#   From: 2010.03.12/outbox.cif.g09.slc.cpg/sg38_7_cif.got.tgz:13114.got - 2010.04.14 02:38:36.
