data_PCOD8180850
_publ_section_title
;
Structure prediction by ZEFSAII (Michael W. Deem and Ramdas Pophale) SiO2 
 PCOD8180850
Probable space group: A B M 2
;
_chemical_formula_sum "Si O2"
_cell_formula_units_Z 64
_cell_length_a 23.724805
_cell_length_b 8.926583
_cell_length_c 15.323173
_cell_angle_alpha 90.000000
_cell_angle_beta 90.000000
_cell_angle_gamma 90.000000
_cell_volume 3245.163658
_symmetry_space_group_name_H-M "A B M 2"
_symmetry_group_IT_number 39
_symmetry_cell_setting 'orthorhombic'
loop_
_space_group_symop_operation_xyz
x,y,z
-x,-y,z
-x,1/2+y,z
x,1/2-y,z
x,1/2+y,1/2+z
-x,1/2-y,1/2+z
-x,y,1/2+z
x,-y,1/2+z
loop_
_atom_site_type_symbol
_atom_site_label
_atom_site_fract_x
_atom_site_fract_y
_atom_site_fract_z
Si Si1 0.749023 0.076441 0.270930
Si Si2 0.636667 0.074690 0.815119
Si Si3 0.126303 0.421459 0.825189
Si Si4 0.939668 0.573095 0.175138
Si Si5 0.250200 0.425390 0.569042
Si Si6 0.559833 0.427429 0.171654
Si Si7 0.630368 0.574441 0.510572
Si Si8 0.861152 0.922878 0.019584
O O1 0.731976 0.250000 0.283038
O O2 0.807980 0.038050 0.316233
O O3 0.754529 0.033530 0.170141
O O4 0.702053 0.971689 0.314736
O O5 0.630707 0.250000 0.793101
O O6 0.602763 0.975823 0.746733
O O7 0.612143 0.038520 0.911622
O O8 0.115966 0.250000 0.795786
O O9 0.088079 0.528489 0.766807
O O10 0.108883 0.446683 0.925923
O O11 0.946728 0.750000 0.171610
O O12 0.901370 0.512350 0.095376
O O13 0.000000 0.500000 0.164986
O O14 0.247442 0.250000 0.552465
O O15 0.308449 0.495864 0.532395
O O16 0.198603 0.496085 0.517366
O O17 0.500000 0.500000 0.190170
O O18 0.553316 0.250000 0.174267
O O19 0.583434 0.486430 0.078339
O O20 0.636059 0.750000 0.526848
O O21 0.848818 0.750000 0.037514
#
# Coordination Sequence:
#
# PCOD8180850 Si02
#       8
#     8   8   8   8   8   8   8   8
#     4  10  19  34  59  88 121 158 190 232 290 345
#     4  11  22  37  60  90 119 153 194 238 286 342
#     4  10  21  39  61  87 120 155 192 236 289 347
#     4  11  24  41  60  83 113 151 196 244 291 341
#     4  10  18  34  60  87 117 157 192 229 287 346
#     4  11  23  43  63  83 115 153 196 243 291 346
#     4   9  20  38  59  84 119 154 190 234 284 343
#     4  10  22  38  58  88 121 150 188 239 288 341
#
# _framework density 19.721655999999999
#
# number of rings (size 3 to 8) (size 9 to 14) (size 15 to 20)
#    0.000    1.750    2.500    1.875    0.000    3.000 
#    0.000    5.625    0.000    0.000    0.000    0.000 
#    0.000    0.000    0.000    0.000    0.000    0.000 
#
# Total GULP energy -396888.529234 kJ/mol
# GULP energy per Si atom -12402.766539 kJ/mol
# Density = 1.967677 g / cm^3
# Si number density = 19.721656 Si / 1000 Ang^3
#
#
#
# Elastic Constant Matrix: (Units=GPa)
#
#
# Indices 1 2 3 4 5 6 
#
# 1 89.7581 26.1124 24.8125 0.0000 0.0000 0.0000
# 2 26.1124 53.3037 27.5075 0.0000 0.0000 0.0000
# 3 24.8125 27.5075 94.4975 0.0000 0.0000 0.0000
# 4 0.0000 0.0000 0.0000 24.7843 0.0000 0.0000
# 5 0.0000 0.0000 0.0000 0.0000 12.8801 0.0000
# 6 0.0000 0.0000 0.0000 0.0000 0.0000 34.8699
#
#
#
# Elastic Compliance Matrix: (Units=1/GPa)
#
#
# Indices 1 2 3 4 5 6 
#
# 1 0.013269 -0.005533 -0.001873 0.000000 0.000000 0.000000
# 2 -0.005533 0.024384 -0.005645 0.000000 0.000000 0.000000
# 3 -0.001873 -0.005645 0.012717 0.000000 0.000000 0.000000
# 4 0.000000 0.000000 0.000000 0.040348 0.000000 0.000000
# 5 0.000000 0.000000 0.000000 0.000000 0.077639 0.000000
# 6 0.000000 0.000000 0.000000 0.000000 0.000000 0.028678
#
#
# Mechanical properties :
#
#
# Convention : Reuss Voigt Hill
#
# Bulk Modulus (GPa) = 41.20858 43.82491 42.51674
# Shear Modulus (GPa) = 21.62363 25.11531 23.36947
#
# Velocity S-wave (km/s) = 3.31485 3.57247 3.44607
# Velocity P-wave (km/s) = 5.96585 6.26791 6.11874
#
# Compressibility (1/GPa) = 0.02426679
#
# Stress axis : x y z
#
# Youngs Moduli (GPa) = 75.36555 41.01000 78.63218
#
# Poissons Ratio (x) = 0.22692 0.14730
# Poissons Ratio (y) = 0.41702 0.44389
# Poissons Ratio (z) = 0.14118 0.23151
#
# Static dielectric constant tensor:
#      x y z
#    x 3.594800 0.000000 0.000000 
#    y 0.000000 3.397530 0.000000 
#    z 0.000000 0.000000 3.767330 
# 
# 
# High freq. dielectric constant tensor:
#      x y z
#    x 1.765770 0.000000 0.000000 
#    y 0.000000 1.753370 0.000000 
#    z 0.000000 0.000000 1.783170 
# 
# From -- ./inp_files/10592.got.cif
#   From: 2010.03.12/outbox.cif.g09.slc.cpg/sg39_6_cif.got.tgz:10592.got - 2010.04.14 02:53:20.
