data_PCOD8180213
_publ_section_title
;
Structure prediction by ZEFSAII (Michael W. Deem and Ramdas Pophale) SiO2 
 PCOD8180213
Probable space group: A M M 2
;
_chemical_formula_sum "Si O2"
_cell_formula_units_Z 48
_cell_length_a 14.344953
_cell_length_b 17.134532
_cell_length_c 9.226002
_cell_angle_alpha 90.000000
_cell_angle_beta 90.000000
_cell_angle_gamma 90.000000
_cell_volume 2267.696454
_symmetry_space_group_name_H-M "A M M 2"
_symmetry_group_IT_number 38
_symmetry_cell_setting 'orthorhombic'
loop_
_space_group_symop_operation_xyz
x,y,z
-x,-y,z
-x,y,z
x,-y,z
x,1/2+y,1/2+z
-x,1/2-y,1/2+z
-x,1/2+y,1/2+z
x,1/2-y,1/2+z
loop_
_atom_site_type_symbol
_atom_site_label
_atom_site_fract_x
_atom_site_fract_y
_atom_site_fract_z
Si Si1 0.000000 0.262060 0.378760
Si Si2 0.675968 0.408081 0.139180
Si Si3 0.681200 0.645961 0.817565
Si Si4 0.500000 0.905514 0.157777
Si Si5 0.194996 0.915172 0.086984
Si Si6 0.000000 0.645110 0.653926
Si Si7 0.500000 0.408755 0.318638
Si Si8 0.207561 0.192462 0.827633
O O1 0.000000 0.275827 0.552000
O O2 0.096267 0.296445 0.312999
O O3 0.000000 0.172178 0.322780
O O4 0.690891 0.500000 0.153970
O O5 0.591739 0.375652 0.239264
O O6 0.768534 0.363889 0.193275
O O7 0.655556 0.385283 0.974957
O O8 0.587566 0.640153 0.723683
O O9 0.754989 0.589117 0.741687
O O10 0.729192 0.730677 0.820551
O O11 0.500000 0.000000 0.187966
O O12 0.500000 0.887379 0.987100
O O13 0.086062 0.908596 0.115793
O O14 0.215379 0.000000 0.017519
O O15 0.233293 0.849100 0.979405
O O16 0.500000 0.500000 0.293039
#
# Coordination Sequence:
#
# PCOD8180213 Si02
#       8
#     4   8   8   4   8   4   4   8
#     4  10  22  40  64  90 128 172 212 266 324 378
#     4  11  23  41  65  95 129 167 214 268 327 385
#     4  12  24  40  65  98 127 168 212 268 325 386
#     4  11  23  42  67  96 132 170 214 267 327 389
#     4  11  22  40  65  96 130 171 220 268 320 383
#     4  10  21  38  64  94 127 172 218 268 319 380
#     4   9  21  42  67  90 125 170 206 257 328 387
#     4  11  24  42  65  92 128 175 217 261 322 391
#
# _framework density 21.166854000000001
#
# number of rings (size 3 to 8) (size 9 to 14) (size 15 to 20)
#    0.000    1.167    1.667    4.750    2.333    2.667 
#    0.000    3.750    0.000    0.000    0.000    0.000 
#    0.000    0.000    0.000    0.000    0.000    0.000 
#
# Total GULP energy -297493.192852 kJ/mol
# GULP energy per Si atom -12395.549702 kJ/mol
# Density = 2.111868 g / cm^3
# Si number density = 21.166854 Si / 1000 Ang^3
#
#
#
# Elastic Constant Matrix: (Units=GPa)
#
#
# Indices 1 2 3 4 5 6 
#
# 1 143.4366 56.9623 58.9964 0.0000 0.0000 0.0000
# 2 56.9623 121.3875 36.6869 0.0000 0.0000 0.0000
# 3 58.9964 36.6869 117.6492 0.0000 0.0000 0.0000
# 4 0.0000 0.0000 0.0000 31.9054 0.0000 0.0000
# 5 0.0000 0.0000 0.0000 0.0000 25.8608 0.0000
# 6 0.0000 0.0000 0.0000 0.0000 0.0000 55.1389
#
#
#
# Elastic Compliance Matrix: (Units=1/GPa)
#
#
# Indices 1 2 3 4 5 6 
#
# 1 0.009968 -0.003496 -0.003908 0.000000 0.000000 0.000000
# 2 -0.003496 0.010322 -0.001465 0.000000 0.000000 0.000000
# 3 -0.003908 -0.001465 0.010917 0.000000 0.000000 0.000000
# 4 0.000000 0.000000 0.000000 0.031343 0.000000 0.000000
# 5 0.000000 0.000000 0.000000 0.000000 0.038669 0.000000
# 6 0.000000 0.000000 0.000000 0.000000 0.000000 0.018136
#
#
# Mechanical properties :
#
#
# Convention : Reuss Voigt Hill
#
# Bulk Modulus (GPa) = 74.25953 76.41827 75.33890
# Shear Modulus (GPa) = 35.31540 37.90287 36.60913
#
# Velocity S-wave (km/s) = 4.08907 4.23622 4.16330
# Velocity P-wave (km/s) = 7.57978 7.75297 7.66687
#
# Compressibility (1/GPa) = 0.01346628
#
# Stress axis : x y z
#
# Youngs Moduli (GPa) = 100.32500 96.88403 91.60391
#
# Poissons Ratio (x) = 0.33873 0.35800
# Poissons Ratio (y) = 0.35076 0.13423
# Poissons Ratio (z) = 0.39208 0.14197
#
# Static dielectric constant tensor:
#      x y z
#    x 4.168040 0.000000 0.000000 
#    y 0.000000 3.738080 0.000000 
#    z 0.000000 0.000000 3.954550 
# 
# 
# High freq. dielectric constant tensor:
#      x y z
#    x 1.846450 0.000000 0.000000 
#    y 0.000000 1.820740 0.000000 
#    z 0.000000 0.000000 1.835610 
# 
# From -- ./inp_files/5535.got.cif
#   From: 2010.03.12/outbox.cif.g09.slc.cpg/sg38_3_cif.got.tgz:5535.got - 2010.04.14 02:38:36.
