data_PCOD8180579
_publ_section_title
;
Structure prediction by ZEFSAII (Michael W. Deem and Ramdas Pophale) SiO2 
 PCOD8180579
Probable space group: A B M 2
;
_chemical_formula_sum "Si O2"
_cell_formula_units_Z 64
_cell_length_a 34.774077
_cell_length_b 14.939628
_cell_length_c 5.331128
_cell_angle_alpha 90.000000
_cell_angle_beta 90.000000
_cell_angle_gamma 90.000000
_cell_volume 2769.583767
_symmetry_space_group_name_H-M "A B M 2"
_symmetry_group_IT_number 39
_symmetry_cell_setting 'orthorhombic'
loop_
_space_group_symop_operation_xyz
x,y,z
-x,-y,z
-x,1/2+y,z
x,1/2-y,z
x,1/2+y,1/2+z
-x,1/2-y,1/2+z
-x,y,1/2+z
x,-y,1/2+z
loop_
_atom_site_type_symbol
_atom_site_label
_atom_site_fract_x
_atom_site_fract_y
_atom_site_fract_z
Si Si1 0.978916 0.643202 0.975840
Si Si2 0.515977 0.099909 0.993160
Si Si3 0.761914 0.900436 0.483916
Si Si4 0.638859 0.600513 0.990545
Si Si5 0.606890 0.599781 0.490503
Si Si6 0.151326 0.856552 0.975871
Si Si7 0.892181 0.643782 0.975799
Si Si8 0.270185 0.600513 0.483777
O O1 0.979400 0.750000 0.975885
O O2 0.935479 0.606120 0.975611
O O3 0.000021 0.606784 0.725913
O O4 0.502511 0.149155 0.250053
O O5 0.561416 0.099552 0.967975
O O6 0.500000 0.000000 0.018042
O O7 0.807679 0.904258 0.474086
O O8 0.745148 0.850486 0.236416
O O9 0.744684 0.999420 0.495884
O O10 0.747575 0.850529 0.737987
O O11 0.624768 0.649353 0.246342
O O12 0.623500 0.499828 0.010796
O O13 0.684307 0.603507 0.969808
O O14 0.620434 0.649211 0.746568
O O15 0.156703 0.750000 0.976245
O O16 0.128926 0.890017 0.727909
O O17 0.129033 0.890157 0.224162
O O18 0.893127 0.750000 0.975455
#
# Coordination Sequence:
#
# PCOD8180579 Si02
#       8
#     8   8   8   8   8   8   8   8
#     4   9  15  23  37  56  78 107 139 166 192 225
#     4  10  16  22  28  39  59  85 117 150 187 215
#     4  10  18  30  44  61  81 106 136 166 210 254
#     4  10  16  25  36  51  68  86 118 154 207 246
#     4  10  16  22  33  46  63  89 116 154 196 230
#     4  10  19  30  44  61  85 117 144 166 194 238
#     4   9  17  28  40  58  84 113 143 167 193 232
#     4  10  19  30  45  62  80 103 128 175 228 248
#
# _framework density 23.108163000000001
#
# number of rings (size 3 to 8) (size 9 to 14) (size 15 to 20)
#    0.000    2.250    0.000    9.000    0.000    3.000 
#    0.000    0.000    0.000    0.000    0.000    0.000 
#    0.000    0.000    0.000  157.500    0.000   70.000 
#
# Total GULP energy -396583.603026 kJ/mol
# GULP energy per Si atom -12393.237595 kJ/mol
# Density = 2.305557 g / cm^3
# Si number density = 23.108163 Si / 1000 Ang^3
#
#
#
# Elastic Constant Matrix: (Units=GPa)
#
#
# Indices 1 2 3 4 5 6 
#
# 1 190.1273 0.5818 61.2487 0.0000 0.0000 0.0000
# 2 0.5818 12.6782 -2.8021 0.0000 0.0000 0.0000
# 3 61.2487 -2.8021 246.1744 0.0000 0.0000 0.0000
# 4 0.0000 0.0000 0.0000 -6.7752 0.0000 0.0000
# 5 0.0000 0.0000 0.0000 0.0000 56.2189 0.0000
# 6 0.0000 0.0000 0.0000 0.0000 0.0000 -23.2569
#
#
#
# Elastic Compliance Matrix: (Units=1/GPa)
#
#
# Indices 1 2 3 4 5 6 
#
# 1 0.005722 -0.000579 -0.001430 0.000000 0.000000 0.000000
# 2 -0.000579 0.079133 0.001045 0.000000 0.000000 0.000000
# 3 -0.001430 0.001045 0.004430 0.000000 0.000000 0.000000
# 4 0.000000 0.000000 0.000000 -0.147597 0.000000 0.000000
# 5 0.000000 0.000000 0.000000 0.000000 0.017788 0.000000
# 6 0.000000 0.000000 0.000000 0.000000 0.000000 -0.042998
#
#
# Mechanical properties :
#
#
# Convention : Reuss Voigt Hill
#
# Bulk Modulus (GPa) = 11.44736 63.00407 37.22572
# Shear Modulus (GPa) = -95.28309 31.23414 -32.02447
#
# Velocity S-wave (km/s) = -6.42830 3.68047 -3.72674
# Velocity P-wave (km/s) = 7.08045 6.73685 1.54072
#
# Compressibility (1/GPa) = 0.08735639
#
# Stress axis : x y z
#
# Youngs Moduli (GPa) = 174.75917 12.63698 225.73835
#
# Poissons Ratio (x) = 0.00731 0.32287
# Poissons Ratio (y) = 0.10114 -0.23584
# Poissons Ratio (z) = 0.24995 -0.01320
#
# Static dielectric constant tensor:
#      x y z
#    x 4.132690 0.000000 0.000000 
#    y 0.000000 3.109700 0.000000 
#    z 0.000000 0.000000 8.959700 
# 
# 
# High freq. dielectric constant tensor:
#      x y z
#    x 1.925160 0.000000 0.000000 
#    y 0.000000 1.834300 0.000000 
#    z 0.000000 0.000000 1.957330 
# 
# From -- ./inp_files/1530.got.cif
#   From: 2010.03.12/outbox.cif.g09.slc.cpg/sg39_1_cif.got.tgz:1530.got - 2010.04.14 02:53:20.
