data_PCOD8180626
_publ_section_title
;
Structure prediction by ZEFSAII (Michael W. Deem and Ramdas Pophale) SiO2 
 PCOD8180626
Probable space group: A B M 2
;
_chemical_formula_sum "Si O2"
_cell_formula_units_Z 36
_cell_length_a 12.854008
_cell_length_b 28.638607
_cell_length_c 5.190832
_cell_angle_alpha 90.000000
_cell_angle_beta 90.000000
_cell_angle_gamma 90.000000
_cell_volume 1910.853662
_symmetry_space_group_name_H-M "A B M 2"
_symmetry_group_IT_number 39
_symmetry_cell_setting 'orthorhombic'
loop_
_space_group_symop_operation_xyz
x,y,z
-x,-y,z
-x,1/2+y,z
x,1/2-y,z
x,1/2+y,1/2+z
-x,1/2-y,1/2+z
-x,y,1/2+z
x,-y,1/2+z
loop_
_atom_site_type_symbol
_atom_site_label
_atom_site_fract_x
_atom_site_fract_y
_atom_site_fract_z
Si Si1 0.432580 0.126269 0.703290
Si Si2 0.615552 0.479723 0.217788
Si Si3 0.568472 0.250000 0.637588
Si Si4 0.287962 0.198003 0.460678
Si Si5 0.941578 0.694421 0.353527
O O1 0.519586 0.133485 0.484609
O O2 0.382964 0.075334 0.674098
O O3 0.341198 0.163975 0.666575
O O4 0.500000 0.500000 0.264920
O O5 0.673998 0.494307 0.481854
O O6 0.528861 0.250000 0.344258
O O7 0.637769 0.295945 0.706177
O O8 0.273273 0.250000 0.589073
O O9 0.177286 0.176826 0.375713
O O10 0.944107 0.750000 0.348579
O O11 0.991694 0.674498 0.092240
#
# Coordination Sequence:
#
# PCOD8180626 Si02
#       5
#     8   8   4   8   8
#     4  12  21  31  50  71 101 141 165 193 241 291
#     4  10  16  31  47  66  92 128 164 207 237 266
#     4  10  20  34  44  62 102 138 158 188 224 268
#     4   9  22  36  48  75 100 135 172 203 235 304
#     4   9  18  34  53  69  88 122 165 215 256 275
#
# _framework density 18.839746000000002
#
# number of rings (size 3 to 8) (size 9 to 14) (size 15 to 20)
#    0.667    1.333    4.444    1.333    0.000    3.556 
#    0.000    0.000    0.000    0.000    0.000    0.000 
#    0.000    5.333    0.000    0.000    0.000    0.000 
#
# Total GULP energy -223031.193091 kJ/mol
# GULP energy per Si atom -12390.621838 kJ/mol
# Density = 1.879687 g / cm^3
# Si number density = 18.839746 Si / 1000 Ang^3
#
#
#
# Elastic Constant Matrix: (Units=GPa)
#
#
# Indices 1 2 3 4 5 6 
#
# 1 83.9933 11.3595 17.0319 0.0000 0.0000 0.0000
# 2 11.3595 61.9926 -5.0636 0.0000 0.0000 0.0000
# 3 17.0319 -5.0636 96.0960 0.0000 0.0000 0.0000
# 4 0.0000 0.0000 0.0000 12.7881 0.0000 0.0000
# 5 0.0000 0.0000 0.0000 0.0000 7.2542 0.0000
# 6 0.0000 0.0000 0.0000 0.0000 0.0000 6.7738
#
#
#
# Elastic Compliance Matrix: (Units=1/GPa)
#
#
# Indices 1 2 3 4 5 6 
#
# 1 0.012732 -0.002528 -0.002390 0.000000 0.000000 0.000000
# 2 -0.002528 0.016703 0.001328 0.000000 0.000000 0.000000
# 3 -0.002390 0.001328 0.010900 0.000000 0.000000 0.000000
# 4 0.000000 0.000000 0.000000 0.078197 0.000000 0.000000
# 5 0.000000 0.000000 0.000000 0.000000 0.137852 0.000000
# 6 0.000000 0.000000 0.000000 0.000000 0.000000 0.147627
#
#
# Mechanical properties :
#
#
# Convention : Reuss Voigt Hill
#
# Bulk Modulus (GPa) = 30.16136 32.08195 31.12165
# Shear Modulus (GPa) = 11.84155 19.94684 15.89419
#
# Velocity S-wave (km/s) = 2.50979 3.25739 2.90772
# Velocity P-wave (km/s) = 4.94398 5.58689 5.27524
#
# Compressibility (1/GPa) = 0.03315500
#
# Stress axis : x y z
#
# Youngs Moduli (GPa) = 78.54075 59.87044 91.74458
#
# Poissons Ratio (x) = 0.15137 0.21926
# Poissons Ratio (y) = 0.19857 -0.12186
# Poissons Ratio (z) = 0.18770 -0.07952
#
# Static dielectric constant tensor:
#      x y z
#    x 3.229380 0.000000 0.000000 
#    y 0.000000 3.307290 0.000000 
#    z 0.000000 0.000000 3.945490 
# 
# 
# High freq. dielectric constant tensor:
#      x y z
#    x 1.682080 0.000000 0.000000 
#    y 0.000000 1.697540 0.000000 
#    z 0.000000 0.000000 1.750400 
# 
# From -- ./inp_files/366.got.cif
#   From: 2010.03.12/outbox.cif.g09.slc.cpg/sg39_1_cif.got.tgz:366.got - 2010.04.14 02:53:20.
