data_PCOD8180723
_publ_section_title
;
Structure prediction by ZEFSAII (Michael W. Deem and Ramdas Pophale) SiO2 
 PCOD8180723
Probable space group: A B M 2
;
_chemical_formula_sum "Si O2"
_cell_formula_units_Z 60
_cell_length_a 10.690680
_cell_length_b 15.200702
_cell_length_c 18.983052
_cell_angle_alpha 90.000000
_cell_angle_beta 90.000000
_cell_angle_gamma 90.000000
_cell_volume 3084.856827
_symmetry_space_group_name_H-M "A B M 2"
_symmetry_group_IT_number 39
_symmetry_cell_setting 'orthorhombic'
loop_
_space_group_symop_operation_xyz
x,y,z
-x,-y,z
-x,1/2+y,z
x,1/2-y,z
x,1/2+y,1/2+z
-x,1/2-y,1/2+z
-x,y,1/2+z
x,-y,1/2+z
loop_
_atom_site_type_symbol
_atom_site_label
_atom_site_fract_x
_atom_site_fract_y
_atom_site_fract_z
Si Si1 0.096630 0.074735 0.817170
Si Si2 0.934355 0.347677 0.918986
Si Si3 0.702520 0.456364 0.865752
Si Si4 0.371051 0.145681 0.072325
Si Si5 0.972454 0.351509 0.695146
Si Si6 0.500000 0.000000 0.981869
Si Si7 0.689352 0.649057 0.232691
Si Si8 0.092503 0.354787 0.045110
O O1 0.042191 0.159249 0.858537
O O2 0.082207 0.093898 0.733991
O O3 0.237910 0.048347 0.837181
O O4 0.000000 0.000000 0.842700
O O5 0.893269 0.250000 0.939861
O O6 0.808844 0.395386 0.897596
O O7 0.005382 0.395084 0.984323
O O8 0.611174 0.474558 0.929772
O O9 0.636107 0.409687 0.797717
O O10 0.400860 0.250000 0.061247
O O11 0.368917 0.123843 0.156431
O O12 0.237927 0.118675 0.038246
O O13 0.471130 0.084176 0.031983
O O14 0.010087 0.250000 0.693309
O O15 0.839215 0.365122 0.733970
O O16 0.964309 0.391562 0.617516
O O17 0.656703 0.750000 0.248918
O O18 0.088755 0.250000 0.046092
#
# Coordination Sequence:
#
# PCOD8180723 Si02
#       8
#     8   8   8   8   8   4   8   8
#     4  10  18  29  48  81 113 138 175 227 285 347
#     4  10  18  32  55  81 112 149 184 232 294 359
#     4  11  23  36  53  83 118 153 196 244 291 357
#     4   9  20  40  64  87 116 157 207 254 299 359
#     4   9  15  29  53  81 112 143 177 221 284 360
#     4  12  26  42  58  84 118 166 208 258 300 348
#     4   9  17  35  63  87 109 150 201 243 293 359
#     4   8  16  31  55  86 114 141 180 233 298 362
#
# _framework density 19.449850000000001
#
# number of rings (size 3 to 8) (size 9 to 14) (size 15 to 20)
#    0.000    2.400    2.667    3.200    0.000    1.600 
#    2.400    2.667    0.000    0.000    0.000    0.000 
#    0.000    0.000    0.000    0.000    0.000    0.000 
#
# Total GULP energy -371690.223216 kJ/mol
# GULP energy per Si atom -12389.674107 kJ/mol
# Density = 1.940558 g / cm^3
# Si number density = 19.449850 Si / 1000 Ang^3
#
#
#
# Elastic Constant Matrix: (Units=GPa)
#
#
# Indices 1 2 3 4 5 6 
#
# 1 69.8005 37.8836 52.0776 0.0000 0.0000 0.0000
# 2 37.8836 63.7221 44.4387 0.0000 0.0000 0.0000
# 3 52.0776 44.4387 121.5450 0.0000 0.0000 0.0000
# 4 0.0000 0.0000 0.0000 31.0663 0.0000 0.0000
# 5 0.0000 0.0000 0.0000 0.0000 38.8216 0.0000
# 6 0.0000 0.0000 0.0000 0.0000 0.0000 20.8803
#
#
#
# Elastic Compliance Matrix: (Units=1/GPa)
#
#
# Indices 1 2 3 4 5 6 
#
# 1 0.024995 -0.009921 -0.007082 0.000000 0.000000 0.000000
# 2 -0.009921 0.025002 -0.004890 0.000000 0.000000 0.000000
# 3 -0.007082 -0.004890 0.013050 0.000000 0.000000 0.000000
# 4 0.000000 0.000000 0.000000 0.032189 0.000000 0.000000
# 5 0.000000 0.000000 0.000000 0.000000 0.025759 0.000000
# 6 0.000000 0.000000 0.000000 0.000000 0.000000 0.047892
#
#
# Mechanical properties :
#
#
# Convention : Reuss Voigt Hill
#
# Bulk Modulus (GPa) = 51.92166 58.20749 55.06458
# Shear Modulus (GPa) = 22.82137 26.19817 24.50977
#
# Velocity S-wave (km/s) = 3.42913 3.67408 3.55371
# Velocity P-wave (km/s) = 6.51396 6.92751 6.72391
#
# Compressibility (1/GPa) = 0.01925979
#
# Stress axis : x y z
#
# Youngs Moduli (GPa) = 40.00802 39.99749 76.62940
#
# Poissons Ratio (x) = 0.39681 0.54271
# Poissons Ratio (y) = 0.39691 0.37474
# Poissons Ratio (z) = 0.28335 0.19560
#
# Static dielectric constant tensor:
#      x y z
#    x 3.244890 0.000000 0.000000 
#    y 0.000000 3.498210 0.000000 
#    z 0.000000 0.000000 3.876720 
# 
# 
# High freq. dielectric constant tensor:
#      x y z
#    x 1.710330 0.000000 0.000000 
#    y 0.000000 1.748490 0.000000 
#    z 0.000000 0.000000 1.776480 
# 
# From -- ./inp_files/12326.got.cif
#   From: 2010.03.12/outbox.cif.g09.slc.cpg/sg39_7_cif.got.tgz:12326.got - 2010.04.14 02:53:20.
