data_PCOD8180843
_publ_section_title
;
Structure prediction by ZEFSAII (Michael W. Deem and Ramdas Pophale) SiO2 
 PCOD8180843
Probable space group: A B M 2
;
_chemical_formula_sum "Si O2"
_cell_formula_units_Z 64
_cell_length_a 14.565522
_cell_length_b 8.618187
_cell_length_c 25.163219
_cell_angle_alpha 90.000000
_cell_angle_beta 90.000000
_cell_angle_gamma 90.000000
_cell_volume 3158.698427
_symmetry_space_group_name_H-M "A B M 2"
_symmetry_group_IT_number 39
_symmetry_cell_setting 'orthorhombic'
loop_
_space_group_symop_operation_xyz
x,y,z
-x,-y,z
-x,1/2+y,z
x,1/2-y,z
x,1/2+y,1/2+z
-x,1/2-y,1/2+z
-x,y,1/2+z
x,-y,1/2+z
loop_
_atom_site_type_symbol
_atom_site_label
_atom_site_fract_x
_atom_site_fract_y
_atom_site_fract_z
Si Si1 0.783680 0.564014 0.812810
Si Si2 0.594730 0.567045 0.345237
Si Si3 0.897338 0.434064 0.715359
Si Si4 0.837316 0.920987 0.924365
Si Si5 0.091809 0.934232 0.529215
Si Si6 0.770733 0.566964 0.117112
Si Si7 0.367381 0.422993 0.957041
Si Si8 0.405526 0.067018 0.571483
O O1 0.780766 0.750000 0.813009
O O2 0.678952 0.504048 0.810910
O O3 0.848396 0.500894 0.767166
O O4 0.828716 0.494879 0.867505
O O5 0.500000 0.500000 0.320821
O O6 0.597713 0.750000 0.338423
O O7 0.597226 0.523136 0.407435
O O8 0.904897 0.250000 0.719248
O O9 0.831778 0.486861 0.667154
O O10 0.000000 0.500000 0.708615
O O11 0.876839 0.750000 0.912919
O O12 0.740941 0.907769 0.954201
O O13 0.900404 0.004499 0.968907
O O14 0.088313 0.750000 0.528091
O O15 0.176136 0.989535 0.564743
O O16 0.000000 0.000000 0.555808
O O17 0.754512 0.750000 0.118690
O O18 0.672614 0.483683 0.113672
O O19 0.411333 0.250000 0.954384
O O20 0.393420 0.501376 0.012265
O O21 0.408873 0.250000 0.568403
O O22 0.500000 0.000000 0.595160
#
# Coordination Sequence:
#
# PCOD8180843 Si02
#       8
#     8   8   8   8   8   8   8   8
#     4  10  21  39  62  89 121 160 204 255 309 364
#     4  11  21  35  56  88 126 165 210 253 302 363
#     4  11  24  43  68  94 119 156 204 257 311 367
#     4   8  16  32  55  80 115 158 194 236 296 352
#     4  10  19  34  55  83 116 153 191 238 296 360
#     4  10  22  42  64  85 118 157 199 251 307 361
#     4  10  18  34  56  81 120 166 209 250 297 354
#     4  12  24  37  58  88 122 160 204 249 302 363
#
# _framework density 20.261510999999999
#
# number of rings (size 3 to 8) (size 9 to 14) (size 15 to 20)
#    0.000    1.750    1.250    4.875    0.000    2.000 
#    0.000    3.125    0.000    3.000    0.000    0.000 
#    0.000    0.000    0.000    0.000    0.000    0.000 
#
# Total GULP energy -396595.667821 kJ/mol
# GULP energy per Si atom -12393.614619 kJ/mol
# Density = 2.021539 g / cm^3
# Si number density = 20.261511 Si / 1000 Ang^3
#
#
#
# Elastic Constant Matrix: (Units=GPa)
#
#
# Indices 1 2 3 4 5 6 
#
# 1 142.0106 50.0484 66.8688 0.0000 0.0000 0.0000
# 2 50.0484 99.3602 43.4015 0.0000 0.0000 0.0000
# 3 66.8688 43.4015 110.4824 0.0000 0.0000 0.0000
# 4 0.0000 0.0000 0.0000 23.6786 0.0000 0.0000
# 5 0.0000 0.0000 0.0000 0.0000 5.3386 0.0000
# 6 0.0000 0.0000 0.0000 0.0000 0.0000 35.6844
#
#
#
# Elastic Compliance Matrix: (Units=1/GPa)
#
#
# Indices 1 2 3 4 5 6 
#
# 1 0.010563 -0.003052 -0.005194 0.000000 0.000000 0.000000
# 2 -0.003052 0.013031 -0.003272 0.000000 0.000000 0.000000
# 3 -0.005194 -0.003272 0.013480 0.000000 0.000000 0.000000
# 4 0.000000 0.000000 0.000000 0.042232 0.000000 0.000000
# 5 0.000000 0.000000 0.000000 0.000000 0.187314 0.000000
# 6 0.000000 0.000000 0.000000 0.000000 0.000000 0.028023
#
#
# Mechanical properties :
#
#
# Convention : Reuss Voigt Hill
#
# Bulk Modulus (GPa) = 71.23438 74.72120 72.97779
# Shear Modulus (GPa) = 15.51064 25.70928 20.60996
#
# Velocity S-wave (km/s) = 2.76981 3.56599 3.19281
# Velocity P-wave (km/s) = 6.74262 7.34258 7.04899
#
# Compressibility (1/GPa) = 0.01403817
#
# Stress axis : x y z
#
# Youngs Moduli (GPa) = 94.66850 76.74138 74.18146
#
# Poissons Ratio (x) = 0.23420 0.38533
# Poissons Ratio (y) = 0.28890 0.24272
# Poissons Ratio (z) = 0.49175 0.25109
#
# Static dielectric constant tensor:
#      x y z
#    x 3.958640 0.000000 0.000000 
#    y 0.000000 3.582190 0.000000 
#    z 0.000000 0.000000 3.726340 
# 
# 
# High freq. dielectric constant tensor:
#      x y z
#    x 1.803350 0.000000 0.000000 
#    y 0.000000 1.782690 0.000000 
#    z 0.000000 0.000000 1.777920 
# 
# From -- ./inp_files/16141.got.cif
#   From: 2010.03.12/outbox.cif.g09.slc.cpg/sg39_9_cif.got.tgz:16141.got - 2010.04.14 02:53:20.
