data_PCOD8180751
_publ_section_title
;
Structure prediction by ZEFSAII (Michael W. Deem and Ramdas Pophale) SiO2 
 PCOD8180751
Probable space group: A B M 2
;
_chemical_formula_sum "Si O2"
_cell_formula_units_Z 56
_cell_length_a 19.438467
_cell_length_b 8.787832
_cell_length_c 18.881187
_cell_angle_alpha 90.000000
_cell_angle_beta 90.000000
_cell_angle_gamma 90.000000
_cell_volume 3225.321792
_symmetry_space_group_name_H-M "A B M 2"
_symmetry_group_IT_number 39
_symmetry_cell_setting 'orthorhombic'
loop_
_space_group_symop_operation_xyz
x,y,z
-x,-y,z
-x,1/2+y,z
x,1/2-y,z
x,1/2+y,1/2+z
-x,1/2-y,1/2+z
-x,y,1/2+z
x,-y,1/2+z
loop_
_atom_site_type_symbol
_atom_site_label
_atom_site_fract_x
_atom_site_fract_y
_atom_site_fract_z
Si Si1 0.814723 0.920149 0.688010
Si Si2 0.305604 0.571390 0.087403
Si Si3 0.427756 0.428698 0.693612
Si Si4 0.688403 0.429833 0.436224
Si Si5 0.426585 0.569353 0.841784
Si Si6 0.925872 0.072898 0.766857
Si Si7 0.813029 0.419922 0.343364
O O1 0.837501 0.750000 0.666415
O O2 0.761335 0.985024 0.630875
O O3 0.777148 0.916882 0.765258
O O4 0.883973 0.022100 0.695641
O O5 0.300591 0.750000 0.069012
O O6 0.373408 0.536781 0.132451
O O7 0.308323 0.468911 0.018325
O O8 0.500000 0.500000 0.668979
O O9 0.436986 0.250000 0.707331
O O10 0.401785 0.505892 0.766052
O O11 0.678666 0.250000 0.424531
O O12 0.625552 0.520357 0.402669
O O13 0.759068 0.487709 0.399496
O O14 0.500000 0.500000 0.862260
O O15 0.431766 0.750000 0.838580
O O16 0.935788 0.250000 0.767326
O O17 0.882712 0.020932 0.837011
O O18 0.000000 0.000000 0.767563
O O19 0.835013 0.250000 0.366396
#
# Coordination Sequence:
#
# PCOD8180751 Si02
#       7
#     8   8   8   8   8   8   8
#     4   8  16  33  53  74 103 138 174 215 261 308
#     4  10  21  36  53  75 108 145 180 219 266 316
#     4  10  20  36  56  78 104 138 177 223 273 317
#     4  11  22  36  54  77 109 144 179 220 267 317
#     4  11  22  37  57  79 104 136 179 226 272 321
#     4  10  18  30  53  84 110 134 170 215 259 308
#     4   8  17  34  53  75 104 139 173 212 260 308
#
# _framework density 17.362608000000002
#
# number of rings (size 3 to 8) (size 9 to 14) (size 15 to 20)
#    0.857    1.429    0.000    4.714    0.000    5.714 
#    0.000    1.429    0.000    0.857    0.000    6.000 
#    0.000    0.000    0.000    0.000    0.000    0.000 
#
# Total GULP energy -347022.740539 kJ/mol
# GULP energy per Si atom -12393.669305 kJ/mol
# Density = 1.732309 g / cm^3
# Si number density = 17.362608 Si / 1000 Ang^3
#
#
#
# Elastic Constant Matrix: (Units=GPa)
#
#
# Indices 1 2 3 4 5 6 
#
# 1 129.5190 65.2591 62.4972 0.0000 0.0000 0.0000
# 2 65.2591 117.7157 43.5827 0.0000 0.0000 0.0000
# 3 62.4972 43.5827 91.0640 0.0000 0.0000 0.0000
# 4 0.0000 0.0000 0.0000 27.6315 0.0000 0.0000
# 5 0.0000 0.0000 0.0000 0.0000 7.1548 0.0000
# 6 0.0000 0.0000 0.0000 0.0000 0.0000 28.6061
#
#
#
# Elastic Compliance Matrix: (Units=1/GPa)
#
#
# Indices 1 2 3 4 5 6 
#
# 1 0.013564 -0.004950 -0.006940 0.000000 0.000000 0.000000
# 2 -0.004950 0.012131 -0.002409 0.000000 0.000000 0.000000
# 3 -0.006940 -0.002409 0.016897 0.000000 0.000000 0.000000
# 4 0.000000 0.000000 0.000000 0.036191 0.000000 0.000000
# 5 0.000000 0.000000 0.000000 0.000000 0.139766 0.000000
# 6 0.000000 0.000000 0.000000 0.000000 0.000000 0.034958
#
#
# Mechanical properties :
#
#
# Convention : Reuss Voigt Hill
#
# Bulk Modulus (GPa) = 71.45550 75.66406 73.55978
# Shear Modulus (GPa) = 17.43575 23.80912 20.62244
#
# Velocity S-wave (km/s) = 3.17237 3.70711 3.45011
# Velocity P-wave (km/s) = 7.39342 7.87381 7.63739
#
# Compressibility (1/GPa) = 0.01399472
#
# Stress axis : x y z
#
# Youngs Moduli (GPa) = 73.72667 82.43341 59.18313
#
# Poissons Ratio (x) = 0.40805 0.41071
# Poissons Ratio (y) = 0.36495 0.14255
# Poissons Ratio (z) = 0.51164 0.19855
#
# Static dielectric constant tensor:
#      x y z
#    x 3.197770 0.000000 0.000000 
#    y 0.000000 3.228880 0.000000 
#    z 0.000000 0.000000 3.035340 
# 
# 
# High freq. dielectric constant tensor:
#      x y z
#    x 1.667480 0.000000 0.000000 
#    y 0.000000 1.676690 0.000000 
#    z 0.000000 0.000000 1.647730 
# 
# From -- ./inp_files/14955.got.cif
#   From: 2010.03.12/outbox.cif.g09.slc.cpg/sg39_8_cif.got.tgz:14955.got - 2010.04.14 02:53:20.
