data_PCOD8180509
_publ_section_title
;
Structure prediction by ZEFSAII (Michael W. Deem and Ramdas Pophale) SiO2 
 PCOD8180509
Probable space group: A M M 2
;
_chemical_formula_sum "Si O2"
_cell_formula_units_Z 48
_cell_length_a 8.709064
_cell_length_b 13.603254
_cell_length_c 18.602305
_cell_angle_alpha 90.000000
_cell_angle_beta 90.000000
_cell_angle_gamma 90.000000
_cell_volume 2203.845017
_symmetry_space_group_name_H-M "A M M 2"
_symmetry_group_IT_number 38
_symmetry_cell_setting 'orthorhombic'
loop_
_space_group_symop_operation_xyz
x,y,z
-x,-y,z
-x,y,z
x,-y,z
x,1/2+y,1/2+z
-x,1/2-y,1/2+z
-x,1/2+y,1/2+z
x,1/2-y,1/2+z
loop_
_atom_site_type_symbol
_atom_site_label
_atom_site_fract_x
_atom_site_fract_y
_atom_site_fract_z
Si Si1 0.167526 0.392733 0.407950
Si Si2 0.676360 0.745791 0.504322
Si Si3 0.818378 0.111825 0.400608
Si Si4 0.821709 0.110424 0.123833
Si Si5 0.679044 0.195491 0.257331
Si Si6 0.826887 0.393018 0.239353
O O1 0.182306 0.500000 0.443448
O O2 0.306515 0.327078 0.436514
O O3 0.176593 0.402871 0.323978
O O4 0.000000 0.347770 0.430694
O O5 0.500000 0.761794 0.525030
O O6 0.749687 0.848343 0.476532
O O7 0.763390 0.695720 0.570737
O O8 0.765034 0.178115 0.332997
O O9 0.000000 0.117277 0.405051
O O10 0.760925 0.000000 0.390313
O O11 0.733071 0.115293 0.199679
O O12 0.000000 0.128897 0.138742
O O13 0.792915 0.000000 0.093219
O O14 0.500000 0.186321 0.272170
O O15 0.717466 0.301685 0.220356
O O16 0.771503 0.500000 0.207724
O O17 0.000000 0.371304 0.212017
#
# Coordination Sequence:
#
# PCOD8180509 Si02
#       6
#     8   8   8   8   8   8
#     4   9  17  31  54  83 117 158 201 244 292 354
#     4  12  24  38  60  93 128 160 199 259 323 373
#     4  11  24  43  67  92 122 167 219 263 309 376
#     4  11  25  45  68  92 124 171 218 258 309 380
#     4  12  24  39  63  97 134 167 206 265 326 377
#     4   9  18  34  58  87 121 163 209 253 299 360
#
# _framework density 21.780117000000001
#
# number of rings (size 3 to 8) (size 9 to 14) (size 15 to 20)
#    0.000    1.333    1.667    6.000    0.000    7.333 
#    0.000    2.500    0.000    5.000    0.000    0.000 
#    0.000    0.000    0.000    0.000    0.000    0.000 
#
# Total GULP energy -297430.985440 kJ/mol
# GULP energy per Si atom -12392.957727 kJ/mol
# Density = 2.173054 g / cm^3
# Si number density = 21.780117 Si / 1000 Ang^3
#
#
#
# Elastic Constant Matrix: (Units=GPa)
#
#
# Indices 1 2 3 4 5 6 
#
# 1 109.3462 34.3157 19.2260 0.0000 0.0000 0.0000
# 2 34.3157 117.9746 20.8616 0.0000 0.0000 0.0000
# 3 19.2260 20.8616 64.6919 0.0000 0.0000 0.0000
# 4 0.0000 0.0000 0.0000 24.6034 0.0000 0.0000
# 5 0.0000 0.0000 0.0000 0.0000 27.7478 0.0000
# 6 0.0000 0.0000 0.0000 0.0000 0.0000 20.0061
#
#
#
# Elastic Compliance Matrix: (Units=1/GPa)
#
#
# Indices 1 2 3 4 5 6 
#
# 1 0.010360 -0.002618 -0.002235 0.000000 0.000000 0.000000
# 2 -0.002618 0.009651 -0.002334 0.000000 0.000000 0.000000
# 3 -0.002235 -0.002334 0.016875 0.000000 0.000000 0.000000
# 4 0.000000 0.000000 0.000000 0.040645 0.000000 0.000000
# 5 0.000000 0.000000 0.000000 0.000000 0.036039 0.000000
# 6 0.000000 0.000000 0.000000 0.000000 0.000000 0.049985
#
#
# Mechanical properties :
#
#
# Convention : Reuss Voigt Hill
#
# Bulk Modulus (GPa) = 44.42163 48.97994 46.70079
# Shear Modulus (GPa) = 26.96419 28.97875 27.97147
#
# Velocity S-wave (km/s) = 3.52237 3.65158 3.58755
# Velocity P-wave (km/s) = 6.08133 6.34948 6.21685
#
# Compressibility (1/GPa) = 0.02251155
#
# Stress axis : x y z
#
# Youngs Moduli (GPa) = 96.52665 103.61937 59.26057
#
# Poissons Ratio (x) = 0.27130 0.13242
# Poissons Ratio (y) = 0.25273 0.13831
# Poissons Ratio (z) = 0.21569 0.24185
#
# Static dielectric constant tensor:
#      x y z
#    x 3.837920 0.000000 0.000000 
#    y 0.000000 4.792340 0.000000 
#    z 0.000000 0.000000 3.718600 
# 
# 
# High freq. dielectric constant tensor:
#      x y z
#    x 1.843000 0.000000 0.000000 
#    y 0.000000 1.870020 0.000000 
#    z 0.000000 0.000000 1.834560 
# 
# From -- ./inp_files/16639.got.cif
#   From: 2010.03.12/outbox.cif.g09.slc.cpg/sg38_9_cif.got.tgz:16639.got - 2010.04.14 02:38:36.
