data_PCOD8180744
_publ_section_title
;
Structure prediction by ZEFSAII (Michael W. Deem and Ramdas Pophale) SiO2 
 PCOD8180744
Probable space group: A B M 2
;
_chemical_formula_sum "Si O2"
_cell_formula_units_Z 48
_cell_length_a 16.504329
_cell_length_b 8.973777
_cell_length_c 18.215454
_cell_angle_alpha 90.000000
_cell_angle_beta 90.000000
_cell_angle_gamma 90.000000
_cell_volume 2697.821090
_symmetry_space_group_name_H-M "A B M 2"
_symmetry_group_IT_number 39
_symmetry_cell_setting 'orthorhombic'
loop_
_space_group_symop_operation_xyz
x,y,z
-x,-y,z
-x,1/2+y,z
x,1/2-y,z
x,1/2+y,1/2+z
-x,1/2-y,1/2+z
-x,y,1/2+z
x,-y,1/2+z
loop_
_atom_site_type_symbol
_atom_site_label
_atom_site_fract_x
_atom_site_fract_y
_atom_site_fract_z
Si Si1 0.828363 0.424867 0.136700
Si Si2 0.688462 0.580978 0.215647
Si Si3 0.080482 0.923831 0.759706
Si Si4 0.581927 0.580968 0.087934
Si Si5 0.235504 0.081609 0.360060
Si Si6 0.254348 0.425369 0.010149
O O1 0.844743 0.250000 0.130852
O O2 0.746800 0.457644 0.181545
O O3 0.901989 0.502574 0.180162
O O4 0.817632 0.493294 0.055096
O O5 0.721673 0.750000 0.198054
O O6 0.601491 0.561742 0.175601
O O7 0.687976 0.560904 0.303818
O O8 0.065611 0.750000 0.748433
O O9 0.153183 0.954775 0.816404
O O10 0.000000 0.000000 0.792703
O O11 0.500000 0.500000 0.066039
O O12 0.566085 0.750000 0.067001
O O13 0.658062 0.520797 0.040557
O O14 0.233913 0.250000 0.391118
O O15 0.246814 0.966101 0.425186
O O16 0.244031 0.250000 0.020417
#
# Coordination Sequence:
#
# PCOD8180744 Si02
#       6
#     8   8   8   8   8   8
#     4  10  18  30  51  75  97 127 168 204 241 294
#     4   8  16  32  50  70  98 128 161 203 248 294
#     4  10  20  35  54  77 105 133 165 208 254 298
#     4   9  18  32  50  72  98 130 167 211 258 301
#     4   9  18  33  53  75 101 133 167 205 250 301
#     4  10  20  34  51  73 103 135 170 211 253 300
#
# _framework density 17.792134999999998
#
# number of rings (size 3 to 8) (size 9 to 14) (size 15 to 20)
#    0.000    2.667    0.000    4.500    0.000    6.667 
#    0.000    1.667    0.000    6.000    0.000    0.000 
#    0.000    0.000    0.000    0.000    0.000    0.000 
#
# Total GULP energy -297429.761096 kJ/mol
# GULP energy per Si atom -12392.906712 kJ/mol
# Density = 1.775164 g / cm^3
# Si number density = 17.792135 Si / 1000 Ang^3
#
#
#
# Elastic Constant Matrix: (Units=GPa)
#
#
# Indices 1 2 3 4 5 6 
#
# 1 73.0088 35.3744 31.6570 0.0000 0.0000 0.0000
# 2 35.3744 93.0865 45.1967 0.0000 0.0000 0.0000
# 3 31.6570 45.1967 111.3453 0.0000 0.0000 0.0000
# 4 0.0000 0.0000 0.0000 31.9689 0.0000 0.0000
# 5 0.0000 0.0000 0.0000 0.0000 16.3926 0.0000
# 6 0.0000 0.0000 0.0000 0.0000 0.0000 28.5855
#
#
#
# Elastic Compliance Matrix: (Units=1/GPa)
#
#
# Indices 1 2 3 4 5 6 
#
# 1 0.017476 -0.005267 -0.002831 0.000000 0.000000 0.000000
# 2 -0.005267 0.014967 -0.004578 0.000000 0.000000 0.000000
# 3 -0.002831 -0.004578 0.011644 0.000000 0.000000 0.000000
# 4 0.000000 0.000000 0.000000 0.031280 0.000000 0.000000
# 5 0.000000 0.000000 0.000000 0.000000 0.061003 0.000000
# 6 0.000000 0.000000 0.000000 0.000000 0.000000 0.034983
#
#
# Mechanical properties :
#
#
# Convention : Reuss Voigt Hill
#
# Bulk Modulus (GPa) = 53.37238 55.76630 54.56934
# Shear Modulus (GPa) = 24.63661 26.40358 25.52010
#
# Velocity S-wave (km/s) = 3.72518 3.85646 3.79139
# Velocity P-wave (km/s) = 6.96889 7.15828 7.06422
#
# Compressibility (1/GPa) = 0.01873628
#
# Stress axis : x y z
#
# Youngs Moduli (GPa) = 57.22021 66.81420 85.87997
#
# Poissons Ratio (x) = 0.35190 0.24312
# Poissons Ratio (y) = 0.30137 0.39315
# Poissons Ratio (z) = 0.16198 0.30587
#
# Static dielectric constant tensor:
#      x y z
#    x 3.169930 0.000000 0.000000 
#    y 0.000000 3.227720 0.000000 
#    z 0.000000 0.000000 3.307520 
# 
# 
# High freq. dielectric constant tensor:
#      x y z
#    x 1.661280 0.000000 0.000000 
#    y 0.000000 1.692770 0.000000 
#    z 0.000000 0.000000 1.679970 
# 
# From -- ./inp_files/12662.got.cif
#   From: 2010.03.12/outbox.cif.g09.slc.cpg/sg39_7_cif.got.tgz:12662.got - 2010.04.14 02:53:20.
