data_PCOD8180475
_publ_section_title
;
Structure prediction by ZEFSAII (Michael W. Deem and Ramdas Pophale) SiO2 
 PCOD8180475
Probable space group: A M M 2
;
_chemical_formula_sum "Si O2"
_cell_formula_units_Z 64
_cell_length_a 24.438001
_cell_length_b 9.052886
_cell_length_c 15.030954
_cell_angle_alpha 90.000000
_cell_angle_beta 90.000000
_cell_angle_gamma 90.000000
_cell_volume 3325.364648
_symmetry_space_group_name_H-M "A M M 2"
_symmetry_group_IT_number 38
_symmetry_cell_setting 'orthorhombic'
loop_
_space_group_symop_operation_xyz
x,y,z
-x,-y,z
-x,y,z
x,-y,z
x,1/2+y,1/2+z
-x,1/2-y,1/2+z
-x,1/2+y,1/2+z
x,1/2-y,1/2+z
loop_
_atom_site_type_symbol
_atom_site_label
_atom_site_fract_x
_atom_site_fract_y
_atom_site_fract_z
Si Si1 0.063879 0.170027 0.655160
Si Si2 0.748129 0.825639 0.519658
Si Si3 0.441686 0.833063 0.180212
Si Si4 0.864608 0.174970 0.012797
Si Si5 0.666491 0.827886 0.368313
Si Si6 0.939838 0.174400 0.856042
Si Si7 0.323487 0.669394 0.661542
Si Si8 0.559605 0.172036 0.861341
O O1 0.099253 0.280516 0.596871
O O2 0.077857 0.215080 0.756287
O O3 0.000000 0.194223 0.635180
O O4 0.080211 0.000000 0.636590
O O5 0.806290 0.749615 0.517672
O O6 0.716046 0.774383 0.430962
O O7 0.716363 0.775728 0.608069
O O8 0.756003 0.000000 0.523875
O O9 0.500000 0.818303 0.126223
O O10 0.386024 0.807481 0.123896
O O11 0.442668 0.715351 0.258345
O O12 0.437376 0.000000 0.220460
O O13 0.895080 0.236329 0.924625
O O14 0.857200 0.000000 0.011434
O O15 0.678920 0.785054 0.265907
O O16 0.610660 0.754979 0.406279
O O17 0.657731 0.000000 0.378685
O O18 0.000000 0.242300 0.877359
O O19 0.944204 0.000000 0.865929
O O20 0.304563 0.500000 0.648835
O O21 0.500000 0.211365 0.904799
O O22 0.571290 0.000000 0.869639
#
# Coordination Sequence:
#
# PCOD8180475 Si02
#       8
#     8   8   8   8   8   8   8   8
#     4   9  18  35  59  86 116 147 177 212 258 312
#     4  11  24  40  55  75 105 141 184 227 267 315
#     4   8  14  27  49  75 103 136 170 207 261 327
#     4  11  22  36  56  81 110 144 182 224 266 309
#     4   9  20  38  57  75 102 141 178 218 270 325
#     4   8  16  33  57  84 113 143 174 210 256 310
#     4   9  18  35  57  79 104 136 175 218 266 319
#     4   9  16  26  46  78 108 132 166 215 266 318
#
# _framework density 19.246009999999998
#
# number of rings (size 3 to 8) (size 9 to 14) (size 15 to 20)
#    0.000    2.750    0.000    3.000    0.000    5.500 
#    0.000    4.375    0.000    3.750    0.000    0.000 
#    0.000    0.000    0.000    0.000    0.000    0.000 
#
# Total GULP energy -396535.926927 kJ/mol
# GULP energy per Si atom -12391.747716 kJ/mol
# Density = 1.920221 g / cm^3
# Si number density = 19.246010 Si / 1000 Ang^3
#
#
#
# Elastic Constant Matrix: (Units=GPa)
#
#
# Indices 1 2 3 4 5 6 
#
# 1 153.5303 52.6291 71.6922 0.0000 0.0000 0.0000
# 2 52.6291 55.6233 36.5446 0.0000 0.0000 0.0000
# 3 71.6922 36.5446 93.4479 0.0000 0.0000 0.0000
# 4 0.0000 0.0000 0.0000 21.8014 0.0000 0.0000
# 5 0.0000 0.0000 0.0000 0.0000 -4.8199 0.0000
# 6 0.0000 0.0000 0.0000 0.0000 0.0000 16.1130
#
#
#
# Elastic Compliance Matrix: (Units=1/GPa)
#
#
# Indices 1 2 3 4 5 6 
#
# 1 0.011919 -0.007092 -0.006371 0.000000 0.000000 0.000000
# 2 -0.007092 0.028414 -0.005671 0.000000 0.000000 0.000000
# 3 -0.006371 -0.005671 0.017807 0.000000 0.000000 0.000000
# 4 0.000000 0.000000 0.000000 0.045869 0.000000 0.000000
# 5 0.000000 0.000000 0.000000 0.000000 -0.207474 0.000000
# 6 0.000000 0.000000 0.000000 0.000000 0.000000 0.062062
#
#
# Mechanical properties :
#
#
# Convention : Reuss Voigt Hill
#
# Bulk Modulus (GPa) = 50.32142 69.37038 59.84590
# Shear Modulus (GPa) = 1433.06911 16.06795 724.56853
#
# Velocity S-wave (km/s) = 27.31707 2.89255 19.42407
# Velocity P-wave (km/s) = 31.95569 6.87590 23.11325
#
# Compressibility (1/GPa) = 0.01987225
#
# Stress axis : x y z
#
# Youngs Moduli (GPa) = 83.89631 35.19363 56.15886
#
# Poissons Ratio (x) = 0.24960 0.35779
# Poissons Ratio (y) = 0.59500 0.31847
# Poissons Ratio (z) = 0.53450 0.19958
#
# Static dielectric constant tensor:
#      x y z
#    x 3.134300 0.000000 0.000000 
#    y 0.000000 3.338160 0.000000 
#    z 0.000000 0.000000 3.420280 
# 
# 
# High freq. dielectric constant tensor:
#      x y z
#    x 1.761730 0.000000 0.000000 
#    y 0.000000 1.734680 0.000000 
#    z 0.000000 0.000000 1.728140 
# 
# From -- ./inp_files/15848.got.cif
#   From: 2010.03.12/outbox.cif.g09.slc.cpg/sg38_8_cif.got.tgz:15848.got - 2010.04.14 02:38:36.
