data_PCOD8180769
_publ_section_title
;
Structure prediction by ZEFSAII (Michael W. Deem and Ramdas Pophale) SiO2 
 PCOD8180769
Probable space group: A B M 2
;
_chemical_formula_sum "Si O2"
_cell_formula_units_Z 60
_cell_length_a 15.422828
_cell_length_b 9.230053
_cell_length_c 22.004793
_cell_angle_alpha 90.000000
_cell_angle_beta 90.000000
_cell_angle_gamma 90.000000
_cell_volume 3132.459737
_symmetry_space_group_name_H-M "A B M 2"
_symmetry_group_IT_number 39
_symmetry_cell_setting 'orthorhombic'
loop_
_space_group_symop_operation_xyz
x,y,z
-x,-y,z
-x,1/2+y,z
x,1/2-y,z
x,1/2+y,1/2+z
-x,1/2-y,1/2+z
-x,y,1/2+z
x,-y,1/2+z
loop_
_atom_site_type_symbol
_atom_site_label
_atom_site_fract_x
_atom_site_fract_y
_atom_site_fract_z
Si Si1 0.914853 0.922321 0.619770
Si Si2 0.412184 0.918271 0.500167
Si Si3 0.736885 0.414298 0.818617
Si Si4 0.776798 0.917605 0.043122
Si Si5 0.159546 0.409619 0.910971
Si Si6 0.888988 0.407703 0.736205
Si Si7 0.000000 0.000000 0.343803
Si Si8 0.584380 0.917014 0.859412
O O1 0.920386 0.750000 0.611119
O O2 0.824828 0.983223 0.592809
O O3 0.915972 0.962145 0.691624
O O4 0.000000 0.000000 0.590171
O O5 0.430658 0.750000 0.510871
O O6 0.324489 0.966524 0.535917
O O7 0.392113 0.950150 0.429571
O O8 0.500000 0.000000 0.522130
O O9 0.706383 0.250000 0.829990
O O10 0.792548 0.462533 0.876547
O O11 0.789065 0.429724 0.755669
O O12 0.656516 0.522085 0.814061
O O13 0.779835 0.750000 0.063599
O O14 0.832273 0.941190 0.982147
O O15 0.201089 0.250000 0.897370
O O16 0.059884 0.404786 0.888662
O O17 0.900655 0.250000 0.703934
O O18 0.942941 0.401318 0.798807
O O19 0.570157 0.750000 0.846880
O O20 0.500000 0.000000 0.839309
#
# Coordination Sequence:
#
# PCOD8180769 Si02
#       8
#     8   8   8   8   8   8   4   8
#     4  12  26  42  61  83 110 149 195 240 286 338
#     4   9  18  33  55  82 113 149 187 229 277 336
#     4  10  20  33  53  83 114 145 183 230 279 331
#     4  10  21  39  58  82 118 154 189 234 285 336
#     4  10  20  35  54  79 113 149 184 225 278 336
#     4  10  21  38  58  81 110 145 191 238 280 326
#     4  10  20  32  58  86 108 146 190 234 274 330
#     4  10  18  31  51  80 116 153 188 223 275 336
#
# _framework density 19.154275999999999
#
# number of rings (size 3 to 8) (size 9 to 14) (size 15 to 20)
#    0.000    1.867    2.000    2.400    0.933    4.800 
#    0.000    0.000    0.000    0.800    0.000    3.733 
#    0.000    0.000    0.000    0.000    0.000    0.000 
#
# Total GULP energy -371829.688018 kJ/mol
# GULP energy per Si atom -12394.322934 kJ/mol
# Density = 1.911068 g / cm^3
# Si number density = 19.154276 Si / 1000 Ang^3
#
#
#
# Elastic Constant Matrix: (Units=GPa)
#
#
# Indices 1 2 3 4 5 6 
#
# 1 138.8981 57.0228 35.1722 0.0000 0.0000 0.0000
# 2 57.0228 116.5145 25.8177 0.0000 0.0000 0.0000
# 3 35.1722 25.8177 49.4179 0.0000 0.0000 0.0000
# 4 0.0000 0.0000 0.0000 25.7577 0.0000 0.0000
# 5 0.0000 0.0000 0.0000 0.0000 22.0984 0.0000
# 6 0.0000 0.0000 0.0000 0.0000 0.0000 34.5975
#
#
#
# Elastic Compliance Matrix: (Units=1/GPa)
#
#
# Indices 1 2 3 4 5 6 
#
# 1 0.010064 -0.003775 -0.005190 0.000000 0.000000 0.000000
# 2 -0.003775 0.011122 -0.003124 0.000000 0.000000 0.000000
# 3 -0.005190 -0.003124 0.025562 0.000000 0.000000 0.000000
# 4 0.000000 0.000000 0.000000 0.038823 0.000000 0.000000
# 5 0.000000 0.000000 0.000000 0.000000 0.045252 0.000000
# 6 0.000000 0.000000 0.000000 0.000000 0.000000 0.028904
#
#
# Mechanical properties :
#
#
# Convention : Reuss Voigt Hill
#
# Bulk Modulus (GPa) = 44.30837 60.09510 52.20173
# Shear Modulus (GPa) = 26.11936 28.94523 27.53230
#
# Velocity S-wave (km/s) = 3.69674 3.89159 3.79541
# Velocity P-wave (km/s) = 6.43458 7.18575 6.82051
#
# Compressibility (1/GPa) = 0.02256910
#
# Stress axis : x y z
#
# Youngs Moduli (GPa) = 99.36737 89.90878 39.12095
#
# Poissons Ratio (x) = 0.33942 0.20305
# Poissons Ratio (y) = 0.37512 0.12221
# Poissons Ratio (z) = 0.51575 0.28086
#
# Static dielectric constant tensor:
#      x y z
#    x 4.023960 0.000000 0.000000 
#    y 0.000000 3.464050 0.000000 
#    z 0.000000 0.000000 3.172970 
# 
# 
# High freq. dielectric constant tensor:
#      x y z
#    x 1.755550 0.000000 0.000000 
#    y 0.000000 1.746760 0.000000 
#    z 0.000000 0.000000 1.705950 
# 
# From -- ./inp_files/16073.got.cif
#   From: 2010.03.12/outbox.cif.g09.slc.cpg/sg39_9_cif.got.tgz:16073.got - 2010.04.14 02:53:20.
