data_PCOD8180550
_publ_section_title
;
Structure prediction by ZEFSAII (Michael W. Deem and Ramdas Pophale) SiO2 
 PCOD8180550
Probable space group: A M M 2
;
_chemical_formula_sum "Si O2"
_cell_formula_units_Z 48
_cell_length_a 9.588975
_cell_length_b 9.397027
_cell_length_c 31.079091
_cell_angle_alpha 90.000000
_cell_angle_beta 90.000000
_cell_angle_gamma 90.000000
_cell_volume 2800.470287
_symmetry_space_group_name_H-M "A M M 2"
_symmetry_group_IT_number 38
_symmetry_cell_setting 'orthorhombic'
loop_
_space_group_symop_operation_xyz
x,y,z
-x,-y,z
-x,y,z
x,-y,z
x,1/2+y,1/2+z
-x,1/2-y,1/2+z
-x,1/2+y,1/2+z
x,1/2-y,1/2+z
loop_
_atom_site_type_symbol
_atom_site_label
_atom_site_fract_x
_atom_site_fract_y
_atom_site_fract_z
Si Si1 0.344607 0.669405 0.688660
Si Si2 0.665942 0.841850 0.094766
Si Si3 0.162812 0.665609 0.767884
Si Si4 0.660773 0.665888 0.014139
Si Si5 0.162347 0.334721 0.932380
Si Si6 0.165715 0.838999 0.850031
O O1 0.500000 0.729747 0.697682
O O2 0.349677 0.500000 0.687944
O O3 0.288314 0.719632 0.641643
O O4 0.241410 0.724158 0.725703
O O5 0.500000 0.847350 0.094417
O O6 0.727197 0.000000 0.087386
O O7 0.721518 0.742269 0.056554
O O8 0.194847 0.500000 0.776734
O O9 0.220585 0.755168 0.808216
O O10 0.000000 0.691465 0.760267
O O11 0.500000 0.706625 0.005437
O O12 0.679215 0.500000 0.022314
O O13 0.750971 0.716736 0.973603
O O14 0.189621 0.500000 0.921820
O O15 0.218623 0.242825 0.892378
O O16 0.000000 0.306239 0.941594
O O17 0.000000 0.838450 0.849631
O O18 0.224307 0.000000 0.849899
#
# Coordination Sequence:
#
# PCOD8180550 Si02
#       6
#     8   8   8   8   8   8
#     4   8  14  26  44  64  85 111 143 175 206 244
#     4   8  14  26  44  63  84 113 145 172 203 248
#     4   9  16  27  45  66  85 108 141 177 209 244
#     4   9  17  29  45  65  87 110 139 175 211 247
#     4   9  17  30  47  64  83 110 143 175 207 247
#     4   9  17  29  45  64  86 112 141 172 208 252
#
# _framework density 17.139977999999999
#
# number of rings (size 3 to 8) (size 9 to 14) (size 15 to 20)
#    0.000    3.333    0.000    1.500    0.000    2.667 
#    0.000    2.500    0.000    7.500    0.000    0.000 
#    0.000    0.000    0.000    0.000    0.000    0.000 
#
# Total GULP energy -297499.314884 kJ/mol
# GULP energy per Si atom -12395.804787 kJ/mol
# Density = 1.710097 g / cm^3
# Si number density = 17.139978 Si / 1000 Ang^3
#
#
#
# Elastic Constant Matrix: (Units=GPa)
#
#
# Indices 1 2 3 4 5 6 
#
# 1 41.1081 26.7842 56.7005 0.0000 0.0000 0.0000
# 2 26.7842 67.9684 75.4742 0.0000 0.0000 0.0000
# 3 56.7005 75.4742 201.8973 0.0000 0.0000 0.0000
# 4 0.0000 0.0000 0.0000 31.0106 0.0000 0.0000
# 5 0.0000 0.0000 0.0000 0.0000 31.3265 0.0000
# 6 0.0000 0.0000 0.0000 0.0000 0.0000 11.6442
#
#
#
# Elastic Compliance Matrix: (Units=1/GPa)
#
#
# Indices 1 2 3 4 5 6 
#
# 1 0.040985 -0.005761 -0.009357 0.000000 0.000000 0.000000
# 2 -0.005761 0.025964 -0.008088 0.000000 0.000000 0.000000
# 3 -0.009357 -0.008088 0.010604 0.000000 0.000000 0.000000
# 4 0.000000 0.000000 0.000000 0.032247 0.000000 0.000000
# 5 0.000000 0.000000 0.000000 0.000000 0.031922 0.000000
# 6 0.000000 0.000000 0.000000 0.000000 0.000000 0.085879
#
#
# Mechanical properties :
#
#
# Convention : Reuss Voigt Hill
#
# Bulk Modulus (GPa) = 32.11084 69.87685 50.99384
# Shear Modulus (GPa) = 17.58119 24.93060 21.25589
#
# Velocity S-wave (km/s) = 3.20619 3.81797 3.52538
# Velocity P-wave (km/s) = 5.69924 7.76484 6.81080
#
# Compressibility (1/GPa) = 0.03114213
#
# Stress axis : x y z
#
# Youngs Moduli (GPa) = 24.39891 38.51430 94.30175
#
# Poissons Ratio (x) = 0.22189 0.88234
# Poissons Ratio (y) = 0.14057 0.76273
# Poissons Ratio (z) = 0.22829 0.31151
#
# Static dielectric constant tensor:
#      x y z
#    x 2.927400 0.000000 0.000000 
#    y 0.000000 3.126690 0.000000 
#    z 0.000000 0.000000 3.567720 
# 
# 
# High freq. dielectric constant tensor:
#      x y z
#    x 1.621030 0.000000 0.000000 
#    y 0.000000 1.640960 0.000000 
#    z 0.000000 0.000000 1.677290 
# 
# From -- ./inp_files/22418.got.cif
#   From: 2010.03.12/outbox.cif.g09.slc.cpg/sg38_12_cif.got.tgz:22418.got - 2010.04.14 02:38:36.
