data_PCOD8180835
_publ_section_title
;
Structure prediction by ZEFSAII (Michael W. Deem and Ramdas Pophale) SiO2 
 PCOD8180835
Probable space group: A B M 2
;
_chemical_formula_sum "Si O2"
_cell_formula_units_Z 64
_cell_length_a 9.114582
_cell_length_b 19.843316
_cell_length_c 18.566201
_cell_angle_alpha 90.000000
_cell_angle_beta 90.000000
_cell_angle_gamma 90.000000
_cell_volume 3357.948667
_symmetry_space_group_name_H-M "A B M 2"
_symmetry_group_IT_number 39
_symmetry_cell_setting 'orthorhombic'
loop_
_space_group_symop_operation_xyz
x,y,z
-x,-y,z
-x,1/2+y,z
x,1/2-y,z
x,1/2+y,1/2+z
-x,1/2-y,1/2+z
-x,y,1/2+z
x,-y,1/2+z
loop_
_atom_site_type_symbol
_atom_site_label
_atom_site_fract_x
_atom_site_fract_y
_atom_site_fract_z
Si Si1 0.565510 0.175133 0.827080
Si Si2 0.736159 0.973186 0.703971
Si Si3 0.666976 0.067209 0.933561
Si Si4 0.611546 0.903348 0.025771
Si Si5 0.161295 0.023252 0.552604
Si Si6 0.262209 0.326055 0.903140
Si Si7 0.852741 0.461060 0.356730
Si Si8 0.438120 0.102179 0.186595
O O1 0.619433 0.250000 0.845365
O O2 0.667305 0.125580 0.873927
O O3 0.395039 0.166041 0.846718
O O4 0.587653 0.163767 0.741419
O O5 0.825657 0.948789 0.633486
O O6 0.842295 0.961139 0.770787
O O7 0.587812 0.931831 0.712254
O O8 0.698305 0.051878 0.696769
O O9 0.709200 0.997178 0.892044
O O10 0.513696 0.063117 0.976187
O O11 0.791988 0.080673 0.994662
O O12 0.550257 0.876203 0.102670
O O13 0.729078 0.961168 0.039838
O O14 0.680772 0.839461 0.984490
O O15 0.000000 0.000000 0.534152
O O16 0.196407 0.250000 0.899696
O O17 0.141799 0.383044 0.882941
O O18 0.000000 0.500000 0.380819
#
# Coordination Sequence:
#
# PCOD8180835 Si02
#       8
#     8   8   8   8   8   8   8   8
#     4  10  21  36  58  85 118 155 195 247 303 354
#     4  10  20  33  55  86 118 147 198 250 302 347
#     4  11  21  36  58  87 116 148 199 255 292 347
#     4  10  21  34  59  83 115 155 199 240 302 356
#     4  11  21  34  56  88 120 148 191 256 301 348
#     4  10  22  37  55  84 120 153 191 249 306 360
#     4  12  23  36  60  87 118 164 206 248 302 363
#     4  10  18  33  57  85 110 155 196 248 299 352
#
# _framework density 19.059255
#
# number of rings (size 3 to 8) (size 9 to 14) (size 15 to 20)
#    0.000    1.500    5.000    1.125    1.750    0.500 
#    0.000    0.625    0.000    0.750    0.000    0.000 
#    0.000    0.000    0.000    0.000    0.000    0.000 
#
# Total GULP energy -396623.664110 kJ/mol
# GULP energy per Si atom -12394.489503 kJ/mol
# Density = 1.901588 g / cm^3
# Si number density = 19.059255 Si / 1000 Ang^3
#
#
#
# Elastic Constant Matrix: (Units=GPa)
#
#
# Indices 1 2 3 4 5 6 
#
# 1 79.8416 32.5406 30.7383 0.0000 0.0000 0.0000
# 2 32.5406 117.5859 48.8669 0.0000 0.0000 0.0000
# 3 30.7383 48.8669 152.7480 0.0000 0.0000 0.0000
# 4 0.0000 0.0000 0.0000 21.1772 0.0000 0.0000
# 5 0.0000 0.0000 0.0000 0.0000 16.5299 0.0000
# 6 0.0000 0.0000 0.0000 0.0000 0.0000 19.3608
#
#
#
# Elastic Compliance Matrix: (Units=1/GPa)
#
#
# Indices 1 2 3 4 5 6 
#
# 1 0.014578 -0.003247 -0.001895 0.000000 0.000000 0.000000
# 2 -0.003247 0.010532 -0.002716 0.000000 0.000000 0.000000
# 3 -0.001895 -0.002716 0.007797 0.000000 0.000000 0.000000
# 4 0.000000 0.000000 0.000000 0.047221 0.000000 0.000000
# 5 0.000000 0.000000 0.000000 0.000000 0.060497 0.000000
# 6 0.000000 0.000000 0.000000 0.000000 0.000000 0.051651
#
#
# Mechanical properties :
#
#
# Convention : Reuss Voigt Hill
#
# Bulk Modulus (GPa) = 58.16943 63.82966 60.99955
# Shear Modulus (GPa) = 23.39519 27.28222 25.33870
#
# Velocity S-wave (km/s) = 3.50737 3.78754 3.65014
# Velocity P-wave (km/s) = 6.85483 7.25880 7.05971
#
# Compressibility (1/GPa) = 0.01719116
#
# Stress axis : x y z
#
# Youngs Moduli (GPa) = 68.59868 94.95235 128.25599
#
# Poissons Ratio (x) = 0.30828 0.24302
# Poissons Ratio (y) = 0.22272 0.34833
# Poissons Ratio (z) = 0.12998 0.25788
#
# Static dielectric constant tensor:
#      x y z
#    x 3.246210 0.000000 0.000000 
#    y 0.000000 3.253370 0.000000 
#    z 0.000000 0.000000 4.010860 
# 
# 
# High freq. dielectric constant tensor:
#      x y z
#    x 1.715650 0.000000 0.000000 
#    y 0.000000 1.702610 0.000000 
#    z 0.000000 0.000000 1.770290 
# 
# From -- ./inp_files/11946.got.cif
#   From: 2010.03.12/outbox.cif.g09.slc.cpg/sg39_6_cif.got.tgz:11946.got - 2010.04.14 02:53:20.
