data_PCOD8180937
_publ_section_title
;
Structure prediction by ZEFSAII (Michael W. Deem and Ramdas Pophale) SiO2 
 PCOD8180937
Probable space group: A B M 2
;
_chemical_formula_sum "Si O2"
_cell_formula_units_Z 64
_cell_length_a 17.441040
_cell_length_b 9.234032
_cell_length_c 22.578406
_cell_angle_alpha 90.000000
_cell_angle_beta 90.000000
_cell_angle_gamma 90.000000
_cell_volume 3636.277607
_symmetry_space_group_name_H-M "A B M 2"
_symmetry_group_IT_number 39
_symmetry_cell_setting 'orthorhombic'
loop_
_space_group_symop_operation_xyz
x,y,z
-x,-y,z
-x,1/2+y,z
x,1/2-y,z
x,1/2+y,1/2+z
-x,1/2-y,1/2+z
-x,y,1/2+z
x,-y,1/2+z
loop_
_atom_site_type_symbol
_atom_site_label
_atom_site_fract_x
_atom_site_fract_y
_atom_site_fract_z
Si Si1 0.821870 0.497810 0.300900
Si Si2 0.922960 0.086598 0.195661
Si Si3 0.301717 0.592312 0.385337
Si Si4 0.922941 0.085661 0.905531
Si Si5 0.418945 0.576398 0.293137
Si Si6 0.194402 0.422358 0.982632
Si Si7 0.694297 0.409655 0.717935
Si Si8 0.193604 0.918697 0.618373
O O1 0.874528 0.407314 0.256185
O O2 0.768929 0.390258 0.339244
O O3 0.873082 0.592055 0.345577
O O4 0.765750 0.601198 0.263319
O O5 0.942544 0.250000 0.176529
O O6 0.877182 0.011615 0.142291
O O7 0.000000 0.000000 0.208142
O O8 0.331307 0.750000 0.403235
O O9 0.373863 0.517092 0.352083
O O10 0.268790 0.517692 0.445196
O O11 0.941058 0.250000 0.924965
O O12 0.880776 0.004447 0.959592
O O13 0.000000 0.000000 0.891256
O O14 0.500000 0.500000 0.292558
O O15 0.426460 0.750000 0.291728
O O16 0.370334 0.525938 0.235884
O O17 0.184232 0.250000 0.972299
O O18 0.208474 0.461523 0.050575
O O19 0.656444 0.250000 0.715179
O O20 0.728204 0.455083 0.653892
O O21 0.172243 0.750000 0.625322
#
# Coordination Sequence:
#
# PCOD8180937 Si02
#       8
#     8   8   8   8   8   8   8   8
#     4   9  18  31  49  70  95 124 159 201 250 300
#     4  11  22  33  48  69  96 129 166 210 258 305
#     4   8  15  29  50  74  97 122 156 194 234 282
#     4  11  22  33  47  69  96 128 164 207 256 302
#     4  10  19  31  50  78 108 134 157 187 231 284
#     4   9  18  35  55  72  93 126 167 208 247 291
#     4   9  17  31  51  75 100 126 158 197 239 288
#     4   9  19  35  54  73  95 127 167 208 250 294
#
# _framework density 17.600417
#
# number of rings (size 3 to 8) (size 9 to 14) (size 15 to 20)
#    0.000    2.500    0.000    2.250    0.000    8.000 
#    0.000    0.625    0.000    0.750    0.000    1.750 
#    0.000    0.000    0.000    0.000    0.000    0.000 
#
# Total GULP energy -396553.588435 kJ/mol
# GULP energy per Si atom -12392.299639 kJ/mol
# Density = 1.756036 g / cm^3
# Si number density = 17.600417 Si / 1000 Ang^3
#
#
#
# Elastic Constant Matrix: (Units=GPa)
#
#
# Indices 1 2 3 4 5 6 
#
# 1 114.9098 43.5392 53.4806 0.0000 0.0000 0.0000
# 2 43.5392 86.7695 30.1287 0.0000 0.0000 0.0000
# 3 53.4806 30.1287 127.3387 0.0000 0.0000 0.0000
# 4 0.0000 0.0000 0.0000 17.8510 0.0000 0.0000
# 5 0.0000 0.0000 0.0000 0.0000 15.4093 0.0000
# 6 0.0000 0.0000 0.0000 0.0000 0.0000 24.1755
#
#
#
# Elastic Compliance Matrix: (Units=1/GPa)
#
#
# Indices 1 2 3 4 5 6 
#
# 1 0.012427 -0.004819 -0.004079 0.000000 0.000000 0.000000
# 2 -0.004819 0.014425 -0.001389 0.000000 0.000000 0.000000
# 3 -0.004079 -0.001389 0.009895 0.000000 0.000000 0.000000
# 4 0.000000 0.000000 0.000000 0.056019 0.000000 0.000000
# 5 0.000000 0.000000 0.000000 0.000000 0.064896 0.000000
# 6 0.000000 0.000000 0.000000 0.000000 0.000000 0.041364
#
#
# Mechanical properties :
#
#
# Convention : Reuss Voigt Hill
#
# Bulk Modulus (GPa) = 61.83291 64.81280 63.32286
# Shear Modulus (GPa) = 22.22306 24.94513 23.58409
#
# Velocity S-wave (km/s) = 3.55723 3.76879 3.66454
# Velocity P-wave (km/s) = 7.21662 7.47281 7.34583
#
# Compressibility (1/GPa) = 0.01617262
#
# Stress axis : x y z
#
# Youngs Moduli (GPa) = 80.47095 69.32260 101.06325
#
# Poissons Ratio (x) = 0.33408 0.41222
# Poissons Ratio (y) = 0.38781 0.14038
# Poissons Ratio (z) = 0.32823 0.09629
#
# Static dielectric constant tensor:
#      x y z
#    x 3.186350 0.000000 0.000000 
#    y 0.000000 3.107310 0.000000 
#    z 0.000000 0.000000 3.344910 
# 
# 
# High freq. dielectric constant tensor:
#      x y z
#    x 1.663440 0.000000 0.000000 
#    y 0.000000 1.672380 0.000000 
#    z 0.000000 0.000000 1.673150 
# 
# From -- ./inp_files/16347.got.cif
#   From: 2010.03.12/outbox.cif.g09.slc.cpg/sg39_9_cif.got.tgz:16347.got - 2010.04.14 02:53:20.
