data_PCOD8180542
_publ_section_title
;
Structure prediction by ZEFSAII (Michael W. Deem and Ramdas Pophale) SiO2 
 PCOD8180542
Probable space group: A M M 2
;
_chemical_formula_sum "Si O2"
_cell_formula_units_Z 56
_cell_length_a 9.288186
_cell_length_b 15.399403
_cell_length_c 29.432785
_cell_angle_alpha 90.000000
_cell_angle_beta 90.000000
_cell_angle_gamma 90.000000
_cell_volume 4209.845390
_symmetry_space_group_name_H-M "A M M 2"
_symmetry_group_IT_number 38
_symmetry_cell_setting 'orthorhombic'
loop_
_space_group_symop_operation_xyz
x,y,z
-x,-y,z
-x,y,z
x,-y,z
x,1/2+y,1/2+z
-x,1/2-y,1/2+z
-x,1/2+y,1/2+z
x,1/2-y,1/2+z
loop_
_atom_site_type_symbol
_atom_site_label
_atom_site_fract_x
_atom_site_fract_y
_atom_site_fract_z
Si Si1 0.837392 0.603310 0.072700
Si Si2 0.336951 0.896582 0.486536
Si Si3 0.332379 0.754301 0.730403
Si Si4 0.839819 0.186927 0.306480
Si Si5 0.666325 0.599306 0.160669
Si Si6 0.839001 0.904340 0.218522
Si Si7 0.830742 0.100275 0.398184
O O1 0.837925 0.500000 0.070460
O O2 0.761377 0.634141 0.118967
O O3 0.000000 0.639839 0.071249
O O4 0.748341 0.641011 0.030038
O O5 0.500000 0.860755 0.487011
O O6 0.256366 0.863708 0.441364
O O7 0.336306 0.000000 0.488198
O O8 0.500000 0.737412 0.735733
O O9 0.261804 0.758268 0.781126
O O10 0.297677 0.843829 0.704904
O O11 0.265060 0.673447 0.701105
O O12 0.845884 0.102348 0.273630
O O13 0.778845 0.157246 0.355177
O O14 0.000000 0.226714 0.312199
O O15 0.500000 0.608749 0.146314
O O16 0.704095 0.500000 0.172959
O O17 0.000000 0.891628 0.198338
O O18 0.779482 0.000000 0.205243
O O19 0.000000 0.111337 0.407489
O O20 0.792763 0.000000 0.388921
#
# Coordination Sequence:
#
# PCOD8180542 Si02
#       7
#     8   8   8   8   8   8   8
#     4   9  16  25  38  54  69  89 121 157 188 221
#     4   9  16  24  33  48  71  95 119 150 186 219
#     4   9  17  26  37  55  74  93 124 162 193 223
#     4   8  15  25  36  49  70  98 127 154 184 218
#     4   9  17  29  42  54  72  99 127 157 197 237
#     4   8  14  25  38  50  69  98 126 150 182 221
#     4   9  15  23  35  49  67  95 129 156 177 209
#
# _framework density 13.302151
#
# number of rings (size 3 to 8) (size 9 to 14) (size 15 to 20)
#    0.857    2.429    0.000    1.286    0.000    7.143 
#    0.000    0.000    0.000    0.000    0.000    0.000 
#    0.000    0.000    0.000    1.286    0.000   20.286 
#
# Total GULP energy -346872.287269 kJ/mol
# GULP energy per Si atom -12388.295974 kJ/mol
# Density = 1.327187 g / cm^3
# Si number density = 13.302151 Si / 1000 Ang^3
#
#
#
# Elastic Constant Matrix: (Units=GPa)
#
#
# Indices 1 2 3 4 5 6 
#
# 1 85.4492 30.0878 55.8083 0.0000 0.0000 0.0000
# 2 30.0878 42.0132 33.1998 0.0000 0.0000 0.0000
# 3 55.8083 33.1998 91.1240 0.0000 0.0000 0.0000
# 4 0.0000 0.0000 0.0000 15.3347 0.0000 0.0000
# 5 0.0000 0.0000 0.0000 0.0000 24.6093 0.0000
# 6 0.0000 0.0000 0.0000 0.0000 0.0000 13.8207
#
#
#
# Elastic Compliance Matrix: (Units=1/GPa)
#
#
# Indices 1 2 3 4 5 6 
#
# 1 0.020795 -0.006780 -0.010265 0.000000 0.000000 0.000000
# 2 -0.006780 0.035636 -0.008831 0.000000 0.000000 0.000000
# 3 -0.010265 -0.008831 0.020478 0.000000 0.000000 0.000000
# 4 0.000000 0.000000 0.000000 0.065212 0.000000 0.000000
# 5 0.000000 0.000000 0.000000 0.000000 0.040635 0.000000
# 6 0.000000 0.000000 0.000000 0.000000 0.000000 0.072355
#
#
# Mechanical properties :
#
#
# Convention : Reuss Voigt Hill
#
# Bulk Modulus (GPa) = 39.75169 50.75314 45.25241
# Shear Modulus (GPa) = 15.86043 17.38564 16.62304
#
# Velocity S-wave (km/s) = 3.45675 3.61914 3.53887
# Velocity P-wave (km/s) = 6.77353 7.46332 7.12677
#
# Compressibility (1/GPa) = 0.02515617
#
# Stress axis : x y z
#
# Youngs Moduli (GPa) = 48.08915 28.06130 48.83193
#
# Poissons Ratio (x) = 0.19026 0.50127
# Poissons Ratio (y) = 0.32606 0.43124
# Poissons Ratio (z) = 0.49365 0.24781
#
# Static dielectric constant tensor:
#      x y z
#    x 2.755840 0.000000 0.000000 
#    y 0.000000 2.247420 0.000000 
#    z 0.000000 0.000000 2.583270 
# 
# 
# High freq. dielectric constant tensor:
#      x y z
#    x 1.517020 0.000000 0.000000 
#    y 0.000000 1.447580 0.000000 
#    z 0.000000 0.000000 1.492320 
# 
# From -- ./inp_files/24651.got.cif
#   From: 2010.03.12/outbox.cif.g09.slc.cpg/sg38_13_cif.got.tgz:24651.got - 2010.04.14 02:38:36.
