data_PCOD8180791
_publ_section_title
;
Structure prediction by ZEFSAII (Michael W. Deem and Ramdas Pophale) SiO2 
 PCOD8180791
Probable space group: A B M 2
;
_chemical_formula_sum "Si O2"
_cell_formula_units_Z 32
_cell_length_a 15.501863
_cell_length_b 21.452186
_cell_length_c 5.220384
_cell_angle_alpha 90.000000
_cell_angle_beta 90.000000
_cell_angle_gamma 90.000000
_cell_volume 1736.032688
_symmetry_space_group_name_H-M "A B M 2"
_symmetry_group_IT_number 39
_symmetry_cell_setting 'orthorhombic'
loop_
_space_group_symop_operation_xyz
x,y,z
-x,-y,z
-x,1/2+y,z
x,1/2-y,z
x,1/2+y,1/2+z
-x,1/2-y,1/2+z
-x,y,1/2+z
x,-y,1/2+z
loop_
_atom_site_type_symbol
_atom_site_label
_atom_site_fract_x
_atom_site_fract_y
_atom_site_fract_z
Si Si1 0.220704 0.319381 0.729330
Si Si2 0.691983 0.860698 0.228107
Si Si3 0.943884 0.750000 0.776810
Si Si4 0.556898 0.250000 0.699896
Si Si5 0.536876 0.069295 0.803326
O O1 0.263798 0.250000 0.742983
O O2 0.241729 0.352202 0.461329
O O3 0.116723 0.311548 0.748973
O O4 0.254895 0.360580 0.964661
O O5 0.616808 0.810051 0.235606
O O6 0.640530 0.926701 0.258050
O O7 0.015929 0.750000 0.559005
O O8 0.515997 0.250000 0.417696
O O9 0.487300 0.103871 0.569657
O O10 0.500000 0.000000 0.846796
#
# Coordination Sequence:
#
# PCOD8180791 Si02
#       5
#     8   8   4   4   8
#     4  10  20  32  48  71  99 135 171 195 262 300
#     4  12  19  34  46  67 100 131 172 226 242 305
#     4  10  18  32  50  72 104 142 170 194 242 326
#     4  12  20  26  40  62  88 122 166 204 250 282
#     4  10  21  36  51  68  92 135 182 223 275 294
#
# _framework density 18.432832999999999
#
# number of rings (size 3 to 8) (size 9 to 14) (size 15 to 20)
#    0.750    0.500    2.500    6.000    0.000    0.000 
#    0.000    0.000    0.000    0.000    0.000    0.000 
#    0.000    0.000    0.000  315.000    0.000   35.000 
#
# Total GULP energy -198257.808969 kJ/mol
# GULP energy per Si atom -12391.113061 kJ/mol
# Density = 1.839088 g / cm^3
# Si number density = 18.432833 Si / 1000 Ang^3
#
#
#
# Elastic Constant Matrix: (Units=GPa)
#
#
# Indices 1 2 3 4 5 6 
#
# 1 81.2159 12.2462 14.7496 0.0000 0.0000 0.0000
# 2 12.2462 32.9805 -10.0935 0.0000 0.0000 0.0000
# 3 14.7496 -10.0935 128.1103 0.0000 0.0000 0.0000
# 4 0.0000 0.0000 0.0000 2.2685 0.0000 0.0000
# 5 0.0000 0.0000 0.0000 0.0000 46.6469 0.0000
# 6 0.0000 0.0000 0.0000 0.0000 0.0000 27.4894
#
#
#
# Elastic Compliance Matrix: (Units=1/GPa)
#
#
# Indices 1 2 3 4 5 6 
#
# 1 0.013526 -0.005635 -0.002001 0.000000 0.000000 0.000000
# 2 -0.005635 0.033418 0.003282 0.000000 0.000000 0.000000
# 3 -0.002001 0.003282 0.008295 0.000000 0.000000 0.000000
# 4 0.000000 0.000000 0.000000 0.440819 0.000000 0.000000
# 5 0.000000 0.000000 0.000000 0.000000 0.021438 0.000000
# 6 0.000000 0.000000 0.000000 0.000000 0.000000 0.036378
#
#
# Mechanical properties :
#
#
# Convention : Reuss Voigt Hill
#
# Bulk Modulus (GPa) = 21.49183 30.67905 26.08544
# Shear Modulus (GPa) = 8.64916 30.30793 19.47855
#
# Velocity S-wave (km/s) = 2.16851 4.05932 3.25427
# Velocity P-wave (km/s) = 4.23731 6.21696 5.32003
#
# Compressibility (1/GPa) = 0.04652930
#
# Stress axis : x y z
#
# Youngs Moduli (GPa) = 73.93188 29.92438 120.55854
#
# Poissons Ratio (x) = 0.16862 0.24126
# Poissons Ratio (y) = 0.41660 -0.39563
# Poissons Ratio (z) = 0.14795 -0.09820
#
# Static dielectric constant tensor:
#      x y z
#    x 3.274020 0.000000 0.000000 
#    y 0.000000 3.303680 0.000000 
#    z 0.000000 0.000000 4.053460 
# 
# 
# High freq. dielectric constant tensor:
#      x y z
#    x 1.694480 0.000000 0.000000 
#    y 0.000000 1.666860 0.000000 
#    z 0.000000 0.000000 1.751020 
# 
# From -- ./inp_files/510.got.cif
#   From: 2010.03.12/outbox.cif.g09.slc.cpg/sg39_1_cif.got.tgz:510.got - 2010.04.14 02:53:20.
