data_PCOD8180813
_publ_section_title
;
Structure prediction by ZEFSAII (Michael W. Deem and Ramdas Pophale) SiO2 
 PCOD8180813
Probable space group: A B M 2
;
_chemical_formula_sum "Si O2"
_cell_formula_units_Z 40
_cell_length_a 14.511941
_cell_length_b 8.762067
_cell_length_c 15.613319
_cell_angle_alpha 90.000000
_cell_angle_beta 90.000000
_cell_angle_gamma 90.000000
_cell_volume 1985.305322
_symmetry_space_group_name_H-M "A B M 2"
_symmetry_group_IT_number 39
_symmetry_cell_setting 'orthorhombic'
loop_
_space_group_symop_operation_xyz
x,y,z
-x,-y,z
-x,1/2+y,z
x,1/2-y,z
x,1/2+y,1/2+z
-x,1/2-y,1/2+z
-x,y,1/2+z
x,-y,1/2+z
loop_
_atom_site_type_symbol
_atom_site_label
_atom_site_fract_x
_atom_site_fract_y
_atom_site_fract_z
Si Si1 0.599436 0.429642 0.352300
Si Si2 0.906599 0.930547 0.757715
Si Si3 0.910230 0.073633 0.941981
Si Si4 0.714152 0.930796 0.692579
Si Si5 0.710507 0.925462 0.502900
O O1 0.500000 0.500000 0.364955
O O2 0.589230 0.250000 0.346326
O O3 0.645811 0.496930 0.265538
O O4 0.661878 0.468539 0.433876
O O5 0.913550 0.750000 0.752964
O O6 0.817751 0.993332 0.706546
O O7 0.893634 0.982075 0.855038
O O8 0.000000 0.000000 0.717299
O O9 0.929587 0.250000 0.920641
O O10 0.820952 0.054832 0.001347
O O11 0.000000 0.000000 0.988735
O O12 0.717305 0.750000 0.701457
O O13 0.678526 0.977531 0.598064
O O14 0.683127 0.750000 0.484641
#
# Coordination Sequence:
#
# PCOD8180813 Si02
#       5
#     8   8   8   8   8
#     4  11  23  42  64  86 113 148 187 237 293 347
#     4  10  18  32  54  81 115 154 193 232 278 332
#     4  10  19  31  53  82 116 154 193 234 278 331
#     4   9  20  38  60  84 117 153 188 233 286 338
#     4  10  21  39  61  87 117 152 193 237 284 339
#
# _framework density 20.148035
#
# number of rings (size 3 to 8) (size 9 to 14) (size 15 to 20)
#    0.000    2.000    2.000    3.000    0.000    2.400 
#    0.000    6.000    0.000    0.000    0.000    0.000 
#    0.000    0.000    0.000    0.000    0.000    0.000 
#
# Total GULP energy -247956.514184 kJ/mol
# GULP energy per Si atom -12397.825709 kJ/mol
# Density = 2.010218 g / cm^3
# Si number density = 20.148035 Si / 1000 Ang^3
#
#
#
# Elastic Constant Matrix: (Units=GPa)
#
#
# Indices 1 2 3 4 5 6 
#
# 1 112.8593 32.9249 45.6638 0.0000 0.0000 0.0000
# 2 32.9249 67.1131 20.5556 0.0000 0.0000 0.0000
# 3 45.6638 20.5556 112.5783 0.0000 0.0000 0.0000
# 4 0.0000 0.0000 0.0000 22.7528 0.0000 0.0000
# 5 0.0000 0.0000 0.0000 0.0000 10.5049 0.0000
# 6 0.0000 0.0000 0.0000 0.0000 0.0000 29.9126
#
#
#
# Elastic Compliance Matrix: (Units=1/GPa)
#
#
# Indices 1 2 3 4 5 6 
#
# 1 0.011793 -0.004576 -0.003948 0.000000 0.000000 0.000000
# 2 -0.004576 0.017559 -0.001350 0.000000 0.000000 0.000000
# 3 -0.003948 -0.001350 0.010730 0.000000 0.000000 0.000000
# 4 0.000000 0.000000 0.000000 0.043951 0.000000 0.000000
# 5 0.000000 0.000000 0.000000 0.000000 0.095194 0.000000
# 6 0.000000 0.000000 0.000000 0.000000 0.000000 0.033431
#
#
# Mechanical properties :
#
#
# Convention : Reuss Voigt Hill
#
# Bulk Modulus (GPa) = 49.17814 54.53768 51.85791
# Shear Modulus (GPa) = 20.90447 25.52782 23.21615
#
# Velocity S-wave (km/s) = 3.22459 3.56337 3.39821
# Velocity P-wave (km/s) = 6.19075 6.63758 6.41805
#
# Compressibility (1/GPa) = 0.02033424
#
# Stress axis : x y z
#
# Youngs Moduli (GPa) = 84.79606 56.95172 93.19236
#
# Poissons Ratio (x) = 0.26063 0.36791
# Poissons Ratio (y) = 0.38806 0.12579
# Poissons Ratio (z) = 0.33476 0.07687
#
# Static dielectric constant tensor:
#      x y z
#    x 4.039970 0.000000 0.000000 
#    y 0.000000 3.489910 0.000000 
#    z 0.000000 0.000000 3.637780 
# 
# 
# High freq. dielectric constant tensor:
#      x y z
#    x 1.792720 0.000000 0.000000 
#    y 0.000000 1.770400 0.000000 
#    z 0.000000 0.000000 1.780830 
# 
# From -- ./inp_files/9629.got.cif
#   From: 2010.03.12/outbox.cif.g09.slc.cpg/sg39_5_cif.got.tgz:9629.got - 2010.04.14 02:53:20.
