data_PCOD8180136
_publ_section_title
;
Structure prediction by ZEFSAII (Michael W. Deem and Ramdas Pophale) SiO2 
 PCOD8180136
Probable space group: A M M 2
;
_chemical_formula_sum "Si O2"
_cell_formula_units_Z 64
_cell_length_a 8.858104
_cell_length_b 23.591674
_cell_length_c 15.282301
_cell_angle_alpha 90.000000
_cell_angle_beta 90.000000
_cell_angle_gamma 90.000000
_cell_volume 3193.657085
_symmetry_space_group_name_H-M "A M M 2"
_symmetry_group_IT_number 38
_symmetry_cell_setting 'orthorhombic'
loop_
_space_group_symop_operation_xyz
x,y,z
-x,-y,z
-x,y,z
x,-y,z
x,1/2+y,1/2+z
-x,1/2-y,1/2+z
-x,1/2+y,1/2+z
x,1/2-y,1/2+z
loop_
_atom_site_type_symbol
_atom_site_label
_atom_site_fract_x
_atom_site_fract_y
_atom_site_fract_z
Si Si1 0.822527 0.626468 0.687090
Si Si2 0.327687 0.863475 0.700313
Si Si3 0.174264 0.749314 0.247534
Si Si4 0.173774 0.243580 0.952398
Si Si5 0.672794 0.644738 0.004514
Si Si6 0.324788 0.065285 0.346498
Si Si7 0.174716 0.434197 0.347884
Si Si8 0.677872 0.128500 0.006563
O O1 0.774660 0.690924 0.707560
O O2 0.771421 0.585469 0.764346
O O3 0.744650 0.606249 0.597858
O O4 0.000000 0.620853 0.676217
O O5 0.500000 0.869233 0.732601
O O6 0.279527 0.797987 0.705107
O O7 0.310409 0.883746 0.600060
O O8 0.222191 0.901818 0.760302
O O9 0.203421 0.751416 0.350419
O O10 0.000000 0.736014 0.226439
O O11 0.221099 0.300570 0.001256
O O12 0.271659 0.192328 0.988529
O O13 0.000000 0.230554 0.973852
O O14 0.500000 0.663480 0.987897
O O15 0.726098 0.599223 0.932921
O O16 0.500000 0.075444 0.325501
O O17 0.288980 0.000000 0.365003
O O18 0.206859 0.500000 0.333076
O O19 0.267944 0.413111 0.430552
O O20 0.000000 0.420995 0.365651
O O21 0.500000 0.125969 0.011716
#
# Coordination Sequence:
#
# PCOD8180136 Si02
#       8
#     8   8   8   8   8   8   8   8
#     4  11  23  41  64  92 124 161 202 250 304 359
#     4  11  23  38  62  94 125 161 200 246 304 362
#     4  10  21  37  60  89 124 163 199 243 301 362
#     4  11  21  37  62  92 126 162 200 246 302 363
#     4  10  22  39  61  92 127 162 203 250 302 361
#     4  10  22  41  63  87 120 163 208 255 303 354
#     4  11  25  45  66  88 118 159 206 255 304 356
#     4  12  25  41  64  94 124 159 200 247 304 366
#
# _framework density 20.039721
#
# number of rings (size 3 to 8) (size 9 to 14) (size 15 to 20)
#    0.000    1.250    2.500    3.375    0.000    6.750 
#    0.000    1.250    0.000    0.000    0.000    0.000 
#    0.000    0.000    0.000    0.000    0.000    0.000 
#
# Total GULP energy -397011.491604 kJ/mol
# GULP energy per Si atom -12406.609113 kJ/mol
# Density = 1.999411 g / cm^3
# Si number density = 20.039721 Si / 1000 Ang^3
#
#
#
# Elastic Constant Matrix: (Units=GPa)
#
#
# Indices 1 2 3 4 5 6 
#
# 1 87.4681 35.4229 36.8455 0.0000 0.0000 0.0000
# 2 35.4229 84.2416 20.3333 0.0000 0.0000 0.0000
# 3 36.8455 20.3333 107.2143 0.0000 0.0000 0.0000
# 4 0.0000 0.0000 0.0000 -1.5008 0.0000 0.0000
# 5 0.0000 0.0000 0.0000 0.0000 27.9277 0.0000
# 6 0.0000 0.0000 0.0000 0.0000 0.0000 30.6583
#
#
#
# Elastic Compliance Matrix: (Units=1/GPa)
#
#
# Indices 1 2 3 4 5 6 
#
# 1 0.015445 -0.005463 -0.004272 0.000000 0.000000 0.000000
# 2 -0.005463 0.014373 -0.000848 0.000000 0.000000 0.000000
# 3 -0.004272 -0.000848 0.010956 0.000000 0.000000 0.000000
# 4 0.000000 0.000000 0.000000 -0.666326 0.000000 0.000000
# 5 0.000000 0.000000 0.000000 0.000000 0.035807 0.000000
# 6 0.000000 0.000000 0.000000 0.000000 0.000000 0.032618
#
#
# Mechanical properties :
#
#
# Convention : Reuss Voigt Hill
#
# Bulk Modulus (GPa) = 51.00241 51.56968 51.28605
# Shear Modulus (GPa) = -9.44419 23.83851 7.19716
#
# Velocity S-wave (km/s) = -2.17324 3.45275 1.89717
# Velocity P-wave (km/s) = 4.38276 6.45638 5.51786
#
# Compressibility (1/GPa) = 0.01960692
#
# Stress axis : x y z
#
# Youngs Moduli (GPa) = 64.74717 69.57659 91.27432
#
# Poissons Ratio (x) = 0.38012 0.38989
# Poissons Ratio (y) = 0.35374 0.07742
# Poissons Ratio (z) = 0.27658 0.05902
#
# Static dielectric constant tensor:
#      x y z
#    x 3.677100 0.000000 0.000000 
#    y 0.000000 3.582120 0.000000 
#    z 0.000000 0.000000 3.855390 
# 
# 
# High freq. dielectric constant tensor:
#      x y z
#    x 1.787000 0.000000 0.000000 
#    y 0.000000 1.775740 0.000000 
#    z 0.000000 0.000000 1.799480 
# 
# From -- ./inp_files/12761.got.cif
#   From: 2010.03.12/outbox.cif.g09.slc.cpg/sg38_7_cif.got.tgz:12761.got - 2010.04.14 02:38:36.
