data_PCOD8180515
_publ_section_title
;
Structure prediction by ZEFSAII (Michael W. Deem and Ramdas Pophale) SiO2 
 PCOD8180515
Probable space group: A M M 2
;
_chemical_formula_sum "Si O2"
_cell_formula_units_Z 56
_cell_length_a 20.089428
_cell_length_b 15.015406
_cell_length_c 9.872688
_cell_angle_alpha 90.000000
_cell_angle_beta 90.000000
_cell_angle_gamma 90.000000
_cell_volume 2978.105396
_symmetry_space_group_name_H-M "A M M 2"
_symmetry_group_IT_number 38
_symmetry_cell_setting 'orthorhombic'
loop_
_space_group_symop_operation_xyz
x,y,z
-x,-y,z
-x,y,z
x,-y,z
x,1/2+y,1/2+z
-x,1/2-y,1/2+z
-x,1/2+y,1/2+z
x,1/2-y,1/2+z
loop_
_atom_site_type_symbol
_atom_site_label
_atom_site_fract_x
_atom_site_fract_y
_atom_site_fract_z
Si Si1 0.576116 0.399690 0.305760
Si Si2 0.855626 0.397413 0.065951
Si Si3 0.759136 0.746399 0.632470
Si Si4 0.000000 0.395154 0.052310
Si Si5 0.000000 0.105103 0.257677
Si Si6 0.143725 0.897437 0.243060
Si Si7 0.331515 0.751211 0.882770
Si Si8 0.575635 0.102948 0.491010
O O1 0.500000 0.389965 0.351485
O O2 0.601192 0.500000 0.330509
O O3 0.619201 0.334731 0.399479
O O4 0.583796 0.374088 0.148645
O O5 0.838950 0.500000 0.100539
O O6 0.802630 0.336337 0.143352
O O7 0.929687 0.370248 0.124076
O O8 0.852520 0.381793 0.904408
O O9 0.803111 0.660364 0.663269
O O10 0.696780 0.751031 0.731806
O O11 0.730624 0.737702 0.482045
O O12 0.000000 0.500000 0.030005
O O13 0.000000 0.348929 0.905179
O O14 0.069879 0.131034 0.185716
O O15 0.000000 0.000000 0.278625
O O16 0.158935 0.000000 0.208946
O O17 0.372273 0.660429 0.905569
O O18 0.500000 0.123826 0.444610
O O19 0.592565 0.000000 0.463680
#
# Coordination Sequence:
#
# PCOD8180515 Si02
#       8
#     8   8   8   4   4   8   8   8
#     4   9  19  38  63  86 109 143 185 228 277 328
#     4   9  18  35  57  79 108 146 190 234 276 329
#     4  12  24  35  54  83 116 154 185 218 271 338
#     4   7  12  27  54  81 100 133 188 241 277 312
#     4   7  12  27  54  79 100 137 186 235 283 322
#     4   9  18  35  56  79 109 145 189 236 278 327
#     4  12  23  38  55  84 119 148 183 222 273 327
#     4   9  19  38  64  87 107 142 189 229 270 325
#
# _framework density 18.803901
#
# number of rings (size 3 to 8) (size 9 to 14) (size 15 to 20)
#    0.000    2.429    2.857    3.000    0.000    2.857 
#    0.000    0.000    0.000    1.714    0.000    3.000 
#    0.000    0.000    0.000    0.000    0.000    0.000 
#
# Total GULP energy -347015.113620 kJ/mol
# GULP energy per Si atom -12393.396915 kJ/mol
# Density = 1.876110 g / cm^3
# Si number density = 18.803901 Si / 1000 Ang^3
#
#
#
# Elastic Constant Matrix: (Units=GPa)
#
#
# Indices 1 2 3 4 5 6 
#
# 1 118.5604 67.8362 22.1100 0.0000 0.0000 0.0000
# 2 67.8362 106.0656 22.9134 0.0000 0.0000 0.0000
# 3 22.1100 22.9134 25.4511 0.0000 0.0000 0.0000
# 4 0.0000 0.0000 0.0000 26.1950 0.0000 0.0000
# 5 0.0000 0.0000 0.0000 0.0000 21.4687 0.0000
# 6 0.0000 0.0000 0.0000 0.0000 0.0000 28.1497
#
#
#
# Elastic Compliance Matrix: (Units=1/GPa)
#
#
# Indices 1 2 3 4 5 6 
#
# 1 0.013800 -0.007742 -0.005018 0.000000 0.000000 0.000000
# 2 -0.007742 0.016048 -0.007722 0.000000 0.000000 0.000000
# 3 -0.005018 -0.007722 0.050603 0.000000 0.000000 0.000000
# 4 0.000000 0.000000 0.000000 0.038175 0.000000 0.000000
# 5 0.000000 0.000000 0.000000 0.000000 0.046579 0.000000
# 6 0.000000 0.000000 0.000000 0.000000 0.000000 0.035524
#
#
# Mechanical properties :
#
#
# Convention : Reuss Voigt Hill
#
# Bulk Modulus (GPa) = 25.32557 52.86623 39.09590
# Shear Modulus (GPa) = 19.61886 24.31052 21.96469
#
# Velocity S-wave (km/s) = 3.23358 3.59952 3.42144
# Velocity P-wave (km/s) = 5.23821 6.74173 6.03696
#
# Compressibility (1/GPa) = 0.03948579
#
# Stress axis : x y z
#
# Youngs Moduli (GPa) = 72.46340 62.31371 19.76171
#
# Poissons Ratio (x) = 0.48243 0.09917
# Poissons Ratio (y) = 0.56101 0.15260
# Poissons Ratio (z) = 0.36366 0.48119
#
# Static dielectric constant tensor:
#      x y z
#    x 3.753110 0.000000 0.000000 
#    y 0.000000 3.335080 0.000000 
#    z 0.000000 0.000000 2.996090 
# 
# 
# High freq. dielectric constant tensor:
#      x y z
#    x 1.752070 0.000000 0.000000 
#    y 0.000000 1.725100 0.000000 
#    z 0.000000 0.000000 1.684310 
# 
# From -- ./inp_files/6764.got.cif
#   From: 2010.03.12/outbox.cif.g09.slc.cpg/sg38_4_cif.got.tgz:6764.got - 2010.04.14 02:38:36.
