data_PCOD8180678
_publ_section_title
;
Structure prediction by ZEFSAII (Michael W. Deem and Ramdas Pophale) SiO2 
 PCOD8180678
Probable space group: A B M 2
;
_chemical_formula_sum "Si O2"
_cell_formula_units_Z 64
_cell_length_a 24.564979
_cell_length_b 8.912860
_cell_length_c 14.948681
_cell_angle_alpha 90.000000
_cell_angle_beta 90.000000
_cell_angle_gamma 90.000000
_cell_volume 3272.927283
_symmetry_space_group_name_H-M "A B M 2"
_symmetry_group_IT_number 39
_symmetry_cell_setting 'orthorhombic'
loop_
_space_group_symop_operation_xyz
x,y,z
-x,-y,z
-x,1/2+y,z
x,1/2-y,z
x,1/2+y,1/2+z
-x,1/2-y,1/2+z
-x,y,1/2+z
x,-y,1/2+z
loop_
_atom_site_type_symbol
_atom_site_label
_atom_site_fract_x
_atom_site_fract_y
_atom_site_fract_z
Si Si1 0.556454 0.072718 0.380010
Si Si2 0.171217 0.578081 0.379218
Si Si3 0.946642 0.927739 0.177925
Si Si4 0.444889 0.425020 0.676470
Si Si5 0.162182 0.573200 0.174125
Si Si6 0.633655 0.572397 0.520215
Si Si7 0.756465 0.426626 0.023324
Si Si8 0.949154 0.425105 0.370521
O O1 0.552191 0.250000 0.392137
O O2 0.568573 0.025155 0.277639
O O3 0.500000 0.000000 0.413100
O O4 0.605931 0.009272 0.437142
O O5 0.189146 0.750000 0.387351
O O6 0.174619 0.525358 0.276034
O O7 0.213214 0.481021 0.434841
O O8 0.109528 0.556442 0.418046
O O9 0.949124 0.750000 0.167874
O O10 0.890915 0.989105 0.134481
O O11 0.946268 0.980138 0.280083
O O12 0.000000 0.000000 0.130092
O O13 0.500000 0.500000 0.640872
O O14 0.455254 0.250000 0.671666
O O15 0.395437 0.474215 0.612764
O O16 0.150774 0.750000 0.168957
O O17 0.212692 0.520967 0.113153
O O18 0.630970 0.750000 0.504519
O O19 0.695176 0.510947 0.526259
O O20 0.755055 0.250000 0.019089
O O21 0.960411 0.250000 0.350320
O O22 0.000000 0.500000 0.425955
#
# Coordination Sequence:
#
# PCOD8180678 Si02
#       8
#     8   8   8   8   8   8   8   8
#     4  10  20  35  57  85 113 144 177 215 261 313
#     4   9  19  35  55  77 105 138 175 219 267 317
#     4  10  17  27  48  77 105 134 170 216 267 323
#     4   9  19  35  56  81 111 142 175 212 258 311
#     4   9  19  37  56  75 103 142 179 217 269 325
#     4  10  21  37  55  79 110 144 180 222 265 311
#     4  10  22  38  56  77 105 141 183 224 264 311
#     4   9  16  28  48  75 104 135 170 213 266 325
#
# _framework density 19.554359999999999
#
# number of rings (size 3 to 8) (size 9 to 14) (size 15 to 20)
#    0.000    2.500    0.000    3.750    0.000    6.500 
#    0.000    3.125    0.000    1.500    0.000    0.000 
#    0.000    0.000    0.000    0.000    0.000    0.000 
#
# Total GULP energy -396692.005888 kJ/mol
# GULP energy per Si atom -12396.625184 kJ/mol
# Density = 1.950985 g / cm^3
# Si number density = 19.554360 Si / 1000 Ang^3
#
#
#
# Elastic Constant Matrix: (Units=GPa)
#
#
# Indices 1 2 3 4 5 6 
#
# 1 196.4315 54.0123 74.9598 0.0000 0.0000 0.0000
# 2 54.0123 58.6631 28.6148 0.0000 0.0000 0.0000
# 3 74.9598 28.6148 86.8814 0.0000 0.0000 0.0000
# 4 0.0000 0.0000 0.0000 20.6716 0.0000 0.0000
# 5 0.0000 0.0000 0.0000 0.0000 46.9488 0.0000
# 6 0.0000 0.0000 0.0000 0.0000 0.0000 32.2796
#
#
#
# Elastic Compliance Matrix: (Units=1/GPa)
#
#
# Indices 1 2 3 4 5 6 
#
# 1 0.008749 -0.005211 -0.005833 0.000000 0.000000 0.000000
# 2 -0.005211 0.023412 -0.003215 0.000000 0.000000 0.000000
# 3 -0.005833 -0.003215 0.017601 0.000000 0.000000 0.000000
# 4 0.000000 0.000000 0.000000 0.048376 0.000000 0.000000
# 5 0.000000 0.000000 0.000000 0.000000 0.021300 0.000000
# 6 0.000000 0.000000 0.000000 0.000000 0.000000 0.030979
#
#
# Mechanical properties :
#
#
# Convention : Reuss Voigt Hill
#
# Bulk Modulus (GPa) = 47.06825 73.01665 60.04245
# Shear Modulus (GPa) = 26.87928 32.27261 29.57595
#
# Velocity S-wave (km/s) = 3.71157 4.06693 3.89330
# Velocity P-wave (km/s) = 6.51847 7.71198 7.14020
#
# Compressibility (1/GPa) = 0.02124574
#
# Stress axis : x y z
#
# Youngs Moduli (GPa) = 114.29381 42.71235 56.81418
#
# Poissons Ratio (x) = 0.22256 0.33138
# Poissons Ratio (y) = 0.59555 0.18268
# Poissons Ratio (z) = 0.66664 0.13733
#
# Static dielectric constant tensor:
#      x y z
#    x 4.072990 0.000000 0.000000 
#    y 0.000000 3.510710 0.000000 
#    z 0.000000 0.000000 3.446700 
# 
# 
# High freq. dielectric constant tensor:
#      x y z
#    x 1.769000 0.000000 0.000000 
#    y 0.000000 1.755860 0.000000 
#    z 0.000000 0.000000 1.746860 
# 
# From -- ./inp_files/10650.got.cif
#   From: 2010.03.12/outbox.cif.g09.slc.cpg/sg39_6_cif.got.tgz:10650.got - 2010.04.14 02:53:20.
