data_PCOD8180815
_publ_section_title
;
Structure prediction by ZEFSAII (Michael W. Deem and Ramdas Pophale) SiO2 
 PCOD8180815
Probable space group: A B M 2
;
_chemical_formula_sum "Si O2"
_cell_formula_units_Z 64
_cell_length_a 9.034265
_cell_length_b 18.669333
_cell_length_c 19.999723
_cell_angle_alpha 90.000000
_cell_angle_beta 90.000000
_cell_angle_gamma 90.000000
_cell_volume 3373.227314
_symmetry_space_group_name_H-M "A B M 2"
_symmetry_group_IT_number 39
_symmetry_cell_setting 'orthorhombic'
loop_
_space_group_symop_operation_xyz
x,y,z
-x,-y,z
-x,1/2+y,z
x,1/2-y,z
x,1/2+y,1/2+z
-x,1/2-y,1/2+z
-x,y,1/2+z
x,-y,1/2+z
loop_
_atom_site_type_symbol
_atom_site_label
_atom_site_fract_x
_atom_site_fract_y
_atom_site_fract_z
Si Si1 0.219649 0.896063 0.580580
Si Si2 0.306141 0.870724 0.114172
Si Si3 0.168588 0.490461 0.689729
Si Si4 0.581866 0.673402 0.184505
Si Si5 0.502216 0.421502 0.001869
Si Si6 0.063763 0.671359 0.017441
Si Si7 0.702233 0.164440 0.909407
Si Si8 0.620309 0.058856 0.791951
O O1 0.203273 0.969577 0.620422
O O2 0.276153 0.839248 0.636181
O O3 0.335685 0.900907 0.520604
O O4 0.064592 0.880082 0.543937
O O5 0.431846 0.818468 0.142211
O O6 0.392270 0.928301 0.067046
O O7 0.192151 0.823289 0.072514
O O8 0.216466 0.909311 0.174015
O O9 0.250464 0.515720 0.756130
O O10 0.000000 0.500000 0.709166
O O11 0.610589 0.750000 0.220335
O O12 0.547932 0.610350 0.236540
O O13 0.500000 0.500000 0.966783
O O14 0.561427 0.358512 0.954000
O O15 0.994486 0.750000 0.007784
O O16 0.142642 0.647025 0.947817
O O17 0.691062 0.250000 0.892509
O O18 0.694288 0.111658 0.846059
O O19 0.500000 0.000000 0.818640
#
# Coordination Sequence:
#
# PCOD8180815 Si02
#       8
#     8   8   8   8   8   8   8   8
#     4  10  20  31  58  89 120 145 183 232 290 350
#     4  10  18  32  55  84 116 147 180 226 291 346
#     4  11  20  35  58  86 119 149 182 238 292 341
#     4  10  20  33  56  86 117 150 188 235 287 341
#     4  10  19  33  58  87 116 146 184 235 284 337
#     4  10  20  35  55  83 118 153 183 228 289 354
#     4  10  23  41  58  78 114 158 198 236 284 339
#     4  11  22  39  61  82 109 152 205 246 279 330
#
# _framework density 18.972928
#
# number of rings (size 3 to 8) (size 9 to 14) (size 15 to 20)
#    0.000    1.750    3.750    1.500    0.000    3.500 
#    0.000    2.500    0.000    0.000    0.000    0.000 
#    0.000    0.000    0.000    0.000    0.000    0.000 
#
# Total GULP energy -396485.056863 kJ/mol
# GULP energy per Si atom -12390.158027 kJ/mol
# Density = 1.892974 g / cm^3
# Si number density = 18.972928 Si / 1000 Ang^3
#
#
#
# Elastic Constant Matrix: (Units=GPa)
#
#
# Indices 1 2 3 4 5 6 
#
# 1 92.5613 13.7952 29.3274 0.0000 0.0000 0.0000
# 2 13.7952 88.4946 27.5850 0.0000 0.0000 0.0000
# 3 29.3274 27.5850 83.5642 0.0000 0.0000 0.0000
# 4 0.0000 0.0000 0.0000 21.5286 0.0000 0.0000
# 5 0.0000 0.0000 0.0000 0.0000 23.4778 0.0000
# 6 0.0000 0.0000 0.0000 0.0000 0.0000 14.0573
#
#
#
# Elastic Compliance Matrix: (Units=1/GPa)
#
#
# Indices 1 2 3 4 5 6 
#
# 1 0.012187 -0.000632 -0.004069 0.000000 0.000000 0.000000
# 2 -0.000632 0.012629 -0.003947 0.000000 0.000000 0.000000
# 3 -0.004069 -0.003947 0.014698 0.000000 0.000000 0.000000
# 4 0.000000 0.000000 0.000000 0.046450 0.000000 0.000000
# 5 0.000000 0.000000 0.000000 0.000000 0.042593 0.000000
# 6 0.000000 0.000000 0.000000 0.000000 0.000000 0.071137
#
#
# Mechanical properties :
#
#
# Convention : Reuss Voigt Hill
#
# Bulk Modulus (GPa) = 45.00684 45.11504 45.06094
# Shear Modulus (GPa) = 22.28211 24.74025 23.51118
#
# Velocity S-wave (km/s) = 3.43069 3.61498 3.52404
# Velocity P-wave (km/s) = 6.28220 6.42296 6.35297
#
# Compressibility (1/GPa) = 0.02221884
#
# Stress axis : x y z
#
# Youngs Moduli (GPa) = 82.05551 79.18295 68.03760
#
# Poissons Ratio (x) = 0.05001 0.27682
# Poissons Ratio (y) = 0.05182 0.26856
# Poissons Ratio (z) = 0.33385 0.31256
#
# Static dielectric constant tensor:
#      x y z
#    x 3.516540 0.000000 0.000000 
#    y 0.000000 3.385990 0.000000 
#    z 0.000000 0.000000 3.310730 
# 
# 
# High freq. dielectric constant tensor:
#      x y z
#    x 1.734480 0.000000 0.000000 
#    y 0.000000 1.740140 0.000000 
#    z 0.000000 0.000000 1.715180 
# 
# From -- ./inp_files/11959.got.cif
#   From: 2010.03.12/outbox.cif.g09.slc.cpg/sg39_6_cif.got.tgz:11959.got - 2010.04.14 02:53:20.
