data_PCOD8180179
_publ_section_title
;
Structure prediction by ZEFSAII (Michael W. Deem and Ramdas Pophale) SiO2 
 PCOD8180179
Probable space group: A M M 2
;
_chemical_formula_sum "Si O2"
_cell_formula_units_Z 56
_cell_length_a 16.418141
_cell_length_b 8.773418
_cell_length_c 19.046613
_cell_angle_alpha 90.000000
_cell_angle_beta 90.000000
_cell_angle_gamma 90.000000
_cell_volume 2743.535348
_symmetry_space_group_name_H-M "A M M 2"
_symmetry_group_IT_number 38
_symmetry_cell_setting 'orthorhombic'
loop_
_space_group_symop_operation_xyz
x,y,z
-x,-y,z
-x,y,z
x,-y,z
x,1/2+y,1/2+z
-x,1/2-y,1/2+z
-x,1/2+y,1/2+z
x,1/2-y,1/2+z
loop_
_atom_site_type_symbol
_atom_site_label
_atom_site_fract_x
_atom_site_fract_y
_atom_site_fract_z
Si Si1 0.000000 0.180968 0.475960
Si Si2 0.319958 0.322861 0.162554
Si Si3 0.000000 0.318639 0.137054
Si Si4 0.409543 0.670924 0.778737
Si Si5 0.853801 0.680030 0.388966
Si Si6 0.848744 0.181129 0.728409
Si Si7 0.312152 0.674199 0.917081
Si Si8 0.592702 0.821890 0.036268
O O1 0.078591 0.240395 0.435803
O O2 0.000000 0.241401 0.556749
O O3 0.000000 0.000000 0.475269
O O4 0.315143 0.500000 0.143237
O O5 0.390754 0.293833 0.218953
O O6 0.235098 0.259907 0.194008
O O7 0.341721 0.228854 0.093651
O O8 0.078633 0.256715 0.179237
O O9 0.000000 0.500000 0.137332
O O10 0.500000 0.702763 0.808099
O O11 0.404537 0.500000 0.746713
O O12 0.343487 0.690312 0.838578
O O13 0.866799 0.500000 0.391668
O O14 0.858842 0.741137 0.308433
O O15 0.768070 0.723232 0.424154
O O16 0.847997 0.000000 0.730735
O O17 0.291112 0.500000 0.936385
O O18 0.384498 0.734771 0.965506
O O19 0.500000 0.778072 0.057644
O O20 0.600796 0.000000 0.022887
#
# Coordination Sequence:
#
# PCOD8180179 Si02
#       8
#     4   8   4   8   8   8   8   8
#     4  11  24  39  63  97 128 161 208 260 311 369
#     4  11  22  37  61  92 123 160 210 256 305 374
#     4   9  19  37  61  89 122 159 202 250 297 353
#     4  10  21  38  60  87 122 162 203 253 312 368
#     4  11  22  41  66  92 127 165 207 256 311 374
#     4   9  19  37  62  90 120 160 205 247 298 363
#     4  11  23  40  64  92 124 162 210 261 314 374
#     4  11  25  43  61  86 124 168 212 261 319 377
#
# _framework density 20.411619000000002
#
# number of rings (size 3 to 8) (size 9 to 14) (size 15 to 20)
#    0.000    1.571    1.429    3.214    2.000    5.429 
#    0.000    0.000    0.000    5.143    0.000    0.000 
#    0.000    0.000    0.000    0.000    0.000    0.000 
#
# Total GULP energy -347256.192461 kJ/mol
# GULP energy per Si atom -12402.006874 kJ/mol
# Density = 2.036516 g / cm^3
# Si number density = 20.411619 Si / 1000 Ang^3
#
#
#
# Elastic Constant Matrix: (Units=GPa)
#
#
# Indices 1 2 3 4 5 6 
#
# 1 122.3272 25.2447 43.6373 0.0000 0.0000 0.0000
# 2 25.2447 56.0033 34.6804 0.0000 0.0000 0.0000
# 3 43.6373 34.6804 110.2555 0.0000 0.0000 0.0000
# 4 0.0000 0.0000 0.0000 33.7059 0.0000 0.0000
# 5 0.0000 0.0000 0.0000 0.0000 41.8773 0.0000
# 6 0.0000 0.0000 0.0000 0.0000 0.0000 31.3561
#
#
#
# Elastic Compliance Matrix: (Units=1/GPa)
#
#
# Indices 1 2 3 4 5 6 
#
# 1 0.009793 -0.002501 -0.003089 0.000000 0.000000 0.000000
# 2 -0.002501 0.022814 -0.006186 0.000000 0.000000 0.000000
# 3 -0.003089 -0.006186 0.012238 0.000000 0.000000 0.000000
# 4 0.000000 0.000000 0.000000 0.029668 0.000000 0.000000
# 5 0.000000 0.000000 0.000000 0.000000 0.023879 0.000000
# 6 0.000000 0.000000 0.000000 0.000000 0.000000 0.031892
#
#
# Mechanical properties :
#
#
# Convention : Reuss Voigt Hill
#
# Bulk Modulus (GPa) = 46.96521 55.07896 51.02209
# Shear Modulus (GPa) = 31.06825 33.72276 32.39551
#
# Velocity S-wave (km/s) = 3.90563 4.06906 3.98818
# Velocity P-wave (km/s) = 6.58768 7.00849 6.80134
#
# Compressibility (1/GPa) = 0.02129235
#
# Stress axis : x y z
#
# Youngs Moduli (GPa) = 102.11394 43.83179 81.71082
#
# Poissons Ratio (x) = 0.10964 0.25241
# Poissons Ratio (y) = 0.25543 0.50548
# Poissons Ratio (z) = 0.31544 0.27115
#
# Static dielectric constant tensor:
#      x y z
#    x 3.910560 0.000000 0.000000 
#    y 0.000000 3.523790 0.000000 
#    z 0.000000 0.000000 3.800490 
# 
# 
# High freq. dielectric constant tensor:
#      x y z
#    x 1.811000 0.000000 0.000000 
#    y 0.000000 1.779270 0.000000 
#    z 0.000000 0.000000 1.804640 
# 
# From -- ./inp_files/21172.got.cif
#   From: 2010.03.12/outbox.cif.g09.slc.cpg/sg38_11_cif.got.tgz:21172.got - 2010.04.14 02:38:36.
