data_PCOD8180612
_publ_section_title
;
Structure prediction by ZEFSAII (Michael W. Deem and Ramdas Pophale) SiO2 
 PCOD8180612
Probable space group: A B M 2
;
_chemical_formula_sum "Si O2"
_cell_formula_units_Z 64
_cell_length_a 34.367798
_cell_length_b 17.772037
_cell_length_c 5.187785
_cell_angle_alpha 90.000000
_cell_angle_beta 90.000000
_cell_angle_gamma 90.000000
_cell_volume 3168.625296
_symmetry_space_group_name_H-M "A B M 2"
_symmetry_group_IT_number 39
_symmetry_cell_setting 'orthorhombic'
loop_
_space_group_symop_operation_xyz
x,y,z
-x,-y,z
-x,1/2+y,z
x,1/2-y,z
x,1/2+y,1/2+z
-x,1/2-y,1/2+z
-x,y,1/2+z
x,-y,1/2+z
loop_
_atom_site_type_symbol
_atom_site_label
_atom_site_fract_x
_atom_site_fract_y
_atom_site_fract_z
Si Si1 0.016907 0.083447 0.759930
Si Si2 0.704552 0.948168 0.200295
Si Si3 0.543224 0.470245 0.325886
Si Si4 0.584043 0.666255 0.675614
Si Si5 0.633318 0.163597 0.675984
Si Si6 0.894628 0.548655 0.743422
Si Si7 0.173896 0.336267 0.686010
Si Si8 0.776445 0.662902 0.182678
O O1 0.062763 0.083893 0.715815
O O2 0.995167 0.125786 0.524293
O O3 0.000000 0.000000 0.808913
O O4 0.667191 0.895374 0.223557
O O5 0.740919 0.892922 0.222504
O O6 0.704988 0.007944 0.430952
O O7 0.500000 0.500000 0.389791
O O8 0.564641 0.480657 0.601734
O O9 0.545909 0.384358 0.231898
O O10 0.568024 0.750000 0.698456
O O11 0.600745 0.649357 0.393524
O O12 0.616680 0.649502 0.890342
O O13 0.648543 0.250000 0.699197
O O14 0.888218 0.486328 0.524610
O O15 0.864775 0.615720 0.706875
O O16 0.161184 0.250000 0.714121
O O17 0.193333 0.352316 0.411373
O O18 0.203896 0.357897 0.911419
O O19 0.762253 0.750000 0.185854
#
# Coordination Sequence:
#
# PCOD8180612 Si02
#       8
#     8   8   8   8   8   8   8   8
#     4  10  16  30  48  74 107 138 176 222 273 336
#     4  12  25  38  60  92 122 148 186 243 290 331
#     4  10  21  37  56  83 115 152 191 235 298 353
#     4  10  21  38  61  85 115 154 200 245 282 335
#     4  10  22  40  60  86 118 157 197 233 285 355
#     4  12  21  32  56  86 106 142 185 237 278 329
#     4  10  23  40  58  81 113 150 190 232 285 338
#     4  10  22  43  62  77 110 161 193 222 278 347
#
# _framework density 20.198034
#
# number of rings (size 3 to 8) (size 9 to 14) (size 15 to 20)
#    0.000    1.500    2.500    3.375    0.000    6.000 
#    0.000    7.500    0.000    0.750    0.000    0.000 
#    0.000    0.000    0.000    0.000    0.000    0.000 
#
# Total GULP energy -396681.828455 kJ/mol
# GULP energy per Si atom -12396.307139 kJ/mol
# Density = 2.015206 g / cm^3
# Si number density = 20.198034 Si / 1000 Ang^3
#
#
#
# Elastic Constant Matrix: (Units=GPa)
#
#
# Indices 1 2 3 4 5 6 
#
# 1 72.5686 47.3279 -2.7549 0.0000 0.0000 0.0000
# 2 47.3279 78.0369 11.2799 0.0000 0.0000 0.0000
# 3 -2.7549 11.2799 118.5804 0.0000 0.0000 0.0000
# 4 0.0000 0.0000 0.0000 101.6988 0.0000 0.0000
# 5 0.0000 0.0000 0.0000 0.0000 11.4458 0.0000
# 6 0.0000 0.0000 0.0000 0.0000 0.0000 7.6527
#
#
#
# Elastic Compliance Matrix: (Units=1/GPa)
#
#
# Indices 1 2 3 4 5 6 
#
# 1 0.023214 -0.014354 0.001905 0.000000 0.000000 0.000000
# 2 -0.014354 0.021869 -0.002414 0.000000 0.000000 0.000000
# 3 0.001905 -0.002414 0.008707 0.000000 0.000000 0.000000
# 4 0.000000 0.000000 0.000000 0.009833 0.000000 0.000000
# 5 0.000000 0.000000 0.000000 0.000000 0.087368 0.000000
# 6 0.000000 0.000000 0.000000 0.000000 0.000000 0.130673
#
#
# Mechanical properties :
#
#
# Convention : Reuss Voigt Hill
#
# Bulk Modulus (GPa) = 41.55681 42.32132 41.93906
# Shear Modulus (GPa) = 15.65379 38.38165 27.01772
#
# Velocity S-wave (km/s) = 2.78693 4.36393 3.66135
# Velocity P-wave (km/s) = 5.56555 6.81106 6.21956
#
# Compressibility (1/GPa) = 0.02406345
#
# Stress axis : x y z
#
# Youngs Moduli (GPa) = 43.07773 45.72715 114.85073
#
# Poissons Ratio (x) = 0.65637 -0.21876
# Poissons Ratio (y) = 0.61834 0.27722
# Poissons Ratio (z) = -0.08205 0.11037
#
# Static dielectric constant tensor:
#      x y z
#    x 3.512970 0.000000 0.000000 
#    y 0.000000 3.539220 0.000000 
#    z 0.000000 0.000000 4.440110 
# 
# 
# High freq. dielectric constant tensor:
#      x y z
#    x 1.774590 0.000000 0.000000 
#    y 0.000000 1.775560 0.000000 
#    z 0.000000 0.000000 1.826120 
# 
# From -- ./inp_files/1542.got.cif
#   From: 2010.03.12/outbox.cif.g09.slc.cpg/sg39_1_cif.got.tgz:1542.got - 2010.04.14 02:53:20.
