data_PCOD8180817
_publ_section_title
;
Structure prediction by ZEFSAII (Michael W. Deem and Ramdas Pophale) SiO2 
 PCOD8180817
Probable space group: A B M 2
;
_chemical_formula_sum "Si O2"
_cell_formula_units_Z 64
_cell_length_a 16.494265
_cell_length_b 22.317597
_cell_length_c 8.628377
_cell_angle_alpha 90.000000
_cell_angle_beta 90.000000
_cell_angle_gamma 90.000000
_cell_volume 3176.212213
_symmetry_space_group_name_H-M "A B M 2"
_symmetry_group_IT_number 39
_symmetry_cell_setting 'orthorhombic'
loop_
_space_group_symop_operation_xyz
x,y,z
-x,-y,z
-x,1/2+y,z
x,1/2-y,z
x,1/2+y,1/2+z
-x,1/2-y,1/2+z
-x,y,1/2+z
x,-y,1/2+z
loop_
_atom_site_type_symbol
_atom_site_label
_atom_site_fract_x
_atom_site_fract_y
_atom_site_fract_z
Si Si1 0.737921 0.818519 0.373490
Si Si2 0.999113 0.886083 0.109503
Si Si3 0.844137 0.037193 0.651863
Si Si4 0.592676 0.178303 0.369890
Si Si5 0.572084 0.679851 0.521443
Si Si6 0.909957 0.316997 0.374553
Si Si7 0.843235 0.920622 0.479818
Si Si8 0.244420 0.856416 0.523333
O O1 0.754409 0.750000 0.422916
O O2 0.644414 0.836206 0.403059
O O3 0.792251 0.859024 0.489654
O O4 0.760093 0.826242 0.193500
O O5 0.053894 0.865439 0.254964
O O6 0.938275 0.941494 0.141377
O O7 0.061579 0.904889 0.973937
O O8 0.947673 0.830132 0.044620
O O9 0.814791 0.045361 0.826406
O O10 0.786900 0.075363 0.537267
O O11 0.831150 0.966798 0.620996
O O12 0.603262 0.250000 0.382308
O O13 0.511158 0.154078 0.451967
O O14 0.590588 0.154979 0.192953
O O15 0.665379 0.145464 0.458047
O O16 0.560222 0.750000 0.536364
O O17 0.931540 0.250000 0.320141
O O18 0.813097 0.322672 0.398673
#
# Coordination Sequence:
#
# PCOD8180817 Si02
#       8
#     8   8   8   8   8   8   8   8
#     4  10  21  39  60  90 126 159 200 252 315 371
#     4  11  23  40  57  84 114 155 205 253 304 364
#     4  10  24  41  59  85 113 154 206 254 307 353
#     4  10  18  32  55  86 123 166 206 248 301 364
#     4   9  19  32  54  87 124 164 204 246 302 367
#     4  11  23  38  57  85 122 162 200 250 316 372
#     4  11  24  40  63  84 113 155 199 255 299 361
#     4  10  22  38  58  87 122 165 206 253 307 362
#
# _framework density 20.149787
#
# number of rings (size 3 to 8) (size 9 to 14) (size 15 to 20)
#    0.000    1.750    1.250    2.625    5.250    4.000 
#    0.000    0.000    0.000    0.750    0.000    5.250 
#    0.000    0.000    0.000    0.000    0.000    0.000 
#
# Total GULP energy -396698.431025 kJ/mol
# GULP energy per Si atom -12396.825970 kJ/mol
# Density = 2.010393 g / cm^3
# Si number density = 20.149787 Si / 1000 Ang^3
#
#
#
# Elastic Constant Matrix: (Units=GPa)
#
#
# Indices 1 2 3 4 5 6 
#
# 1 125.9181 47.7132 35.2069 0.0000 0.0000 0.0000
# 2 47.7132 89.2611 27.7624 0.0000 0.0000 0.0000
# 3 35.2069 27.7624 74.4529 0.0000 0.0000 0.0000
# 4 0.0000 0.0000 0.0000 26.7937 0.0000 0.0000
# 5 0.0000 0.0000 0.0000 0.0000 41.6309 0.0000
# 6 0.0000 0.0000 0.0000 0.0000 0.0000 16.0547
#
#
#
# Elastic Compliance Matrix: (Units=1/GPa)
#
#
# Indices 1 2 3 4 5 6 
#
# 1 0.010626 -0.004657 -0.003288 0.000000 0.000000 0.000000
# 2 -0.004657 0.014714 -0.003284 0.000000 0.000000 0.000000
# 3 -0.003288 -0.003284 0.016211 0.000000 0.000000 0.000000
# 4 0.000000 0.000000 0.000000 0.037322 0.000000 0.000000
# 5 0.000000 0.000000 0.000000 0.000000 0.024021 0.000000
# 6 0.000000 0.000000 0.000000 0.000000 0.000000 0.062287
#
#
# Mechanical properties :
#
#
# Convention : Reuss Voigt Hill
#
# Bulk Modulus (GPa) = 52.37961 56.77746 54.57853
# Shear Modulus (GPa) = 25.77273 28.82582 27.29928
#
# Velocity S-wave (km/s) = 3.58027 3.78640 3.68478
# Velocity P-wave (km/s) = 6.56831 6.88147 6.72671
#
# Compressibility (1/GPa) = 0.01909140
#
# Stress axis : x y z
#
# Youngs Moduli (GPa) = 94.11135 67.96238 61.68706
#
# Poissons Ratio (x) = 0.31651 0.20283
# Poissons Ratio (y) = 0.43829 0.20260
# Poissons Ratio (z) = 0.30944 0.22322
#
# Static dielectric constant tensor:
#      x y z
#    x 3.731950 0.000000 0.000000 
#    y 0.000000 3.376420 0.000000 
#    z 0.000000 0.000000 3.660980 
# 
# 
# High freq. dielectric constant tensor:
#      x y z
#    x 1.786820 0.000000 0.000000 
#    y 0.000000 1.753560 0.000000 
#    z 0.000000 0.000000 1.794400 
# 
# From -- ./inp_files/3531.got.cif
#   From: 2010.03.12/outbox.cif.g09.slc.cpg/sg39_2_cif.got.tgz:3531.got - 2010.04.14 02:53:20.
