data_PCOD8180126
_publ_section_title
;
Structure prediction by ZEFSAII (Michael W. Deem and Ramdas Pophale) SiO2 
 PCOD8180126
Probable space group: A M M 2
;
_chemical_formula_sum "Si O2"
_cell_formula_units_Z 48
_cell_length_a 8.881319
_cell_length_b 23.037725
_cell_length_c 11.665484
_cell_angle_alpha 90.000000
_cell_angle_beta 90.000000
_cell_angle_gamma 90.000000
_cell_volume 2386.820842
_symmetry_space_group_name_H-M "A M M 2"
_symmetry_group_IT_number 38
_symmetry_cell_setting 'orthorhombic'
loop_
_space_group_symop_operation_xyz
x,y,z
-x,-y,z
-x,y,z
x,-y,z
x,1/2+y,1/2+z
-x,1/2-y,1/2+z
-x,1/2+y,1/2+z
x,1/2-y,1/2+z
loop_
_atom_site_type_symbol
_atom_site_label
_atom_site_fract_x
_atom_site_fract_y
_atom_site_fract_z
Si Si1 0.672976 0.276176 0.995670
Si Si2 0.179442 0.639894 0.838075
Si Si3 0.827535 0.562148 0.041009
Si Si4 0.827550 0.839613 0.703920
Si Si5 0.821569 0.066974 0.118148
Si Si6 0.671074 0.147172 0.941157
O O1 0.500000 0.296639 0.000981
O O2 0.744171 0.298318 0.872890
O O3 0.685200 0.207028 0.010265
O O4 0.765316 0.298460 0.104515
O O5 0.244532 0.598585 0.938195
O O6 0.234880 0.609623 0.720449
O O7 0.000000 0.648466 0.838771
O O8 0.745462 0.500000 0.051381
O O9 0.000000 0.553203 0.006288
O O10 0.814459 0.594019 0.162202
O O11 0.730822 0.836421 0.816886
O O12 0.000000 0.821794 0.728422
O O13 0.000000 0.066183 0.114971
O O14 0.763622 0.000000 0.132790
O O15 0.762595 0.094904 0.000282
O O16 0.500000 0.126026 0.931884
#
# Coordination Sequence:
#
# PCOD8180126 Si02
#       6
#     8   8   8   8   8   8
#     4  10  22  39  59  84 118 156 195 244 304 363
#     4   9  18  34  59  90 117 149 194 246 295 348
#     4   8  14  28  53  83 112 141 176 225 285 339
#     4  10  21  37  59  86 113 146 194 248 298 351
#     4  10  22  40  62  90 123 160 204 252 301 355
#     4  11  25  41  58  82 118 162 201 243 300 364
#
# _framework density 20.110431999999999
#
# number of rings (size 3 to 8) (size 9 to 14) (size 15 to 20)
#    0.000    2.333    0.000    3.000    2.333    6.333 
#    0.000    1.667    0.000   16.000    0.000    0.000 
#    0.000    0.000    0.000    0.000    0.000    0.000 
#
# Total GULP energy -297439.452665 kJ/mol
# GULP energy per Si atom -12393.310528 kJ/mol
# Density = 2.006466 g / cm^3
# Si number density = 20.110432 Si / 1000 Ang^3
#
#
#
# Elastic Constant Matrix: (Units=GPa)
#
#
# Indices 1 2 3 4 5 6 
#
# 1 42.4059 31.8774 15.5780 0.0000 0.0000 0.0000
# 2 31.8774 81.6389 22.1528 0.0000 0.0000 0.0000
# 3 15.5780 22.1528 88.6913 0.0000 0.0000 0.0000
# 4 0.0000 0.0000 0.0000 21.7077 0.0000 0.0000
# 5 0.0000 0.0000 0.0000 0.0000 24.6916 0.0000
# 6 0.0000 0.0000 0.0000 0.0000 0.0000 21.0764
#
#
#
# Elastic Compliance Matrix: (Units=1/GPa)
#
#
# Indices 1 2 3 4 5 6 
#
# 1 0.034039 -0.012517 -0.002852 0.000000 0.000000 0.000000
# 2 -0.012517 0.017743 -0.002233 0.000000 0.000000 0.000000
# 3 -0.002852 -0.002233 0.012334 0.000000 0.000000 0.000000
# 4 0.000000 0.000000 0.000000 0.046067 0.000000 0.000000
# 5 0.000000 0.000000 0.000000 0.000000 0.040500 0.000000
# 6 0.000000 0.000000 0.000000 0.000000 0.000000 0.047446
#
#
# Mechanical properties :
#
#
# Convention : Reuss Voigt Hill
#
# Bulk Modulus (GPa) = 34.58976 39.10583 36.84780
# Shear Modulus (GPa) = 20.57874 23.03701 21.80788
#
# Velocity S-wave (km/s) = 3.20236 3.38823 3.29660
# Velocity P-wave (km/s) = 5.55974 5.89869 5.73172
#
# Compressibility (1/GPa) = 0.02891029
#
# Stress axis : x y z
#
# Youngs Moduli (GPa) = 29.37829 56.36181 81.07797
#
# Poissons Ratio (x) = 0.70548 0.23125
# Poissons Ratio (y) = 0.36773 0.18105
# Poissons Ratio (z) = 0.08379 0.12586
#
# Static dielectric constant tensor:
#      x y z
#    x 3.452360 0.000000 0.000000 
#    y 0.000000 4.042510 0.000000 
#    z 0.000000 0.000000 3.564810 
# 
# 
# High freq. dielectric constant tensor:
#      x y z
#    x 1.764200 0.000000 0.000000 
#    y 0.000000 1.793450 0.000000 
#    z 0.000000 0.000000 1.781630 
# 
# From -- ./inp_files/8151.got.cif
#   From: 2010.03.12/outbox.cif.g09.slc.cpg/sg38_5_cif.got.tgz:8151.got - 2010.04.14 02:38:36.
