data_PCOD8180704
_publ_section_title
;
Structure prediction by ZEFSAII (Michael W. Deem and Ramdas Pophale) SiO2 
 PCOD8180704
Probable space group: A B M 2
;
_chemical_formula_sum "Si O2"
_cell_formula_units_Z 48
_cell_length_a 12.797978
_cell_length_b 9.370313
_cell_length_c 23.523812
_cell_angle_alpha 90.000000
_cell_angle_beta 90.000000
_cell_angle_gamma 90.000000
_cell_volume 2821.000462
_symmetry_space_group_name_H-M "A B M 2"
_symmetry_group_IT_number 39
_symmetry_cell_setting 'orthorhombic'
loop_
_space_group_symop_operation_xyz
x,y,z
-x,-y,z
-x,1/2+y,z
x,1/2-y,z
x,1/2+y,1/2+z
-x,1/2-y,1/2+z
-x,y,1/2+z
x,-y,1/2+z
loop_
_atom_site_type_symbol
_atom_site_label
_atom_site_fract_x
_atom_site_fract_y
_atom_site_fract_z
Si Si1 0.732461 0.407460 0.622890
Si Si2 0.894165 0.418340 0.530483
Si Si3 0.898558 0.913509 0.902118
Si Si4 0.209519 0.912718 0.291390
Si Si5 0.605507 0.081472 0.208265
Si Si6 0.913320 0.404716 0.710992
O O1 0.681555 0.250000 0.610429
O O2 0.793391 0.468002 0.567507
O O3 0.648777 0.520045 0.647864
O O4 0.816062 0.384325 0.671316
O O5 0.913478 0.250000 0.540358
O O6 0.864261 0.457799 0.465704
O O7 0.000000 0.500000 0.548889
O O8 0.933911 0.750000 0.901789
O O9 0.798726 0.936899 0.859776
O O10 0.000000 0.000000 0.881992
O O11 0.184124 0.750000 0.275296
O O12 0.320512 0.952137 0.262749
O O13 0.117933 0.011526 0.267657
O O14 0.586442 0.250000 0.200554
O O15 0.500000 0.000000 0.223537
O O16 0.959066 0.250000 0.727689
O O17 0.000000 0.500000 0.678769
#
# Coordination Sequence:
#
# PCOD8180704 Si02
#       6
#     8   8   8   8   8   8
#     4   9  18  31  46  66  91 120 153 187 226 271
#     4   9  17  29  46  68  96 129 160 189 220 259
#     4   9  17  29  45  67  95 127 159 187 218 259
#     4   9  18  31  46  65  89 118 152 187 226 272
#     4  10  20  34  52  71  90 114 147 191 240 285
#     4  10  18  26  39  61  90 120 149 183 223 268
#
# _framework density 17.015241
#
# number of rings (size 3 to 8) (size 9 to 14) (size 15 to 20)
#    0.000    2.667    0.000    2.000    0.000    4.000 
#    0.000    0.000    0.000    1.000    0.000    2.333 
#    0.000    0.000    0.000    0.000    0.000    0.000 
#
# Total GULP energy -297343.217999 kJ/mol
# GULP energy per Si atom -12389.300750 kJ/mol
# Density = 1.697651 g / cm^3
# Si number density = 17.015241 Si / 1000 Ang^3
#
#
#
# Elastic Constant Matrix: (Units=GPa)
#
#
# Indices 1 2 3 4 5 6 
#
# 1 77.4185 45.4802 43.2518 0.0000 0.0000 0.0000
# 2 45.4802 92.1913 31.5783 0.0000 0.0000 0.0000
# 3 43.2518 31.5783 100.5988 0.0000 0.0000 0.0000
# 4 0.0000 0.0000 0.0000 18.3888 0.0000 0.0000
# 5 0.0000 0.0000 0.0000 0.0000 22.4801 0.0000
# 6 0.0000 0.0000 0.0000 0.0000 0.0000 27.7593
#
#
#
# Elastic Compliance Matrix: (Units=1/GPa)
#
#
# Indices 1 2 3 4 5 6 
#
# 1 0.021527 -0.008347 -0.006635 0.000000 0.000000 0.000000
# 2 -0.008347 0.015390 -0.001242 0.000000 0.000000 0.000000
# 3 -0.006635 -0.001242 0.013183 0.000000 0.000000 0.000000
# 4 0.000000 0.000000 0.000000 0.054381 0.000000 0.000000
# 5 0.000000 0.000000 0.000000 0.000000 0.044484 0.000000
# 6 0.000000 0.000000 0.000000 0.000000 0.000000 0.036024
#
#
# Mechanical properties :
#
#
# Convention : Reuss Voigt Hill
#
# Bulk Modulus (GPa) = 56.65266 56.75882 56.70574
# Shear Modulus (GPa) = 22.38907 23.71888 23.05397
#
# Velocity S-wave (km/s) = 3.63136 3.73765 3.68489
# Velocity P-wave (km/s) = 7.13792 7.21504 7.17658
#
# Compressibility (1/GPa) = 0.01765142
#
# Stress axis : x y z
#
# Youngs Moduli (GPa) = 46.45223 64.97559 75.85371
#
# Poissons Ratio (x) = 0.54236 0.50332
# Poissons Ratio (y) = 0.38775 0.09423
# Poissons Ratio (z) = 0.30823 0.08072
#
# Static dielectric constant tensor:
#      x y z
#    x 3.067200 0.000000 0.000000 
#    y 0.000000 3.741450 0.000000 
#    z 0.000000 0.000000 3.335310 
# 
# 
# High freq. dielectric constant tensor:
#      x y z
#    x 1.623200 0.000000 0.000000 
#    y 0.000000 1.665980 0.000000 
#    z 0.000000 0.000000 1.650650 
# 
# From -- ./inp_files/14605.got.cif
#   From: 2010.03.12/outbox.cif.g09.slc.cpg/sg39_8_cif.got.tgz:14605.got - 2010.04.14 02:53:20.
