data_PCOD8180691
_publ_section_title
;
Structure prediction by ZEFSAII (Michael W. Deem and Ramdas Pophale) SiO2 
 PCOD8180691
Probable space group: A B M 2
;
_chemical_formula_sum "Si O2"
_cell_formula_units_Z 40
_cell_length_a 15.023620
_cell_length_b 8.575234
_cell_length_c 15.056552
_cell_angle_alpha 90.000000
_cell_angle_beta 90.000000
_cell_angle_gamma 90.000000
_cell_volume 1939.751509
_symmetry_space_group_name_H-M "A B M 2"
_symmetry_group_IT_number 39
_symmetry_cell_setting 'orthorhombic'
loop_
_space_group_symop_operation_xyz
x,y,z
-x,-y,z
-x,1/2+y,z
x,1/2-y,z
x,1/2+y,1/2+z
-x,1/2-y,1/2+z
-x,y,1/2+z
x,-y,1/2+z
loop_
_atom_site_type_symbol
_atom_site_label
_atom_site_fract_x
_atom_site_fract_y
_atom_site_fract_z
Si Si1 0.720846 0.069298 0.362130
Si Si2 0.598328 0.064477 0.516929
Si Si3 0.090423 0.568229 0.658274
Si Si4 0.275320 0.935074 0.161605
Si Si5 0.915200 0.568575 0.851030
O O1 0.698762 0.250000 0.355163
O O2 0.651927 0.994411 0.431871
O O3 0.712561 0.999902 0.262601
O O4 0.821278 0.043514 0.400864
O O5 0.598008 0.250000 0.517472
O O6 0.500000 0.000000 0.511181
O O7 0.643413 0.004717 0.606611
O O8 0.094836 0.750000 0.637154
O O9 0.180814 0.490413 0.620366
O O10 0.087063 0.534247 0.762511
O O11 0.000000 0.500000 0.613122
O O12 0.277909 0.750000 0.159280
O O13 0.927969 0.750000 0.826617
O O14 0.000000 0.500000 0.906972
#
# Coordination Sequence:
#
# PCOD8180691 Si02
#       5
#     8   8   8   8   8
#     4   8  18  36  58  80 111 148 184 224 275 330
#     4  11  23  41  60  82 109 143 184 235 288 339
#     4  10  17  28  49  80 114 151 188 227 271 325
#     4  10  20  38  60  85 114 149 187 230 278 333
#     4   9  15  27  48  77 110 147 184 224 270 325
#
# _framework density 20.621198
#
# number of rings (size 3 to 8) (size 9 to 14) (size 15 to 20)
#    0.000    2.400    0.000    6.000    0.000    0.800 
#    0.000   15.000    0.000    2.400    0.000    0.000 
#    0.000    0.000    0.000    0.000    0.000    0.000 
#
# Total GULP energy -247831.909876 kJ/mol
# GULP energy per Si atom -12391.595494 kJ/mol
# Density = 2.057426 g / cm^3
# Si number density = 20.621198 Si / 1000 Ang^3
#
#
#
# Elastic Constant Matrix: (Units=GPa)
#
#
# Indices 1 2 3 4 5 6 
#
# 1 204.1563 53.6476 68.2481 0.0000 0.0000 0.0000
# 2 53.6476 92.1221 27.5889 0.0000 0.0000 0.0000
# 3 68.2481 27.5889 81.5439 0.0000 0.0000 0.0000
# 4 0.0000 0.0000 0.0000 14.8848 0.0000 0.0000
# 5 0.0000 0.0000 0.0000 0.0000 4.5441 0.0000
# 6 0.0000 0.0000 0.0000 0.0000 0.0000 39.5991
#
#
#
# Elastic Compliance Matrix: (Units=1/GPa)
#
#
# Indices 1 2 3 4 5 6 
#
# 1 0.007366 -0.002719 -0.005245 0.000000 0.000000 0.000000
# 2 -0.002719 0.013083 -0.002151 0.000000 0.000000 0.000000
# 3 -0.005245 -0.002151 0.017381 0.000000 0.000000 0.000000
# 4 0.000000 0.000000 0.000000 0.067182 0.000000 0.000000
# 5 0.000000 0.000000 0.000000 0.000000 0.220066 0.000000
# 6 0.000000 0.000000 0.000000 0.000000 0.000000 0.025253
#
#
# Mechanical properties :
#
#
# Convention : Reuss Voigt Hill
#
# Bulk Modulus (GPa) = 56.81774 75.19905 66.00840
# Shear Modulus (GPa) = 13.28278 27.02812 20.15545
#
# Velocity S-wave (km/s) = 2.54073 3.62428 3.12975
# Velocity P-wave (km/s) = 6.01830 7.35255 6.71863
#
# Compressibility (1/GPa) = 0.01760014
#
# Stress axis : x y z
#
# Youngs Moduli (GPa) = 135.75749 76.43748 57.53431
#
# Poissons Ratio (x) = 0.20782 0.30178
# Poissons Ratio (y) = 0.36910 0.12374
# Poissons Ratio (z) = 0.71207 0.16440
#
# Static dielectric constant tensor:
#      x y z
#    x 4.350130 0.000000 0.000000 
#    y 0.000000 3.573800 0.000000 
#    z 0.000000 0.000000 3.591370 
# 
# 
# High freq. dielectric constant tensor:
#      x y z
#    x 1.823680 0.000000 0.000000 
#    y 0.000000 1.795960 0.000000 
#    z 0.000000 0.000000 1.774760 
# 
# From -- ./inp_files/9634.got.cif
#   From: 2010.03.12/outbox.cif.g09.slc.cpg/sg39_5_cif.got.tgz:9634.got - 2010.04.14 02:53:20.
