data_PCOD8180130
_publ_section_title
;
Structure prediction by ZEFSAII (Michael W. Deem and Ramdas Pophale) SiO2 
 PCOD8180130
Probable space group: A M M 2
;
_chemical_formula_sum "Si O2"
_cell_formula_units_Z 46
_cell_length_a 11.600767
_cell_length_b 11.413791
_cell_length_c 19.772547
_cell_angle_alpha 90.000000
_cell_angle_beta 90.000000
_cell_angle_gamma 90.000000
_cell_volume 2618.057837
_symmetry_space_group_name_H-M "A M M 2"
_symmetry_group_IT_number 38
_symmetry_cell_setting 'orthorhombic'
loop_
_space_group_symop_operation_xyz
x,y,z
-x,-y,z
-x,y,z
x,-y,z
x,1/2+y,1/2+z
-x,1/2-y,1/2+z
-x,1/2+y,1/2+z
x,1/2-y,1/2+z
loop_
_atom_site_type_symbol
_atom_site_label
_atom_site_fract_x
_atom_site_fract_y
_atom_site_fract_z
Si Si1 0.364735 0.133545 0.248910
Si Si2 0.634241 0.231873 0.613983
Si Si3 0.000000 0.629896 0.316934
Si Si4 0.782351 0.729913 0.869079
Si Si5 0.000000 0.500000 0.186492
Si Si6 0.864183 0.500000 0.945879
Si Si7 0.775408 0.500000 0.096191
Si Si8 0.367386 0.362601 0.477437
O O1 0.500000 0.141563 0.262513
O O2 0.330211 0.191049 0.178124
O O3 0.302942 0.201400 0.308585
O O4 0.322276 0.000000 0.247010
O O5 0.500000 0.200535 0.614476
O O6 0.668374 0.305815 0.548328
O O7 0.703172 0.112370 0.616827
O O8 0.111537 0.699083 0.339779
O O9 0.000000 0.615384 0.234942
O O10 0.000000 0.500000 0.350720
O O11 0.827016 0.613348 0.904548
O O12 0.714182 0.811449 0.920432
O O13 0.108698 0.500000 0.138281
O O14 0.000000 0.500000 0.958483
O O15 0.798415 0.500000 0.016624
O O16 0.500000 0.333977 0.459514
O O17 0.346352 0.500000 0.483382
#
# Coordination Sequence:
#
# PCOD8180130 Si02
#       8
#     8   8   4   8   2   4   4   8
#     4  10  21  37  59  87 120 159 198 243 293 353
#     4  10  21  37  59  87 120 159 198 243 293 353
#     4  10  24  40  60  88 110 156 194 248 302 344
#     4  12  21  40  61  86 122 150 205 241 304 361
#     4  10  24  40  60  88 110 156 194 248 302 344
#     4  12  24  39  61  92 115 159 192 253 305 361
#     4  12  21  40  61  86 122 150 205 241 304 361
#     4  10  21  37  59  87 120 159 198 243 293 353
#
# _framework density 17.570277000000001
#
# number of rings (size 3 to 8) (size 9 to 14) (size 15 to 20)
#    0.261    1.043    3.913    2.870    0.000    2.087 
#    1.565    0.000    0.000    0.000    0.000    0.000 
#    0.000    0.000    0.000    0.000    0.000    0.000 
#
# Total GULP energy -285255.961008 kJ/mol
# GULP energy per Si atom -12402.433087 kJ/mol
# Density = 1.753029 g / cm^3
# Si number density = 17.570277 Si / 1000 Ang^3
#
#
#
# Elastic Constant Matrix: (Units=GPa)
#
#
# Indices 1 2 3 4 5 6 
#
# 1 33.9371 35.9803 32.8407 0.0000 0.0000 0.0000
# 2 35.9803 116.6447 45.1882 0.0000 0.0000 0.0000
# 3 32.8407 45.1882 115.7936 0.0000 0.0000 0.0000
# 4 0.0000 0.0000 0.0000 60.4710 0.0000 0.0000
# 5 0.0000 0.0000 0.0000 0.0000 29.3058 0.0000
# 6 0.0000 0.0000 0.0000 0.0000 0.0000 25.4824
#
#
#
# Elastic Compliance Matrix: (Units=1/GPa)
#
#
# Indices 1 2 3 4 5 6 
#
# 1 0.052074 -0.012183 -0.010014 0.000000 0.000000 0.000000
# 2 -0.012183 0.012950 -0.001599 0.000000 0.000000 0.000000
# 3 -0.010014 -0.001599 0.012100 0.000000 0.000000 0.000000
# 4 0.000000 0.000000 0.000000 0.016537 0.000000 0.000000
# 5 0.000000 0.000000 0.000000 0.000000 0.034123 0.000000
# 6 0.000000 0.000000 0.000000 0.000000 0.000000 0.039243
#
#
# Mechanical properties :
#
#
# Convention : Reuss Voigt Hill
#
# Bulk Modulus (GPa) = 33.86153 54.93265 44.39709
# Shear Modulus (GPa) = 22.27537 33.20958 27.74247
#
# Velocity S-wave (km/s) = 3.56446 4.35224 3.97790
# Velocity P-wave (km/s) = 6.02116 7.52253 6.81333
#
# Compressibility (1/GPa) = 0.02953204
#
# Stress axis : x y z
#
# Youngs Moduli (GPa) = 19.20350 77.21806 82.64380
#
# Poissons Ratio (x) = 0.94076 0.82763
# Poissons Ratio (y) = 0.23396 0.13211
# Poissons Ratio (z) = 0.19231 0.12343
#
# Static dielectric constant tensor:
#      x y z
#    x 3.265410 0.000000 0.000000 
#    y 0.000000 3.373820 0.000000 
#    z 0.000000 0.000000 3.405110 
# 
# 
# High freq. dielectric constant tensor:
#      x y z
#    x 1.682030 0.000000 0.000000 
#    y 0.000000 1.693010 0.000000 
#    z 0.000000 0.000000 1.693160 
# 
# From -- ./inp_files/17693.got.cif
#   From: 2010.03.12/outbox.cif.g09.slc.cpg/sg38_9_cif.got.tgz:17693.got - 2010.04.14 02:38:36.
