data_PCOD8180456
_publ_section_title
;
Structure prediction by ZEFSAII (Michael W. Deem and Ramdas Pophale) SiO2 
 PCOD8180456
Probable space group: A M M 2
;
_chemical_formula_sum "Si O2"
_cell_formula_units_Z 40
_cell_length_a 8.719255
_cell_length_b 11.641220
_cell_length_c 19.888808
_cell_angle_alpha 90.000000
_cell_angle_beta 90.000000
_cell_angle_gamma 90.000000
_cell_volume 2018.769018
_symmetry_space_group_name_H-M "A M M 2"
_symmetry_group_IT_number 38
_symmetry_cell_setting 'orthorhombic'
loop_
_space_group_symop_operation_xyz
x,y,z
-x,-y,z
-x,y,z
x,-y,z
x,1/2+y,1/2+z
-x,1/2-y,1/2+z
-x,1/2+y,1/2+z
x,1/2-y,1/2+z
loop_
_atom_site_type_symbol
_atom_site_label
_atom_site_fract_x
_atom_site_fract_y
_atom_site_fract_z
Si Si1 0.172840 0.500000 0.167560
Si Si2 0.680753 0.760569 0.654964
Si Si3 0.175314 0.500000 0.326534
Si Si4 0.679543 0.209706 0.899772
Si Si5 0.178016 0.866610 0.032886
Si Si6 0.680803 0.872739 0.283863
O O1 0.252168 0.614116 0.138936
O O2 0.180961 0.500000 0.247171
O O3 0.000000 0.500000 0.140934
O O4 0.500000 0.773363 0.658226
O O5 0.725535 0.671699 0.596997
O O6 0.747895 0.709427 0.725085
O O7 0.267082 0.391257 0.351708
O O8 0.000000 0.500000 0.353917
O O9 0.500000 0.197747 0.915538
O O10 0.718286 0.325308 0.858330
O O11 0.771825 0.209748 0.969266
O O12 0.000000 0.846036 0.047665
O O13 0.213634 0.000000 0.017110
O O14 0.500000 0.879397 0.273176
O O15 0.753609 0.000000 0.277884
#
# Coordination Sequence:
#
# PCOD8180456 Si02
#       6
#     4   8   4   8   8   8
#     4  11  23  39  61  89 125 160 195 246 309 371
#     4  11  22  39  64  91 119 156 205 254 299 357
#     4  11  21  35  59  89 123 154 189 244 305 363
#     4  11  21  36  62  90 118 154 201 251 297 356
#     4  11  24  41  60  86 123 162 200 248 306 366
#     4   9  19  36  59  89 121 151 192 248 301 351
#
# _framework density 19.814055
#
# number of rings (size 3 to 8) (size 9 to 14) (size 15 to 20)
#    0.000    1.400    3.000    3.000    0.000    2.800 
#    1.800    0.000    0.000    5.400    0.000    0.000 
#    0.000    0.000    0.000    0.000    0.000    0.000 
#
# Total GULP energy -248045.347854 kJ/mol
# GULP energy per Si atom -12402.267393 kJ/mol
# Density = 1.976896 g / cm^3
# Si number density = 19.814055 Si / 1000 Ang^3
#
#
#
# Elastic Constant Matrix: (Units=GPa)
#
#
# Indices 1 2 3 4 5 6 
#
# 1 66.7980 36.4278 23.1910 0.0000 0.0000 0.0000
# 2 36.4278 116.9382 34.3843 0.0000 0.0000 0.0000
# 3 23.1910 34.3843 96.4971 0.0000 0.0000 0.0000
# 4 0.0000 0.0000 0.0000 29.5666 0.0000 0.0000
# 5 0.0000 0.0000 0.0000 0.0000 31.2243 0.0000
# 6 0.0000 0.0000 0.0000 0.0000 0.0000 -0.5552
#
#
#
# Elastic Compliance Matrix: (Units=1/GPa)
#
#
# Indices 1 2 3 4 5 6 
#
# 1 0.018640 -0.005015 -0.002693 0.000000 0.000000 0.000000
# 2 -0.005015 0.010902 -0.002679 0.000000 0.000000 0.000000
# 3 -0.002693 -0.002679 0.011965 0.000000 0.000000 0.000000
# 4 0.000000 0.000000 0.000000 0.033822 0.000000 0.000000
# 5 0.000000 0.000000 0.000000 0.000000 0.032026 0.000000
# 6 0.000000 0.000000 0.000000 0.000000 0.000000 -1.801165
#
#
# Mechanical properties :
#
#
# Convention : Reuss Voigt Hill
#
# Bulk Modulus (GPa) = 48.23316 52.02663 50.12989
# Shear Modulus (GPa) = -3.00098 24.46247 10.73075
#
# Velocity S-wave (km/s) = -1.23201 3.51750 2.32970
# Velocity P-wave (km/s) = 4.72990 6.54305 5.70892
#
# Compressibility (1/GPa) = 0.02073263
#
# Stress axis : x y z
#
# Youngs Moduli (GPa) = 53.64741 91.73024 83.57805
#
# Poissons Ratio (x) = 0.46002 0.22506
# Poissons Ratio (y) = 0.26903 0.22393
# Poissons Ratio (z) = 0.14446 0.24577
#
# Static dielectric constant tensor:
#      x y z
#    x 3.546360 0.000000 0.000000 
#    y 0.000000 3.689790 0.000000 
#    z 0.000000 0.000000 3.594800 
# 
# 
# High freq. dielectric constant tensor:
#      x y z
#    x 1.764450 0.000000 0.000000 
#    y 0.000000 1.774880 0.000000 
#    z 0.000000 0.000000 1.774670 
# 
# From -- ./inp_files/19520.got.cif
#   From: 2010.03.12/outbox.cif.g09.slc.cpg/sg38_10_cif.got.tgz:19520.got - 2010.04.14 02:38:36.
