data_PCOD8180301
_publ_section_title
;
Structure prediction by ZEFSAII (Michael W. Deem and Ramdas Pophale) SiO2 
 PCOD8180301
Probable space group: A M M 2
;
_chemical_formula_sum "Si O2"
_cell_formula_units_Z 64
_cell_length_a 12.830861
_cell_length_b 22.157284
_cell_length_c 11.680116
_cell_angle_alpha 90.000000
_cell_angle_beta 90.000000
_cell_angle_gamma 90.000000
_cell_volume 3320.622302
_symmetry_space_group_name_H-M "A M M 2"
_symmetry_group_IT_number 38
_symmetry_cell_setting 'orthorhombic'
loop_
_space_group_symop_operation_xyz
x,y,z
-x,-y,z
-x,y,z
x,-y,z
x,1/2+y,1/2+z
-x,1/2-y,1/2+z
-x,1/2+y,1/2+z
x,1/2-y,1/2+z
loop_
_atom_site_type_symbol
_atom_site_label
_atom_site_fract_x
_atom_site_fract_y
_atom_site_fract_z
Si Si1 0.389207 0.429829 0.573720
Si Si2 0.784704 0.680225 0.100891
Si Si3 0.739177 0.824110 0.350491
Si Si4 0.877233 0.429878 0.225166
Si Si5 0.226506 0.365638 0.433219
Si Si6 0.376421 0.288882 0.275892
Si Si7 0.120701 0.698145 0.645147
Si Si8 0.382213 0.432719 0.828531
O O1 0.500000 0.404939 0.522671
O O2 0.400449 0.500000 0.591600
O O3 0.290969 0.417219 0.496260
O O4 0.374742 0.404014 0.701127
O O5 0.823978 0.612127 0.127768
O O6 0.667718 0.690799 0.151443
O O7 0.859727 0.729982 0.161027
O O8 0.791187 0.698787 0.967756
O O9 0.647988 0.781081 0.301204
O O10 0.826139 0.834979 0.253378
O O11 0.689423 0.886694 0.398219
O O12 0.837656 0.500000 0.217265
O O13 0.850875 0.400205 0.347823
O O14 0.000000 0.428390 0.207184
O O15 0.312625 0.325526 0.370705
O O16 0.163631 0.325946 0.524227
O O17 0.500000 0.301153 0.281091
O O18 0.000000 0.683094 0.651425
O O19 0.500000 0.432552 0.874671
O O20 0.335425 0.500000 0.838132
#
# Coordination Sequence:
#
# PCOD8180301 Si02
#       8
#     8   8   8   8   8   8   8   8
#     4   9  17  30  52  81 113 149 183 221 277 345
#     4  10  23  41  59  85 118 154 199 242 299 361
#     4  11  21  39  57  86 113 153 196 240 299 352
#     4  10  22  40  63  86 112 156 207 253 301 352
#     4  11  19  37  57  87 120 151 191 244 294 355
#     4  10  22  37  57  87 122 155 188 236 294 357
#     4  11  23  38  58  86 118 153 196 250 305 359
#     4   9  18  32  52  79 112 150 187 224 275 341
#
# _framework density 19.273495
#
# number of rings (size 3 to 8) (size 9 to 14) (size 15 to 20)
#    0.000    1.875    2.500    2.625    0.000    2.500 
#    0.000    0.000    0.000    4.500    0.000    0.000 
#    0.000    0.000    0.000    0.000    0.000    0.000 
#
# Total GULP energy -396576.667782 kJ/mol
# GULP energy per Si atom -12393.020868 kJ/mol
# Density = 1.922963 g / cm^3
# Si number density = 19.273495 Si / 1000 Ang^3
#
#
#
# Elastic Constant Matrix: (Units=GPa)
#
#
# Indices 1 2 3 4 5 6 
#
# 1 112.7105 38.5809 30.4975 0.0000 0.0000 0.0000
# 2 38.5809 104.4869 20.4487 0.0000 0.0000 0.0000
# 3 30.4975 20.4487 70.4748 0.0000 0.0000 0.0000
# 4 0.0000 0.0000 0.0000 25.0471 0.0000 0.0000
# 5 0.0000 0.0000 0.0000 0.0000 19.5232 0.0000
# 6 0.0000 0.0000 0.0000 0.0000 0.0000 26.7822
#
#
#
# Elastic Compliance Matrix: (Units=1/GPa)
#
#
# Indices 1 2 3 4 5 6 
#
# 1 0.011044 -0.003332 -0.003813 0.000000 0.000000 0.000000
# 2 -0.003332 0.011152 -0.001794 0.000000 0.000000 0.000000
# 3 -0.003813 -0.001794 0.016360 0.000000 0.000000 0.000000
# 4 0.000000 0.000000 0.000000 0.039925 0.000000 0.000000
# 5 0.000000 0.000000 0.000000 0.000000 0.051221 0.000000
# 6 0.000000 0.000000 0.000000 0.000000 0.000000 0.037338
#
#
# Mechanical properties :
#
#
# Convention : Reuss Voigt Hill
#
# Bulk Modulus (GPa) = 48.35758 51.85851 50.10805
# Shear Modulus (GPa) = 26.06740 27.48017 26.77378
#
# Velocity S-wave (km/s) = 3.68162 3.78007 3.73117
# Velocity P-wave (km/s) = 6.57397 6.78358 6.67960
#
# Compressibility (1/GPa) = 0.02067928
#
# Stress axis : x y z
#
# Youngs Moduli (GPa) = 90.54336 89.67044 61.12513
#
# Poissons Ratio (x) = 0.29877 0.23305
# Poissons Ratio (y) = 0.30168 0.10966
# Poissons Ratio (z) = 0.34521 0.16086
#
# Static dielectric constant tensor:
#      x y z
#    x 3.418410 0.000000 0.000000 
#    y 0.000000 3.559960 0.000000 
#    z 0.000000 0.000000 3.469880 
# 
# 
# High freq. dielectric constant tensor:
#      x y z
#    x 1.740920 0.000000 0.000000 
#    y 0.000000 1.755520 0.000000 
#    z 0.000000 0.000000 1.742400 
# 
# From -- ./inp_files/9571.got.cif
#   From: 2010.03.12/outbox.cif.g09.slc.cpg/sg38_5_cif.got.tgz:9571.got - 2010.04.14 02:38:36.
