data_PCOD8180169
_publ_section_title
;
Structure prediction by ZEFSAII (Michael W. Deem and Ramdas Pophale) SiO2 
 PCOD8180169
Probable space group: A M M 2
;
_chemical_formula_sum "Si O2"
_cell_formula_units_Z 64
_cell_length_a 23.839293
_cell_length_b 8.825065
_cell_length_c 15.381792
_cell_angle_alpha 90.000000
_cell_angle_beta 90.000000
_cell_angle_gamma 90.000000
_cell_volume 3236.072319
_symmetry_space_group_name_H-M "A M M 2"
_symmetry_group_IT_number 38
_symmetry_cell_setting 'orthorhombic'
loop_
_space_group_symop_operation_xyz
x,y,z
-x,-y,z
-x,y,z
x,-y,z
x,1/2+y,1/2+z
-x,1/2-y,1/2+z
-x,1/2+y,1/2+z
x,1/2-y,1/2+z
loop_
_atom_site_type_symbol
_atom_site_label
_atom_site_fract_x
_atom_site_fract_y
_atom_site_fract_z
Si Si1 0.135331 0.174709 0.700090
Si Si2 0.436960 0.680394 0.051094
Si Si3 0.142523 0.825662 0.895942
Si Si4 0.250306 0.325397 0.960521
Si Si5 0.360985 0.678852 0.208095
Si Si6 0.249665 0.321915 0.645168
Si Si7 0.064426 0.323234 0.554809
Si Si8 0.629557 0.324612 0.883842
O O1 0.116041 0.196587 0.800180
O O2 0.190884 0.270333 0.683940
O O3 0.085741 0.231492 0.638166
O O4 0.148084 0.000000 0.679188
O O5 0.500000 0.745263 0.056468
O O6 0.437114 0.500000 0.052960
O O7 0.401245 0.742632 0.132268
O O8 0.407957 0.738236 0.962889
O O9 0.197323 0.721405 0.902746
O O10 0.160158 0.000000 0.910835
O O11 0.097573 0.774022 0.968012
O O12 0.245509 0.500000 0.989760
O O13 0.305215 0.298368 0.903496
O O14 0.253590 0.221696 0.044865
O O15 0.356153 0.500000 0.202708
O O16 0.299199 0.746883 0.199799
O O17 0.387594 0.729028 0.299430
O O18 0.254931 0.500000 0.655460
O O19 0.072827 0.500000 0.574051
O O20 0.000000 0.281274 0.538920
O O21 0.616566 0.500000 0.866138
#
# Coordination Sequence:
#
# PCOD8180169 Si02
#       8
#     8   8   8   8   8   8   8   8
#     4  11  23  39  62  92 122 154 199 247 294 351
#     4   9  19  38  61  83 115 159 201 244 296 350
#     4  10  22  39  60  88 120 157 195 238 295 354
#     4  11  21  36  60  89 120 153 192 241 295 357
#     4  11  22  38  60  89 120 155 199 244 294 351
#     4  12  23  37  60  88 121 158 194 238 300 360
#     4  10  22  41  62  85 118 161 204 246 294 346
#     4  10  21  38  59  87 119 155 195 238 296 357
#
# _framework density 19.777061
#
# number of rings (size 3 to 8) (size 9 to 14) (size 15 to 20)
#    0.000    1.500    2.500    3.000    0.000    5.250 
#    0.000    1.250    0.000    2.625    0.000    0.000 
#    0.000    0.000    0.000    0.000    0.000    0.000 
#
# Total GULP energy -396947.713295 kJ/mol
# GULP energy per Si atom -12404.616040 kJ/mol
# Density = 1.973205 g / cm^3
# Si number density = 19.777061 Si / 1000 Ang^3
#
#
#
# Elastic Constant Matrix: (Units=GPa)
#
#
# Indices 1 2 3 4 5 6 
#
# 1 112.7990 34.2525 48.2078 0.0000 0.0000 0.0000
# 2 34.2525 69.8736 42.8493 0.0000 0.0000 0.0000
# 3 48.2078 42.8493 143.7994 0.0000 0.0000 0.0000
# 4 0.0000 0.0000 0.0000 34.0048 0.0000 0.0000
# 5 0.0000 0.0000 0.0000 0.0000 15.0418 0.0000
# 6 0.0000 0.0000 0.0000 0.0000 0.0000 15.8085
#
#
#
# Elastic Compliance Matrix: (Units=1/GPa)
#
#
# Indices 1 2 3 4 5 6 
#
# 1 0.011147 -0.003882 -0.002580 0.000000 0.000000 0.000000
# 2 -0.003882 0.018863 -0.004319 0.000000 0.000000 0.000000
# 3 -0.002580 -0.004319 0.009106 0.000000 0.000000 0.000000
# 4 0.000000 0.000000 0.000000 0.029408 0.000000 0.000000
# 5 0.000000 0.000000 0.000000 0.000000 0.066481 0.000000
# 6 0.000000 0.000000 0.000000 0.000000 0.000000 0.063257
#
#
# Mechanical properties :
#
#
# Convention : Reuss Voigt Hill
#
# Bulk Modulus (GPa) = 56.96970 64.12124 60.54547
# Shear Modulus (GPa) = 22.15558 26.38187 24.26872
#
# Velocity S-wave (km/s) = 3.35067 3.65631 3.50682
# Velocity P-wave (km/s) = 6.62101 7.09346 6.86130
#
# Compressibility (1/GPa) = 0.01755319
#
# Stress axis : x y z
#
# Youngs Moduli (GPa) = 89.71163 53.01265 109.81493
#
# Poissons Ratio (x) = 0.20580 0.28334
# Poissons Ratio (y) = 0.34826 0.47435
# Poissons Ratio (z) = 0.23147 0.22899
#
# Static dielectric constant tensor:
#      x y z
#    x 3.639720 0.000000 0.000000 
#    y 0.000000 3.482180 0.000000 
#    z 0.000000 0.000000 3.807460 
# 
# 
# High freq. dielectric constant tensor:
#      x y z
#    x 1.766330 0.000000 0.000000 
#    y 0.000000 1.759210 0.000000 
#    z 0.000000 0.000000 1.786480 
# 
# From -- ./inp_files/15754.got.cif
#   From: 2010.03.12/outbox.cif.g09.slc.cpg/sg38_8_cif.got.tgz:15754.got - 2010.04.14 02:38:36.
