data_PCOD8180125
_publ_section_title
;
Structure prediction by ZEFSAII (Michael W. Deem and Ramdas Pophale) SiO2 
 PCOD8180125
Probable space group: A M M 2
;
_chemical_formula_sum "Si O2"
_cell_formula_units_Z 64
_cell_length_a 20.509085
_cell_length_b 9.093634
_cell_length_c 18.562558
_cell_angle_alpha 90.000000
_cell_angle_beta 90.000000
_cell_angle_gamma 90.000000
_cell_volume 3461.956283
_symmetry_space_group_name_H-M "A M M 2"
_symmetry_group_IT_number 38
_symmetry_cell_setting 'orthorhombic'
loop_
_space_group_symop_operation_xyz
x,y,z
-x,-y,z
-x,y,z
x,-y,z
x,1/2+y,1/2+z
-x,1/2-y,1/2+z
-x,1/2+y,1/2+z
x,1/2-y,1/2+z
loop_
_atom_site_type_symbol
_atom_site_label
_atom_site_fract_x
_atom_site_fract_y
_atom_site_fract_z
Si Si1 0.802492 0.330295 0.988150
Si Si2 0.209207 0.666947 0.157677
Si Si3 0.677950 0.329302 0.735957
Si Si4 0.575551 0.671596 0.143003
Si Si5 0.676897 0.671476 0.903392
Si Si6 0.928742 0.171268 0.995368
Si Si7 0.069541 0.333486 0.142218
Si Si8 0.424256 0.328834 0.496686
O O1 0.810956 0.500000 0.970553
O O2 0.740364 0.268160 0.945094
O O3 0.791663 0.299770 0.072541
O O4 0.868121 0.253163 0.957520
O O5 0.232930 0.500000 0.172253
O O6 0.256542 0.780100 0.196038
O O7 0.135279 0.692737 0.189112
O O8 0.665825 0.500000 0.720085
O O9 0.615788 0.238486 0.708827
O O10 0.686885 0.296804 0.819692
O O11 0.500000 0.702824 0.158933
O O12 0.590772 0.500000 0.135609
O O13 0.598598 0.748219 0.069450
O O14 0.664764 0.500000 0.919439
O O15 0.614332 0.762058 0.929555
O O16 0.931505 0.217948 0.078246
O O17 0.000000 0.207824 0.959908
O O18 0.914205 0.000000 0.991139
O O19 0.075212 0.500000 0.110053
O O20 0.000000 0.318163 0.185496
O O21 0.500000 0.299538 0.481540
O O22 0.408653 0.500000 0.505256
#
# Coordination Sequence:
#
# PCOD8180125 Si02
#       8
#     8   8   8   8   8   8   8   8
#     4   9  18  33  52  72  96 131 174 213 251 303
#     4   9  17  30  51  76 100 131 172 216 260 309
#     4  11  23  36  52  76 107 141 176 216 257 300
#     4  10  21  38  60  82 105 136 172 210 254 305
#     4  10  22  38  54  75 105 141 178 214 255 304
#     4   9  16  25  41  70 103 128 156 202 258 308
#     4   8  14  26  45  69  96 127 165 207 252 304
#     4  10  21  37  59  86 110 132 165 210 257 307
#
# _framework density 18.486657000000001
#
# number of rings (size 3 to 8) (size 9 to 14) (size 15 to 20)
#    0.000    2.500    0.000    3.000    0.000    7.250 
#    0.000    2.500    0.000    0.750    0.000    3.500 
#    0.000    0.000    0.000    0.000    0.000    0.000 
#
# Total GULP energy -396651.977986 kJ/mol
# GULP energy per Si atom -12395.374312 kJ/mol
# Density = 1.844458 g / cm^3
# Si number density = 18.486657 Si / 1000 Ang^3
#
#
#
# Elastic Constant Matrix: (Units=GPa)
#
#
# Indices 1 2 3 4 5 6 
#
# 1 132.9042 57.9314 50.1214 0.0000 0.0000 0.0000
# 2 57.9314 81.6730 38.6230 0.0000 0.0000 0.0000
# 3 50.1214 38.6230 62.8281 0.0000 0.0000 0.0000
# 4 0.0000 0.0000 0.0000 22.7022 0.0000 0.0000
# 5 0.0000 0.0000 0.0000 0.0000 5.2017 0.0000
# 6 0.0000 0.0000 0.0000 0.0000 0.0000 33.8784
#
#
#
# Elastic Compliance Matrix: (Units=1/GPa)
#
#
# Indices 1 2 3 4 5 6 
#
# 1 0.012465 -0.005836 -0.006357 0.000000 0.000000 0.000000
# 2 -0.005836 0.019994 -0.007636 0.000000 0.000000 0.000000
# 3 -0.006357 -0.007636 0.025682 0.000000 0.000000 0.000000
# 4 0.000000 0.000000 0.000000 0.044049 0.000000 0.000000
# 5 0.000000 0.000000 0.000000 0.000000 0.192247 0.000000
# 6 0.000000 0.000000 0.000000 0.000000 0.000000 0.029517
#
#
# Mechanical properties :
#
#
# Convention : Reuss Voigt Hill
#
# Bulk Modulus (GPa) = 54.09919 63.41743 58.75831
# Shear Modulus (GPa) = 13.52186 21.07174 17.29680
#
# Velocity S-wave (km/s) = 2.70745 3.37981 3.06214
# Velocity P-wave (km/s) = 6.25309 7.04342 6.65999
#
# Compressibility (1/GPa) = 0.01848457
#
# Stress axis : x y z
#
# Youngs Moduli (GPa) = 80.22360 50.01462 38.93816
#
# Poissons Ratio (x) = 0.29186 0.24752
# Poissons Ratio (y) = 0.46815 0.29733
# Poissons Ratio (z) = 0.50997 0.38191
#
# Static dielectric constant tensor:
#      x y z
#    x 3.842830 0.000000 0.000000 
#    y 0.000000 3.411070 0.000000 
#    z 0.000000 0.000000 2.997530 
# 
# 
# High freq. dielectric constant tensor:
#      x y z
#    x 1.742810 0.000000 0.000000 
#    y 0.000000 1.720930 0.000000 
#    z 0.000000 0.000000 1.667720 
# 
# From -- ./inp_files/18983.got.cif
#   From: 2010.03.12/outbox.cif.g09.slc.cpg/sg38_10_cif.got.tgz:18983.got - 2010.04.14 02:38:36.
