data_PCOD8180268
_publ_section_title
;
Structure prediction by ZEFSAII (Michael W. Deem and Ramdas Pophale) SiO2 
 PCOD8180268
Probable space group: A M M 2
;
_chemical_formula_sum "Si O2"
_cell_formula_units_Z 32
_cell_length_a 11.108031
_cell_length_b 15.509105
_cell_length_c 8.735455
_cell_angle_alpha 90.000000
_cell_angle_beta 90.000000
_cell_angle_gamma 90.000000
_cell_volume 1504.905918
_symmetry_space_group_name_H-M "A M M 2"
_symmetry_group_IT_number 38
_symmetry_cell_setting 'orthorhombic'
loop_
_space_group_symop_operation_xyz
x,y,z
-x,-y,z
-x,y,z
x,-y,z
x,1/2+y,1/2+z
-x,1/2-y,1/2+z
-x,1/2+y,1/2+z
x,1/2-y,1/2+z
loop_
_atom_site_type_symbol
_atom_site_label
_atom_site_fract_x
_atom_site_fract_y
_atom_site_fract_z
Si Si1 0.244104 0.500000 0.250000
Si Si2 0.862152 0.328023 0.735383
Si Si3 0.500000 0.500000 0.702434
Si Si4 0.500000 0.500000 0.220357
Si Si5 0.500000 0.362103 0.964760
Si Si6 0.242483 0.326783 0.055373
Si Si7 0.236317 0.000000 0.087297
O O1 0.379814 0.500000 0.318964
O O2 0.222019 0.416264 0.146402
O O3 0.178093 0.500000 0.414527
O O4 0.782120 0.250979 0.669311
O O5 0.813599 0.417548 0.673348
O O6 0.000000 0.314815 0.687173
O O7 0.853204 0.327395 0.918606
O O8 0.381760 0.500000 0.596877
O O9 0.500000 0.415147 0.808144
O O10 0.500000 0.417571 0.115325
O O11 0.374886 0.309609 0.979852
#
# Coordination Sequence:
#
# PCOD8180268 Si02
#       7
#     4   8   2   2   4   8   4
#     4  10  21  40  65 100 131 175 221 275 350 412
#     4  12  26  45  65  96 136 186 236 284 341 413
#     4  11  19  40  70 106 138 172 222 290 356 426
#     4   7  15  32  58  90 128 162 196 264 322 416
#     4   9  18  37  67  99 132 166 220 274 355 413
#     4  11  23  43  70  98 138 177 229 292 345 415
#     4  12  24  41  70 100 138 177 227 287 348 415
#
# _framework density 21.263788000000002
#
# number of rings (size 3 to 8) (size 9 to 14) (size 15 to 20)
#    0.000    1.250    2.500    4.500    0.000    2.000 
#    0.000    8.125    0.000    0.000    0.000    0.000 
#    0.000    0.000    0.000    0.000    0.000    0.000 
#
# Total GULP energy -198300.548824 kJ/mol
# GULP energy per Si atom -12393.784301 kJ/mol
# Density = 2.121539 g / cm^3
# Si number density = 21.263788 Si / 1000 Ang^3
#
#
#
# Elastic Constant Matrix: (Units=GPa)
#
#
# Indices 1 2 3 4 5 6 
#
# 1 107.7877 37.2880 18.6830 0.0000 0.0000 0.0000
# 2 37.2880 156.6514 57.9469 0.0000 0.0000 0.0000
# 3 18.6830 57.9469 138.8584 0.0000 0.0000 0.0000
# 4 0.0000 0.0000 0.0000 25.7645 0.0000 0.0000
# 5 0.0000 0.0000 0.0000 0.0000 23.9426 0.0000
# 6 0.0000 0.0000 0.0000 0.0000 0.0000 15.4035
#
#
#
# Elastic Compliance Matrix: (Units=1/GPa)
#
#
# Indices 1 2 3 4 5 6 
#
# 1 0.010131 -0.002255 -0.000422 0.000000 0.000000 0.000000
# 2 -0.002255 0.008051 -0.003056 0.000000 0.000000 0.000000
# 3 -0.000422 -0.003056 0.008534 0.000000 0.000000 0.000000
# 4 0.000000 0.000000 0.000000 0.038813 0.000000 0.000000
# 5 0.000000 0.000000 0.000000 0.000000 0.041767 0.000000
# 6 0.000000 0.000000 0.000000 0.000000 0.000000 0.064920
#
#
# Mechanical properties :
#
#
# Convention : Reuss Voigt Hill
#
# Bulk Modulus (GPa) = 65.58041 70.12594 67.85317
# Shear Modulus (GPa) = 26.48788 32.31408 29.40098
#
# Velocity S-wave (km/s) = 3.53325 3.90253 3.72247
# Velocity P-wave (km/s) = 6.89590 7.30459 7.10318
#
# Compressibility (1/GPa) = 0.01524846
#
# Stress axis : x y z
#
# Youngs Moduli (GPa) = 98.70838 124.20793 117.18152
#
# Poissons Ratio (x) = 0.28014 0.04944
# Poissons Ratio (y) = 0.22263 0.35814
# Poissons Ratio (z) = 0.04164 0.37962
#
# Static dielectric constant tensor:
#      x y z
#    x 4.158630 0.000000 0.000000 
#    y 0.000000 3.449930 0.000000 
#    z 0.000000 0.000000 3.775710 
# 
# 
# High freq. dielectric constant tensor:
#      x y z
#    x 1.836750 0.000000 0.000000 
#    y 0.000000 1.828230 0.000000 
#    z 0.000000 0.000000 1.847830 
# 
# From -- ./inp_files/4131.got.cif
#   From: 2010.03.12/outbox.cif.g09.slc.cpg/sg38_3_cif.got.tgz:4131.got - 2010.04.14 02:38:36.
