data_PCOD8180630
_publ_section_title
;
Structure prediction by ZEFSAII (Michael W. Deem and Ramdas Pophale) SiO2 
 PCOD8180630
Probable space group: A B M 2
;
_chemical_formula_sum "Si O2"
_cell_formula_units_Z 48
_cell_length_a 30.759360
_cell_length_b 13.951973
_cell_length_c 5.169294
_cell_angle_alpha 90.000000
_cell_angle_beta 90.000000
_cell_angle_gamma 90.000000
_cell_volume 2218.421958
_symmetry_space_group_name_H-M "A B M 2"
_symmetry_group_IT_number 39
_symmetry_cell_setting 'orthorhombic'
loop_
_space_group_symop_operation_xyz
x,y,z
-x,-y,z
-x,1/2+y,z
x,1/2-y,z
x,1/2+y,1/2+z
-x,1/2-y,1/2+z
-x,y,1/2+z
x,-y,1/2+z
loop_
_atom_site_type_symbol
_atom_site_label
_atom_site_fract_x
_atom_site_fract_y
_atom_site_fract_z
Si Si1 0.518857 0.605163 0.099600
Si Si2 0.322722 0.750000 0.529975
Si Si3 0.733372 0.250000 0.030008
Si Si4 0.978386 0.140271 0.005958
Si Si5 0.791483 0.063808 0.044310
Si Si6 0.111095 0.941159 0.095539
Si Si7 0.618638 0.935973 0.056761
O O1 0.500000 0.500000 0.159387
O O2 0.505991 0.659356 0.365744
O O3 0.569950 0.604154 0.054211
O O4 0.305263 0.750000 0.237887
O O5 0.350539 0.654988 0.574112
O O6 0.284121 0.750000 0.738038
O O7 0.761297 0.155226 0.075685
O O8 0.992627 0.250000 0.992537
O O9 0.926307 0.135057 0.032340
O O10 0.003684 0.089833 0.245268
O O11 0.841027 0.103071 0.053778
O O12 0.781958 0.989123 0.274309
O O13 0.105705 0.971193 0.394426
O O14 0.627995 0.004383 0.298637
#
# Coordination Sequence:
#
# PCOD8180630 Si02
#       7
#     8   4   4   8   8   8   8
#     4  10  16  32  61  90 119 167 217 247 298 371
#     4  12  30  44  62 107 126 161 234 246 314 426
#     4  12  26  48  70  91 132 169 204 272 330 390
#     4  10  21  35  52  80 120 165 202 236 291 371
#     4  10  23  43  70  99 124 159 216 268 326 392
#     4  10  21  37  58  89 117 148 203 257 301 365
#     4  12  23  42  68  91 136 176 204 269 319 350
#
# _framework density 21.637
#
# number of rings (size 3 to 8) (size 9 to 14) (size 15 to 20)
#    0.000    1.333    3.333    3.000    1.167    6.000 
#    0.000    0.833    0.000    0.000    0.000    0.000 
#    0.000    0.000    0.000    0.000    0.000    0.000 
#
# Total GULP energy -297548.824893 kJ/mol
# GULP energy per Si atom -12397.867704 kJ/mol
# Density = 2.158775 g / cm^3
# Si number density = 21.637000 Si / 1000 Ang^3
#
#
#
# Elastic Constant Matrix: (Units=GPa)
#
#
# Indices 1 2 3 4 5 6 
#
# 1 109.3699 42.3886 19.5285 0.0000 0.0000 0.0000
# 2 42.3886 68.7036 12.4080 0.0000 0.0000 0.0000
# 3 19.5285 12.4080 143.7782 0.0000 0.0000 0.0000
# 4 0.0000 0.0000 0.0000 7.8801 0.0000 0.0000
# 5 0.0000 0.0000 0.0000 0.0000 30.4980 0.0000
# 6 0.0000 0.0000 0.0000 0.0000 0.0000 56.9834
#
#
#
# Elastic Compliance Matrix: (Units=1/GPa)
#
#
# Indices 1 2 3 4 5 6 
#
# 1 0.012162 -0.007320 -0.001020 0.000000 0.000000 0.000000
# 2 -0.007320 0.019191 -0.000662 0.000000 0.000000 0.000000
# 3 -0.001020 -0.000662 0.007151 0.000000 0.000000 0.000000
# 4 0.000000 0.000000 0.000000 0.126902 0.000000 0.000000
# 5 0.000000 0.000000 0.000000 0.000000 0.032789 0.000000
# 6 0.000000 0.000000 0.000000 0.000000 0.000000 0.017549
#
#
# Mechanical properties :
#
#
# Convention : Reuss Voigt Hill
#
# Bulk Modulus (GPa) = 48.77970 52.27800 50.52885
# Shear Modulus (GPa) = 20.78298 35.57406 28.17852
#
# Velocity S-wave (km/s) = 3.10260 4.05919 3.61270
# Velocity P-wave (km/s) = 5.95217 6.79582 6.38794
#
# Compressibility (1/GPa) = 0.02050033
#
# Stress axis : x y z
#
# Youngs Moduli (GPa) = 82.22106 52.10810 139.84330
#
# Poissons Ratio (x) = 0.38141 0.14268
# Poissons Ratio (y) = 0.60183 0.09257
# Poissons Ratio (z) = 0.08389 0.03450
#
# Static dielectric constant tensor:
#      x y z
#    x 3.991440 0.000000 0.000000 
#    y 0.000000 3.531840 0.000000 
#    z 0.000000 0.000000 4.626830 
# 
# 
# High freq. dielectric constant tensor:
#      x y z
#    x 1.855310 0.000000 0.000000 
#    y 0.000000 1.830910 0.000000 
#    z 0.000000 0.000000 1.881150 
# 
# From -- ./inp_files/1396.got.cif
#   From: 2010.03.12/outbox.cif.g09.slc.cpg/sg39_1_cif.got.tgz:1396.got - 2010.04.14 02:53:20.
