data_PCOD8180586
_publ_section_title
;
Structure prediction by ZEFSAII (Michael W. Deem and Ramdas Pophale) SiO2 
 PCOD8180586
Probable space group: A B M 2
;
_chemical_formula_sum "Si O2"
_cell_formula_units_Z 56
_cell_length_a 31.251673
_cell_length_b 15.011053
_cell_length_c 5.325831
_cell_angle_alpha 90.000000
_cell_angle_beta 90.000000
_cell_angle_gamma 90.000000
_cell_volume 2498.456607
_symmetry_space_group_name_H-M "A B M 2"
_symmetry_group_IT_number 39
_symmetry_cell_setting 'orthorhombic'
loop_
_space_group_symop_operation_xyz
x,y,z
-x,-y,z
-x,1/2+y,z
x,1/2-y,z
x,1/2+y,1/2+z
-x,1/2-y,1/2+z
-x,y,1/2+z
x,-y,1/2+z
loop_
_atom_site_type_symbol
_atom_site_label
_atom_site_fract_x
_atom_site_fract_y
_atom_site_fract_z
Si Si1 0.482042 0.599165 0.748150
Si Si2 0.794849 0.103379 0.748487
Si Si3 0.335374 0.854779 0.248192
Si Si4 0.982235 0.601069 0.244108
Si Si5 0.112369 0.555515 0.718096
Si Si6 0.759366 0.096847 0.248489
Si Si7 0.386376 0.354395 0.248186
O O1 0.500000 0.500000 0.748216
O O2 0.500006 0.648902 0.498166
O O3 0.431001 0.594197 0.748101
O O4 0.845983 0.117283 0.750885
O O5 0.775037 0.149035 0.498836
O O6 0.781450 0.999657 0.746325
O O7 0.775157 0.149038 0.998215
O O8 0.324776 0.750000 0.248171
O O9 0.291727 0.910718 0.248033
O O10 0.360973 0.882639 0.497965
O O11 0.361002 0.882631 0.998515
O O12 0.931104 0.610529 0.250398
O O13 0.000000 0.500000 0.239111
O O14 0.000357 0.649561 0.493131
O O15 0.113472 0.518097 0.436023
O O16 0.396112 0.250000 0.248139
#
# Coordination Sequence:
#
# PCOD8180586 Si02
#       7
#     8   8   8   8   8   8   8
#     4  10  21  38  56  81 112 138 163 199 240 282
#     4  10  19  30  43  67  90 124 160 190 238 288
#     4  10  21  37  56  77  99 129 164 201 242 279
#     4  10  16  22  31  49  73 108 155 195 227 273
#     4  12  16  25  38  53  82 116 158 195 231 282
#     4  10  18  32  48  67  95 118 158 200 231 284
#     4  10  21  38  58  78 101 131 168 200 235 288
#
# _framework density 22.413836
#
# number of rings (size 3 to 8) (size 9 to 14) (size 15 to 20)
#    0.000    1.714    5.714    1.714    0.000    0.571 
#    0.000   17.143    0.000    0.000    0.000    0.000 
#    0.000    0.000    0.000    0.000    0.000   52.857 
#
# Total GULP energy -347036.139188 kJ/mol
# GULP energy per Si atom -12394.147828 kJ/mol
# Density = 2.236282 g / cm^3
# Si number density = 22.413836 Si / 1000 Ang^3
#
#
#
# Elastic Constant Matrix: (Units=GPa)
#
#
# Indices 1 2 3 4 5 6 
#
# 1 236.9652 15.6326 94.7211 0.0000 0.0000 0.0000
# 2 15.6326 21.1306 0.3663 0.0000 0.0000 0.0000
# 3 94.7211 0.3663 261.1717 0.0000 0.0000 0.0000
# 4 0.0000 0.0000 0.0000 -3.3988 0.0000 0.0000
# 5 0.0000 0.0000 0.0000 0.0000 49.3673 0.0000
# 6 0.0000 0.0000 0.0000 0.0000 0.0000 -6.0913
#
#
#
# Elastic Compliance Matrix: (Units=1/GPa)
#
#
# Indices 1 2 3 4 5 6 
#
# 1 0.005229 -0.003836 -0.001891 0.000000 0.000000 0.000000
# 2 -0.003836 0.050139 0.001321 0.000000 0.000000 0.000000
# 3 -0.001891 0.001321 0.004513 0.000000 0.000000 0.000000
# 4 0.000000 0.000000 0.000000 -0.294224 0.000000 0.000000
# 5 0.000000 0.000000 0.000000 0.000000 0.020256 0.000000
# 6 0.000000 0.000000 0.000000 0.000000 0.000000 -0.164169
#
#
# Mechanical properties :
#
#
# Convention : Reuss Voigt Hill
#
# Bulk Modulus (GPa) = 19.58120 82.30085 50.94102
# Shear Modulus (GPa) = -14.18761 35.21194 10.51216
#
# Velocity S-wave (km/s) = -2.51865 3.96787 2.16800
# Velocity P-wave (km/s) = 0.54503 7.60201 5.38923
#
# Compressibility (1/GPa) = 0.05106939
#
# Stress axis : x y z
#
# Youngs Moduli (GPa) = 191.24227 19.94440 221.58760
#
# Poissons Ratio (x) = 0.07650 0.41903
# Poissons Ratio (y) = 0.73354 -0.29267
# Poissons Ratio (z) = 0.36165 -0.02634
#
# Static dielectric constant tensor:
#      x y z
#    x 4.147400 0.000000 0.000000 
#    y 0.000000 3.139060 0.000000 
#    z 0.000000 0.000000 10.460030 
# 
# 
# High freq. dielectric constant tensor:
#      x y z
#    x 1.897150 0.000000 0.000000 
#    y 0.000000 1.803940 0.000000 
#    z 0.000000 0.000000 1.928600 
# 
# From -- ./inp_files/1439.got.cif
#   From: 2010.03.12/outbox.cif.g09.slc.cpg/sg39_1_cif.got.tgz:1439.got - 2010.04.14 02:53:20.
