data_PCOD8180558
_publ_section_title
;
Structure prediction by ZEFSAII (Michael W. Deem and Ramdas Pophale) SiO2 
 PCOD8180558
Probable space group: A M M 2
;
_chemical_formula_sum "Si O2"
_cell_formula_units_Z 56
_cell_length_a 15.642499
_cell_length_b 9.764237
_cell_length_c 20.423921
_cell_angle_alpha 90.000000
_cell_angle_beta 90.000000
_cell_angle_gamma 90.000000
_cell_volume 3119.489801
_symmetry_space_group_name_H-M "A M M 2"
_symmetry_group_IT_number 38
_symmetry_cell_setting 'orthorhombic'
loop_
_space_group_symop_operation_xyz
x,y,z
-x,-y,z
-x,y,z
x,-y,z
x,1/2+y,1/2+z
-x,1/2-y,1/2+z
-x,1/2+y,1/2+z
x,1/2-y,1/2+z
loop_
_atom_site_type_symbol
_atom_site_label
_atom_site_fract_x
_atom_site_fract_y
_atom_site_fract_z
Si Si1 0.725270 0.340486 0.342680
Si Si2 0.091543 0.345592 0.387793
Si Si3 0.128908 0.345763 0.001855
Si Si4 0.728415 0.337340 0.197157
Si Si5 0.404764 0.837138 0.590823
Si Si6 0.321149 0.155410 0.459903
Si Si7 0.906803 0.837528 0.648030
O O1 0.707631 0.500000 0.357302
O O2 0.827063 0.305792 0.343641
O O3 0.694870 0.299012 0.269842
O O4 0.673582 0.251960 0.395983
O O5 0.104464 0.500000 0.413158
O O6 0.082760 0.249974 0.450320
O O7 0.000000 0.332862 0.349127
O O8 0.096180 0.500000 0.990495
O O9 0.230164 0.337686 0.994581
O O10 0.103190 0.292450 0.072990
O O11 0.732731 0.500000 0.189323
O O12 0.662200 0.275290 0.143827
O O13 0.824791 0.277234 0.187145
O O14 0.500000 0.786527 0.609310
O O15 0.385360 0.790096 0.516173
O O16 0.398251 0.000000 0.593284
O O17 0.342921 0.000000 0.437843
O O18 0.000000 0.783261 0.673802
O O19 0.905078 0.000000 0.653886
#
# Coordination Sequence:
#
# PCOD8180558 Si02
#       7
#     8   8   8   8   8   8   8
#     4   9  18  30  46  66  93 127 155 185 230 275
#     4   9  17  27  38  57  88 123 157 188 221 268
#     4   9  15  25  42  64  88 113 147 193 235 266
#     4   9  16  28  43  64  93 121 152 191 228 269
#     4   9  16  28  49  73  93 117 152 192 233 274
#     4   9  16  29  49  70  92 117 150 192 231 271
#     4   9  15  22  37  63  91 116 146 189 234 266
#
# _framework density 17.951653
#
# number of rings (size 3 to 8) (size 9 to 14) (size 15 to 20)
#    0.000    3.000    1.429    0.429    0.000    1.429 
#    0.000    3.571    0.000    3.000    0.000    0.000 
#    0.000    0.000    0.000    0.000    0.000    0.000 
#
# Total GULP energy -346898.755928 kJ/mol
# GULP energy per Si atom -12389.241283 kJ/mol
# Density = 1.791079 g / cm^3
# Si number density = 17.951653 Si / 1000 Ang^3
#
#
#
# Elastic Constant Matrix: (Units=GPa)
#
#
# Indices 1 2 3 4 5 6 
#
# 1 96.8149 12.8407 56.6949 0.0000 0.0000 0.0000
# 2 12.8407 34.0245 34.6964 0.0000 0.0000 0.0000
# 3 56.6949 34.6964 119.6480 0.0000 0.0000 0.0000
# 4 0.0000 0.0000 0.0000 19.2183 0.0000 0.0000
# 5 0.0000 0.0000 0.0000 0.0000 11.4015 0.0000
# 6 0.0000 0.0000 0.0000 0.0000 0.0000 9.2678
#
#
#
# Elastic Compliance Matrix: (Units=1/GPa)
#
#
# Indices 1 2 3 4 5 6 
#
# 1 0.014407 0.002165 -0.007455 0.000000 0.000000 0.000000
# 2 0.002165 0.042056 -0.013221 0.000000 0.000000 0.000000
# 3 -0.007455 -0.013221 0.015724 0.000000 0.000000 0.000000
# 4 0.000000 0.000000 0.000000 0.052034 0.000000 0.000000
# 5 0.000000 0.000000 0.000000 0.000000 0.087708 0.000000
# 6 0.000000 0.000000 0.000000 0.000000 0.000000 0.107900
#
#
# Mechanical properties :
#
#
# Convention : Reuss Voigt Hill
#
# Bulk Modulus (GPa) = 28.43753 50.99459 39.71606
# Shear Modulus (GPa) = 13.56581 17.72789 15.64685
#
# Velocity S-wave (km/s) = 2.75196 3.14592 2.95551
# Velocity P-wave (km/s) = 5.09640 6.45477 5.81538
#
# Compressibility (1/GPa) = 0.03516480
#
# Stress axis : x y z
#
# Youngs Moduli (GPa) = 69.40929 23.77774 63.59628
#
# Poissons Ratio (x) = -0.05147 0.47408
# Poissons Ratio (y) = -0.15024 0.84083
# Poissons Ratio (z) = 0.51741 0.31437
#
# Static dielectric constant tensor:
#      x y z
#    x 3.491950 0.000000 0.000000 
#    y 0.000000 2.901260 0.000000 
#    z 0.000000 0.000000 3.291880 
# 
# 
# High freq. dielectric constant tensor:
#      x y z
#    x 1.695490 0.000000 0.000000 
#    y 0.000000 1.633300 0.000000 
#    z 0.000000 0.000000 1.688400 
# 
# From -- ./inp_files/18731.got.cif
#   From: 2010.03.12/outbox.cif.g09.slc.cpg/sg38_10_cif.got.tgz:18731.got - 2010.04.14 02:38:36.
