data_PCOD8180158
_publ_section_title
;
Structure prediction by ZEFSAII (Michael W. Deem and Ramdas Pophale) SiO2 
 PCOD8180158
Probable space group: A M M 2
;
_chemical_formula_sum "Si O2"
_cell_formula_units_Z 64
_cell_length_a 8.863844
_cell_length_b 14.655728
_cell_length_c 24.308068
_cell_angle_alpha 90.000000
_cell_angle_beta 90.000000
_cell_angle_gamma 90.000000
_cell_volume 3157.765989
_symmetry_space_group_name_H-M "A M M 2"
_symmetry_group_IT_number 38
_symmetry_cell_setting 'orthorhombic'
loop_
_space_group_symop_operation_xyz
x,y,z
-x,-y,z
-x,y,z
x,-y,z
x,1/2+y,1/2+z
-x,1/2-y,1/2+z
-x,1/2+y,1/2+z
x,1/2-y,1/2+z
loop_
_atom_site_type_symbol
_atom_site_label
_atom_site_fract_x
_atom_site_fract_y
_atom_site_fract_z
Si Si1 0.164514 0.892110 0.413250
Si Si2 0.678067 0.267721 0.589084
Si Si3 0.322811 0.894275 0.766624
Si Si4 0.170474 0.608151 0.378336
Si Si5 0.820837 0.760663 0.202804
Si Si6 0.676982 0.105096 0.988866
Si Si7 0.180426 0.397769 0.795807
Si Si8 0.179528 0.604436 0.032096
O O1 0.245655 0.863226 0.355756
O O2 0.245506 0.867918 0.471167
O O3 0.000000 0.845347 0.414835
O O4 0.143026 0.000000 0.411209
O O5 0.500000 0.268152 0.596801
O O6 0.756096 0.297906 0.645556
O O7 0.730429 0.337921 0.541826
O O8 0.734746 0.166060 0.575955
O O9 0.500000 0.878146 0.764465
O O10 0.261926 0.857415 0.825226
O O11 0.243587 0.839153 0.717360
O O12 0.280199 0.000000 0.758256
O O13 0.179168 0.500000 0.381290
O O14 0.242067 0.646893 0.434744
O O15 0.000000 0.643828 0.372798
O O16 0.760554 0.830867 0.248774
O O17 0.000000 0.756149 0.199683
O O18 0.500000 0.114391 0.978840
O O19 0.723384 0.000000 0.998991
O O20 0.238463 0.500000 0.782486
O O21 0.000000 0.397293 0.799037
O O22 0.218880 0.500000 0.046120
O O23 0.000000 0.620044 0.034764
#
# Coordination Sequence:
#
# PCOD8180158 Si02
#       8
#     8   8   8   8   8   8   8   8
#     4   7  11  24  49  79 107 132 160 198 250 313
#     4  11  24  39  54  75 105 144 189 232 274 322
#     4  10  21  38  59  81 110 148 183 220 271 328
#     4   9  17  31  55  87 116 140 174 222 273 326
#     4  11  23  37  55  80 108 141 185 233 273 315
#     4   9  19  37  58  79 108 147 186 224 271 327
#     4   8  15  30  53  82 113 140 167 206 261 321
#     4   9  18  34  57  83 109 138 172 214 267 325
#
# _framework density 20.267492000000001
#
# number of rings (size 3 to 8) (size 9 to 14) (size 15 to 20)
#    0.000    2.750    0.000    3.000    0.000    5.500 
#    0.000    1.250    0.000    1.875    0.000    3.500 
#    0.000    0.000    0.000    0.000    0.000    0.000 
#
# Total GULP energy -396635.231625 kJ/mol
# GULP energy per Si atom -12394.850988 kJ/mol
# Density = 2.022136 g / cm^3
# Si number density = 20.267492 Si / 1000 Ang^3
#
#
#
# Elastic Constant Matrix: (Units=GPa)
#
#
# Indices 1 2 3 4 5 6 
#
# 1 55.5872 11.9837 20.9512 0.0000 0.0000 0.0000
# 2 11.9837 41.1574 10.1610 0.0000 0.0000 0.0000
# 3 20.9512 10.1610 96.7910 0.0000 0.0000 0.0000
# 4 0.0000 0.0000 0.0000 35.2898 0.0000 0.0000
# 5 0.0000 0.0000 0.0000 0.0000 30.9427 0.0000
# 6 0.0000 0.0000 0.0000 0.0000 0.0000 17.5381
#
#
#
# Elastic Compliance Matrix: (Units=1/GPa)
#
#
# Indices 1 2 3 4 5 6 
#
# 1 0.020549 -0.005015 -0.003922 0.000000 0.000000 0.000000
# 2 -0.005015 0.026167 -0.001661 0.000000 0.000000 0.000000
# 3 -0.003922 -0.001661 0.011355 0.000000 0.000000 0.000000
# 4 0.000000 0.000000 0.000000 0.028337 0.000000 0.000000
# 5 0.000000 0.000000 0.000000 0.000000 0.032318 0.000000
# 6 0.000000 0.000000 0.000000 0.000000 0.000000 0.057019
#
#
# Mechanical properties :
#
#
# Convention : Reuss Voigt Hill
#
# Bulk Modulus (GPa) = 27.11861 31.08084 29.09973
# Shear Modulus (GPa) = 23.89689 26.78343 25.34016
#
# Velocity S-wave (km/s) = 3.43749 3.63918 3.53977
# Velocity P-wave (km/s) = 5.40042 5.74690 5.57635
#
# Compressibility (1/GPa) = 0.03687505
#
# Stress axis : x y z
#
# Youngs Moduli (GPa) = 48.66424 38.21556 88.06841
#
# Poissons Ratio (x) = 0.19165 0.34536
# Poissons Ratio (y) = 0.24405 0.14632
# Poissons Ratio (z) = 0.19084 0.06349
#
# Static dielectric constant tensor:
#      x y z
#    x 3.325730 0.000000 0.000000 
#    y 0.000000 3.592270 0.000000 
#    z 0.000000 0.000000 3.964950 
# 
# 
# High freq. dielectric constant tensor:
#      x y z
#    x 1.758770 0.000000 0.000000 
#    y 0.000000 1.784410 0.000000 
#    z 0.000000 0.000000 1.802570 
# 
# From -- ./inp_files/22164.got.cif
#   From: 2010.03.12/outbox.cif.g09.slc.cpg/sg38_12_cif.got.tgz:22164.got - 2010.04.14 02:38:36.
