data_PCOD8180511
_publ_section_title
;
Structure prediction by ZEFSAII (Michael W. Deem and Ramdas Pophale) SiO2 
 PCOD8180511
Probable space group: A M M 2
;
_chemical_formula_sum "Si O2"
_cell_formula_units_Z 56
_cell_length_a 19.682995
_cell_length_b 15.120483
_cell_length_c 9.397591
_cell_angle_alpha 90.000000
_cell_angle_beta 90.000000
_cell_angle_gamma 90.000000
_cell_volume 2796.877120
_symmetry_space_group_name_H-M "A M M 2"
_symmetry_group_IT_number 38
_symmetry_cell_setting 'orthorhombic'
loop_
_space_group_symop_operation_xyz
x,y,z
-x,-y,z
-x,y,z
x,-y,z
x,1/2+y,1/2+z
-x,1/2-y,1/2+z
-x,1/2+y,1/2+z
x,1/2-y,1/2+z
loop_
_atom_site_type_symbol
_atom_site_label
_atom_site_fract_x
_atom_site_fract_y
_atom_site_fract_z
Si Si1 0.769270 0.749893 0.421360
Si Si2 0.422446 0.897354 0.242554
Si Si3 0.872628 0.099317 0.334023
Si Si4 0.670201 0.259597 0.171219
Si Si5 0.000000 0.656648 0.000021
Si Si6 0.000000 0.156764 0.843888
Si Si7 0.422554 0.597061 0.072087
Si Si8 0.127393 0.900658 0.009918
O O1 0.814333 0.832930 0.375906
O O2 0.719839 0.720873 0.298683
O O3 0.718686 0.779835 0.541489
O O4 0.814389 0.667375 0.468465
O O5 0.500000 0.877831 0.191223
O O6 0.366771 0.836264 0.163451
O O7 0.416201 0.873876 0.408307
O O8 0.404685 0.000000 0.213002
O O9 0.933796 0.105009 0.446688
O O10 0.842894 0.000000 0.342719
O O11 0.897507 0.119692 0.171972
O O12 0.612590 0.333838 0.176254
O O13 0.000000 0.749901 0.921819
O O14 0.000000 0.664899 0.171942
O O15 0.066232 0.105196 0.897245
O O16 0.500000 0.594206 0.119668
O O17 0.389853 0.500000 0.092593
O O18 0.156970 0.000000 0.001119
#
# Coordination Sequence:
#
# PCOD8180511 Si02
#       8
#     8   8   8   8   4   4   8   8
#     4  12  26  41  62  93 128 173 210 260 310 377
#     4   9  19  38  65  93 122 163 213 259 309 376
#     4  11  25  46  69  94 127 170 217 263 320 382
#     4  12  23  40  63  92 129 165 213 255 318 371
#     4  12  25  42  71 100 128 164 213 269 322 373
#     4  12  25  42  71 100 130 164 211 269 322 375
#     4   9  19  38  64  93 124 162 209 260 313 374
#     4  11  25  46  68  94 129 169 213 265 324 378
#
# _framework density 20.022331000000001
#
# number of rings (size 3 to 8) (size 9 to 14) (size 15 to 20)
#    0.000    1.143    4.286    3.000    2.000    4.571 
#    0.000    0.000    0.000    1.714    0.000    0.000 
#    0.000    0.000    0.000    0.000    0.000    0.000 
#
# Total GULP energy -347121.410046 kJ/mol
# GULP energy per Si atom -12397.193216 kJ/mol
# Density = 1.997676 g / cm^3
# Si number density = 20.022331 Si / 1000 Ang^3
#
#
#
# Elastic Constant Matrix: (Units=GPa)
#
#
# Indices 1 2 3 4 5 6 
#
# 1 88.9677 48.6977 43.8919 0.0000 0.0000 0.0000
# 2 48.6977 132.2779 44.9000 0.0000 0.0000 0.0000
# 3 43.8919 44.9000 133.2216 0.0000 0.0000 0.0000
# 4 0.0000 0.0000 0.0000 25.8157 0.0000 0.0000
# 5 0.0000 0.0000 0.0000 0.0000 35.8214 0.0000
# 6 0.0000 0.0000 0.0000 0.0000 0.0000 -64.6020
#
#
#
# Elastic Compliance Matrix: (Units=1/GPa)
#
#
# Indices 1 2 3 4 5 6 
#
# 1 0.015457 -0.004474 -0.003585 0.000000 0.000000 0.000000
# 2 -0.004474 0.009831 -0.001839 0.000000 0.000000 0.000000
# 3 -0.003585 -0.001839 0.009307 0.000000 0.000000 0.000000
# 4 0.000000 0.000000 0.000000 0.038736 0.000000 0.000000
# 5 0.000000 0.000000 0.000000 0.000000 0.027916 0.000000
# 6 0.000000 0.000000 0.000000 0.000000 0.000000 -0.015479
#
#
# Mechanical properties :
#
#
# Convention : Reuss Voigt Hill
#
# Bulk Modulus (GPa) = 67.56884 69.93850 68.75367
# Shear Modulus (GPa) = 45.24952 13.87220 29.56086
#
# Velocity S-wave (km/s) = 4.75905 2.63503 3.84656
# Velocity P-wave (km/s) = 8.00113 6.65312 7.35806
#
# Compressibility (1/GPa) = 0.01479972
#
# Stress axis : x y z
#
# Youngs Moduli (GPa) = 64.69397 101.71662 107.44190
#
# Poissons Ratio (x) = 0.45506 0.38517
# Poissons Ratio (y) = 0.28943 0.19764
# Poissons Ratio (z) = 0.23192 0.18711
#
# Static dielectric constant tensor:
#      x y z
#    x 3.770230 0.000000 0.000000 
#    y 0.000000 3.743640 0.000000 
#    z 0.000000 0.000000 3.641640 
# 
# 
# High freq. dielectric constant tensor:
#      x y z
#    x 1.785970 0.000000 0.000000 
#    y 0.000000 1.792090 0.000000 
#    z 0.000000 0.000000 1.777220 
# 
# From -- ./inp_files/6761.got.cif
#   From: 2010.03.12/outbox.cif.g09.slc.cpg/sg38_4_cif.got.tgz:6761.got - 2010.04.14 02:38:36.
