data_PCOD8180210
_publ_section_title
;
Structure prediction by ZEFSAII (Michael W. Deem and Ramdas Pophale) SiO2 
 PCOD8180210
Probable space group: A M M 2
;
_chemical_formula_sum "Si O2"
_cell_formula_units_Z 56
_cell_length_a 21.294656
_cell_length_b 8.579854
_cell_length_c 15.431383
_cell_angle_alpha 90.000000
_cell_angle_beta 90.000000
_cell_angle_gamma 90.000000
_cell_volume 2819.391440
_symmetry_space_group_name_H-M "A M M 2"
_symmetry_group_IT_number 38
_symmetry_cell_setting 'orthorhombic'
loop_
_space_group_symop_operation_xyz
x,y,z
-x,-y,z
-x,y,z
x,-y,z
x,1/2+y,1/2+z
-x,1/2-y,1/2+z
-x,1/2+y,1/2+z
x,1/2-y,1/2+z
loop_
_atom_site_type_symbol
_atom_site_label
_atom_site_fract_x
_atom_site_fract_y
_atom_site_fract_z
Si Si1 0.928902 0.315364 0.316930
Si Si2 0.848870 0.685225 0.476276
Si Si3 0.928828 0.184549 0.136091
Si Si4 0.500000 0.677631 0.892624
Si Si5 0.500000 0.682318 0.576977
Si Si6 0.365201 0.319595 0.822250
Si Si7 0.294084 0.683110 0.482438
Si Si8 0.629420 0.316838 0.139847
O O1 0.926719 0.500000 0.314997
O O2 0.884188 0.247570 0.391889
O O3 0.902979 0.251079 0.226275
O O4 0.000000 0.256492 0.333644
O O5 0.852537 0.500000 0.475423
O O6 0.884231 0.751329 0.560822
O O7 0.777342 0.742165 0.476010
O O8 0.000000 0.242160 0.118844
O O9 0.926124 0.000000 0.139359
O O10 0.500000 0.500000 0.928032
O O11 0.560491 0.709959 0.833587
O O12 0.500000 0.792530 0.974038
O O13 0.500000 0.500000 0.597304
O O14 0.560038 0.758831 0.620108
O O15 0.347821 0.500000 0.834639
O O16 0.327959 0.219266 0.892411
O O17 0.344951 0.264368 0.726901
O O18 0.298923 0.500000 0.501724
O O19 0.325519 0.775709 0.560592
O O20 0.628804 0.500000 0.154297
#
# Coordination Sequence:
#
# PCOD8180210 Si02
#       8
#     8   8   8   4   4   8   8   8
#     4   9  17  32  55  82 111 144 184 232 286 341
#     4   9  19  35  56  80 110 150 192 232 280 343
#     4   9  17  32  55  82 111 145 187 234 283 336
#     4  10  21  38  63  90 120 150 185 238 293 348
#     4  12  23  38  65  94 122 152 189 238 295 348
#     4  11  23  41  64  89 118 152 195 242 294 348
#     4  11  23  40  59  84 118 156 199 244 292 346
#     4  12  25  42  63  88 120 156 197 241 291 347
#
# _framework density 19.862442999999999
#
# number of rings (size 3 to 8) (size 9 to 14) (size 15 to 20)
#    0.000    1.714    1.429    3.643    0.000    4.000 
#    0.000    6.429    0.000    3.429    0.000    0.000 
#    0.000    0.000    0.000    0.000    0.000    0.000 
#
# Total GULP energy -347309.702909 kJ/mol
# GULP energy per Si atom -12403.917961 kJ/mol
# Density = 1.981724 g / cm^3
# Si number density = 19.862443 Si / 1000 Ang^3
#
#
#
# Elastic Constant Matrix: (Units=GPa)
#
#
# Indices 1 2 3 4 5 6 
#
# 1 130.4379 18.3557 68.6883 0.0000 0.0000 0.0000
# 2 18.3557 44.3589 9.2873 0.0000 0.0000 0.0000
# 3 68.6883 9.2873 151.3282 0.0000 0.0000 0.0000
# 4 0.0000 0.0000 0.0000 36.3771 0.0000 0.0000
# 5 0.0000 0.0000 0.0000 0.0000 -53.7685 0.0000
# 6 0.0000 0.0000 0.0000 0.0000 0.0000 12.2817
#
#
#
# Elastic Compliance Matrix: (Units=1/GPa)
#
#
# Indices 1 2 3 4 5 6 
#
# 1 0.010560 -0.003410 -0.004584 0.000000 0.000000 0.000000
# 2 -0.003410 0.023938 0.000079 0.000000 0.000000 0.000000
# 3 -0.004584 0.000079 0.008684 0.000000 0.000000 0.000000
# 4 0.000000 0.000000 0.000000 0.027490 0.000000 0.000000
# 5 0.000000 0.000000 0.000000 0.000000 -0.018598 0.000000
# 6 0.000000 0.000000 0.000000 0.000000 0.000000 0.081422
#
#
# Mechanical properties :
#
#
# Convention : Reuss Voigt Hill
#
# Bulk Modulus (GPa) = 36.56108 57.64306 47.10207
# Shear Modulus (GPa) = 31.55694 14.29764 22.92729
#
# Velocity S-wave (km/s) = 3.99027 2.68588 3.40119
# Velocity P-wave (km/s) = 6.29895 6.22115 6.26017
#
# Compressibility (1/GPa) = 0.02735149
#
# Stress axis : x y z
#
# Youngs Moduli (GPa) = 94.69398 41.77454 115.15368
#
# Poissons Ratio (x) = 0.14246 0.52787
# Poissons Ratio (y) = 0.32292 -0.00907
# Poissons Ratio (z) = 0.43408 -0.00329
#
# Static dielectric constant tensor:
#      x y z
#    x 3.796290 0.000000 0.000000 
#    y 0.000000 3.432100 0.000000 
#    z 0.000000 0.000000 3.775310 
# 
# 
# High freq. dielectric constant tensor:
#      x y z
#    x 1.772260 0.000000 0.000000 
#    y 0.000000 1.761020 0.000000 
#    z 0.000000 0.000000 1.789360 
# 
# From -- ./inp_files/15593.got.cif
#   From: 2010.03.12/outbox.cif.g09.slc.cpg/sg38_8_cif.got.tgz:15593.got - 2010.04.14 02:38:36.
