data_PCOD8180286
_publ_section_title
;
Structure prediction by ZEFSAII (Michael W. Deem and Ramdas Pophale) SiO2 
 PCOD8180286
Probable space group: A M M 2
;
_chemical_formula_sum "Si O2"
_cell_formula_units_Z 64
_cell_length_a 9.414605
_cell_length_b 18.152561
_cell_length_c 20.852707
_cell_angle_alpha 90.000000
_cell_angle_beta 90.000000
_cell_angle_gamma 90.000000
_cell_volume 3563.710768
_symmetry_space_group_name_H-M "A M M 2"
_symmetry_group_IT_number 38
_symmetry_cell_setting 'orthorhombic'
loop_
_space_group_symop_operation_xyz
x,y,z
-x,-y,z
-x,y,z
x,-y,z
x,1/2+y,1/2+z
-x,1/2-y,1/2+z
-x,1/2+y,1/2+z
x,1/2-y,1/2+z
loop_
_atom_site_type_symbol
_atom_site_label
_atom_site_fract_x
_atom_site_fract_y
_atom_site_fract_z
Si Si1 0.164659 0.587630 0.215540
Si Si2 0.336388 0.665372 0.602806
Si Si3 0.166327 0.914445 0.492020
Si Si4 0.831380 0.414373 0.492769
Si Si5 0.843169 0.912520 0.348817
Si Si6 0.334872 0.414629 0.730253
Si Si7 0.664656 0.661537 0.102622
Si Si8 0.835415 0.585644 0.354147
O O1 0.178432 0.500000 0.209847
O O2 0.263294 0.624863 0.163596
O O3 0.223914 0.615498 0.285796
O O4 0.000000 0.610358 0.205024
O O5 0.500000 0.643455 0.591326
O O6 0.244804 0.635121 0.544734
O O7 0.279479 0.629237 0.668460
O O8 0.315049 0.751797 0.608157
O O9 0.207396 0.889050 0.419872
O O10 0.261001 0.865414 0.538149
O O11 0.000000 0.900501 0.505240
O O12 0.202506 0.000000 0.503439
O O13 0.790315 0.500000 0.502442
O O14 0.777043 0.383950 0.422480
O O15 0.000000 0.404574 0.498944
O O16 0.739974 0.881821 0.293744
O O17 0.000000 0.880554 0.335376
O O18 0.847727 0.000000 0.346998
O O19 0.500000 0.402006 0.741305
O O20 0.296848 0.500000 0.719693
O O21 0.500000 0.638905 0.100810
O O22 0.805689 0.500000 0.356528
O O23 0.000000 0.602595 0.351869
#
# Coordination Sequence:
#
# PCOD8180286 Si02
#       8
#     8   8   8   8   8   8   8   8
#     4   9  17  32  55  77  97 126 161 197 244 300
#     4  10  22  37  48  65 100 141 172 198 238 290
#     4   9  18  34  55  76  98 126 159 197 247 302
#     4   9  17  31  54  81 102 123 159 205 246 286
#     4   8  15  29  50  76 101 120 147 196 249 292
#     4   9  17  31  52  73  93 124 164 200 237 286
#     4  11  23  35  47  68 100 135 170 207 241 278
#     4   7  12  26  49  76 101 121 148 193 246 295
#
# _framework density 17.958808000000001
#
# number of rings (size 3 to 8) (size 9 to 14) (size 15 to 20)
#    0.000    3.000    0.000    3.375    0.000    4.750 
#    0.000    4.375    0.000    8.250    0.000    0.000 
#    0.000    0.000    0.000    0.000    0.000    0.000 
#
# Total GULP energy -396511.535150 kJ/mol
# GULP energy per Si atom -12390.985473 kJ/mol
# Density = 1.791793 g / cm^3
# Si number density = 17.958808 Si / 1000 Ang^3
#
#
#
# Elastic Constant Matrix: (Units=GPa)
#
#
# Indices 1 2 3 4 5 6 
#
# 1 68.7345 34.0373 73.7140 0.0000 0.0000 0.0000
# 2 34.0373 45.0795 48.2799 0.0000 0.0000 0.0000
# 3 73.7140 48.2799 191.8837 0.0000 0.0000 0.0000
# 4 0.0000 0.0000 0.0000 -3.5930 0.0000 0.0000
# 5 0.0000 0.0000 0.0000 0.0000 12.7251 0.0000
# 6 0.0000 0.0000 0.0000 0.0000 0.0000 22.4601
#
#
#
# Elastic Compliance Matrix: (Units=1/GPa)
#
#
# Indices 1 2 3 4 5 6 
#
# 1 0.030184 -0.014197 -0.008023 0.000000 0.000000 0.000000
# 2 -0.014197 0.037044 -0.003867 0.000000 0.000000 0.000000
# 3 -0.008023 -0.003867 0.009267 0.000000 0.000000 0.000000
# 4 0.000000 0.000000 0.000000 -0.278317 0.000000 0.000000
# 5 0.000000 0.000000 0.000000 0.000000 0.078585 0.000000
# 6 0.000000 0.000000 0.000000 0.000000 0.000000 0.044523
#
#
# Mechanical properties :
#
#
# Convention : Reuss Voigt Hill
#
# Bulk Modulus (GPa) = 41.11869 68.64002 54.87936
# Shear Modulus (GPa) = -271.23946 16.29620 -127.47163
#
# Velocity S-wave (km/s) = -12.30293 3.01561 -8.43410
# Velocity P-wave (km/s) = 13.37424 7.10134 8.01378
#
# Compressibility (1/GPa) = 0.02431984
#
# Stress axis : x y z
#
# Youngs Moduli (GPa) = 33.13048 26.99501 107.91536
#
# Poissons Ratio (x) = 0.38326 0.86582
# Poissons Ratio (y) = 0.47037 0.41726
# Poissons Ratio (z) = 0.26581 0.10438
#
# Static dielectric constant tensor:
#      x y z
#    x 3.229820 0.000000 0.000000 
#    y 0.000000 2.986910 0.000000 
#    z 0.000000 0.000000 3.817100 
# 
# 
# High freq. dielectric constant tensor:
#      x y z
#    x 1.676070 0.000000 0.000000 
#    y 0.000000 1.661530 0.000000 
#    z 0.000000 0.000000 1.721640 
# 
# From -- ./inp_files/20074.got.cif
#   From: 2010.03.12/outbox.cif.g09.slc.cpg/sg38_11_cif.got.tgz:20074.got - 2010.04.14 02:38:36.
