data_PCOD8180941
_publ_section_title
;
Structure prediction by ZEFSAII (Michael W. Deem and Ramdas Pophale) SiO2 
 PCOD8180941
Probable space group: A B M 2
;
_chemical_formula_sum "Si O2"
_cell_formula_units_Z 64
_cell_length_a 14.422676
_cell_length_b 9.373983
_cell_length_c 24.650870
_cell_angle_alpha 90.000000
_cell_angle_beta 90.000000
_cell_angle_gamma 90.000000
_cell_volume 3332.746341
_symmetry_space_group_name_H-M "A B M 2"
_symmetry_group_IT_number 39
_symmetry_cell_setting 'orthorhombic'
loop_
_space_group_symop_operation_xyz
x,y,z
-x,-y,z
-x,1/2+y,z
x,1/2-y,z
x,1/2+y,1/2+z
-x,1/2-y,1/2+z
-x,y,1/2+z
x,-y,1/2+z
loop_
_atom_site_type_symbol
_atom_site_label
_atom_site_fract_x
_atom_site_fract_y
_atom_site_fract_z
Si Si1 0.275011 0.584027 0.400670
Si Si2 0.090303 0.418334 0.428460
Si Si3 0.856267 0.585921 0.548576
Si Si4 0.412894 0.411515 0.122394
Si Si5 0.686016 0.908204 0.019083
Si Si6 0.915485 0.914090 0.664698
Si Si7 0.287847 0.086079 0.695372
Si Si8 0.596711 0.916995 0.802018
O O1 0.246769 0.750000 0.392605
O O2 0.181781 0.489048 0.402122
O O3 0.334022 0.559814 0.455981
O O4 0.343474 0.531365 0.353595
O O5 0.087702 0.250000 0.413912
O O6 0.086829 0.441885 0.493495
O O7 0.000000 0.500000 0.404813
O O8 0.835690 0.750000 0.558447
O O9 0.756531 0.517892 0.544074
O O10 0.905720 0.527067 0.602667
O O11 0.500000 0.500000 0.143476
O O12 0.424045 0.250000 0.143124
O O13 0.405786 0.417650 0.056600
O O14 0.322073 0.480999 0.148436
O O15 0.729894 0.750000 0.023960
O O16 0.944064 0.750000 0.664824
O O17 0.822605 0.939141 0.700135
O O18 0.000000 0.000000 0.692282
O O19 0.307782 0.250000 0.678926
O O20 0.339154 0.046074 0.750843
O O21 0.573722 0.750000 0.805820
O O22 0.500000 0.000000 0.798777
#
# Coordination Sequence:
#
# PCOD8180941 Si02
#       8
#     8   8   8   8   8   8   8   8
#     4   9  19  37  57  79 110 144 182 231 279 325
#     4  10  19  31  51  81 114 150 190 226 270 324
#     4   9  17  30  49  75 108 147 184 222 266 317
#     4  11  22  34  52  80 110 144 181 221 275 336
#     4   9  18  32  51  76 108 144 179 219 270 325
#     4  10  20  33  52  78 110 145 181 221 269 321
#     4  10  21  39  59  80 110 145 183 229 276 325
#     4  10  22  40  63  85 106 139 184 233 283 331
#
# _framework density 19.203381
#
# number of rings (size 3 to 8) (size 9 to 14) (size 15 to 20)
#    0.000    2.250    1.250    1.500    0.000    4.500 
#    0.000    0.625    0.000    1.500    0.000    0.000 
#    0.000    0.000    0.000    0.000    0.000    0.000 
#
# Total GULP energy -396649.083022 kJ/mol
# GULP energy per Si atom -12395.283844 kJ/mol
# Density = 1.915967 g / cm^3
# Si number density = 19.203381 Si / 1000 Ang^3
#
#
#
# Elastic Constant Matrix: (Units=GPa)
#
#
# Indices 1 2 3 4 5 6 
#
# 1 122.3913 62.2037 56.2437 0.0000 0.0000 0.0000
# 2 62.2037 81.7964 39.9234 0.0000 0.0000 0.0000
# 3 56.2437 39.9234 93.9331 0.0000 0.0000 0.0000
# 4 0.0000 0.0000 0.0000 18.8566 0.0000 0.0000
# 5 0.0000 0.0000 0.0000 0.0000 23.2202 0.0000
# 6 0.0000 0.0000 0.0000 0.0000 0.0000 36.2971
#
#
#
# Elastic Compliance Matrix: (Units=1/GPa)
#
#
# Indices 1 2 3 4 5 6 
#
# 1 0.015131 -0.008939 -0.005261 0.000000 0.000000 0.000000
# 2 -0.008939 0.020706 -0.003448 0.000000 0.000000 0.000000
# 3 -0.005261 -0.003448 0.015261 0.000000 0.000000 0.000000
# 4 0.000000 0.000000 0.000000 0.053032 0.000000 0.000000
# 5 0.000000 0.000000 0.000000 0.000000 0.043066 0.000000
# 6 0.000000 0.000000 0.000000 0.000000 0.000000 0.027550
#
#
# Mechanical properties :
#
#
# Convention : Reuss Voigt Hill
#
# Bulk Modulus (GPa) = 63.27960 68.31801 65.79880
# Shear Modulus (GPa) = 23.22221 24.99143 24.10682
#
# Velocity S-wave (km/s) = 3.48124 3.61142 3.54693
# Velocity P-wave (km/s) = 7.01303 7.28307 7.14932
#
# Compressibility (1/GPa) = 0.01580288
#
# Stress axis : x y z
#
# Youngs Moduli (GPa) = 66.08845 48.29408 65.52509
#
# Poissons Ratio (x) = 0.43171 0.34471
# Poissons Ratio (y) = 0.59078 0.22594
# Poissons Ratio (z) = 0.34767 0.16653
#
# Static dielectric constant tensor:
#      x y z
#    x 3.337460 0.000000 0.000000 
#    y 0.000000 3.539630 0.000000 
#    z 0.000000 0.000000 3.495630 
# 
# 
# High freq. dielectric constant tensor:
#      x y z
#    x 1.739390 0.000000 0.000000 
#    y 0.000000 1.747890 0.000000 
#    z 0.000000 0.000000 1.733240 
# 
# From -- ./inp_files/16135.got.cif
#   From: 2010.03.12/outbox.cif.g09.slc.cpg/sg39_9_cif.got.tgz:16135.got - 2010.04.14 02:53:20.
