data_PCOD8180771
_publ_section_title
;
Structure prediction by ZEFSAII (Michael W. Deem and Ramdas Pophale) SiO2 
 PCOD8180771
Probable space group: A B M 2
;
_chemical_formula_sum "Si O2"
_cell_formula_units_Z 64
_cell_length_a 19.296584
_cell_length_b 8.863276
_cell_length_c 20.705025
_cell_angle_alpha 90.000000
_cell_angle_beta 90.000000
_cell_angle_gamma 90.000000
_cell_volume 3541.200092
_symmetry_space_group_name_H-M "A B M 2"
_symmetry_group_IT_number 39
_symmetry_cell_setting 'orthorhombic'
loop_
_space_group_symop_operation_xyz
x,y,z
-x,-y,z
-x,1/2+y,z
x,1/2-y,z
x,1/2+y,1/2+z
-x,1/2-y,1/2+z
-x,y,1/2+z
x,-y,1/2+z
loop_
_atom_site_type_symbol
_atom_site_label
_atom_site_fract_x
_atom_site_fract_y
_atom_site_fract_z
Si Si1 0.289277 0.429027 0.687680
Si Si2 0.931921 0.424150 0.007883
Si Si3 0.289246 0.928610 0.442366
Si Si4 0.430329 0.072728 0.998708
Si Si5 0.428291 0.928514 0.646937
Si Si6 0.070933 0.429095 0.870119
Si Si7 0.213514 0.422723 0.558365
Si Si8 0.784759 0.571143 0.816069
O O1 0.299091 0.250000 0.690168
O O2 0.364646 0.505466 0.687907
O O3 0.244634 0.480275 0.625818
O O4 0.246930 0.490885 0.749481
O O5 0.946978 0.250000 0.991656
O O6 0.869755 0.440665 0.059272
O O7 0.000000 0.500000 0.039464
O O8 0.913478 0.508243 0.941350
O O9 0.288435 0.750000 0.440423
O O10 0.367312 0.987318 0.454737
O O11 0.260425 0.996350 0.375403
O O12 0.241245 0.976121 0.501050
O O13 0.438704 0.250000 0.994652
O O14 0.500000 0.000000 0.970842
O O15 0.416874 0.022476 0.072558
O O16 0.431559 0.750000 0.655660
O O17 0.500000 0.000000 0.672897
O O18 0.063562 0.250000 0.873907
O O19 0.134856 0.477517 0.823901
O O20 0.000000 0.500000 0.841833
O O21 0.235025 0.250000 0.545675
O O22 0.779556 0.750000 0.817410
#
# Coordination Sequence:
#
# PCOD8180771 Si02
#       8
#     8   8   8   8   8   8   8   8
#     4  10  20  36  54  76 106 141 177 213 256 312
#     4  10  19  31  48  75 104 133 169 214 262 308
#     4  10  18  33  54  76 101 133 173 213 255 308
#     4   9  18  30  49  75 103 130 165 211 255 303
#     4  10  19  33  53  79 105 136 174 215 260 308
#     4  10  18  31  52  76 101 134 172 213 258 308
#     4  10  20  32  51  77 104 132 168 216 262 303
#     4   9  19  34  54  76 103 141 176 209 258 312
#
# _framework density 18.072969000000001
#
# number of rings (size 3 to 8) (size 9 to 14) (size 15 to 20)
#    0.000    2.250    2.500    1.875    0.000    1.500 
#    0.000    3.125    0.000    1.500    0.000    0.000 
#    0.000    0.000    0.000    0.000    0.000    0.000 
#
# Total GULP energy -396755.422044 kJ/mol
# GULP energy per Si atom -12398.606939 kJ/mol
# Density = 1.803183 g / cm^3
# Si number density = 18.072969 Si / 1000 Ang^3
#
#
#
# Elastic Constant Matrix: (Units=GPa)
#
#
# Indices 1 2 3 4 5 6 
#
# 1 170.9318 39.8286 69.3100 0.0000 0.0000 0.0000
# 2 39.8286 46.6545 19.1088 0.0000 0.0000 0.0000
# 3 69.3100 19.1088 98.4081 0.0000 0.0000 0.0000
# 4 0.0000 0.0000 0.0000 15.5652 0.0000 0.0000
# 5 0.0000 0.0000 0.0000 0.0000 30.6842 0.0000
# 6 0.0000 0.0000 0.0000 0.0000 0.0000 30.7868
#
#
#
# Elastic Compliance Matrix: (Units=1/GPa)
#
#
# Indices 1 2 3 4 5 6 
#
# 1 0.009441 -0.005797 -0.005524 0.000000 0.000000 0.000000
# 2 -0.005797 0.026846 -0.001130 0.000000 0.000000 0.000000
# 3 -0.005524 -0.001130 0.014271 0.000000 0.000000 0.000000
# 4 0.000000 0.000000 0.000000 0.064246 0.000000 0.000000
# 5 0.000000 0.000000 0.000000 0.000000 0.032590 0.000000
# 6 0.000000 0.000000 0.000000 0.000000 0.000000 0.032481
#
#
# Mechanical properties :
#
#
# Convention : Reuss Voigt Hill
#
# Bulk Modulus (GPa) = 38.97579 63.60991 51.29285
# Shear Modulus (GPa) = 23.43793 27.92371 25.68082
#
# Velocity S-wave (km/s) = 3.60509 3.93498 3.77364
# Velocity P-wave (km/s) = 6.24031 7.47783 6.88693
#
# Compressibility (1/GPa) = 0.02565696
#
# Stress axis : x y z
#
# Youngs Moduli (GPa) = 105.92310 37.24950 70.06976
#
# Poissons Ratio (x) = 0.21594 0.38704
# Poissons Ratio (y) = 0.61406 0.07917
# Poissons Ratio (z) = 0.58507 0.04209
#
# Static dielectric constant tensor:
#      x y z
#    x 3.700610 0.000000 0.000000 
#    y 0.000000 3.197350 0.000000 
#    z 0.000000 0.000000 3.272040 
# 
# 
# High freq. dielectric constant tensor:
#      x y z
#    x 1.719280 0.000000 0.000000 
#    y 0.000000 1.689000 0.000000 
#    z 0.000000 0.000000 1.666870 
# 
# From -- ./inp_files/13112.got.cif
#   From: 2010.03.12/outbox.cif.g09.slc.cpg/sg39_7_cif.got.tgz:13112.got - 2010.04.14 02:53:20.
