data_PCOD8180060
_publ_section_title
;
Structure prediction by ZEFSAII (Michael W. Deem and Ramdas Pophale) SiO2 
 PCOD8180060
Probable space group: A M M 2
;
_chemical_formula_sum "Si O2"
_cell_formula_units_Z 64
_cell_length_a 9.061768
_cell_length_b 14.410329
_cell_length_c 27.632529
_cell_angle_alpha 90.000000
_cell_angle_beta 90.000000
_cell_angle_gamma 90.000000
_cell_volume 3608.340143
_symmetry_space_group_name_H-M "A M M 2"
_symmetry_group_IT_number 38
_symmetry_cell_setting 'orthorhombic'
loop_
_space_group_symop_operation_xyz
x,y,z
-x,-y,z
-x,y,z
x,-y,z
x,1/2+y,1/2+z
-x,1/2-y,1/2+z
-x,1/2+y,1/2+z
x,1/2-y,1/2+z
loop_
_atom_site_type_symbol
_atom_site_label
_atom_site_fract_x
_atom_site_fract_y
_atom_site_fract_z
Si Si1 0.826322 0.277972 0.918340
Si Si2 0.328399 0.104208 0.950860
Si Si3 0.671611 0.394627 0.109860
Si Si4 0.672429 0.392302 0.727471
Si Si5 0.331755 0.606877 0.997854
Si Si6 0.331429 0.892539 0.062725
Si Si7 0.170875 0.606908 0.825911
Si Si8 0.825664 0.780223 0.143075
O O1 0.760666 0.174464 0.916919
O O2 0.772392 0.331942 0.870709
O O3 0.000000 0.271233 0.919762
O O4 0.774961 0.330925 0.966121
O O5 0.500000 0.113832 0.939172
O O6 0.274064 0.000000 0.939345
O O7 0.298198 0.128054 0.006851
O O8 0.500000 0.376865 0.120481
O O9 0.714527 0.500000 0.123535
O O10 0.706248 0.375621 0.053701
O O11 0.769093 0.325803 0.142308
O O12 0.500000 0.370324 0.724897
O O13 0.705437 0.500000 0.716640
O O14 0.731807 0.364251 0.780083
O O15 0.756401 0.331560 0.688515
O O16 0.500000 0.636215 0.987158
O O17 0.306399 0.500000 0.984320
O O18 0.500000 0.865323 0.075464
O O19 0.221165 0.831060 0.093852
O O20 0.304871 0.000000 0.074947
O O21 0.196495 0.500000 0.840020
O O22 0.000000 0.625954 0.813766
O O23 0.000000 0.781551 0.148072
#
# Coordination Sequence:
#
# PCOD8180060 Si02
#       8
#     8   8   8   8   8   8   8   8
#     4  11  21  31  49  77 106 136 167 203 253 306
#     4   9  19  35  52  70  97 136 178 217 253 288
#     4   9  19  36  54  71  97 136 178 216 250 285
#     4  10  21  37  57  79 101 128 165 207 249 296
#     4   9  18  32  50  73 102 137 175 211 246 289
#     4   9  18  33  51  71  99 136 176 214 249 290
#     4   9  19  36  54  74 104 135 160 195 249 307
#     4  12  23  32  49  77 106 135 165 202 253 308
#
# _framework density 17.736687
#
# number of rings (size 3 to 8) (size 9 to 14) (size 15 to 20)
#    0.000    2.250    0.000    4.875    0.000    8.750 
#    0.000    3.750    0.000    0.750    0.000    3.500 
#    0.000    0.000    0.000    0.000    0.000    0.000 
#
# Total GULP energy -396883.203104 kJ/mol
# GULP energy per Si atom -12402.600097 kJ/mol
# Density = 1.769632 g / cm^3
# Si number density = 17.736687 Si / 1000 Ang^3
#
#
#
# Elastic Constant Matrix: (Units=GPa)
#
#
# Indices 1 2 3 4 5 6 
#
# 1 94.8753 65.9593 57.2854 0.0000 0.0000 0.0000
# 2 65.9593 115.4845 70.6879 0.0000 0.0000 0.0000
# 3 57.2854 70.6879 80.6986 0.0000 0.0000 0.0000
# 4 0.0000 0.0000 0.0000 30.4488 0.0000 0.0000
# 5 0.0000 0.0000 0.0000 0.0000 -29.6988 0.0000
# 6 0.0000 0.0000 0.0000 0.0000 0.0000 27.8649
#
#
#
# Elastic Compliance Matrix: (Units=1/GPa)
#
#
# Indices 1 2 3 4 5 6 
#
# 1 0.020177 -0.005944 -0.009116 0.000000 0.000000 0.000000
# 2 -0.005944 0.020420 -0.013667 0.000000 0.000000 0.000000
# 3 -0.009116 -0.013667 0.030835 0.000000 0.000000 0.000000
# 4 0.000000 0.000000 0.000000 0.032842 0.000000 0.000000
# 5 0.000000 0.000000 0.000000 0.000000 -0.033671 0.000000
# 6 0.000000 0.000000 0.000000 0.000000 0.000000 0.035887
#
#
# Mechanical properties :
#
#
# Convention : Reuss Voigt Hill
#
# Bulk Modulus (GPa) = 71.54826 75.43596 73.49211
# Shear Modulus (GPa) = 29.65528 12.19803 20.92666
#
# Velocity S-wave (km/s) = 4.09341 2.62530 3.43862
# Velocity P-wave (km/s) = 7.92263 7.19812 7.56905
#
# Compressibility (1/GPa) = 0.01397658
#
# Stress axis : x y z
#
# Youngs Moduli (GPa) = 49.56149 48.97193 32.43067
#
# Poissons Ratio (x) = 0.29109 0.29565
# Poissons Ratio (y) = 0.29460 0.44324
# Poissons Ratio (z) = 0.45182 0.66931
#
# Static dielectric constant tensor:
#      x y z
#    x 6.764210 0.000000 0.000000 
#    y 0.000000 3.425000 0.000000 
#    z 0.000000 0.000000 3.166690 
# 
# 
# High freq. dielectric constant tensor:
#      x y z
#    x 1.682990 0.000000 0.000000 
#    y 0.000000 1.692540 0.000000 
#    z 0.000000 0.000000 1.666090 
# 
# From -- ./inp_files/22229.got.cif
#   From: 2010.03.12/outbox.cif.g09.slc.cpg/sg38_12_cif.got.tgz:22229.got - 2010.04.14 02:38:36.
