data_PCOD8180445
_publ_section_title
;
Structure prediction by ZEFSAII (Michael W. Deem and Ramdas Pophale) SiO2 
 PCOD8180445
Probable space group: A M M 2
;
_chemical_formula_sum "Si O2"
_cell_formula_units_Z 64
_cell_length_a 9.126767
_cell_length_b 14.604894
_cell_length_c 28.192504
_cell_angle_alpha 90.000000
_cell_angle_beta 90.000000
_cell_angle_gamma 90.000000
_cell_volume 3757.932919
_symmetry_space_group_name_H-M "A M M 2"
_symmetry_group_IT_number 38
_symmetry_cell_setting 'orthorhombic'
loop_
_space_group_symop_operation_xyz
x,y,z
-x,-y,z
-x,y,z
x,-y,z
x,1/2+y,1/2+z
-x,1/2-y,1/2+z
-x,1/2+y,1/2+z
x,1/2-y,1/2+z
loop_
_atom_site_type_symbol
_atom_site_label
_atom_site_fract_x
_atom_site_fract_y
_atom_site_fract_z
Si Si1 0.174010 0.900756 0.408340
Si Si2 0.173803 0.899129 0.955337
Si Si3 0.831279 0.605983 0.015691
Si Si4 0.174571 0.783737 0.868326
Si Si5 0.172092 0.105291 0.778560
Si Si6 0.827884 0.394742 0.562040
Si Si7 0.671603 0.395487 0.182978
Si Si8 0.673445 0.723025 0.093576
O O1 0.223846 0.878158 0.461911
O O2 0.227126 0.822204 0.371735
O O3 0.000000 0.905556 0.409030
O O4 0.237178 0.000000 0.392133
O O5 0.239123 0.832626 0.915289
O O6 0.000000 0.902031 0.952071
O O7 0.237432 0.000000 0.945317
O O8 0.217780 0.867884 0.008229
O O9 0.812785 0.500000 0.030017
O O10 0.730997 0.668198 0.048407
O O11 0.000000 0.637013 0.021510
O O12 0.235668 0.831561 0.820960
O O13 0.000000 0.791340 0.868433
O O14 0.248148 0.137939 0.730431
O O15 0.000000 0.119078 0.772281
O O16 0.210322 0.000000 0.790547
O O17 0.783701 0.500000 0.573175
O O18 0.740310 0.325409 0.596065
O O19 0.000000 0.381418 0.570159
O O20 0.500000 0.386895 0.191896
O O21 0.715648 0.500000 0.170592
O O22 0.724643 0.330597 0.140560
O O23 0.500000 0.729617 0.090489
#
# Coordination Sequence:
#
# PCOD8180445 Si02
#       8
#     8   8   8   8   8   8   8   8
#     4   8  14  24  39  62  91 121 151 180 213 259
#     4   8  13  22  39  64  91 117 144 174 212 260
#     4   9  17  29  46  69  96 125 157 191 226 268
#     4   9  14  21  38  63  90 116 141 176 220 262
#     4   9  17  28  44  68  91 109 138 183 229 267
#     4   9  18  32  49  69  94 125 159 191 222 261
#     4   9  19  35  50  64  87 119 150 180 223 280
#     4  11  21  31  47  69  92 121 156 192 231 277
#
# _framework density 17.030639000000001
#
# number of rings (size 3 to 8) (size 9 to 14) (size 15 to 20)
#    0.000    3.000    0.000    3.375    0.000    5.500 
#    0.000    1.250    0.000    3.750    0.000    5.250 
#    0.000    0.000    0.000    0.000    0.000    0.000 
#
# Total GULP energy -396635.487357 kJ/mol
# GULP energy per Si atom -12394.858980 kJ/mol
# Density = 1.699188 g / cm^3
# Si number density = 17.030639 Si / 1000 Ang^3
#
#
#
# Elastic Constant Matrix: (Units=GPa)
#
#
# Indices 1 2 3 4 5 6 
#
# 1 27.2196 32.4255 27.3295 0.0000 0.0000 0.0000
# 2 32.4255 129.2445 84.6364 0.0000 0.0000 0.0000
# 3 27.3295 84.6364 106.9251 0.0000 0.0000 0.0000
# 4 0.0000 0.0000 0.0000 30.6596 0.0000 0.0000
# 5 0.0000 0.0000 0.0000 0.0000 3.1201 0.0000
# 6 0.0000 0.0000 0.0000 0.0000 0.0000 18.1398
#
#
#
# Elastic Compliance Matrix: (Units=1/GPa)
#
#
# Indices 1 2 3 4 5 6 
#
# 1 0.054457 -0.009442 -0.006445 0.000000 0.000000 0.000000
# 2 -0.009442 0.017701 -0.011598 0.000000 0.000000 0.000000
# 3 -0.006445 -0.011598 0.020180 0.000000 0.000000 0.000000
# 4 0.000000 0.000000 0.000000 0.032616 0.000000 0.000000
# 5 0.000000 0.000000 0.000000 0.000000 0.320506 0.000000
# 6 0.000000 0.000000 0.000000 0.000000 0.000000 0.055127
#
#
# Mechanical properties :
#
#
# Convention : Reuss Voigt Hill
#
# Bulk Modulus (GPa) = 26.76074 61.35245 44.05659
# Shear Modulus (GPa) = 8.80259 18.31708 13.55984
#
# Velocity S-wave (km/s) = 2.27594 3.28310 2.82477
# Velocity P-wave (km/s) = 4.75962 7.10455 6.04684
#
# Compressibility (1/GPa) = 0.03736818
#
# Stress axis : x y z
#
# Youngs Moduli (GPa) = 18.36306 56.49380 49.55368
#
# Poissons Ratio (x) = 0.53339 0.31939
# Poissons Ratio (y) = 0.17338 0.57472
# Poissons Ratio (z) = 0.11836 0.65522
#
# Static dielectric constant tensor:
#      x y z
#    x 2.746740 0.000000 0.000000 
#    y 0.000000 3.494750 0.000000 
#    z 0.000000 0.000000 3.161430 
# 
# 
# High freq. dielectric constant tensor:
#      x y z
#    x 1.611720 0.000000 0.000000 
#    y 0.000000 1.665390 0.000000 
#    z 0.000000 0.000000 1.639910 
# 
# From -- ./inp_files/24731.got.cif
#   From: 2010.03.12/outbox.cif.g09.slc.cpg/sg38_13_cif.got.tgz:24731.got - 2010.04.14 02:38:36.
