data_PCOD8180265
_publ_section_title
;
Structure prediction by ZEFSAII (Michael W. Deem and Ramdas Pophale) SiO2 
 PCOD8180265
Probable space group: A M M 2
;
_chemical_formula_sum "Si O2"
_cell_formula_units_Z 40
_cell_length_a 8.405366
_cell_length_b 29.475318
_cell_length_c 7.662476
_cell_angle_alpha 90.000000
_cell_angle_beta 90.000000
_cell_angle_gamma 90.000000
_cell_volume 1898.384833
_symmetry_space_group_name_H-M "A M M 2"
_symmetry_group_IT_number 38
_symmetry_cell_setting 'orthorhombic'
loop_
_space_group_symop_operation_xyz
x,y,z
-x,-y,z
-x,y,z
x,-y,z
x,1/2+y,1/2+z
-x,1/2-y,1/2+z
-x,1/2+y,1/2+z
x,1/2-y,1/2+z
loop_
_atom_site_type_symbol
_atom_site_label
_atom_site_fract_x
_atom_site_fract_y
_atom_site_fract_z
Si Si1 0.685670 0.110741 0.553980
Si Si2 0.811999 0.615075 0.667074
Si Si3 0.319050 0.790738 0.189623
Si Si4 0.813604 0.552047 0.350854
Si Si5 0.182068 0.701792 0.050304
O O1 0.500000 0.120461 0.555236
O O2 0.739970 0.101404 0.354684
O O3 0.724994 0.067941 0.675484
O O4 0.778952 0.153794 0.643055
O O5 0.752760 0.664525 0.597998
O O6 0.755093 0.579122 0.522435
O O7 0.000000 0.616183 0.687757
O O8 0.500000 0.783132 0.128112
O O9 0.213232 0.745862 0.165285
O O10 0.309280 0.798879 0.394725
O O11 0.768695 0.500000 0.383146
O O12 0.000000 0.559080 0.321789
O O13 0.000000 0.702217 0.985394
#
# Coordination Sequence:
#
# PCOD8180265 Si02
#       5
#     8   8   8   8   8
#     4  11  23  40  62  91 128 164 203 256 316 374
#     4  10  21  40  64  90 123 163 210 258 309 372
#     4  11  22  37  57  86 122 159 201 252 309 365
#     4  10  23  43  67  93 121 161 213 262 312 373
#     4  11  22  38  59  85 119 162 208 249 298 369
#
# _framework density 21.070546
#
# number of rings (size 3 to 8) (size 9 to 14) (size 15 to 20)
#    0.000    1.400    0.000    8.400    2.800    2.800 
#    0.000    2.000    0.000    0.000    0.000    0.000 
#    0.000    0.000    0.000    0.000    0.000    0.000 
#
# Total GULP energy -247965.594990 kJ/mol
# GULP energy per Si atom -12398.279750 kJ/mol
# Density = 2.102259 g / cm^3
# Si number density = 21.070546 Si / 1000 Ang^3
#
#
#
# Elastic Constant Matrix: (Units=GPa)
#
#
# Indices 1 2 3 4 5 6 
#
# 1 106.3984 40.4956 33.2122 0.0000 0.0000 0.0000
# 2 40.4956 124.7040 44.0662 0.0000 0.0000 0.0000
# 3 33.2122 44.0662 77.6199 0.0000 0.0000 0.0000
# 4 0.0000 0.0000 0.0000 35.5469 0.0000 0.0000
# 5 0.0000 0.0000 0.0000 0.0000 24.7638 0.0000
# 6 0.0000 0.0000 0.0000 0.0000 0.0000 26.4449
#
#
#
# Elastic Compliance Matrix: (Units=1/GPa)
#
#
# Indices 1 2 3 4 5 6 
#
# 1 0.011430 -0.002481 -0.003482 0.000000 0.000000 0.000000
# 2 -0.002481 0.010570 -0.004939 0.000000 0.000000 0.000000
# 3 -0.003482 -0.004939 0.017177 0.000000 0.000000 0.000000
# 4 0.000000 0.000000 0.000000 0.028132 0.000000 0.000000
# 5 0.000000 0.000000 0.000000 0.000000 0.040382 0.000000
# 6 0.000000 0.000000 0.000000 0.000000 0.000000 0.037815
#
#
# Mechanical properties :
#
#
# Convention : Reuss Voigt Hill
#
# Bulk Modulus (GPa) = 57.56254 60.47449 59.01851
# Shear Modulus (GPa) = 28.88492 30.08099 29.48296
#
# Velocity S-wave (km/s) = 3.70654 3.78250 3.74471
# Velocity P-wave (km/s) = 6.75989 6.91662 6.83871
#
# Compressibility (1/GPa) = 0.01737241
#
# Stress axis : x y z
#
# Youngs Moduli (GPa) = 87.48974 94.60684 58.21670
#
# Poissons Ratio (x) = 0.23474 0.20271
# Poissons Ratio (y) = 0.21708 0.28754
# Poissons Ratio (z) = 0.30464 0.46728
#
# Static dielectric constant tensor:
#      x y z
#    x 3.676870 0.000000 0.000000 
#    y 0.000000 4.214260 0.000000 
#    z 0.000000 0.000000 3.649120 
# 
# 
# High freq. dielectric constant tensor:
#      x y z
#    x 1.831840 0.000000 0.000000 
#    y 0.000000 1.832920 0.000000 
#    z 0.000000 0.000000 1.813570 
# 
# From -- ./inp_files/3289.got.cif
#   From: 2010.03.12/outbox.cif.g09.slc.cpg/sg38_2_cif.got.tgz:3289.got - 2010.04.14 02:38:36.
