data_PCOD8180510
_publ_section_title
;
Structure prediction by ZEFSAII (Michael W. Deem and Ramdas Pophale) SiO2 
 PCOD8180510
Probable space group: A M M 2
;
_chemical_formula_sum "Si O2"
_cell_formula_units_Z 48
_cell_length_a 13.680536
_cell_length_b 19.828519
_cell_length_c 8.856732
_cell_angle_alpha 90.000000
_cell_angle_beta 90.000000
_cell_angle_gamma 90.000000
_cell_volume 2402.519351
_symmetry_space_group_name_H-M "A M M 2"
_symmetry_group_IT_number 38
_symmetry_cell_setting 'orthorhombic'
loop_
_space_group_symop_operation_xyz
x,y,z
-x,-y,z
-x,y,z
x,-y,z
x,1/2+y,1/2+z
-x,1/2-y,1/2+z
-x,1/2+y,1/2+z
x,1/2-y,1/2+z
loop_
_atom_site_type_symbol
_atom_site_label
_atom_site_fract_x
_atom_site_fract_y
_atom_site_fract_z
Si Si1 0.794247 0.308048 0.599490
Si Si2 0.500000 0.156936 0.965361
Si Si3 0.289075 0.312736 0.918207
Si Si4 0.000000 0.226888 0.970193
Si Si5 0.799588 0.923108 0.626049
Si Si6 0.500000 0.709030 0.801380
Si Si7 0.304656 0.423498 0.441115
Si Si8 0.000000 0.848410 0.658475
O O1 0.781649 0.298148 0.777370
O O2 0.722651 0.252744 0.523577
O O3 0.906056 0.301323 0.555679
O O4 0.764839 0.383320 0.554484
O O5 0.500000 0.210771 0.829237
O O6 0.589317 0.107364 0.948769
O O7 0.500000 0.196956 0.123035
O O8 0.402380 0.323516 0.873780
O O9 0.252347 0.380723 0.995902
O O10 0.000000 0.307950 0.998773
O O11 0.000000 0.206451 0.794727
O O12 0.732262 0.917781 0.771449
O O13 0.905622 0.894987 0.669257
O O14 0.810179 0.000000 0.570212
O O15 0.306510 0.500000 0.498533
#
# Coordination Sequence:
#
# PCOD8180510 Si02
#       8
#     8   4   8   4   8   4   8   4
#     4  12  23  42  67 100 134 170 221 277 329 387
#     4  12  25  42  67 101 130 174 221 280 333 398
#     4  12  24  42  68  99 136 174 218 282 328 397
#     4  12  24  38  71 105 127 170 219 278 326 396
#     4  11  26  45  67  95 135 183 224 273 335 399
#     4  12  24  40  69 101 131 166 221 276 338 394
#     4  11  24  44  66  93 132 179 224 269 330 396
#     4  12  23  42  69  99 136 170 225 276 333 398
#
# _framework density 19.979029000000001
#
# number of rings (size 3 to 8) (size 9 to 14) (size 15 to 20)
#    0.000    0.333    6.667    2.500    2.333    0.667 
#    0.000    1.667    0.000    0.000    0.000    0.000 
#    0.000    0.000    0.000    0.000    0.000    0.000 
#
# Total GULP energy -297699.183072 kJ/mol
# GULP energy per Si atom -12404.132628 kJ/mol
# Density = 1.993356 g / cm^3
# Si number density = 19.979029 Si / 1000 Ang^3
#
#
#
# Elastic Constant Matrix: (Units=GPa)
#
#
# Indices 1 2 3 4 5 6 
#
# 1 137.7830 47.8306 21.1662 0.0000 0.0000 0.0000
# 2 47.8306 160.3814 65.4479 0.0000 0.0000 0.0000
# 3 21.1662 65.4479 87.7954 0.0000 0.0000 0.0000
# 4 0.0000 0.0000 0.0000 35.8953 0.0000 0.0000
# 5 0.0000 0.0000 0.0000 0.0000 24.4252 0.0000
# 6 0.0000 0.0000 0.0000 0.0000 0.0000 8.1209
#
#
#
# Elastic Compliance Matrix: (Units=1/GPa)
#
#
# Indices 1 2 3 4 5 6 
#
# 1 0.008099 -0.002326 -0.000218 0.000000 0.000000 0.000000
# 2 -0.002326 0.009629 -0.006617 0.000000 0.000000 0.000000
# 3 -0.000218 -0.006617 0.016376 0.000000 0.000000 0.000000
# 4 0.000000 0.000000 0.000000 0.027859 0.000000 0.000000
# 5 0.000000 0.000000 0.000000 0.000000 0.040941 0.000000
# 6 0.000000 0.000000 0.000000 0.000000 0.000000 0.123140
#
#
# Mechanical properties :
#
#
# Convention : Reuss Voigt Hill
#
# Bulk Modulus (GPa) = 63.37198 72.76102 68.06650
# Shear Modulus (GPa) = 20.02982 30.45594 25.24288
#
# Velocity S-wave (km/s) = 3.16973 3.90859 3.55839
# Velocity P-wave (km/s) = 6.72193 7.54103 7.14323
#
# Compressibility (1/GPa) = 0.01577985
#
# Stress axis : x y z
#
# Youngs Moduli (GPa) = 123.47398 103.84964 61.06566
#
# Poissons Ratio (x) = 0.24157 0.01334
# Poissons Ratio (y) = 0.28722 0.40410
# Poissons Ratio (z) = 0.02697 0.68722
#
# Static dielectric constant tensor:
#      x y z
#    x 3.704390 0.000000 0.000000 
#    y 0.000000 3.780240 0.000000 
#    z 0.000000 0.000000 3.686970 
# 
# 
# High freq. dielectric constant tensor:
#      x y z
#    x 1.804030 0.000000 0.000000 
#    y 0.000000 1.777500 0.000000 
#    z 0.000000 0.000000 1.781740 
# 
# From -- ./inp_files/5522.got.cif
#   From: 2010.03.12/outbox.cif.g09.slc.cpg/sg38_3_cif.got.tgz:5522.got - 2010.04.14 02:38:36.
