data_PCOD8180066
_publ_section_title
;
Structure prediction by ZEFSAII (Michael W. Deem and Ramdas Pophale) SiO2 
 PCOD8180066
Probable space group: A M M 2
;
_chemical_formula_sum "Si O2"
_cell_formula_units_Z 48
_cell_length_a 7.777261
_cell_length_b 9.619266
_cell_length_c 34.272850
_cell_angle_alpha 90.000000
_cell_angle_beta 90.000000
_cell_angle_gamma 90.000000
_cell_volume 2564.004768
_symmetry_space_group_name_H-M "A M M 2"
_symmetry_group_IT_number 38
_symmetry_cell_setting 'orthorhombic'
loop_
_space_group_symop_operation_xyz
x,y,z
-x,-y,z
-x,y,z
x,-y,z
x,1/2+y,1/2+z
-x,1/2-y,1/2+z
-x,1/2+y,1/2+z
x,1/2-y,1/2+z
loop_
_atom_site_type_symbol
_atom_site_label
_atom_site_fract_x
_atom_site_fract_y
_atom_site_fract_z
Si Si1 0.500000 0.339107 0.741451
Si Si2 0.500000 0.163621 0.819179
Si Si3 0.808046 0.841518 0.874486
Si Si4 0.199097 0.339400 0.682513
Si Si5 0.803221 0.345898 0.112100
Si Si6 0.702722 0.161708 0.445106
Si Si7 0.699764 0.660498 0.030214
O O1 0.500000 0.500000 0.753905
O O2 0.500000 0.244275 0.779106
O O3 0.325330 0.303107 0.718137
O O4 0.330275 0.210184 0.842907
O O5 0.500000 0.000000 0.810458
O O6 0.802721 0.749464 0.913194
O O7 0.000000 0.828495 0.856526
O O8 0.766088 0.000000 0.886321
O O9 0.215632 0.500000 0.670902
O O10 0.272395 0.253365 0.645542
O O11 0.000000 0.303590 0.693571
O O12 0.714295 0.500000 0.113211
O O13 0.784074 0.273917 0.069187
O O14 0.000000 0.364258 0.122042
O O15 0.500000 0.182938 0.439927
O O16 0.761786 0.218725 0.488087
O O17 0.750749 0.000000 0.440237
O O18 0.500000 0.685762 0.034225
O O19 0.749599 0.500000 0.029931
#
# Coordination Sequence:
#
# PCOD8180066 Si02
#       7
#     4   4   8   8   8   8   8
#     4  10  22  38  58  81 102 131 169 206 253 316
#     4  10  22  40  58  79 108 135 163 210 265 312
#     4  10  21  37  57  80 107 141 176 211 260 318
#     4   9  19  36  54  74 105 138 166 206 258 305
#     4   9  17  29  47  72 101 135 175 216 254 296
#     4   9  17  31  52  77 107 142 181 223 263 306
#     4   8  15  27  44  70 103 137 172 214 259 297
#
# _framework density 18.720714000000001
#
# number of rings (size 3 to 8) (size 9 to 14) (size 15 to 20)
#    0.000    2.833    0.833    1.000    1.167    3.000 
#    0.000    2.500    0.000    3.000    0.000    0.000 
#    0.000    0.000    0.000    0.000    0.000    0.000 
#
# Total GULP energy -297392.342191 kJ/mol
# GULP energy per Si atom -12391.347591 kJ/mol
# Density = 1.867810 g / cm^3
# Si number density = 18.720714 Si / 1000 Ang^3
#
#
#
# Elastic Constant Matrix: (Units=GPa)
#
#
# Indices 1 2 3 4 5 6 
#
# 1 88.8302 32.5923 59.8030 0.0000 0.0000 0.0000
# 2 32.5923 58.2323 65.3656 0.0000 0.0000 0.0000
# 3 59.8030 65.3656 163.6109 0.0000 0.0000 0.0000
# 4 0.0000 0.0000 0.0000 31.2990 0.0000 0.0000
# 5 0.0000 0.0000 0.0000 0.0000 19.0126 0.0000
# 6 0.0000 0.0000 0.0000 0.0000 0.0000 16.8188
#
#
#
# Elastic Compliance Matrix: (Units=1/GPa)
#
#
# Indices 1 2 3 4 5 6 
#
# 1 0.015476 -0.004192 -0.003982 0.000000 0.000000 0.000000
# 2 -0.004192 0.032271 -0.011361 0.000000 0.000000 0.000000
# 3 -0.003982 -0.011361 0.012106 0.000000 0.000000 0.000000
# 4 0.000000 0.000000 0.000000 0.031950 0.000000 0.000000
# 5 0.000000 0.000000 0.000000 0.000000 0.052597 0.000000
# 6 0.000000 0.000000 0.000000 0.000000 0.000000 0.059457
#
#
# Mechanical properties :
#
#
# Convention : Reuss Voigt Hill
#
# Bulk Modulus (GPa) = 48.11343 69.57724 58.84533
# Shear Modulus (GPa) = 20.01155 23.62025 21.81590
#
# Velocity S-wave (km/s) = 3.27303 3.55592 3.41740
# Velocity P-wave (km/s) = 6.32772 7.35568 6.86098
#
# Compressibility (1/GPa) = 0.02078422
#
# Stress axis : x y z
#
# Youngs Moduli (GPa) = 64.61440 30.98738 82.60114
#
# Poissons Ratio (x) = 0.12991 0.32892
# Poissons Ratio (y) = 0.27088 0.93840
# Poissons Ratio (z) = 0.25730 0.35204
#
# Static dielectric constant tensor:
#      x y z
#    x 3.491310 0.000000 0.000000 
#    y 0.000000 3.350330 0.000000 
#    z 0.000000 0.000000 3.487200 
# 
# 
# High freq. dielectric constant tensor:
#      x y z
#    x 1.728500 0.000000 0.000000 
#    y 0.000000 1.696770 0.000000 
#    z 0.000000 0.000000 1.727310 
# 
# From -- ./inp_files/24424.got.cif
#   From: 2010.03.12/outbox.cif.g09.slc.cpg/sg38_13_cif.got.tgz:24424.got - 2010.04.14 02:38:36.
