data_PCOD8180246
_publ_section_title
;
Structure prediction by ZEFSAII (Michael W. Deem and Ramdas Pophale) SiO2 
 PCOD8180246
Probable space group: A M M 2
;
_chemical_formula_sum "Si O2"
_cell_formula_units_Z 48
_cell_length_a 8.431414
_cell_length_b 16.919694
_cell_length_c 16.834570
_cell_angle_alpha 90.000000
_cell_angle_beta 90.000000
_cell_angle_gamma 90.000000
_cell_volume 2401.568324
_symmetry_space_group_name_H-M "A M M 2"
_symmetry_group_IT_number 38
_symmetry_cell_setting 'orthorhombic'
loop_
_space_group_symop_operation_xyz
x,y,z
-x,-y,z
-x,y,z
x,-y,z
x,1/2+y,1/2+z
-x,1/2-y,1/2+z
-x,1/2+y,1/2+z
x,1/2-y,1/2+z
loop_
_atom_site_type_symbol
_atom_site_label
_atom_site_fract_x
_atom_site_fract_y
_atom_site_fract_z
Si Si1 0.314880 0.323924 0.688910
Si Si2 0.311511 0.000000 0.623861
Si Si3 0.816785 0.909366 0.038957
Si Si4 0.312920 0.349950 0.215111
Si Si5 0.312061 0.500000 0.941509
Si Si6 0.315358 0.819291 0.891806
Si Si7 0.815307 0.847568 0.355167
O O1 0.500000 0.324909 0.710218
O O2 0.285730 0.372519 0.609460
O O3 0.254340 0.233423 0.678232
O O4 0.222737 0.362931 0.762560
O O5 0.237047 0.922446 0.666267
O O6 0.260858 0.000000 0.532975
O O7 0.500000 0.000000 0.632983
O O8 0.000000 0.902426 0.062179
O O9 0.764733 0.000000 0.027155
O O10 0.786888 0.862468 0.958203
O O11 0.500000 0.354197 0.207567
O O12 0.263403 0.356314 0.307383
O O13 0.500000 0.500000 0.929441
O O14 0.235837 0.576309 0.903094
O O15 0.500000 0.833005 0.909840
O O16 0.281875 0.725968 0.890739
O O17 0.000000 0.830889 0.366333
#
# Coordination Sequence:
#
# PCOD8180246 Si02
#       7
#     8   4   8   8   4   8   8
#     4  10  21  39  63  90 119 156 207 253 301 367
#     4   9  18  33  57  90 123 150 187 245 300 347
#     4  11  25  41  59  88 126 162 202 252 314 374
#     4   8  17  34  58  89 119 150 190 245 300 352
#     4  11  23  37  61  92 123 158 205 253 298 361
#     4  10  21  39  64  91 120 156 207 254 301 366
#     4  11  23  41  63  87 124 164 201 249 314 369
#
# _framework density 19.986940000000001
#
# number of rings (size 3 to 8) (size 9 to 14) (size 15 to 20)
#    0.000    2.000    0.000    4.250    4.667    1.333 
#    0.000    0.000    0.000    3.000    0.000    0.000 
#    0.000    0.000    0.000    0.000    0.000    0.000 
#
# Total GULP energy -297661.358523 kJ/mol
# GULP energy per Si atom -12402.556605 kJ/mol
# Density = 1.994145 g / cm^3
# Si number density = 19.986940 Si / 1000 Ang^3
#
#
#
# Elastic Constant Matrix: (Units=GPa)
#
#
# Indices 1 2 3 4 5 6 
#
# 1 51.1900 16.1503 16.7076 0.0000 0.0000 0.0000
# 2 16.1503 125.7124 80.3102 0.0000 0.0000 0.0000
# 3 16.7076 80.3102 128.1869 0.0000 0.0000 0.0000
# 4 0.0000 0.0000 0.0000 32.1311 0.0000 0.0000
# 5 0.0000 0.0000 0.0000 0.0000 25.2645 0.0000
# 6 0.0000 0.0000 0.0000 0.0000 0.0000 24.2502
#
#
#
# Elastic Compliance Matrix: (Units=1/GPa)
#
#
# Indices 1 2 3 4 5 6 
#
# 1 0.020583 -0.001551 -0.001711 0.000000 0.000000 0.000000
# 2 -0.001551 0.013380 -0.008180 0.000000 0.000000 0.000000
# 3 -0.001711 -0.008180 0.013149 0.000000 0.000000 0.000000
# 4 0.000000 0.000000 0.000000 0.031122 0.000000 0.000000
# 5 0.000000 0.000000 0.000000 0.000000 0.039581 0.000000
# 6 0.000000 0.000000 0.000000 0.000000 0.000000 0.041237
#
#
# Mechanical properties :
#
#
# Convention : Reuss Voigt Hill
#
# Bulk Modulus (GPa) = 41.27649 59.04726 50.16188
# Shear Modulus (GPa) = 26.31393 29.12392 27.71893
#
# Velocity S-wave (km/s) = 3.63237 3.82140 3.72809
# Velocity P-wave (km/s) = 6.18779 7.00556 6.60934
#
# Compressibility (1/GPa) = 0.02422687
#
# Stress axis : x y z
#
# Youngs Moduli (GPa) = 48.58401 74.73851 76.05014
#
# Poissons Ratio (x) = 0.11595 0.13010
# Poissons Ratio (y) = 0.07537 0.62213
# Poissons Ratio (z) = 0.08312 0.61140
#
# Static dielectric constant tensor:
#      x y z
#    x 3.431300 0.000000 0.000000 
#    y 0.000000 3.950770 0.000000 
#    z 0.000000 0.000000 3.676920 
# 
# 
# High freq. dielectric constant tensor:
#      x y z
#    x 1.764530 0.000000 0.000000 
#    y 0.000000 1.790430 0.000000 
#    z 0.000000 0.000000 1.785980 
# 
# From -- ./inp_files/12087.got.cif
#   From: 2010.03.12/outbox.cif.g09.slc.cpg/sg38_7_cif.got.tgz:12087.got - 2010.04.14 02:38:36.
