data_PCOD8180473
_publ_section_title
;
Structure prediction by ZEFSAII (Michael W. Deem and Ramdas Pophale) SiO2 
 PCOD8180473
Probable space group: A M M 2
;
_chemical_formula_sum "Si O2"
_cell_formula_units_Z 56
_cell_length_a 9.285785
_cell_length_b 23.762169
_cell_length_c 13.598072
_cell_angle_alpha 90.000000
_cell_angle_beta 90.000000
_cell_angle_gamma 90.000000
_cell_volume 3000.419924
_symmetry_space_group_name_H-M "A M M 2"
_symmetry_group_IT_number 38
_symmetry_cell_setting 'orthorhombic'
loop_
_space_group_symop_operation_xyz
x,y,z
-x,-y,z
-x,y,z
x,-y,z
x,1/2+y,1/2+z
-x,1/2-y,1/2+z
-x,1/2+y,1/2+z
x,1/2-y,1/2+z
loop_
_atom_site_type_symbol
_atom_site_label
_atom_site_fract_x
_atom_site_fract_y
_atom_site_fract_z
Si Si1 0.671307 0.937747 0.618400
Si Si2 0.170882 0.938320 0.033036
Si Si3 0.829058 0.173044 0.928573
Si Si4 0.335783 0.766648 0.533127
Si Si5 0.333467 0.380427 0.923640
Si Si6 0.167520 0.564284 0.753911
Si Si7 0.667832 0.830922 0.731958
O O1 0.500000 0.935189 0.613802
O O2 0.728586 0.920074 0.510823
O O3 0.722661 0.893302 0.700518
O O4 0.728809 0.000000 0.645535
O O5 0.226368 0.925875 0.143427
O O6 0.000000 0.939856 0.037269
O O7 0.227994 0.000000 0.997677
O O8 0.223357 0.889664 0.959175
O O9 0.772861 0.216118 0.010786
O O10 0.760330 0.189117 0.824328
O O11 0.000000 0.177538 0.921972
O O12 0.500000 0.745196 0.525830
O O13 0.310203 0.815864 0.453974
O O14 0.303325 0.788220 0.642844
O O15 0.500000 0.393570 0.904579
O O16 0.249013 0.392457 0.824084
O O17 0.197686 0.500000 0.786159
O O18 0.000000 0.578516 0.760660
O O19 0.500000 0.831434 0.760717
#
# Coordination Sequence:
#
# PCOD8180473 Si02
#       7
#     8   8   8   8   8   8   8
#     4   8  14  27  49  75 102 134 170 206 247 297
#     4   8  17  35  53  70  99 136 169 202 247 306
#     4  11  22  35  56  81 101 129 169 212 258 303
#     4   9  20  38  55  73 102 139 174 208 252 306
#     4   9  17  30  50  75 102 134 171 210 253 299
#     4   9  17  30  49  73 103 139 173 206 250 301
#     4   9  19  36  55  75 103 137 170 206 251 304
#
# _framework density 18.664055000000001
#
# number of rings (size 3 to 8) (size 9 to 14) (size 15 to 20)
#    0.000    3.000    0.000    3.429    0.000    3.714 
#    0.000    6.429    0.000    3.857    0.000    0.000 
#    0.000    0.000    0.000    0.000    0.000    0.000 
#
# Total GULP energy -347115.040507 kJ/mol
# GULP energy per Si atom -12396.965732 kJ/mol
# Density = 1.862157 g / cm^3
# Si number density = 18.664055 Si / 1000 Ang^3
#
#
#
# Elastic Constant Matrix: (Units=GPa)
#
#
# Indices 1 2 3 4 5 6 
#
# 1 59.9731 44.3583 44.1696 0.0000 0.0000 0.0000
# 2 44.3583 105.1994 52.3773 0.0000 0.0000 0.0000
# 3 44.1696 52.3773 99.6595 0.0000 0.0000 0.0000
# 4 0.0000 0.0000 0.0000 24.7997 0.0000 0.0000
# 5 0.0000 0.0000 0.0000 0.0000 27.9732 0.0000
# 6 0.0000 0.0000 0.0000 0.0000 0.0000 25.1094
#
#
#
# Elastic Compliance Matrix: (Units=1/GPa)
#
#
# Indices 1 2 3 4 5 6 
#
# 1 0.028868 -0.007859 -0.008664 0.000000 0.000000 0.000000
# 2 -0.007859 0.015014 -0.004408 0.000000 0.000000 0.000000
# 3 -0.008664 -0.004408 0.016191 0.000000 0.000000 0.000000
# 4 0.000000 0.000000 0.000000 0.040323 0.000000 0.000000
# 5 0.000000 0.000000 0.000000 0.000000 0.035749 0.000000
# 6 0.000000 0.000000 0.000000 0.000000 0.000000 0.039826
#
#
# Mechanical properties :
#
#
# Convention : Reuss Voigt Hill
#
# Bulk Modulus (GPa) = 54.91084 60.73806 57.82445
# Shear Modulus (GPa) = 22.33126 23.83823 23.08475
#
# Velocity S-wave (km/s) = 3.46278 3.57771 3.52071
# Velocity P-wave (km/s) = 6.74331 7.04841 6.89755
#
# Compressibility (1/GPa) = 0.01821134
#
# Stress axis : x y z
#
# Youngs Moduli (GPa) = 34.64077 66.60446 61.76368
#
# Poissons Ratio (x) = 0.52342 0.53513
# Poissons Ratio (y) = 0.27223 0.27224
# Poissons Ratio (z) = 0.30013 0.29358
#
# Static dielectric constant tensor:
#      x y z
#    x 3.027990 0.000000 0.000000 
#    y 0.000000 3.613330 0.000000 
#    z 0.000000 0.000000 3.347650 
# 
# 
# High freq. dielectric constant tensor:
#      x y z
#    x 1.689210 0.000000 0.000000 
#    y 0.000000 1.728080 0.000000 
#    z 0.000000 0.000000 1.723120 
# 
# From -- ./inp_files/12437.got.cif
#   From: 2010.03.12/outbox.cif.g09.slc.cpg/sg38_7_cif.got.tgz:12437.got - 2010.04.14 02:38:36.
