data_PCOD8180940
_publ_section_title
;
Structure prediction by ZEFSAII (Michael W. Deem and Ramdas Pophale) SiO2 
 PCOD8180940
Probable space group: A B M 2
;
_chemical_formula_sum "Si O2"
_cell_formula_units_Z 60
_cell_length_a 11.732814
_cell_length_b 21.235349
_cell_length_c 13.532388
_cell_angle_alpha 90.000000
_cell_angle_beta 90.000000
_cell_angle_gamma 90.000000
_cell_volume 3371.599884
_symmetry_space_group_name_H-M "A B M 2"
_symmetry_group_IT_number 39
_symmetry_cell_setting 'orthorhombic'
loop_
_space_group_symop_operation_xyz
x,y,z
-x,-y,z
-x,1/2+y,z
x,1/2-y,z
x,1/2+y,1/2+z
-x,1/2-y,1/2+z
-x,y,1/2+z
x,-y,1/2+z
loop_
_atom_site_type_symbol
_atom_site_label
_atom_site_fract_x
_atom_site_fract_y
_atom_site_fract_z
Si Si1 0.385431 0.539247 0.727490
Si Si2 0.385431 0.539247 0.946088
Si Si3 0.185366 0.056965 0.951979
Si Si4 0.315996 0.180120 0.949673
Si Si5 0.684004 0.180120 0.223905
Si Si6 0.000000 0.500000 0.086789
Si Si7 0.814634 0.056965 0.221599
Si Si8 0.500000 0.367767 0.586789
O O1 0.500000 0.500000 0.732665
O O2 0.360594 0.568051 0.836789
O O3 0.282933 0.493674 0.694912
O O4 0.403567 0.592267 0.645052
O O5 0.500000 0.500000 0.940913
O O6 0.282933 0.493674 0.978666
O O7 0.403567 0.592267 0.028526
O O8 0.225291 0.127273 0.981006
O O9 0.152764 0.052858 0.836789
O O10 0.074672 0.044662 0.017169
O O11 0.262948 0.250000 0.964724
O O12 0.352023 0.168234 0.836789
O O13 0.432525 0.175670 0.010763
O O14 0.737052 0.250000 0.208854
O O15 0.774709 0.127273 0.192572
O O16 0.567475 0.175670 0.162815
O O17 0.925328 0.455338 0.156409
#
# Coordination Sequence:
#
# PCOD8180940 Si02
#       8
#     8   8   8   8   8   4   8   8
#     4  10  19  31  51  80 110 136 164 208 267 316
#     4  10  19  31  51  80 110 136 164 208 267 316
#     4  10  21  36  53  76 105 135 169 211 262 310
#     4  10  21  35  50  72 105 142 175 207 250 309
#     4  10  21  35  50  72 105 142 175 207 250 309
#     4  12  22  36  56  82  96 128 170 232 260 306
#     4  10  21  36  53  76 105 135 169 211 262 310
#     4  12  18  28  50  82 107 139 168 212 244 311
#
# _framework density 17.795705000000002
#
# number of rings (size 3 to 8) (size 9 to 14) (size 15 to 20)
#    0.000    1.600    2.667    3.600    0.000    0.000 
#    0.000    0.667    0.000    0.000    0.000    0.000 
#    0.000    0.000    0.000    0.000    0.000    0.000 
#
# Total GULP energy -371960.413777 kJ/mol
# GULP energy per Si atom -12398.680459 kJ/mol
# Density = 1.775520 g / cm^3
# Si number density = 17.795705 Si / 1000 Ang^3
#
#
#
# Elastic Constant Matrix: (Units=GPa)
#
#
# Indices 1 2 3 4 5 6 
#
# 1 106.4146 50.2358 51.7612 0.0000 0.0000 0.0000
# 2 50.2358 106.7632 47.8354 0.0000 0.0000 0.0000
# 3 51.7612 47.8354 88.4002 0.0000 0.0000 0.0000
# 4 0.0000 0.0000 0.0000 20.5531 0.0000 0.0000
# 5 0.0000 0.0000 0.0000 0.0000 42.8600 0.0000
# 6 0.0000 0.0000 0.0000 0.0000 0.0000 13.2842
#
#
#
# Elastic Compliance Matrix: (Units=1/GPa)
#
#
# Indices 1 2 3 4 5 6 
#
# 1 0.014286 -0.003926 -0.006240 0.000000 0.000000 0.000000
# 2 -0.003926 0.013443 -0.004976 0.000000 0.000000 0.000000
# 3 -0.006240 -0.004976 0.017659 0.000000 0.000000 0.000000
# 4 0.000000 0.000000 0.000000 0.048654 0.000000 0.000000
# 5 0.000000 0.000000 0.000000 0.000000 0.023332 0.000000
# 6 0.000000 0.000000 0.000000 0.000000 0.000000 0.075277
#
#
# Mechanical properties :
#
#
# Convention : Reuss Voigt Hill
#
# Bulk Modulus (GPa) = 66.20931 66.80476 66.50704
# Shear Modulus (GPa) = 21.93270 25.45585 23.69428
#
# Velocity S-wave (km/s) = 3.51447 3.78623 3.65288
# Velocity P-wave (km/s) = 7.33175 7.53229 7.43270
#
# Compressibility (1/GPa) = 0.01510362
#
# Stress axis : x y z
#
# Youngs Moduli (GPa) = 69.99853 74.38726 56.62962
#
# Poissons Ratio (x) = 0.29205 0.35340
# Poissons Ratio (y) = 0.27482 0.28177
# Poissons Ratio (z) = 0.43682 0.37012
#
# Static dielectric constant tensor:
#      x y z
#    x 3.721570 0.000000 0.000000 
#    y 0.000000 3.289100 0.000000 
#    z 0.000000 0.000000 3.733110 
# 
# 
# High freq. dielectric constant tensor:
#      x y z
#    x 1.658880 0.000000 0.000000 
#    y 0.000000 1.671530 0.000000 
#    z 0.000000 0.000000 1.714100 
# 
# From -- ./inp_files/9531.got.cif
#   From: 2010.03.12/outbox.cif.g09.slc.cpg/sg39_5_cif.got.tgz:9531.got - 2010.04.14 02:53:20.
