data_PCOD8180027
_publ_section_title
;
Structure prediction by ZEFSAII (Michael W. Deem and Ramdas Pophale) SiO2 
 PCOD8180027
Probable space group: A M M 2
;
_chemical_formula_sum "Si O2"
_cell_formula_units_Z 64
_cell_length_a 14.874838
_cell_length_b 9.072705
_cell_length_c 24.362217
_cell_angle_alpha 90.000000
_cell_angle_beta 90.000000
_cell_angle_gamma 90.000000
_cell_volume 3287.803412
_symmetry_space_group_name_H-M "A M M 2"
_symmetry_group_IT_number 38
_symmetry_cell_setting 'orthorhombic'
loop_
_space_group_symop_operation_xyz
x,y,z
-x,-y,z
-x,y,z
x,-y,z
x,1/2+y,1/2+z
-x,1/2-y,1/2+z
-x,1/2+y,1/2+z
x,1/2-y,1/2+z
loop_
_atom_site_type_symbol
_atom_site_label
_atom_site_fract_x
_atom_site_fract_y
_atom_site_fract_z
Si Si1 0.104063 0.826059 0.623960
Si Si2 0.100909 0.171962 0.350946
Si Si3 0.750208 0.826008 0.436668
Si Si4 0.893169 0.662682 0.245650
Si Si5 0.400333 0.675250 0.852848
Si Si6 0.393375 0.336436 0.733006
Si Si7 0.252303 0.324731 0.552582
Si Si8 0.394301 0.670893 0.125958
O O1 0.135139 0.778518 0.685415
O O2 0.162971 0.733916 0.581800
O O3 0.000000 0.786682 0.613395
O O4 0.120035 0.000000 0.615410
O O5 0.159540 0.213781 0.403582
O O6 0.143779 0.237173 0.295033
O O7 0.000000 0.231783 0.361625
O O8 0.101009 0.000000 0.341061
O O9 0.665893 0.771797 0.400456
O O10 0.750521 0.728894 0.490461
O O11 0.744801 0.000000 0.450473
O O12 0.853650 0.500000 0.254755
O O13 0.000000 0.658266 0.246841
O O14 0.500000 0.739230 0.865161
O O15 0.404153 0.500000 0.850747
O O16 0.364132 0.726955 0.792764
O O17 0.500000 0.347717 0.732945
O O18 0.352910 0.500000 0.722036
O O19 0.360519 0.225896 0.685577
O O20 0.254670 0.500000 0.555028
O O21 0.342638 0.260967 0.579474
O O22 0.500000 0.698769 0.117470
O O23 0.369332 0.500000 0.120702
#
# Coordination Sequence:
#
# PCOD8180027 Si02
#       8
#     8   8   8   8   8   8   8   8
#     4   9  19  38  62  85 112 147 184 224 274 331
#     4   9  18  32  51  77 109 143 176 214 263 318
#     4  10  21  37  54  73 101 140 189 231 263 315
#     4   8  15  30  54  83 111 138 170 212 266 325
#     4   8  15  30  54  81 106 134 170 216 270 324
#     4   8  14  28  52  82 113 140 170 214 269 326
#     4  12  26  40  55  79 111 146 189 237 281 327
#     4  10  21  38  60  84 111 146 186 226 272 329
#
# _framework density 19.465883000000002
#
# number of rings (size 3 to 8) (size 9 to 14) (size 15 to 20)
#    0.000    2.750    0.000    3.000    0.000    4.000 
#    0.000    5.625    0.000    0.750    0.000    0.000 
#    0.000    0.000    0.000    0.000    0.000    0.000 
#
# Total GULP energy -396679.574127 kJ/mol
# GULP energy per Si atom -12396.236691 kJ/mol
# Density = 1.942158 g / cm^3
# Si number density = 19.465883 Si / 1000 Ang^3
#
#
#
# Elastic Constant Matrix: (Units=GPa)
#
#
# Indices 1 2 3 4 5 6 
#
# 1 89.8436 48.6701 66.8712 0.0000 0.0000 0.0000
# 2 48.6701 92.0739 77.3471 0.0000 0.0000 0.0000
# 3 66.8712 77.3471 176.5845 0.0000 0.0000 0.0000
# 4 0.0000 0.0000 0.0000 -29.4988 0.0000 0.0000
# 5 0.0000 0.0000 0.0000 0.0000 52.8033 0.0000
# 6 0.0000 0.0000 0.0000 0.0000 0.0000 19.8772
#
#
#
# Elastic Compliance Matrix: (Units=1/GPa)
#
#
# Indices 1 2 3 4 5 6 
#
# 1 0.017222 -0.005735 -0.004010 0.000000 0.000000 0.000000
# 2 -0.005735 0.019094 -0.006192 0.000000 0.000000 0.000000
# 3 -0.004010 -0.006192 0.009893 0.000000 0.000000 0.000000
# 4 0.000000 0.000000 0.000000 -0.033900 0.000000 0.000000
# 5 0.000000 0.000000 0.000000 0.000000 0.018938 0.000000
# 6 0.000000 0.000000 0.000000 0.000000 0.000000 0.050309
#
#
# Mechanical properties :
#
#
# Convention : Reuss Voigt Hill
#
# Bulk Modulus (GPa) = 69.75312 82.69765 76.22538
# Shear Modulus (GPa) = 42.29864 19.67725 30.98795
#
# Velocity S-wave (km/s) = 4.66656 3.18285 3.99420
# Velocity P-wave (km/s) = 8.05897 7.48886 7.77914
#
# Compressibility (1/GPa) = 0.01433628
#
# Stress axis : x y z
#
# Youngs Moduli (GPa) = 58.06648 52.37367 101.07702
#
# Poissons Ratio (x) = 0.30036 0.40529
# Poissons Ratio (y) = 0.33301 0.62582
# Poissons Ratio (z) = 0.23283 0.32427
#
# Static dielectric constant tensor:
#      x y z
#    x 3.369660 0.000000 0.000000 
#    y 0.000000 3.424080 0.000000 
#    z 0.000000 0.000000 3.730070 
# 
# 
# High freq. dielectric constant tensor:
#      x y z
#    x 1.754770 0.000000 0.000000 
#    y 0.000000 1.734360 0.000000 
#    z 0.000000 0.000000 1.762820 
# 
# From -- ./inp_files/22908.got.cif
#   From: 2010.03.12/outbox.cif.g09.slc.cpg/sg38_12_cif.got.tgz:22908.got - 2010.04.14 02:38:36.
