data_PCOD8180192
_publ_section_title
;
Structure prediction by ZEFSAII (Michael W. Deem and Ramdas Pophale) SiO2 
 PCOD8180192
Probable space group: A M M 2
;
_chemical_formula_sum "Si O2"
_cell_formula_units_Z 64
_cell_length_a 8.903234
_cell_length_b 14.408090
_cell_length_c 23.927006
_cell_angle_alpha 90.000000
_cell_angle_beta 90.000000
_cell_angle_gamma 90.000000
_cell_volume 3069.322754
_symmetry_space_group_name_H-M "A M M 2"
_symmetry_group_IT_number 38
_symmetry_cell_setting 'orthorhombic'
loop_
_space_group_symop_operation_xyz
x,y,z
-x,-y,z
-x,y,z
x,-y,z
x,1/2+y,1/2+z
-x,1/2-y,1/2+z
-x,1/2+y,1/2+z
x,1/2-y,1/2+z
loop_
_atom_site_type_symbol
_atom_site_label
_atom_site_fract_x
_atom_site_fract_y
_atom_site_fract_z
Si Si1 0.823002 0.393483 0.827870
Si Si2 0.676994 0.393375 0.057399
Si Si3 0.166059 0.609929 0.703743
Si Si4 0.177639 0.228408 0.000015
Si Si5 0.830628 0.390003 0.170032
Si Si6 0.324991 0.107375 0.780751
Si Si7 0.671482 0.610047 0.594096
Si Si8 0.676848 0.270792 0.385707
O O1 0.779554 0.500000 0.838887
O O2 0.774203 0.361974 0.765203
O O3 0.730145 0.333265 0.871947
O O4 0.000000 0.377947 0.836112
O O5 0.500000 0.380558 0.053791
O O6 0.725084 0.500000 0.047544
O O7 0.755934 0.331119 0.010542
O O8 0.731964 0.356236 0.117682
O O9 0.154170 0.500000 0.702038
O O10 0.276339 0.646252 0.655227
O O11 0.000000 0.652148 0.693282
O O12 0.226522 0.156067 0.047151
O O13 0.000000 0.234191 0.997846
O O14 0.241109 0.192425 0.941076
O O15 0.823272 0.500000 0.173478
O O16 0.763431 0.349592 0.227646
O O17 0.000000 0.353837 0.162154
O O18 0.500000 0.120639 0.768533
O O19 0.273358 0.161226 0.835908
O O20 0.284028 0.000000 0.790102
O O21 0.500000 0.641069 0.585371
O O22 0.690563 0.500000 0.589321
O O23 0.500000 0.272357 0.395926
#
# Coordination Sequence:
#
# PCOD8180192 Si02
#       8
#     8   8   8   8   8   8   8   8
#     4   9  19  37  60  85 115 151 187 227 279 337
#     4  10  21  39  63  88 116 150 188 234 287 342
#     4   8  15  31  56  85 116 149 187 230 279 338
#     4  12  26  42  60  82 112 151 196 243 286 338
#     4   9  17  31  55  88 121 150 184 227 277 336
#     4   9  19  37  59  82 112 151 190 230 280 335
#     4  10  21  38  61  88 119 153 189 234 286 339
#     4  11  24  40  58  82 111 146 193 243 286 333
#
# _framework density 20.851503999999998
#
# number of rings (size 3 to 8) (size 9 to 14) (size 15 to 20)
#    0.000    2.250    0.000    3.375    0.000    6.750 
#    0.000    5.000    0.000    0.000    0.000    0.000 
#    0.000    0.000    0.000    0.000    0.000    0.000 
#
# Total GULP energy -396865.609995 kJ/mol
# GULP energy per Si atom -12402.050312 kJ/mol
# Density = 2.080405 g / cm^3
# Si number density = 20.851504 Si / 1000 Ang^3
#
#
#
# Elastic Constant Matrix: (Units=GPa)
#
#
# Indices 1 2 3 4 5 6 
#
# 1 97.7340 7.7079 32.3024 0.0000 0.0000 0.0000
# 2 7.7079 27.5821 -0.4172 0.0000 0.0000 0.0000
# 3 32.3024 -0.4172 89.8928 0.0000 0.0000 0.0000
# 4 0.0000 0.0000 0.0000 31.8904 0.0000 0.0000
# 5 0.0000 0.0000 0.0000 0.0000 41.1964 0.0000
# 6 0.0000 0.0000 0.0000 0.0000 0.0000 25.9358
#
#
#
# Elastic Compliance Matrix: (Units=1/GPa)
#
#
# Indices 1 2 3 4 5 6 
#
# 1 0.011921 -0.003396 -0.004299 0.000000 0.000000 0.000000
# 2 -0.003396 0.037226 0.001393 0.000000 0.000000 0.000000
# 3 -0.004299 0.001393 0.012676 0.000000 0.000000 0.000000
# 4 0.000000 0.000000 0.000000 0.031357 0.000000 0.000000
# 5 0.000000 0.000000 0.000000 0.000000 0.024274 0.000000
# 6 0.000000 0.000000 0.000000 0.000000 0.000000 0.038557
#
#
# Mechanical properties :
#
#
# Convention : Reuss Voigt Hill
#
# Bulk Modulus (GPa) = 20.31815 32.71055 26.51435
# Shear Modulus (GPa) = 27.02400 31.51225 29.26812
#
# Velocity S-wave (km/s) = 3.60394 3.89172 3.75059
# Velocity P-wave (km/s) = 5.20415 5.99295 5.61242
#
# Compressibility (1/GPa) = 0.04921707
#
# Stress axis : x y z
#
# Youngs Moduli (GPa) = 83.88767 26.86328 78.89060
#
# Poissons Ratio (x) = 0.09124 0.33918
# Poissons Ratio (y) = 0.28491 -0.10991
# Poissons Ratio (z) = 0.36067 -0.03743
#
# Static dielectric constant tensor:
#      x y z
#    x 3.761710 0.000000 0.000000 
#    y 0.000000 3.666440 0.000000 
#    z 0.000000 0.000000 3.897180 
# 
# 
# High freq. dielectric constant tensor:
#      x y z
#    x 1.815340 0.000000 0.000000 
#    y 0.000000 1.812420 0.000000 
#    z 0.000000 0.000000 1.819390 
# 
# From -- ./inp_files/22231.got.cif
#   From: 2010.03.12/outbox.cif.g09.slc.cpg/sg38_12_cif.got.tgz:22231.got - 2010.04.14 02:38:36.
