data_PCOD8180302
_publ_section_title
;
Structure prediction by ZEFSAII (Michael W. Deem and Ramdas Pophale) SiO2 
 PCOD8180302
Probable space group: A M M 2
;
_chemical_formula_sum "Si O2"
_cell_formula_units_Z 32
_cell_length_a 7.932659
_cell_length_b 17.127737
_cell_length_c 12.041390
_cell_angle_alpha 90.000000
_cell_angle_beta 90.000000
_cell_angle_gamma 90.000000
_cell_volume 1636.045562
_symmetry_space_group_name_H-M "A M M 2"
_symmetry_group_IT_number 38
_symmetry_cell_setting 'orthorhombic'
loop_
_space_group_symop_operation_xyz
x,y,z
-x,-y,z
-x,y,z
x,-y,z
x,1/2+y,1/2+z
-x,1/2-y,1/2+z
-x,1/2+y,1/2+z
x,1/2-y,1/2+z
loop_
_atom_site_type_symbol
_atom_site_label
_atom_site_fract_x
_atom_site_fract_y
_atom_site_fract_z
Si Si1 0.000000 0.408149 0.313170
Si Si2 0.184438 0.315822 0.728551
Si Si3 0.697725 0.087789 0.439167
Si Si4 0.691040 0.654507 0.175706
Si Si5 0.000000 0.091981 0.062014
O O1 0.174860 0.382848 0.257963
O O2 0.000000 0.374349 0.437829
O O3 0.000000 0.500000 0.315268
O O4 0.312778 0.247989 0.693329
O O5 0.167281 0.376688 0.625994
O O6 0.000000 0.276802 0.751584
O O7 0.237392 0.362034 0.837251
O O8 0.500000 0.081167 0.429160
O O9 0.749641 0.132207 0.551725
O O10 0.776199 0.000000 0.438320
O O11 0.500000 0.623685 0.198854
O O12 0.000000 0.000000 0.064826
#
# Coordination Sequence:
#
# PCOD8180302 Si02
#       5
#     4   8   8   8   4
#     4  11  23  41  65  91 123 167 207 249 307 373
#     4  10  22  37  63  88 125 160 205 253 312 361
#     4  10  22  40  63  93 125 161 210 262 314 374
#     4  11  24  41  63  94 128 163 206 259 312 371
#     4   9  21  39  61  89 123 163 209 253 305 373
#
# _framework density 19.559356999999999
#
# number of rings (size 3 to 8) (size 9 to 14) (size 15 to 20)
#    0.750    1.000    1.250    2.250    5.250    1.500 
#    0.000    1.250    0.000    3.000    0.000    0.000 
#    0.000    0.000    0.000    0.000    0.000    0.000 
#
# Total GULP energy -198312.839112 kJ/mol
# GULP energy per Si atom -12394.552444 kJ/mol
# Density = 1.951484 g / cm^3
# Si number density = 19.559357 Si / 1000 Ang^3
#
#
#
# Elastic Constant Matrix: (Units=GPa)
#
#
# Indices 1 2 3 4 5 6 
#
# 1 67.4606 35.6349 58.0836 0.0000 0.0000 0.0000
# 2 35.6349 94.1323 67.8793 0.0000 0.0000 0.0000
# 3 58.0836 67.8793 191.2163 0.0000 0.0000 0.0000
# 4 0.0000 0.0000 0.0000 42.5235 0.0000 0.0000
# 5 0.0000 0.0000 0.0000 0.0000 -16.4018 0.0000
# 6 0.0000 0.0000 0.0000 0.0000 0.0000 4.5748
#
#
#
# Elastic Compliance Matrix: (Units=1/GPa)
#
#
# Indices 1 2 3 4 5 6 
#
# 1 0.021460 -0.004601 -0.004885 0.000000 0.000000 0.000000
# 2 -0.004601 0.015265 -0.004021 0.000000 0.000000 0.000000
# 3 -0.004885 -0.004021 0.008141 0.000000 0.000000 0.000000
# 4 0.000000 0.000000 0.000000 0.023516 0.000000 0.000000
# 5 0.000000 0.000000 0.000000 0.000000 -0.060969 0.000000
# 6 0.000000 0.000000 0.000000 0.000000 0.000000 0.218587
#
#
# Mechanical properties :
#
#
# Convention : Reuss Voigt Hill
#
# Bulk Modulus (GPa) = 56.01987 75.11162 65.56575
# Shear Modulus (GPa) = 19.30751 18.88674 19.09712
#
# Velocity S-wave (km/s) = 3.14526 3.11080 3.12808
# Velocity P-wave (km/s) = 6.47251 7.16854 6.82940
#
# Compressibility (1/GPa) = 0.01785081
#
# Stress axis : x y z
#
# Youngs Moduli (GPa) = 46.59770 65.50988 122.83311
#
# Poissons Ratio (x) = 0.30142 0.60009
# Poissons Ratio (y) = 0.21440 0.49394
# Poissons Ratio (z) = 0.22765 0.26343
#
# Static dielectric constant tensor:
#      x y z
#    x 4.143650 0.000000 0.000000 
#    y 0.000000 3.836270 0.000000 
#    z 0.000000 0.000000 3.793700 
# 
# 
# High freq. dielectric constant tensor:
#      x y z
#    x 1.752760 0.000000 0.000000 
#    y 0.000000 1.772210 0.000000 
#    z 0.000000 0.000000 1.769430 
# 
# From -- ./inp_files/7613.got.cif
#   From: 2010.03.12/outbox.cif.g09.slc.cpg/sg38_4_cif.got.tgz:7613.got - 2010.04.14 02:38:36.
