data_PCOD8180556
_publ_section_title
;
Structure prediction by ZEFSAII (Michael W. Deem and Ramdas Pophale) SiO2 
 PCOD8180556
Probable space group: A M M 2
;
_chemical_formula_sum "Si O2"
_cell_formula_units_Z 48
_cell_length_a 21.210731
_cell_length_b 9.459537
_cell_length_c 14.085196
_cell_angle_alpha 90.000000
_cell_angle_beta 90.000000
_cell_angle_gamma 90.000000
_cell_volume 2826.105766
_symmetry_space_group_name_H-M "A M M 2"
_symmetry_group_IT_number 38
_symmetry_cell_setting 'orthorhombic'
loop_
_space_group_symop_operation_xyz
x,y,z
-x,-y,z
-x,y,z
x,-y,z
x,1/2+y,1/2+z
-x,1/2-y,1/2+z
-x,1/2+y,1/2+z
x,1/2-y,1/2+z
loop_
_atom_site_type_symbol
_atom_site_label
_atom_site_fract_x
_atom_site_fract_y
_atom_site_fract_z
Si Si1 0.401049 0.333181 0.022510
Si Si2 0.155674 0.164167 0.392160
Si Si3 0.071790 0.836557 0.025327
Si Si4 0.500000 0.831860 0.370892
Si Si5 0.824894 0.164711 0.177369
Si Si6 0.260380 0.834442 0.543582
Si Si7 0.500000 0.833577 0.676894
O O1 0.398780 0.500000 0.017134
O O2 0.330176 0.272646 0.024224
O O3 0.438096 0.288529 0.117583
O O4 0.438221 0.280585 0.929124
O O5 0.097242 0.248307 0.436320
O O6 0.165510 0.215884 0.284859
O O7 0.219438 0.196744 0.449926
O O8 0.137843 0.000000 0.395820
O O9 0.000000 0.792846 0.045971
O O10 0.077861 0.000000 0.997665
O O11 0.111048 0.802010 0.120234
O O12 0.500000 0.754636 0.271821
O O13 0.500000 0.000000 0.355569
O O14 0.767343 0.252659 0.133853
O O15 0.807041 0.000000 0.172728
O O16 0.261331 0.000000 0.568372
O O17 0.500000 0.000000 0.699473
#
# Coordination Sequence:
#
# PCOD8180556 Si02
#       7
#     8   8   8   4   8   8   4
#     4   8  16  31  48  65  92 127 154 181 228 282
#     4   9  18  31  48  69  92 119 152 190 228 268
#     4   9  18  32  48  66  91 122 152 183 224 274
#     4   9  17  31  50  70  92 121 155 191 230 270
#     4   9  18  32  48  69  96 121 147 186 234 273
#     4   9  17  31  49  68  91 122 158 189 220 268
#     4   9  17  31  48  66  90 121 155 189 228 274
#
# _framework density 16.984501999999999
#
# number of rings (size 3 to 8) (size 9 to 14) (size 15 to 20)
#    0.000    3.167    0.000    1.000    0.000    3.000 
#    0.000    6.667    0.000    0.000    0.000    0.000 
#    0.000    0.000    0.000    0.000    0.000    0.000 
#
# Total GULP energy -297573.094549 kJ/mol
# GULP energy per Si atom -12398.878940 kJ/mol
# Density = 1.694584 g / cm^3
# Si number density = 16.984502 Si / 1000 Ang^3
#
#
#
# Elastic Constant Matrix: (Units=GPa)
#
#
# Indices 1 2 3 4 5 6 
#
# 1 141.0420 37.3305 61.6754 0.0000 0.0000 0.0000
# 2 37.3305 38.3823 44.5043 0.0000 0.0000 0.0000
# 3 61.6754 44.5043 146.3805 0.0000 0.0000 0.0000
# 4 0.0000 0.0000 0.0000 31.3048 0.0000 0.0000
# 5 0.0000 0.0000 0.0000 0.0000 14.5605 0.0000
# 6 0.0000 0.0000 0.0000 0.0000 0.0000 22.2013
#
#
#
# Elastic Compliance Matrix: (Units=1/GPa)
#
#
# Indices 1 2 3 4 5 6 
#
# 1 0.009885 -0.007390 -0.001918 0.000000 0.000000 0.000000
# 2 -0.007390 0.045764 -0.010800 0.000000 0.000000 0.000000
# 3 -0.001918 -0.010800 0.010923 0.000000 0.000000 0.000000
# 4 0.000000 0.000000 0.000000 0.031944 0.000000 0.000000
# 5 0.000000 0.000000 0.000000 0.000000 0.068679 0.000000
# 6 0.000000 0.000000 0.000000 0.000000 0.000000 0.045042
#
#
# Mechanical properties :
#
#
# Convention : Reuss Voigt Hill
#
# Bulk Modulus (GPa) = 37.94241 68.09168 53.01704
# Shear Modulus (GPa) = 19.13964 25.76629 22.45296
#
# Velocity S-wave (km/s) = 3.36056 3.89915 3.63983
# Velocity P-wave (km/s) = 6.11929 7.77488 6.99623
#
# Compressibility (1/GPa) = 0.02635573
#
# Stress axis : x y z
#
# Youngs Moduli (GPa) = 101.16592 21.85144 91.54853
#
# Poissons Ratio (x) = 0.16148 0.17559
# Poissons Ratio (y) = 0.74761 0.98872
# Poissons Ratio (z) = 0.19404 0.23599
#
# Static dielectric constant tensor:
#      x y z
#    x 3.628750 0.000000 0.000000 
#    y 0.000000 2.973950 0.000000 
#    z 0.000000 0.000000 3.167510 
# 
# 
# High freq. dielectric constant tensor:
#      x y z
#    x 1.659870 0.000000 0.000000 
#    y 0.000000 1.634730 0.000000 
#    z 0.000000 0.000000 1.655920 
# 
# From -- ./inp_files/10727.got.cif
#   From: 2010.03.12/outbox.cif.g09.slc.cpg/sg38_6_cif.got.tgz:10727.got - 2010.04.14 02:38:36.
