data_PCOD8180492
_publ_section_title
;
Structure prediction by ZEFSAII (Michael W. Deem and Ramdas Pophale) SiO2 
 PCOD8180492
Probable space group: A M M 2
;
_chemical_formula_sum "Si O2"
_cell_formula_units_Z 40
_cell_length_a 9.477424
_cell_length_b 7.703445
_cell_length_c 29.353598
_cell_angle_alpha 90.000000
_cell_angle_beta 90.000000
_cell_angle_gamma 90.000000
_cell_volume 2143.071392
_symmetry_space_group_name_H-M "A M M 2"
_symmetry_group_IT_number 38
_symmetry_cell_setting 'orthorhombic'
loop_
_space_group_symop_operation_xyz
x,y,z
-x,-y,z
-x,y,z
x,-y,z
x,1/2+y,1/2+z
-x,1/2-y,1/2+z
-x,1/2+y,1/2+z
x,1/2-y,1/2+z
loop_
_atom_site_type_symbol
_atom_site_label
_atom_site_fract_x
_atom_site_fract_y
_atom_site_fract_z
Si Si1 0.667052 0.500000 0.297320
Si Si2 0.669011 0.000000 0.902112
Si Si3 0.155505 0.702021 0.055792
Si Si4 0.834120 0.201189 0.452527
Si Si5 0.331396 0.694210 0.735098
Si Si6 0.651694 0.198815 0.137024
O O1 0.500000 0.500000 0.292872
O O2 0.713173 0.500000 0.349530
O O3 0.728402 0.673092 0.273009
O O4 0.736247 0.825621 0.922718
O O5 0.500000 0.000000 0.909581
O O6 0.151233 0.500000 0.065685
O O7 0.252515 0.788708 0.093024
O O8 0.000000 0.782429 0.061155
O O9 0.210007 0.738250 0.004793
O O10 0.000000 0.241996 0.445219
O O11 0.803445 0.000000 0.439968
O O12 0.500000 0.690986 0.735773
O O13 0.272232 0.500000 0.745597
O O14 0.282592 0.767373 0.684942
O O15 0.500000 0.289573 0.126658
O O16 0.623690 0.000000 0.147629
#
# Coordination Sequence:
#
# PCOD8180492 Si02
#       6
#     4   4   8   8   8   8
#     4   9  18  31  49  75 105 141 177 211 270 333
#     4  11  23  35  55  89 117 137 177 241 296 327
#     4   9  19  34  51  73 100 135 179 217 255 312
#     4   9  20  40  60  76 104 150 195 226 265 335
#     4   8  15  29  47  69 102 140 175 209 249 314
#     4   9  18  30  47  76 107 134 169 212 258 308
#
# _framework density 18.6648
#
# number of rings (size 3 to 8) (size 9 to 14) (size 15 to 20)
#    0.000    3.000    0.000    2.700    2.800    2.800 
#    0.000    4.000    0.000    2.400    0.000    0.000 
#    0.000    0.000    0.000    0.000    0.000    0.000 
#
# Total GULP energy -247792.096807 kJ/mol
# GULP energy per Si atom -12389.604840 kJ/mol
# Density = 1.862232 g / cm^3
# Si number density = 18.664800 Si / 1000 Ang^3
#
#
#
# Elastic Constant Matrix: (Units=GPa)
#
#
# Indices 1 2 3 4 5 6 
#
# 1 58.0732 37.2901 53.0849 0.0000 0.0000 0.0000
# 2 37.2901 100.7047 71.6763 0.0000 0.0000 0.0000
# 3 53.0849 71.6763 149.2265 0.0000 0.0000 0.0000
# 4 0.0000 0.0000 0.0000 34.0326 0.0000 0.0000
# 5 0.0000 0.0000 0.0000 0.0000 -13.0907 0.0000
# 6 0.0000 0.0000 0.0000 0.0000 0.0000 22.8817
#
#
#
# Elastic Compliance Matrix: (Units=1/GPa)
#
#
# Indices 1 2 3 4 5 6 
#
# 1 0.026961 -0.004797 -0.007287 0.000000 0.000000 0.000000
# 2 -0.004797 0.015942 -0.005951 0.000000 0.000000 0.000000
# 3 -0.007287 -0.005951 0.012152 0.000000 0.000000 0.000000
# 4 0.000000 0.000000 0.000000 0.029384 0.000000 0.000000
# 5 0.000000 0.000000 0.000000 0.000000 -0.076390 0.000000
# 6 0.000000 0.000000 0.000000 0.000000 0.000000 0.043703
#
#
# Mechanical properties :
#
#
# Convention : Reuss Voigt Hill
#
# Bulk Modulus (GPa) = 52.67257 70.23412 61.45335
# Shear Modulus (GPa) = 53.10780 18.49490 35.80135
#
# Velocity S-wave (km/s) = 5.33996 3.15127 4.38439
# Velocity P-wave (km/s) = 8.14259 7.13803 7.65681
#
# Compressibility (1/GPa) = 0.01898521
#
# Stress axis : x y z
#
# Youngs Moduli (GPa) = 37.09089 62.72873 82.29385
#
# Poissons Ratio (x) = 0.30091 0.59966
# Poissons Ratio (y) = 0.17793 0.48970
# Poissons Ratio (z) = 0.27027 0.37328
#
# Static dielectric constant tensor:
#      x y z
#    x 3.367820 0.000000 0.000000 
#    y 0.000000 3.513370 0.000000 
#    z 0.000000 0.000000 3.622140 
# 
# 
# High freq. dielectric constant tensor:
#      x y z
#    x 1.681710 0.000000 0.000000 
#    y 0.000000 1.730040 0.000000 
#    z 0.000000 0.000000 1.729600 
# 
# From -- ./inp_files/23200.got.cif
#   From: 2010.03.12/outbox.cif.g09.slc.cpg/sg38_12_cif.got.tgz:23200.got - 2010.04.14 02:38:36.
