data_PCOD8180208
_publ_section_title
;
Structure prediction by ZEFSAII (Michael W. Deem and Ramdas Pophale) SiO2 
 PCOD8180208
Probable space group: A M M 2
;
_chemical_formula_sum "Si O2"
_cell_formula_units_Z 40
_cell_length_a 8.873234
_cell_length_b 16.638026
_cell_length_c 12.684665
_cell_angle_alpha 90.000000
_cell_angle_beta 90.000000
_cell_angle_gamma 90.000000
_cell_volume 1872.676391
_symmetry_space_group_name_H-M "A M M 2"
_symmetry_group_IT_number 38
_symmetry_cell_setting 'orthorhombic'
loop_
_space_group_symop_operation_xyz
x,y,z
-x,-y,z
-x,y,z
x,-y,z
x,1/2+y,1/2+z
-x,1/2-y,1/2+z
-x,1/2+y,1/2+z
x,1/2-y,1/2+z
loop_
_atom_site_type_symbol
_atom_site_label
_atom_site_fract_x
_atom_site_fract_y
_atom_site_fract_z
Si Si1 0.322779 0.593184 0.975030
Si Si2 0.676830 0.169233 0.699160
Si Si3 0.833979 0.906844 0.884845
Si Si4 0.665638 0.592482 0.583926
Si Si5 0.821671 0.165235 0.270821
O O1 0.500000 0.597362 0.953526
O O2 0.269053 0.500000 0.975697
O O3 0.238836 0.644671 0.886373
O O4 0.279594 0.635264 0.084888
O O5 0.500000 0.183698 0.709800
O O6 0.730024 0.103222 0.782977
O O7 0.763805 0.250462 0.726063
O O8 0.000000 0.866968 0.869782
O O9 0.855397 0.000000 0.907400
O O10 0.753639 0.865741 0.986369
O O11 0.500000 0.633674 0.595940
O O12 0.641777 0.500000 0.557285
O O13 0.760875 0.598254 0.690707
O O14 0.000000 0.164365 0.273648
#
# Coordination Sequence:
#
# PCOD8180208 Si02
#       5
#     8   8   8   8   8
#     4  10  23  45  71  97 127 169 222 273 325 394
#     4  11  24  42  66  93 127 169 216 266 320 383
#     4  10  21  38  62  93 128 163 203 256 318 381
#     4  10  21  39  64  91 122 164 212 258 309 377
#     4  12  26  41  62  93 132 170 211 266 327 384
#
# _framework density 21.359805000000001
#
# number of rings (size 3 to 8) (size 9 to 14) (size 15 to 20)
#    0.000    1.400    0.000    4.800    2.800    7.600 
#    0.000    0.000    0.000    0.000    0.000    0.000 
#    0.000    0.000    0.000    0.000    0.000    0.000 
#
# Total GULP energy -248012.713306 kJ/mol
# GULP energy per Si atom -12400.635665 kJ/mol
# Density = 2.131119 g / cm^3
# Si number density = 21.359805 Si / 1000 Ang^3
#
#
#
# Elastic Constant Matrix: (Units=GPa)
#
#
# Indices 1 2 3 4 5 6 
#
# 1 123.0678 38.9403 88.2881 0.0000 0.0000 0.0000
# 2 38.9403 74.8479 36.5193 0.0000 0.0000 0.0000
# 3 88.2881 36.5193 186.6712 0.0000 0.0000 0.0000
# 4 0.0000 0.0000 0.0000 31.7528 0.0000 0.0000
# 5 0.0000 0.0000 0.0000 0.0000 26.5746 0.0000
# 6 0.0000 0.0000 0.0000 0.0000 0.0000 25.7286
#
#
#
# Elastic Compliance Matrix: (Units=1/GPa)
#
#
# Indices 1 2 3 4 5 6 
#
# 1 0.013445 -0.004303 -0.005517 0.000000 0.000000 0.000000
# 2 -0.004303 0.016147 -0.001124 0.000000 0.000000 0.000000
# 3 -0.005517 -0.001124 0.008186 0.000000 0.000000 0.000000
# 4 0.000000 0.000000 0.000000 0.031493 0.000000 0.000000
# 5 0.000000 0.000000 0.000000 0.000000 0.037630 0.000000
# 6 0.000000 0.000000 0.000000 0.000000 0.000000 0.038867
#
#
# Mechanical properties :
#
#
# Convention : Reuss Voigt Hill
#
# Bulk Modulus (GPa) = 62.92967 79.12025 71.02496
# Shear Modulus (GPa) = 28.90937 31.53383 30.22160
#
# Velocity S-wave (km/s) = 3.68291 3.84645 3.76557
# Velocity P-wave (km/s) = 6.90006 7.53983 7.22703
#
# Compressibility (1/GPa) = 0.01589076
#
# Stress axis : x y z
#
# Youngs Moduli (GPa) = 74.37629 61.92921 122.15544
#
# Poissons Ratio (x) = 0.26648 0.67396
# Poissons Ratio (y) = 0.32004 0.13728
# Poissons Ratio (z) = 0.41035 0.06960
#
# Static dielectric constant tensor:
#      x y z
#    x 4.240920 0.000000 0.000000 
#    y 0.000000 3.719370 0.000000 
#    z 0.000000 0.000000 4.081650 
# 
# 
# High freq. dielectric constant tensor:
#      x y z
#    x 1.849410 0.000000 0.000000 
#    y 0.000000 1.828880 0.000000 
#    z 0.000000 0.000000 1.852640 
# 
# From -- ./inp_files/7772.got.cif
#   From: 2010.03.12/outbox.cif.g09.slc.cpg/sg38_4_cif.got.tgz:7772.got - 2010.04.14 02:38:36.
