data_PCOD8180553
_publ_section_title
;
Structure prediction by ZEFSAII (Michael W. Deem and Ramdas Pophale) SiO2 
 PCOD8180553
Probable space group: A M M 2
;
_chemical_formula_sum "Si O2"
_cell_formula_units_Z 48
_cell_length_a 13.771186
_cell_length_b 9.283638
_cell_length_c 26.006619
_cell_angle_alpha 90.000000
_cell_angle_beta 90.000000
_cell_angle_gamma 90.000000
_cell_volume 3324.860564
_symmetry_space_group_name_H-M "A M M 2"
_symmetry_group_IT_number 38
_symmetry_cell_setting 'orthorhombic'
loop_
_space_group_symop_operation_xyz
x,y,z
-x,-y,z
-x,y,z
x,-y,z
x,1/2+y,1/2+z
-x,1/2-y,1/2+z
-x,1/2+y,1/2+z
x,1/2-y,1/2+z
loop_
_atom_site_type_symbol
_atom_site_label
_atom_site_fract_x
_atom_site_fract_y
_atom_site_fract_z
Si Si1 0.387572 0.832948 0.358300
Si Si2 0.384505 0.837290 0.759516
Si Si3 0.386758 0.167473 0.160421
Si Si4 0.708424 0.836599 0.056329
Si Si5 0.274076 0.830073 0.460144
Si Si6 0.891241 0.836646 0.000063
O O1 0.500000 0.798405 0.368723
O O2 0.345872 0.742617 0.310388
O O3 0.328618 0.785329 0.408412
O O4 0.372187 0.000000 0.345301
O O5 0.500000 0.832329 0.759502
O O6 0.346010 0.755720 0.708948
O O7 0.344897 0.000000 0.759170
O O8 0.500000 0.197217 0.150746
O O9 0.328136 0.224413 0.110684
O O10 0.366723 0.000000 0.171147
O O11 0.669692 0.000000 0.049449
O O12 0.667926 0.739597 0.008888
O O13 0.827116 0.831847 0.052954
O O14 0.164317 0.764131 0.458259
O O15 0.269422 0.000000 0.467585
O O16 0.000000 0.778579 0.010451
O O17 0.894362 0.000000 0.978828
#
# Coordination Sequence:
#
# PCOD8180553 Si02
#       6
#     8   8   8   8   8   8
#     4   9  17  29  42  57  83 117 145 169 202 244
#     4   9  17  27  40  59  80 106 143 180 208 235
#     4   9  16  27  42  58  81 113 143 172 205 242
#     4   8  16  28  40  59  84 109 140 167 199 252
#     4   9  17  27  41  63  86 107 138 174 206 242
#     4   8  15  29  45  60  82 109 136 168 207 252
#
# _framework density 14.436695
#
# number of rings (size 3 to 8) (size 9 to 14) (size 15 to 20)
#    1.000    2.333    0.000    0.500    0.000    5.000 
#    0.000    0.000    0.000    0.000    0.000    1.167 
#    0.000    6.667    0.000    0.000    0.000    0.000 
#
# Total GULP energy -297337.429007 kJ/mol
# GULP energy per Si atom -12389.059542 kJ/mol
# Density = 1.440384 g / cm^3
# Si number density = 14.436695 Si / 1000 Ang^3
#
#
#
# Elastic Constant Matrix: (Units=GPa)
#
#
# Indices 1 2 3 4 5 6 
#
# 1 56.1133 30.4637 51.0282 0.0000 0.0000 0.0000
# 2 30.4637 73.7723 67.9946 0.0000 0.0000 0.0000
# 3 51.0282 67.9946 143.3425 0.0000 0.0000 0.0000
# 4 0.0000 0.0000 0.0000 27.3700 0.0000 0.0000
# 5 0.0000 0.0000 0.0000 0.0000 2.2775 0.0000
# 6 0.0000 0.0000 0.0000 0.0000 0.0000 16.2270
#
#
#
# Elastic Compliance Matrix: (Units=1/GPa)
#
#
# Indices 1 2 3 4 5 6 
#
# 1 0.027024 -0.004073 -0.007688 0.000000 0.000000 0.000000
# 2 -0.004073 0.024699 -0.010266 0.000000 0.000000 0.000000
# 3 -0.007688 -0.010266 0.014583 0.000000 0.000000 0.000000
# 4 0.000000 0.000000 0.000000 0.036536 0.000000 0.000000
# 5 0.000000 0.000000 0.000000 0.000000 0.439081 0.000000
# 6 0.000000 0.000000 0.000000 0.000000 0.000000 0.061626
#
#
# Mechanical properties :
#
#
# Convention : Reuss Voigt Hill
#
# Bulk Modulus (GPa) = 44.94160 63.57791 54.25976
# Shear Modulus (GPa) = 7.63335 17.42434 12.52885
#
# Velocity S-wave (km/s) = 2.30194 3.47788 2.94912
# Velocity P-wave (km/s) = 6.18571 7.76288 7.01873
#
# Compressibility (1/GPa) = 0.02225110
#
# Stress axis : x y z
#
# Youngs Moduli (GPa) = 37.00448 40.48684 68.57394
#
# Poissons Ratio (x) = 0.16492 0.52719
# Poissons Ratio (y) = 0.15074 0.70398
# Poissons Ratio (z) = 0.28449 0.41564
#
# Static dielectric constant tensor:
#      x y z
#    x 2.558840 0.000000 0.000000 
#    y 0.000000 2.839870 0.000000 
#    z 0.000000 0.000000 2.808930 
# 
# 
# High freq. dielectric constant tensor:
#      x y z
#    x 1.510480 0.000000 0.000000 
#    y 0.000000 1.557460 0.000000 
#    z 0.000000 0.000000 1.543820 
# 
# From -- ./inp_files/20879.got.cif
#   From: 2010.03.12/outbox.cif.g09.slc.cpg/sg38_11_cif.got.tgz:20879.got - 2010.04.14 02:38:36.
