data_PCOD8180852
_publ_section_title
;
Structure prediction by ZEFSAII (Michael W. Deem and Ramdas Pophale) SiO2 
 PCOD8180852
Probable space group: A B M 2
;
_chemical_formula_sum "Si O2"
_cell_formula_units_Z 40
_cell_length_a 9.122334
_cell_length_b 10.044347
_cell_length_c 22.498950
_cell_angle_alpha 90.000000
_cell_angle_beta 90.000000
_cell_angle_gamma 90.000000
_cell_volume 2061.531274
_symmetry_space_group_name_H-M "A B M 2"
_symmetry_group_IT_number 39
_symmetry_cell_setting 'orthorhombic'
loop_
_space_group_symop_operation_xyz
x,y,z
-x,-y,z
-x,1/2+y,z
x,1/2-y,z
x,1/2+y,1/2+z
-x,1/2-y,1/2+z
-x,y,1/2+z
x,-y,1/2+z
loop_
_atom_site_type_symbol
_atom_site_label
_atom_site_fract_x
_atom_site_fract_y
_atom_site_fract_z
Si Si1 0.171855 0.517245 0.794240
Si Si2 0.868816 0.250000 0.710675
Si Si3 0.863655 0.097451 0.920139
Si Si4 0.668024 0.981979 0.528696
Si Si5 0.212110 0.250000 0.737180
Si Si6 0.286493 0.750000 0.589200
Si Si7 0.377052 0.750000 0.115818
O O1 0.204155 0.622248 0.742043
O O2 0.225111 0.566428 0.858980
O O3 0.248183 0.378452 0.777298
O O4 0.000000 0.500000 0.801297
O O5 0.832785 0.250000 0.641292
O O6 0.044328 0.250000 0.715501
O O7 0.920477 0.250000 0.918498
O O8 0.750113 0.079145 0.972968
O O9 0.000000 0.000000 0.930172
O O10 0.682932 0.881431 0.583748
O O11 0.500000 0.000000 0.509735
O O12 0.739770 0.121543 0.548027
O O13 0.321651 0.250000 0.682534
O O14 0.447389 0.750000 0.617761
#
# Coordination Sequence:
#
# PCOD8180852 Si02
#       7
#     8   4   8   8   4   4   4
#     4   9  19  34  56  82 113 146 185 231 292 341
#     4  10  18  35  54  82 110 147 187 232 281 350
#     4  11  23  39  62  88 118 152 195 246 292 347
#     4  10  22  40  60  82 117 159 194 237 295 348
#     4  10  20  33  58  82 112 149 187 232 287 344
#     4  10  22  35  58  84 114 151 197 236 289 346
#     4  10  20  39  56  82 116 155 189 238 291 342
#
# _framework density 19.403053
#
# number of rings (size 3 to 8) (size 9 to 14) (size 15 to 20)
#    0.000    2.000    2.000    1.200    5.600    1.600 
#    0.000    2.000    0.000    0.000    0.000    0.000 
#    0.000    0.000    0.000    0.000    0.000    0.000 
#
# Total GULP energy -248038.085677 kJ/mol
# GULP energy per Si atom -12401.904284 kJ/mol
# Density = 1.935889 g / cm^3
# Si number density = 19.403053 Si / 1000 Ang^3
#
#
#
# Elastic Constant Matrix: (Units=GPa)
#
#
# Indices 1 2 3 4 5 6 
#
# 1 31.7351 21.3185 28.4646 0.0000 0.0000 0.0000
# 2 21.3185 157.3952 39.5871 0.0000 0.0000 0.0000
# 3 28.4646 39.5871 103.1875 0.0000 0.0000 0.0000
# 4 0.0000 0.0000 0.0000 28.8121 0.0000 0.0000
# 5 0.0000 0.0000 0.0000 0.0000 10.0047 0.0000
# 6 0.0000 0.0000 0.0000 0.0000 0.0000 18.7967
#
#
#
# Elastic Compliance Matrix: (Units=1/GPa)
#
#
# Indices 1 2 3 4 5 6 
#
# 1 0.043247 -0.003162 -0.010717 0.000000 0.000000 0.000000
# 2 -0.003162 0.007263 -0.001914 0.000000 0.000000 0.000000
# 3 -0.010717 -0.001914 0.013382 0.000000 0.000000 0.000000
# 4 0.000000 0.000000 0.000000 0.034708 0.000000 0.000000
# 5 0.000000 0.000000 0.000000 0.000000 0.099953 0.000000
# 6 0.000000 0.000000 0.000000 0.000000 0.000000 0.053201
#
#
# Mechanical properties :
#
#
# Convention : Reuss Voigt Hill
#
# Bulk Modulus (GPa) = 30.95402 52.33982 41.64692
# Shear Modulus (GPa) = 17.00051 25.05254 21.02653
#
# Velocity S-wave (km/s) = 2.96324 3.59718 3.29549
# Velocity P-wave (km/s) = 5.26265 6.65481 5.99925
#
# Compressibility (1/GPa) = 0.03230598
#
# Stress axis : x y z
#
# Youngs Moduli (GPa) = 23.12274 137.68065 74.72891
#
# Poissons Ratio (x) = 0.43538 0.80085
# Poissons Ratio (y) = 0.07312 0.14304
# Poissons Ratio (z) = 0.24780 0.26354
#
# Static dielectric constant tensor:
#      x y z
#    x 3.124160 0.000000 0.000000 
#    y 0.000000 4.033360 0.000000 
#    z 0.000000 0.000000 3.603130 
# 
# 
# High freq. dielectric constant tensor:
#      x y z
#    x 1.715670 0.000000 0.000000 
#    y 0.000000 1.780300 0.000000 
#    z 0.000000 0.000000 1.763540 
# 
# From -- ./inp_files/11392.got.cif
#   From: 2010.03.12/outbox.cif.g09.slc.cpg/sg39_6_cif.got.tgz:11392.got - 2010.04.14 02:53:20.
