data_PCOD8180071
_publ_section_title
;
Structure prediction by ZEFSAII (Michael W. Deem and Ramdas Pophale) SiO2 
 PCOD8180071
Probable space group: A M M 2
;
_chemical_formula_sum "Si O2"
_cell_formula_units_Z 56
_cell_length_a 19.269012
_cell_length_b 8.765916
_cell_length_c 15.908829
_cell_angle_alpha 90.000000
_cell_angle_beta 90.000000
_cell_angle_gamma 90.000000
_cell_volume 2687.168907
_symmetry_space_group_name_H-M "A M M 2"
_symmetry_group_IT_number 38
_symmetry_cell_setting 'orthorhombic'
loop_
_space_group_symop_operation_xyz
x,y,z
-x,-y,z
-x,y,z
x,-y,z
x,1/2+y,1/2+z
-x,1/2-y,1/2+z
-x,1/2+y,1/2+z
x,1/2-y,1/2+z
loop_
_atom_site_type_symbol
_atom_site_label
_atom_site_fract_x
_atom_site_fract_y
_atom_site_fract_z
Si Si1 0.422237 0.324065 0.928050
Si Si2 0.921601 0.681442 0.763534
Si Si3 0.162055 0.180984 0.426074
Si Si4 0.710957 0.173050 0.667376
Si Si5 0.158511 0.320410 0.598571
Si Si6 0.705362 0.825586 0.857601
Si Si7 0.578063 0.322139 0.606148
O O1 0.500000 0.303028 0.891518
O O2 0.408198 0.500000 0.950587
O O3 0.367446 0.264712 0.859912
O O4 0.411110 0.222027 0.009805
O O5 0.919841 0.500000 0.763227
O O6 0.883692 0.741855 0.847734
O O7 0.884689 0.742209 0.678683
O O8 0.000000 0.743918 0.764457
O O9 0.129623 0.241525 0.513662
O O10 0.239675 0.246756 0.419300
O O11 0.164848 0.000000 0.427308
O O12 0.760808 0.277745 0.611101
O O13 0.734802 0.185718 0.763627
O O14 0.631741 0.228488 0.662373
O O15 0.716508 0.000000 0.634624
O O16 0.150573 0.500000 0.588382
O O17 0.694294 0.000000 0.885469
O O18 0.500000 0.280078 0.635407
O O19 0.592753 0.500000 0.617423
#
# Coordination Sequence:
#
# PCOD8180071 Si02
#       7
#     8   8   8   8   8   8   8
#     4  10  21  37  57  81 112 151 197 248 302 361
#     4   9  20  40  65  93 126 163 202 245 297 360
#     4  11  22  39  64  92 124 163 205 250 301 359
#     4  11  23  38  58  84 117 155 200 253 303 357
#     4  11  22  39  64  92 124 163 205 250 301 359
#     4  11  23  38  58  84 117 155 200 253 303 357
#     4  10  21  37  57  81 112 151 197 248 302 361
#
# _framework density 20.839777000000002
#
# number of rings (size 3 to 8) (size 9 to 14) (size 15 to 20)
#    0.000    1.571    1.429    3.429    0.000    4.571 
#    0.000    2.857    0.000    6.000    0.000    0.000 
#    0.000    0.000    0.000    0.000    0.000    0.000 
#
# Total GULP energy -347290.492212 kJ/mol
# GULP energy per Si atom -12403.231865 kJ/mol
# Density = 2.079235 g / cm^3
# Si number density = 20.839777 Si / 1000 Ang^3
#
#
#
# Elastic Constant Matrix: (Units=GPa)
#
#
# Indices 1 2 3 4 5 6 
#
# 1 121.2049 32.7584 54.2666 0.0000 0.0000 0.0000
# 2 32.7584 67.9577 32.2853 0.0000 0.0000 0.0000
# 3 54.2666 32.2853 127.2745 0.0000 0.0000 0.0000
# 4 0.0000 0.0000 0.0000 32.7245 0.0000 0.0000
# 5 0.0000 0.0000 0.0000 0.0000 28.9511 0.0000
# 6 0.0000 0.0000 0.0000 0.0000 0.0000 19.4946
#
#
#
# Elastic Compliance Matrix: (Units=1/GPa)
#
#
# Indices 1 2 3 4 5 6 
#
# 1 0.010866 -0.003453 -0.003757 0.000000 0.000000 0.000000
# 2 -0.003453 0.017829 -0.003050 0.000000 0.000000 0.000000
# 3 -0.003757 -0.003050 0.010233 0.000000 0.000000 0.000000
# 4 0.000000 0.000000 0.000000 0.030558 0.000000 0.000000
# 5 0.000000 0.000000 0.000000 0.000000 0.034541 0.000000
# 6 0.000000 0.000000 0.000000 0.000000 0.000000 0.051296
#
#
# Mechanical properties :
#
#
# Convention : Reuss Voigt Hill
#
# Bulk Modulus (GPa) = 54.32804 61.67306 58.00055
# Shear Modulus (GPa) = 27.47575 29.37582 28.42578
#
# Velocity S-wave (km/s) = 3.63496 3.75854 3.69726
# Velocity P-wave (km/s) = 6.61386 6.96374 6.79106
#
# Compressibility (1/GPa) = 0.01840670
#
# Stress axis : x y z
#
# Youngs Moduli (GPa) = 92.03158 56.08960 97.72604
#
# Poissons Ratio (x) = 0.19367 0.36716
# Poissons Ratio (y) = 0.31778 0.29809
# Poissons Ratio (z) = 0.34577 0.17109
#
# Static dielectric constant tensor:
#      x y z
#    x 3.792630 0.000000 0.000000 
#    y 0.000000 3.628350 0.000000 
#    z 0.000000 0.000000 3.749410 
# 
# 
# High freq. dielectric constant tensor:
#      x y z
#    x 1.812770 0.000000 0.000000 
#    y 0.000000 1.810030 0.000000 
#    z 0.000000 0.000000 1.817310 
# 
# From -- ./inp_files/15497.got.cif
#   From: 2010.03.12/outbox.cif.g09.slc.cpg/sg38_8_cif.got.tgz:15497.got - 2010.04.14 02:38:36.
