data_PCOD8180365
_publ_section_title
;
Structure prediction by ZEFSAII (Michael W. Deem and Ramdas Pophale) SiO2 
 PCOD8180365
Probable space group: A M M 2
;
_chemical_formula_sum "Si O2"
_cell_formula_units_Z 40
_cell_length_a 8.823139
_cell_length_b 29.570247
_cell_length_c 7.601480
_cell_angle_alpha 90.000000
_cell_angle_beta 90.000000
_cell_angle_gamma 90.000000
_cell_volume 1983.244372
_symmetry_space_group_name_H-M "A M M 2"
_symmetry_group_IT_number 38
_symmetry_cell_setting 'orthorhombic'
loop_
_space_group_symop_operation_xyz
x,y,z
-x,-y,z
-x,y,z
x,-y,z
x,1/2+y,1/2+z
-x,1/2-y,1/2+z
-x,1/2+y,1/2+z
x,1/2-y,1/2+z
loop_
_atom_site_type_symbol
_atom_site_label
_atom_site_fract_x
_atom_site_fract_y
_atom_site_fract_z
Si Si1 0.319072 0.613578 0.116810
Si Si2 0.668305 0.695030 0.682676
Si Si3 0.324550 0.447746 0.439457
Si Si4 0.178302 0.394770 0.738973
Si Si5 0.666329 0.289614 0.089423
O O1 0.500000 0.614043 0.093237
O O2 0.265611 0.579700 0.269119
O O3 0.261746 0.664644 0.173835
O O4 0.248808 0.597920 0.931773
O O5 0.500000 0.688814 0.596829
O O6 0.769652 0.651449 0.640658
O O7 0.752118 0.741536 0.616144
O O8 0.651729 0.698014 0.888781
O O9 0.500000 0.436723 0.476504
O O10 0.298333 0.500000 0.396113
O O11 0.229961 0.435517 0.613260
O O12 0.000000 0.394395 0.760381
O O13 0.500000 0.281314 0.174643
#
# Coordination Sequence:
#
# PCOD8180365 Si02
#       5
#     8   8   8   8   8
#     4   9  19  38  62  86 114 149 195 249 293 339
#     4   9  17  31  52  79 109 147 196 242 282 333
#     4  10  22  40  65  92 113 143 194 252 300 341
#     4  11  23  38  56  83 123 163 191 228 287 355
#     4   8  15  27  50  80 106 140 188 239 287 330
#
# _framework density 20.168970999999999
#
# number of rings (size 3 to 8) (size 9 to 14) (size 15 to 20)
#    0.000    2.600    0.000    3.000    2.800    2.000 
#    0.000    6.000    0.000    0.000    0.000    0.000 
#    0.000    0.000    0.000    0.000    0.000    0.000 
#
# Total GULP energy -247817.407441 kJ/mol
# GULP energy per Si atom -12390.870372 kJ/mol
# Density = 2.012307 g / cm^3
# Si number density = 20.168971 Si / 1000 Ang^3
#
#
#
# Elastic Constant Matrix: (Units=GPa)
#
#
# Indices 1 2 3 4 5 6 
#
# 1 63.0811 22.8722 25.7994 0.0000 0.0000 0.0000
# 2 22.8722 100.7238 27.6279 0.0000 0.0000 0.0000
# 3 25.7994 27.6279 61.6052 0.0000 0.0000 0.0000
# 4 0.0000 0.0000 0.0000 37.6276 0.0000 0.0000
# 5 0.0000 0.0000 0.0000 0.0000 11.5941 0.0000
# 6 0.0000 0.0000 0.0000 0.0000 0.0000 8.0480
#
#
#
# Elastic Compliance Matrix: (Units=1/GPa)
#
#
# Indices 1 2 3 4 5 6 
#
# 1 0.019673 -0.002517 -0.007110 0.000000 0.000000 0.000000
# 2 -0.002517 0.011643 -0.004167 0.000000 0.000000 0.000000
# 3 -0.007110 -0.004167 0.021079 0.000000 0.000000 0.000000
# 4 0.000000 0.000000 0.000000 0.026576 0.000000 0.000000
# 5 0.000000 0.000000 0.000000 0.000000 0.086251 0.000000
# 6 0.000000 0.000000 0.000000 0.000000 0.000000 0.124255
#
#
# Mechanical properties :
#
#
# Convention : Reuss Voigt Hill
#
# Bulk Modulus (GPa) = 40.31281 42.00102 41.15692
# Shear Modulus (GPa) = 15.36878 21.39463 18.38170
#
# Velocity S-wave (km/s) = 2.76343 3.26048 3.02219
# Velocity P-wave (km/s) = 5.49664 5.91980 5.71214
#
# Compressibility (1/GPa) = 0.02480601
#
# Stress axis : x y z
#
# Youngs Moduli (GPa) = 50.83060 85.89015 47.44090
#
# Poissons Ratio (x) = 0.21620 0.33731
# Poissons Ratio (y) = 0.12795 0.19770
# Poissons Ratio (z) = 0.36141 0.35793
#
# Static dielectric constant tensor:
#      x y z
#    x 3.262520 0.000000 0.000000 
#    y 0.000000 4.148550 0.000000 
#    z 0.000000 0.000000 3.538620 
# 
# 
# High freq. dielectric constant tensor:
#      x y z
#    x 1.732920 0.000000 0.000000 
#    y 0.000000 1.803100 0.000000 
#    z 0.000000 0.000000 1.785510 
# 
# From -- ./inp_files/3453.got.cif
#   From: 2010.03.12/outbox.cif.g09.slc.cpg/sg38_2_cif.got.tgz:3453.got - 2010.04.14 02:38:36.
