data_PCOD8180061
_publ_section_title
;
Structure prediction by ZEFSAII (Michael W. Deem and Ramdas Pophale) SiO2 
 PCOD8180061
Probable space group: A M M 2
;
_chemical_formula_sum "Si O2"
_cell_formula_units_Z 48
_cell_length_a 9.360982
_cell_length_b 8.979836
_cell_length_c 30.792771
_cell_angle_alpha 90.000000
_cell_angle_beta 90.000000
_cell_angle_gamma 90.000000
_cell_volume 2588.442891
_symmetry_space_group_name_H-M "A M M 2"
_symmetry_group_IT_number 38
_symmetry_cell_setting 'orthorhombic'
loop_
_space_group_symop_operation_xyz
x,y,z
-x,-y,z
-x,y,z
x,-y,z
x,1/2+y,1/2+z
-x,1/2-y,1/2+z
-x,1/2+y,1/2+z
x,1/2-y,1/2+z
loop_
_atom_site_type_symbol
_atom_site_label
_atom_site_fract_x
_atom_site_fract_y
_atom_site_fract_z
Si Si1 0.341967 0.823367 0.077980
Si Si2 0.160311 0.822433 0.157456
Si Si3 0.165955 0.325876 0.905403
Si Si4 0.667425 0.172166 0.980476
Si Si5 0.665197 0.827399 0.240217
Si Si6 0.663447 0.175586 0.828962
O O1 0.500000 0.757647 0.086795
O O2 0.234208 0.757701 0.113903
O O3 0.349780 0.000000 0.081665
O O4 0.291013 0.780815 0.029553
O O5 0.244522 0.765524 0.199722
O O6 0.000000 0.759752 0.159323
O O7 0.161949 0.000000 0.156211
O O8 0.190209 0.500000 0.898807
O O9 0.240363 0.276193 0.949695
O O10 0.234672 0.241665 0.865150
O O11 0.000000 0.283947 0.907851
O O12 0.500000 0.198714 0.971928
O O13 0.705640 0.000000 0.971539
O O14 0.500000 0.801036 0.228940
O O15 0.713233 0.736683 0.282441
O O16 0.697644 0.000000 0.249205
O O17 0.500000 0.223705 0.838527
O O18 0.679873 0.000000 0.828961
#
# Coordination Sequence:
#
# PCOD8180061 Si02
#       6
#     8   8   8   8   8   8
#     4   8  14  26  45  70 100 131 163 202 247 293
#     4   9  16  25  41  69 102 133 166 204 244 288
#     4  11  24  38  52  74 104 136 169 206 251 305
#     4   9  18  33  54  79 104 132 170 214 256 299
#     4   9  17  30  49  72  99 132 167 204 249 297
#     4  10  21  37  57  79 101 128 167 213 257 303
#
# _framework density 18.543968
#
# number of rings (size 3 to 8) (size 9 to 14) (size 15 to 20)
#    0.000    2.667    0.000    3.000    0.000    8.000 
#    0.000    3.333    0.000    1.000    0.000    2.333 
#    0.000    0.000    0.000    0.000    0.000    0.000 
#
# Total GULP energy -297598.115727 kJ/mol
# GULP energy per Si atom -12399.921489 kJ/mol
# Density = 1.850176 g / cm^3
# Si number density = 18.543968 Si / 1000 Ang^3
#
#
#
# Elastic Constant Matrix: (Units=GPa)
#
#
# Indices 1 2 3 4 5 6 
#
# 1 105.1825 30.3971 87.2911 0.0000 0.0000 0.0000
# 2 30.3971 38.9821 38.8303 0.0000 0.0000 0.0000
# 3 87.2911 38.8303 166.7581 0.0000 0.0000 0.0000
# 4 0.0000 0.0000 0.0000 25.7665 0.0000 0.0000
# 5 0.0000 0.0000 0.0000 0.0000 8.4665 0.0000
# 6 0.0000 0.0000 0.0000 0.0000 0.0000 20.2264
#
#
#
# Elastic Compliance Matrix: (Units=1/GPa)
#
#
# Indices 1 2 3 4 5 6 
#
# 1 0.017825 -0.005996 -0.007934 0.000000 0.000000 0.000000
# 2 -0.005996 0.035417 -0.005108 0.000000 0.000000 0.000000
# 3 -0.007934 -0.005108 0.011340 0.000000 0.000000 0.000000
# 4 0.000000 0.000000 0.000000 0.038810 0.000000 0.000000
# 5 0.000000 0.000000 0.000000 0.000000 0.118112 0.000000
# 6 0.000000 0.000000 0.000000 0.000000 0.000000 0.049440
#
#
# Mechanical properties :
#
#
# Convention : Reuss Voigt Hill
#
# Bulk Modulus (GPa) = 37.73033 69.32888 53.52960
# Shear Modulus (GPa) = 15.73045 21.18551 18.45798
#
# Velocity S-wave (km/s) = 2.91568 3.38368 3.15836
# Velocity P-wave (km/s) = 5.63254 7.26175 6.49841
#
# Compressibility (1/GPa) = 0.02650387
#
# Stress axis : x y z
#
# Youngs Moduli (GPa) = 56.10162 28.23540 88.18670
#
# Poissons Ratio (x) = 0.16929 0.69971
# Poissons Ratio (y) = 0.33637 0.45049
# Poissons Ratio (z) = 0.44513 0.14424
#
# Static dielectric constant tensor:
#      x y z
#    x 3.532210 0.000000 0.000000 
#    y 0.000000 3.037940 0.000000 
#    z 0.000000 0.000000 3.653870 
# 
# 
# High freq. dielectric constant tensor:
#      x y z
#    x 1.717850 0.000000 0.000000 
#    y 0.000000 1.680010 0.000000 
#    z 0.000000 0.000000 1.736660 
# 
# From -- ./inp_files/24275.got.cif
#   From: 2010.03.12/outbox.cif.g09.slc.cpg/sg38_13_cif.got.tgz:24275.got - 2010.04.14 02:38:36.
