data_PCOD8180202
_publ_section_title
;
Structure prediction by ZEFSAII (Michael W. Deem and Ramdas Pophale) SiO2 
 PCOD8180202
Probable space group: A M M 2
;
_chemical_formula_sum "Si O2"
_cell_formula_units_Z 48
_cell_length_a 18.822140
_cell_length_b 8.580139
_cell_length_c 14.890867
_cell_angle_alpha 90.000000
_cell_angle_beta 90.000000
_cell_angle_gamma 90.000000
_cell_volume 2404.824056
_symmetry_space_group_name_H-M "A M M 2"
_symmetry_group_IT_number 38
_symmetry_cell_setting 'orthorhombic'
loop_
_space_group_symop_operation_xyz
x,y,z
-x,-y,z
-x,y,z
x,-y,z
x,1/2+y,1/2+z
-x,1/2-y,1/2+z
-x,1/2+y,1/2+z
x,1/2-y,1/2+z
loop_
_atom_site_type_symbol
_atom_site_label
_atom_site_fract_x
_atom_site_fract_y
_atom_site_fract_z
Si Si1 0.917635 0.180155 0.450100
Si Si2 0.319851 0.820370 0.546444
Si Si3 0.581021 0.181697 0.186767
Si Si4 0.825751 0.320144 0.604336
Si Si5 0.688762 0.179883 0.341135
Si Si6 0.163218 0.320018 0.291536
O O1 0.875079 0.285079 0.519898
O O2 0.890284 0.217794 0.350712
O O3 0.000000 0.222208 0.456992
O O4 0.902882 0.000000 0.471451
O O5 0.389970 0.778125 0.602104
O O6 0.255622 0.715358 0.581425
O O7 0.335766 0.785331 0.442394
O O8 0.299044 0.000000 0.561094
O O9 0.500000 0.231413 0.203157
O O10 0.623743 0.225449 0.276818
O O11 0.587956 0.000000 0.164371
O O12 0.831590 0.500000 0.630494
O O13 0.852293 0.218853 0.688125
O O14 0.755510 0.285235 0.315999
O O15 0.711152 0.000000 0.328816
O O16 0.147231 0.500000 0.309547
#
# Coordination Sequence:
#
# PCOD8180202 Si02
#       6
#     8   8   8   8   8   8
#     4  11  25  45  67  94 130 167 207 259 317 376
#     4  11  22  37  62  93 124 160 210 262 311 375
#     4  10  22  40  61  88 125 168 211 259 317 376
#     4  12  24  40  65  94 128 167 211 261 312 373
#     4  10  21  38  62  89 124 164 207 257 310 373
#     4  12  24  39  65  96 127 165 212 260 309 374
#
# _framework density 19.959879999999998
#
# number of rings (size 3 to 8) (size 9 to 14) (size 15 to 20)
#    0.000    1.000    3.333    4.000    0.000    3.667 
#    0.000    1.667    0.000    0.000    0.000    0.000 
#    0.000    0.000    0.000    0.000    0.000    0.000 
#
# Total GULP energy -297785.084175 kJ/mol
# GULP energy per Si atom -12407.711841 kJ/mol
# Density = 1.991445 g / cm^3
# Si number density = 19.959880 Si / 1000 Ang^3
#
#
#
# Elastic Constant Matrix: (Units=GPa)
#
#
# Indices 1 2 3 4 5 6 
#
# 1 85.0793 33.6561 14.6783 0.0000 0.0000 0.0000
# 2 33.6561 61.9743 21.0362 0.0000 0.0000 0.0000
# 3 14.6783 21.0362 106.6189 0.0000 0.0000 0.0000
# 4 0.0000 0.0000 0.0000 34.5350 0.0000 0.0000
# 5 0.0000 0.0000 0.0000 0.0000 28.1974 0.0000
# 6 0.0000 0.0000 0.0000 0.0000 0.0000 25.7922
#
#
#
# Elastic Compliance Matrix: (Units=1/GPa)
#
#
# Indices 1 2 3 4 5 6 
#
# 1 0.014994 -0.007976 -0.000490 0.000000 0.000000 0.000000
# 2 -0.007976 0.021537 -0.003151 0.000000 0.000000 0.000000
# 3 -0.000490 -0.003151 0.010068 0.000000 0.000000 0.000000
# 4 0.000000 0.000000 0.000000 0.028956 0.000000 0.000000
# 5 0.000000 0.000000 0.000000 0.000000 0.035464 0.000000
# 6 0.000000 0.000000 0.000000 0.000000 0.000000 0.038771
#
#
# Mechanical properties :
#
#
# Convention : Reuss Voigt Hill
#
# Bulk Modulus (GPa) = 42.80188 43.60153 43.20170
# Shear Modulus (GPa) = 27.65276 29.99172 28.82224
#
# Velocity S-wave (km/s) = 3.72616 3.88054 3.80413
# Velocity P-wave (km/s) = 6.32478 6.47844 6.40207
#
# Compressibility (1/GPa) = 0.02336346
#
# Stress axis : x y z
#
# Youngs Moduli (GPa) = 66.69540 46.43208 99.31990
#
# Poissons Ratio (x) = 0.37034 0.04872
# Poissons Ratio (y) = 0.53196 0.31298
# Poissons Ratio (z) = 0.03271 0.14632
#
# Static dielectric constant tensor:
#      x y z
#    x 3.578000 0.000000 0.000000 
#    y 0.000000 3.596030 0.000000 
#    z 0.000000 0.000000 3.863380 
# 
# 
# High freq. dielectric constant tensor:
#      x y z
#    x 1.771180 0.000000 0.000000 
#    y 0.000000 1.782100 0.000000 
#    z 0.000000 0.000000 1.794960 
# 
# From -- ./inp_files/14963.got.cif
#   From: 2010.03.12/outbox.cif.g09.slc.cpg/sg38_8_cif.got.tgz:14963.got - 2010.04.14 02:38:36.
