data_PCOD8180315
_publ_section_title
;
Structure prediction by ZEFSAII (Michael W. Deem and Ramdas Pophale) SiO2 
 PCOD8180315
Probable space group: A M M 2
;
_chemical_formula_sum "Si O2"
_cell_formula_units_Z 48
_cell_length_a 14.302894
_cell_length_b 16.711347
_cell_length_c 9.695017
_cell_angle_alpha 90.000000
_cell_angle_beta 90.000000
_cell_angle_gamma 90.000000
_cell_volume 2317.309020
_symmetry_space_group_name_H-M "A M M 2"
_symmetry_group_IT_number 38
_symmetry_cell_setting 'orthorhombic'
loop_
_space_group_symop_operation_xyz
x,y,z
-x,-y,z
-x,y,z
x,-y,z
x,1/2+y,1/2+z
-x,1/2-y,1/2+z
-x,1/2+y,1/2+z
x,1/2-y,1/2+z
loop_
_atom_site_type_symbol
_atom_site_label
_atom_site_fract_x
_atom_site_fract_y
_atom_site_fract_z
Si Si1 0.695439 0.591748 0.963280
Si Si2 0.500000 0.095122 0.059491
Si Si3 0.196419 0.652623 0.719510
Si Si4 0.000000 0.166538 0.305632
Si Si5 0.701987 0.593140 0.464721
Si Si6 0.000000 0.671629 0.136101
Si Si7 0.500000 0.905860 0.368035
Si Si8 0.200997 0.338818 0.207395
O O1 0.706883 0.500000 0.012507
O O2 0.730761 0.601237 0.807330
O O3 0.588056 0.619794 0.959896
O O4 0.750333 0.652913 0.059474
O O5 0.595006 0.125232 0.982569
O O6 0.500000 0.000000 0.059523
O O7 0.500000 0.132077 0.214298
O O8 0.093406 0.618935 0.760155
O O9 0.223487 0.638886 0.561145
O O10 0.201299 0.746865 0.754793
O O11 0.000000 0.183282 0.470059
O O12 0.000000 0.243656 0.209198
O O13 0.705569 0.500000 0.499794
O O14 0.738300 0.607942 0.310842
O O15 0.094614 0.627319 0.187894
O O16 0.500000 0.000000 0.343339
#
# Coordination Sequence:
#
# PCOD8180315 Si02
#       8
#     8   4   8   4   8   4   4   8
#     4  11  21  39  63  89 119 159 204 248 299 359
#     4   9  18  37  62  86 117 164 206 240 297 374
#     4  11  22  40  64  89 118 160 206 248 294 364
#     4  10  22  38  63  90 122 164 208 242 298 376
#     4  11  23  41  64  90 123 162 205 251 303 363
#     4  10  22  40  63  88 122 168 202 242 302 378
#     4   9  18  35  62  88 117 162 208 242 293 372
#     4  11  24  40  61  92 126 156 199 254 310 356
#
# _framework density 20.71368
#
# number of rings (size 3 to 8) (size 9 to 14) (size 15 to 20)
#    0.000    1.500    3.333    2.000    7.000    0.667 
#    0.000   12.500    0.000    0.000    0.000    0.000 
#    0.000    0.000    0.000    0.000    0.000    0.000 
#
# Total GULP energy -297522.473798 kJ/mol
# GULP energy per Si atom -12396.769742 kJ/mol
# Density = 2.066653 g / cm^3
# Si number density = 20.713680 Si / 1000 Ang^3
#
#
#
# Elastic Constant Matrix: (Units=GPa)
#
#
# Indices 1 2 3 4 5 6 
#
# 1 186.4311 33.7327 46.8031 0.0000 0.0000 0.0000
# 2 33.7327 36.3213 11.4784 0.0000 0.0000 0.0000
# 3 46.8031 11.4784 85.9268 0.0000 0.0000 0.0000
# 4 0.0000 0.0000 0.0000 34.1475 0.0000 0.0000
# 5 0.0000 0.0000 0.0000 0.0000 37.0720 0.0000
# 6 0.0000 0.0000 0.0000 0.0000 0.0000 22.0245
#
#
#
# Elastic Compliance Matrix: (Units=1/GPa)
#
#
# Indices 1 2 3 4 5 6 
#
# 1 0.007182 -0.005674 -0.003154 0.000000 0.000000 0.000000
# 2 -0.005674 0.033227 -0.001348 0.000000 0.000000 0.000000
# 3 -0.003154 -0.001348 0.013536 0.000000 0.000000 0.000000
# 4 0.000000 0.000000 0.000000 0.029285 0.000000 0.000000
# 5 0.000000 0.000000 0.000000 0.000000 0.026975 0.000000
# 6 0.000000 0.000000 0.000000 0.000000 0.000000 0.045404
#
#
# Mechanical properties :
#
#
# Convention : Reuss Voigt Hill
#
# Bulk Modulus (GPa) = 29.76766 54.74528 42.25647
# Shear Modulus (GPa) = 26.71521 33.09312 29.90417
#
# Velocity S-wave (km/s) = 3.59519 4.00139 3.80372
# Velocity P-wave (km/s) = 5.62459 6.91629 6.30362
#
# Compressibility (1/GPa) = 0.03359351
#
# Stress axis : x y z
#
# Youngs Moduli (GPa) = 139.22994 30.09557 73.87714
#
# Poissons Ratio (x) = 0.17075 0.23303
# Poissons Ratio (y) = 0.78994 0.09961
# Poissons Ratio (z) = 0.43916 0.04058
#
# Static dielectric constant tensor:
#      x y z
#    x 4.676090 0.000000 0.000000 
#    y 0.000000 3.226190 0.000000 
#    z 0.000000 0.000000 3.569620 
# 
# 
# High freq. dielectric constant tensor:
#      x y z
#    x 1.835850 0.000000 0.000000 
#    y 0.000000 1.770430 0.000000 
#    z 0.000000 0.000000 1.813380 
# 
# From -- ./inp_files/5544.got.cif
#   From: 2010.03.12/outbox.cif.g09.slc.cpg/sg38_3_cif.got.tgz:5544.got - 2010.04.14 02:38:36.
