data_PCOD8180439
_publ_section_title
;
Structure prediction by ZEFSAII (Michael W. Deem and Ramdas Pophale) SiO2 
 PCOD8180439
Probable space group: A M M 2
;
_chemical_formula_sum "Si O2"
_cell_formula_units_Z 56
_cell_length_a 9.150643
_cell_length_b 29.245184
_cell_length_c 13.332864
_cell_angle_alpha 90.000000
_cell_angle_beta 90.000000
_cell_angle_gamma 90.000000
_cell_volume 3568.037577
_symmetry_space_group_name_H-M "A M M 2"
_symmetry_group_IT_number 38
_symmetry_cell_setting 'orthorhombic'
loop_
_space_group_symop_operation_xyz
x,y,z
-x,-y,z
-x,y,z
x,-y,z
x,1/2+y,1/2+z
-x,1/2-y,1/2+z
-x,1/2+y,1/2+z
x,1/2-y,1/2+z
loop_
_atom_site_type_symbol
_atom_site_label
_atom_site_fract_x
_atom_site_fract_y
_atom_site_fract_z
Si Si1 0.669752 0.182064 0.698420
Si Si2 0.670453 0.411093 0.302841
Si Si3 0.330917 0.684678 0.620852
Si Si4 0.173149 0.731636 0.026673
Si Si5 0.834845 0.000000 0.799210
Si Si6 0.333681 0.269579 0.826258
Si Si7 0.670136 0.911173 0.033682
Si Si8 0.834937 0.000000 0.037854
O O1 0.500000 0.183524 0.667120
O O2 0.717954 0.132842 0.739068
O O3 0.766224 0.193033 0.601426
O O4 0.699470 0.218879 0.785404
O O5 0.500000 0.421323 0.292176
O O6 0.755641 0.454646 0.258064
O O7 0.712380 0.401900 0.418262
O O8 0.500000 0.693070 0.591246
O O9 0.235126 0.718597 0.553898
O O10 0.305568 0.693689 0.738319
O O11 0.283113 0.633017 0.597539
O O12 0.000000 0.732547 0.032827
O O13 0.223061 0.718495 0.915008
O O14 0.825055 0.000000 0.918521
O O15 0.000000 0.000000 0.759879
O O16 0.500000 0.272718 0.865494
O O17 0.500000 0.922089 0.044687
O O18 0.756158 0.954511 0.078781
O O19 0.000000 0.000000 0.077234
#
# Coordination Sequence:
#
# PCOD8180439 Si02
#       8
#     8   8   8   8   4   8   8   4
#     4   9  18  32  49  66  85 115 153 187 218 255
#     4   9  16  27  45  66  87 113 146 182 216 253
#     4   9  18  32  49  66  85 115 154 188 218 255
#     4  11  21  30  43  65  93 120 145 179 222 266
#     4   9  17  27  39  59  90 121 144 171 211 260
#     4   9  17  31  48  64  86 116 149 184 220 258
#     4   9  16  28  46  66  87 113 147 183 216 252
#     4   9  17  27  39  61  92 121 144 169 211 262
#
# _framework density 15.694902000000001
#
# number of rings (size 3 to 8) (size 9 to 14) (size 15 to 20)
#    0.000    2.714    0.000    3.429    0.000    7.429 
#    0.000    2.857    0.000    0.000    0.000    1.000 
#    0.000    5.714    0.000    0.000    0.000    0.000 
#
# Total GULP energy -347226.731147 kJ/mol
# GULP energy per Si atom -12400.954684 kJ/mol
# Density = 1.565918 g / cm^3
# Si number density = 15.694902 Si / 1000 Ang^3
#
#
#
# Elastic Constant Matrix: (Units=GPa)
#
#
# Indices 1 2 3 4 5 6 
#
# 1 88.3335 63.3043 47.4824 0.0000 0.0000 0.0000
# 2 63.3043 152.7418 52.6556 0.0000 0.0000 0.0000
# 3 47.4824 52.6556 73.0532 0.0000 0.0000 0.0000
# 4 0.0000 0.0000 0.0000 21.6264 0.0000 0.0000
# 5 0.0000 0.0000 0.0000 0.0000 14.3277 0.0000
# 6 0.0000 0.0000 0.0000 0.0000 0.0000 16.8455
#
#
#
# Elastic Compliance Matrix: (Units=1/GPa)
#
#
# Indices 1 2 3 4 5 6 
#
# 1 0.019958 -0.005056 -0.009328 0.000000 0.000000 0.000000
# 2 -0.005056 0.009993 -0.003916 0.000000 0.000000 0.000000
# 3 -0.009328 -0.003916 0.022574 0.000000 0.000000 0.000000
# 4 0.000000 0.000000 0.000000 0.046240 0.000000 0.000000
# 5 0.000000 0.000000 0.000000 0.000000 0.069795 0.000000
# 6 0.000000 0.000000 0.000000 0.000000 0.000000 0.059363
#
#
# Mechanical properties :
#
#
# Convention : Reuss Voigt Hill
#
# Bulk Modulus (GPa) = 62.79557 71.22368 67.00962
# Shear Modulus (GPa) = 18.53010 20.60568 19.56789
#
# Velocity S-wave (km/s) = 3.43978 3.62731 3.53479
# Velocity P-wave (km/s) = 7.47483 7.93863 7.71022
#
# Compressibility (1/GPa) = 0.01592469
#
# Stress axis : x y z
#
# Youngs Moduli (GPa) = 50.10444 100.07456 44.29821
#
# Poissons Ratio (x) = 0.50599 0.41321
# Poissons Ratio (y) = 0.25333 0.17348
# Poissons Ratio (z) = 0.46737 0.39191
#
# Static dielectric constant tensor:
#      x y z
#    x 2.951960 0.000000 0.000000 
#    y 0.000000 3.078370 0.000000 
#    z 0.000000 0.000000 2.750940 
# 
# 
# High freq. dielectric constant tensor:
#      x y z
#    x 1.600410 0.000000 0.000000 
#    y 0.000000 1.601610 0.000000 
#    z 0.000000 0.000000 1.569370 
# 
# From -- ./inp_files/13012.got.cif
#   From: 2010.03.12/outbox.cif.g09.slc.cpg/sg38_7_cif.got.tgz:13012.got - 2010.04.14 02:38:36.
