data_PCOD8180483
_publ_section_title
;
Structure prediction by ZEFSAII (Michael W. Deem and Ramdas Pophale) SiO2 
 PCOD8180483
Probable space group: A M M 2
;
_chemical_formula_sum "Si O2"
_cell_formula_units_Z 32
_cell_length_a 8.415864
_cell_length_b 20.234150
_cell_length_c 9.223911
_cell_angle_alpha 90.000000
_cell_angle_beta 90.000000
_cell_angle_gamma 90.000000
_cell_volume 1570.720015
_symmetry_space_group_name_H-M "A M M 2"
_symmetry_group_IT_number 38
_symmetry_cell_setting 'orthorhombic'
loop_
_space_group_symop_operation_xyz
x,y,z
-x,-y,z
-x,y,z
x,-y,z
x,1/2+y,1/2+z
-x,1/2-y,1/2+z
-x,1/2+y,1/2+z
x,1/2-y,1/2+z
loop_
_atom_site_type_symbol
_atom_site_label
_atom_site_fract_x
_atom_site_fract_y
_atom_site_fract_z
Si Si1 0.681847 0.305586 0.277310
Si Si2 0.815366 0.423988 0.440260
Si Si3 0.188889 0.572986 0.766452
Si Si4 0.815133 0.691541 0.963017
O O1 0.500000 0.286650 0.306366
O O2 0.715297 0.379971 0.329448
O O3 0.794896 0.255771 0.363828
O O4 0.715381 0.299826 0.107715
O O5 0.786600 0.500000 0.397873
O O6 0.753425 0.410205 0.603656
O O7 0.000000 0.405582 0.425784
O O8 0.250819 0.500000 0.812696
O O9 0.253416 0.627576 0.877853
O O10 0.000000 0.573117 0.764783
O O11 0.000000 0.682613 0.001178
#
# Coordination Sequence:
#
# PCOD8180483 Si02
#       4
#     8   8   8   8
#     4  12  25  39  56  83 120 154 189 241 302 351
#     4   9  18  36  62  88 114 149 195 241 285 341
#     4   8  16  33  59  88 112 138 182 239 287 329
#     4  11  22  38  61  85 112 151 198 241 286 348
#
# _framework density 20.372821999999999
#
# number of rings (size 3 to 8) (size 9 to 14) (size 15 to 20)
#    0.000    2.000    0.000    6.000    0.000    3.500 
#    0.000    3.750    0.000    5.250    0.000    0.000 
#    0.000    0.000    0.000    0.000    0.000    0.000 
#
# Total GULP energy -198444.424253 kJ/mol
# GULP energy per Si atom -12402.776516 kJ/mol
# Density = 2.032645 g / cm^3
# Si number density = 20.372822 Si / 1000 Ang^3
#
#
#
# Elastic Constant Matrix: (Units=GPa)
#
#
# Indices 1 2 3 4 5 6 
#
# 1 48.7911 16.3103 11.3510 0.0000 0.0000 0.0000
# 2 16.3103 117.3583 59.7169 0.0000 0.0000 0.0000
# 3 11.3510 59.7169 117.0058 0.0000 0.0000 0.0000
# 4 0.0000 0.0000 0.0000 43.2507 0.0000 0.0000
# 5 0.0000 0.0000 0.0000 0.0000 22.5126 0.0000
# 6 0.0000 0.0000 0.0000 0.0000 0.0000 13.8053
#
#
#
# Elastic Compliance Matrix: (Units=1/GPa)
#
#
# Indices 1 2 3 4 5 6 
#
# 1 0.021544 -0.002608 -0.000759 0.000000 0.000000 0.000000
# 2 -0.002608 0.011826 -0.005783 0.000000 0.000000 0.000000
# 3 -0.000759 -0.005783 0.011572 0.000000 0.000000 0.000000
# 4 0.000000 0.000000 0.000000 0.023121 0.000000 0.000000
# 5 0.000000 0.000000 0.000000 0.000000 0.044420 0.000000
# 6 0.000000 0.000000 0.000000 0.000000 0.000000 0.072436
#
#
# Mechanical properties :
#
#
# Convention : Reuss Voigt Hill
#
# Bulk Modulus (GPa) = 37.53447 50.87906 44.20677
# Shear Modulus (GPa) = 23.57403 28.96551 26.26977
#
# Velocity S-wave (km/s) = 3.40535 3.77473 3.59479
# Velocity P-wave (km/s) = 5.82458 6.63523 6.24308
#
# Compressibility (1/GPa) = 0.02664218
#
# Stress axis : x y z
#
# Youngs Moduli (GPa) = 46.41681 84.56091 86.41914
#
# Poissons Ratio (x) = 0.22053 0.06559
# Poissons Ratio (y) = 0.12105 0.49973
# Poissons Ratio (z) = 0.03523 0.48898
#
# Static dielectric constant tensor:
#      x y z
#    x 3.290850 0.000000 0.000000 
#    y 0.000000 3.978940 0.000000 
#    z 0.000000 0.000000 3.688580 
# 
# 
# High freq. dielectric constant tensor:
#      x y z
#    x 1.765930 0.000000 0.000000 
#    y 0.000000 1.809570 0.000000 
#    z 0.000000 0.000000 1.796270 
# 
# From -- ./inp_files/3054.got.cif
#   From: 2010.03.12/outbox.cif.g09.slc.cpg/sg38_2_cif.got.tgz:3054.got - 2010.04.14 02:38:36.
