data_PCOD8180908
_publ_section_title
;
Structure prediction by ZEFSAII (Michael W. Deem and Ramdas Pophale) SiO2 
 PCOD8180908
Probable space group: A B M 2
;
_chemical_formula_sum "Si O2"
_cell_formula_units_Z 64
_cell_length_a 14.249839
_cell_length_b 8.906336
_cell_length_c 31.364872
_cell_angle_alpha 90.000000
_cell_angle_beta 90.000000
_cell_angle_gamma 90.000000
_cell_volume 3980.636788
_symmetry_space_group_name_H-M "A B M 2"
_symmetry_group_IT_number 39
_symmetry_cell_setting 'orthorhombic'
loop_
_space_group_symop_operation_xyz
x,y,z
-x,-y,z
-x,1/2+y,z
x,1/2-y,z
x,1/2+y,1/2+z
-x,1/2-y,1/2+z
-x,y,1/2+z
x,-y,1/2+z
loop_
_atom_site_type_symbol
_atom_site_label
_atom_site_fract_x
_atom_site_fract_y
_atom_site_fract_z
Si Si1 0.397260 0.927328 0.016440
Si Si2 0.399263 0.926496 0.671966
Si Si3 0.719607 0.428235 0.590354
Si Si4 0.398690 0.573404 0.831729
Si Si5 0.903485 0.573946 0.721164
Si Si6 0.097275 0.072970 0.622733
Si Si7 0.721428 0.572285 0.252540
Si Si8 0.597844 0.422549 0.923770
O O1 0.405118 0.750000 0.026389
O O2 0.500000 0.000000 0.021141
O O3 0.326476 0.007569 0.047980
O O4 0.351395 0.956742 0.968994
O O5 0.413468 0.750000 0.672517
O O6 0.342964 0.979320 0.630375
O O7 0.343179 0.981568 0.713425
O O8 0.500000 0.000000 0.671431
O O9 0.728815 0.250000 0.587549
O O10 0.821979 0.500084 0.594218
O O11 0.500000 0.500000 0.825175
O O12 0.412947 0.750000 0.826018
O O13 0.326950 0.515160 0.796020
O O14 0.353502 0.531362 0.878599
O O15 0.911046 0.750000 0.728202
O O16 0.883348 0.532431 0.672013
O O17 0.821368 0.507849 0.750211
O O18 0.000000 0.500000 0.736643
O O19 0.093397 0.250000 0.615034
O O20 0.000000 0.000000 0.607625
O O21 0.737386 0.750000 0.251391
O O22 0.500000 0.500000 0.926288
O O23 0.573719 0.250000 0.921066
#
# Coordination Sequence:
#
# PCOD8180908 Si02
#       8
#     8   8   8   8   8   8   8   8
#     4  10  19  31  47  68  96 127 162 200 239 284
#     4  10  21  32  43  61  91 128 160 191 224 265
#     4  11  21  33  48  68  95 127 162 197 234 279
#     4   9  17  29  47  69  95 127 160 196 236 278
#     4  10  20  33  51  71  92 121 156 197 238 279
#     4  10  20  34  52  72  93 121 156 198 241 282
#     4  10  19  32  47  67  95 126 159 194 233 278
#     4   8  15  28  45  66  91 121 157 197 239 279
#
# _framework density 16.077829000000001
#
# number of rings (size 3 to 8) (size 9 to 14) (size 15 to 20)
#    0.000    2.250    1.250    2.250    0.000    4.500 
#    0.000    0.000    0.000    0.000    0.000    0.875 
#    0.000    4.000    0.000    0.000    0.000    0.000 
#
# Total GULP energy -396640.698657 kJ/mol
# GULP energy per Si atom -12395.021833 kJ/mol
# Density = 1.604123 g / cm^3
# Si number density = 16.077829 Si / 1000 Ang^3
#
#
#
# Elastic Constant Matrix: (Units=GPa)
#
#
# Indices 1 2 3 4 5 6 
#
# 1 122.9181 43.7467 67.8224 0.0000 0.0000 0.0000
# 2 43.7467 53.6168 39.9605 0.0000 0.0000 0.0000
# 3 67.8224 39.9605 129.9675 0.0000 0.0000 0.0000
# 4 0.0000 0.0000 0.0000 21.8543 0.0000 0.0000
# 5 0.0000 0.0000 0.0000 0.0000 76.9403 0.0000
# 6 0.0000 0.0000 0.0000 0.0000 0.0000 30.8503
#
#
#
# Elastic Compliance Matrix: (Units=1/GPa)
#
#
# Indices 1 2 3 4 5 6 
#
# 1 0.013361 -0.007401 -0.004697 0.000000 0.000000 0.000000
# 2 -0.007401 0.028295 -0.004838 0.000000 0.000000 0.000000
# 3 -0.004697 -0.004838 0.011633 0.000000 0.000000 0.000000
# 4 0.000000 0.000000 0.000000 0.045758 0.000000 0.000000
# 5 0.000000 0.000000 0.000000 0.000000 0.012997 0.000000
# 6 0.000000 0.000000 0.000000 0.000000 0.000000 0.032415
#
#
# Mechanical properties :
#
#
# Convention : Reuss Voigt Hill
#
# Bulk Modulus (GPa) = 51.49901 67.72905 59.61403
# Shear Modulus (GPa) = 27.05612 36.26051 31.65831
#
# Velocity S-wave (km/s) = 4.10667 4.75416 4.44223
# Velocity P-wave (km/s) = 7.38830 8.50607 7.96681
#
# Compressibility (1/GPa) = 0.01941785
#
# Stress axis : x y z
#
# Youngs Moduli (GPa) = 74.84437 35.34214 85.96521
#
# Poissons Ratio (x) = 0.26157 0.40376
# Poissons Ratio (y) = 0.55392 0.41586
# Poissons Ratio (z) = 0.35153 0.17097
#
# Static dielectric constant tensor:
#      x y z
#    x 1.742350 0.000000 0.000000 
#    y 0.000000 3.045130 0.000000 
#    z 0.000000 0.000000 3.510000 
# 
# 
# High freq. dielectric constant tensor:
#      x y z
#    x 1.596120 0.000000 0.000000 
#    y 0.000000 1.627380 0.000000 
#    z 0.000000 0.000000 1.615780 
# 
# From -- ./inp_files/17856.got.cif
#   From: 2010.03.12/outbox.cif.g09.slc.cpg/sg39_9_cif.got.tgz:17856.got - 2010.04.14 02:53:20.
