data_PCOD8180046
_publ_section_title
;
Structure prediction by ZEFSAII (Michael W. Deem and Ramdas Pophale) SiO2 
 PCOD8180046
Probable space group: A M M 2
;
_chemical_formula_sum "Si O2"
_cell_formula_units_Z 48
_cell_length_a 19.325338
_cell_length_b 12.886185
_cell_length_c 9.050478
_cell_angle_alpha 90.000000
_cell_angle_beta 90.000000
_cell_angle_gamma 90.000000
_cell_volume 2253.839456
_symmetry_space_group_name_H-M "A M M 2"
_symmetry_group_IT_number 38
_symmetry_cell_setting 'orthorhombic'
loop_
_space_group_symop_operation_xyz
x,y,z
-x,-y,z
-x,y,z
x,-y,z
x,1/2+y,1/2+z
-x,1/2-y,1/2+z
-x,1/2+y,1/2+z
x,1/2-y,1/2+z
loop_
_atom_site_type_symbol
_atom_site_label
_atom_site_fract_x
_atom_site_fract_y
_atom_site_fract_z
Si Si1 0.642576 0.877012 0.862290
Si Si2 0.622504 0.885012 0.537082
Si Si3 0.500000 0.875807 0.347436
Si Si4 0.500000 0.878750 0.022464
Si Si5 0.918651 0.120572 0.918197
Si Si6 0.251459 0.202208 0.416747
Si Si7 0.154875 0.743917 0.666931
O O1 0.635544 0.832965 0.695311
O O2 0.707564 0.813442 0.930571
O O3 0.659831 0.000000 0.870954
O O4 0.570438 0.847577 0.939528
O O5 0.564454 0.828765 0.438702
O O6 0.692314 0.887632 0.439599
O O7 0.595808 0.000000 0.569880
O O8 0.500000 0.826217 0.184592
O O9 0.500000 0.000000 0.338234
O O10 0.500000 0.000000 0.044720
O O11 0.886358 0.180718 0.778328
O O12 0.000000 0.136361 0.909352
O O13 0.897620 0.000000 0.907159
O O14 0.894007 0.163972 0.077791
O O15 0.194816 0.188909 0.545296
O O16 0.212719 0.183196 0.262160
#
# Coordination Sequence:
#
# PCOD8180046 Si02
#       7
#     8   8   4   4   8   8   8
#     4  10  21  38  59  79 112 160 213 265 323 388
#     4  10  21  37  56  77 111 157 205 258 316 379
#     4   9  19  34  53  80 110 146 202 270 327 371
#     4   9  19  34  55  84 108 146 210 278 331 375
#     4  10  22  44  74 102 132 175 216 256 314 377
#     4  11  22  38  57  89 125 162 205 252 315 383
#     4  10  23  40  63  97 138 166 207 264 314 376
#
# _framework density 21.296990000000001
#
# number of rings (size 3 to 8) (size 9 to 14) (size 15 to 20)
#    0.000    2.000    1.667    1.000    2.333    6.667 
#    0.000    2.500    0.000    9.000    0.000    0.000 
#    0.000    0.000    0.000    0.000    0.000    0.000 
#
# Total GULP energy -297406.834026 kJ/mol
# GULP energy per Si atom -12391.951418 kJ/mol
# Density = 2.124852 g / cm^3
# Si number density = 21.296990 Si / 1000 Ang^3
#
#
#
# Elastic Constant Matrix: (Units=GPa)
#
#
# Indices 1 2 3 4 5 6 
#
# 1 119.1909 28.8364 54.7495 0.0000 0.0000 0.0000
# 2 28.8364 80.2015 43.3075 0.0000 0.0000 0.0000
# 3 54.7495 43.3075 144.1108 0.0000 0.0000 0.0000
# 4 0.0000 0.0000 0.0000 25.7092 0.0000 0.0000
# 5 0.0000 0.0000 0.0000 0.0000 41.9227 0.0000
# 6 0.0000 0.0000 0.0000 0.0000 0.0000 22.2698
#
#
#
# Elastic Compliance Matrix: (Units=1/GPa)
#
#
# Indices 1 2 3 4 5 6 
#
# 1 0.010405 -0.001918 -0.003377 0.000000 0.000000 0.000000
# 2 -0.001918 0.015237 -0.003850 0.000000 0.000000 0.000000
# 3 -0.003377 -0.003850 0.009379 0.000000 0.000000 0.000000
# 4 0.000000 0.000000 0.000000 0.038897 0.000000 0.000000
# 5 0.000000 0.000000 0.000000 0.000000 0.023853 0.000000
# 6 0.000000 0.000000 0.000000 0.000000 0.000000 0.044904
#
#
# Mechanical properties :
#
#
# Convention : Reuss Voigt Hill
#
# Bulk Modulus (GPa) = 59.76728 66.36554 63.06641
# Shear Modulus (GPa) = 30.02248 32.42102 31.22175
#
# Velocity S-wave (km/s) = 3.75868 3.90594 3.83301
# Velocity P-wave (km/s) = 6.85285 7.18132 7.01901
#
# Compressibility (1/GPa) = 0.01673156
#
# Stress axis : x y z
#
# Youngs Moduli (GPa) = 96.10850 65.62845 106.62056
#
# Poissons Ratio (x) = 0.12586 0.36002
# Poissons Ratio (y) = 0.18431 0.41054
# Poissons Ratio (z) = 0.32452 0.25270
#
# Static dielectric constant tensor:
#      x y z
#    x 3.983320 0.000000 0.000000 
#    y 0.000000 3.582980 0.000000 
#    z 0.000000 0.000000 4.143580 
# 
# 
# High freq. dielectric constant tensor:
#      x y z
#    x 1.838900 0.000000 0.000000 
#    y 0.000000 1.824580 0.000000 
#    z 0.000000 0.000000 1.850890 
# 
# From -- ./inp_files/6217.got.cif
#   From: 2010.03.12/outbox.cif.g09.slc.cpg/sg38_4_cif.got.tgz:6217.got - 2010.04.14 02:38:36.
