data_PCOD8180295
_publ_section_title
;
Structure prediction by ZEFSAII (Michael W. Deem and Ramdas Pophale) SiO2 
 PCOD8180295
Probable space group: A M M 2
;
_chemical_formula_sum "Si O2"
_cell_formula_units_Z 56
_cell_length_a 13.134496
_cell_length_b 21.102432
_cell_length_c 9.119049
_cell_angle_alpha 90.000000
_cell_angle_beta 90.000000
_cell_angle_gamma 90.000000
_cell_volume 2527.525067
_symmetry_space_group_name_H-M "A M M 2"
_symmetry_group_IT_number 38
_symmetry_cell_setting 'orthorhombic'
loop_
_space_group_symop_operation_xyz
x,y,z
-x,-y,z
-x,y,z
x,-y,z
x,1/2+y,1/2+z
-x,1/2-y,1/2+z
-x,1/2+y,1/2+z
x,1/2-y,1/2+z
loop_
_atom_site_type_symbol
_atom_site_label
_atom_site_fract_x
_atom_site_fract_y
_atom_site_fract_z
Si Si1 0.618365 0.929976 0.684360
Si Si2 0.116852 0.202071 0.028279
Si Si3 0.617721 0.804538 0.839233
Si Si4 0.682814 0.929145 0.355887
Si Si5 0.113557 0.928345 0.497213
Si Si6 0.883877 0.675816 0.207061
Si Si7 0.684847 0.815631 0.164059
O O1 0.500000 0.932469 0.721207
O O2 0.664982 0.871015 0.777240
O O3 0.633066 0.916567 0.512878
O O4 0.665786 0.000000 0.724094
O O5 0.164962 0.195021 0.863862
O O6 0.000000 0.178299 0.049961
O O7 0.128288 0.275361 0.073100
O O8 0.196144 0.166172 0.134064
O O9 0.500000 0.797453 0.794019
O O10 0.678780 0.746761 0.764774
O O11 0.625388 0.802077 0.014379
O O12 0.805795 0.920810 0.366071
O O13 0.637458 0.877139 0.244506
O O14 0.655611 0.000000 0.299484
O O15 0.154994 0.890621 0.640392
O O16 0.000000 0.904589 0.448335
O O17 0.108675 0.000000 0.551277
O O18 0.000000 0.669509 0.254096
#
# Coordination Sequence:
#
# PCOD8180295 Si02
#       7
#     8   8   8   8   8   8   8
#     4   9  20  41  67  91 118 154 195 244 305 367
#     4  10  22  37  55  87 124 157 199 248 299 360
#     4  11  25  43  64  93 124 157 202 254 306 368
#     4  10  23  40  60  89 121 158 205 252 300 364
#     4   9  19  36  59  85 117 160 204 245 292 351
#     4   9  19  34  54  80 113 151 195 244 292 344
#     4  12  25  39  63  89 123 164 204 249 315 363
#
# _framework density 22.156061999999999
#
# number of rings (size 3 to 8) (size 9 to 14) (size 15 to 20)
#    0.000    2.000    0.000    2.143    8.000    3.429 
#    0.000    0.714    0.000    0.857    0.000    0.000 
#    0.000    0.000    0.000    0.000    0.000    0.000 
#
# Total GULP energy -346977.341165 kJ/mol
# GULP energy per Si atom -12392.047899 kJ/mol
# Density = 2.210563 g / cm^3
# Si number density = 22.156062 Si / 1000 Ang^3
#
#
#
# Elastic Constant Matrix: (Units=GPa)
#
#
# Indices 1 2 3 4 5 6 
#
# 1 46.9993 5.1696 10.1015 0.0000 0.0000 0.0000
# 2 5.1696 145.2987 81.3841 0.0000 0.0000 0.0000
# 3 10.1015 81.3841 121.5504 0.0000 0.0000 0.0000
# 4 0.0000 0.0000 0.0000 38.7567 0.0000 0.0000
# 5 0.0000 0.0000 0.0000 0.0000 25.6504 0.0000
# 6 0.0000 0.0000 0.0000 0.0000 0.0000 19.6321
#
#
#
# Elastic Compliance Matrix: (Units=1/GPa)
#
#
# Indices 1 2 3 4 5 6 
#
# 1 0.021677 0.000380 -0.002056 0.000000 0.000000 0.000000
# 2 0.000380 0.011019 -0.007409 0.000000 0.000000 0.000000
# 3 -0.002056 -0.007409 0.013359 0.000000 0.000000 0.000000
# 4 0.000000 0.000000 0.000000 0.025802 0.000000 0.000000
# 5 0.000000 0.000000 0.000000 0.000000 0.038986 0.000000
# 6 0.000000 0.000000 0.000000 0.000000 0.000000 0.050937
#
#
# Mechanical properties :
#
#
# Convention : Reuss Voigt Hill
#
# Bulk Modulus (GPa) = 35.86211 56.35100 46.10656
# Shear Modulus (GPa) = 26.42085 31.28738 28.85411
#
# Velocity S-wave (km/s) = 3.45699 3.76192 3.61267
# Velocity P-wave (km/s) = 5.67059 6.66020 6.18522
#
# Compressibility (1/GPa) = 0.02788458
#
# Stress axis : x y z
#
# Youngs Moduli (GPa) = 46.13183 90.75292 74.85675
#
# Poissons Ratio (x) = -0.03453 0.15392
# Poissons Ratio (y) = -0.01755 0.55464
# Poissons Ratio (z) = 0.09486 0.67242
#
# Static dielectric constant tensor:
#      x y z
#    x 4.266610 0.000000 0.000000 
#    y 0.000000 4.179480 0.000000 
#    z 0.000000 0.000000 3.756760 
# 
# 
# High freq. dielectric constant tensor:
#      x y z
#    x 1.888950 0.000000 0.000000 
#    y 0.000000 1.867120 0.000000 
#    z 0.000000 0.000000 1.850510 
# 
# From -- ./inp_files/5717.got.cif
#   From: 2010.03.12/outbox.cif.g09.slc.cpg/sg38_3_cif.got.tgz:5717.got - 2010.04.14 02:38:36.
