data_PCOD8180870
_publ_section_title
;
Structure prediction by ZEFSAII (Michael W. Deem and Ramdas Pophale) SiO2 
 PCOD8180870
Probable space group: A B M 2
;
_chemical_formula_sum "Si O2"
_cell_formula_units_Z 48
_cell_length_a 12.971979
_cell_length_b 8.971870
_cell_length_c 22.844204
_cell_angle_alpha 90.000000
_cell_angle_beta 90.000000
_cell_angle_gamma 90.000000
_cell_volume 2658.674921
_symmetry_space_group_name_H-M "A B M 2"
_symmetry_group_IT_number 39
_symmetry_cell_setting 'orthorhombic'
loop_
_space_group_symop_operation_xyz
x,y,z
-x,-y,z
-x,1/2+y,z
x,1/2-y,z
x,1/2+y,1/2+z
-x,1/2-y,1/2+z
-x,y,1/2+z
x,-y,1/2+z
loop_
_atom_site_type_symbol
_atom_site_label
_atom_site_fract_x
_atom_site_fract_y
_atom_site_fract_z
Si Si1 0.090332 0.087897 0.071050
Si Si2 0.107754 0.077074 0.394189
Si Si3 0.737282 0.084551 0.477017
Si Si4 0.215847 0.924432 0.160791
Si Si5 0.607703 0.926493 0.569406
Si Si6 0.892881 0.077782 0.757691
O O1 0.053701 0.250000 0.093289
O O2 0.116873 0.982965 0.125671
O O3 0.183791 0.108930 0.028549
O O4 0.000000 0.000000 0.036788
O O5 0.099732 0.250000 0.412268
O O6 0.129270 0.055276 0.325962
O O7 0.207385 0.004248 0.424913
O O8 0.000000 0.000000 0.412502
O O9 0.700285 0.250000 0.455666
O O10 0.644196 0.991250 0.506293
O O11 0.209457 0.750000 0.170938
O O12 0.318007 0.967696 0.124084
O O13 0.205553 0.005371 0.223805
O O14 0.597505 0.750000 0.562204
O O15 0.500000 0.000000 0.586262
O O16 0.901271 0.250000 0.740839
O O17 0.000000 0.000000 0.739981
#
# Coordination Sequence:
#
# PCOD8180870 Si02
#       6
#     8   8   8   8   8   8
#     4  10  19  29  43  66  97 130 162 198 243 295
#     4  10  20  33  50  74 105 141 177 211 249 296
#     4  10  20  33  51  74 100 132 168 208 253 301
#     4  10  20  33  50  72  98 129 165 206 251 300
#     4  10  21  37  57  79 102 129 164 209 261 313
#     4  10  20  33  50  73 104 141 176 210 247 293
#
# _framework density 18.054106999999998
#
# number of rings (size 3 to 8) (size 9 to 14) (size 15 to 20)
#    0.000    2.000    0.000    4.000    0.000    7.333 
#    0.000    0.000    0.000    1.000    0.000    2.333 
#    0.000    0.000    0.000    0.000    0.000    0.000 
#
# Total GULP energy -297471.991696 kJ/mol
# GULP energy per Si atom -12394.666321 kJ/mol
# Density = 1.801302 g / cm^3
# Si number density = 18.054107 Si / 1000 Ang^3
#
#
#
# Elastic Constant Matrix: (Units=GPa)
#
#
# Indices 1 2 3 4 5 6 
#
# 1 84.7411 64.8072 36.3938 0.0000 0.0000 0.0000
# 2 64.8072 143.9892 55.2560 0.0000 0.0000 0.0000
# 3 36.3938 55.2560 78.7162 0.0000 0.0000 0.0000
# 4 0.0000 0.0000 0.0000 23.2731 0.0000 0.0000
# 5 0.0000 0.0000 0.0000 0.0000 23.4798 0.0000
# 6 0.0000 0.0000 0.0000 0.0000 0.0000 30.7017
#
#
#
# Elastic Compliance Matrix: (Units=1/GPa)
#
#
# Indices 1 2 3 4 5 6 
#
# 1 0.018775 -0.007006 -0.003762 0.000000 0.000000 0.000000
# 2 -0.007006 0.012120 -0.005269 0.000000 0.000000 0.000000
# 3 -0.003762 -0.005269 0.018142 0.000000 0.000000 0.000000
# 4 0.000000 0.000000 0.000000 0.042968 0.000000 0.000000
# 5 0.000000 0.000000 0.000000 0.000000 0.042590 0.000000
# 6 0.000000 0.000000 0.000000 0.000000 0.000000 0.032571
#
#
# Mechanical properties :
#
#
# Convention : Reuss Voigt Hill
#
# Bulk Modulus (GPa) = 58.95425 68.92895 63.94160
# Shear Modulus (GPa) = 24.40285 25.55691 24.97988
#
# Velocity S-wave (km/s) = 3.68047 3.76649 3.72373
# Velocity P-wave (km/s) = 7.12645 7.56156 7.34723
#
# Compressibility (1/GPa) = 0.01696231
#
# Stress axis : x y z
#
# Youngs Moduli (GPa) = 53.26333 82.50605 55.12194
#
# Poissons Ratio (x) = 0.57808 0.20737
# Poissons Ratio (y) = 0.37319 0.29042
# Poissons Ratio (z) = 0.20038 0.43470
#
# Static dielectric constant tensor:
#      x y z
#    x 3.366060 0.000000 0.000000 
#    y 0.000000 3.732060 0.000000 
#    z 0.000000 0.000000 3.337770 
# 
# 
# High freq. dielectric constant tensor:
#      x y z
#    x 1.668190 0.000000 0.000000 
#    y 0.000000 1.724180 0.000000 
#    z 0.000000 0.000000 1.691160 
# 
# From -- ./inp_files/14594.got.cif
#   From: 2010.03.12/outbox.cif.g09.slc.cpg/sg39_8_cif.got.tgz:14594.got - 2010.04.14 02:53:20.
