data_PCOD8180745
_publ_section_title
;
Structure prediction by ZEFSAII (Michael W. Deem and Ramdas Pophale) SiO2 
 PCOD8180745
Probable space group: A B M 2
;
_chemical_formula_sum "Si O2"
_cell_formula_units_Z 48
_cell_length_a 16.542115
_cell_length_b 8.659114
_cell_length_c 18.466225
_cell_angle_alpha 90.000000
_cell_angle_beta 90.000000
_cell_angle_gamma 90.000000
_cell_volume 2645.103169
_symmetry_space_group_name_H-M "A B M 2"
_symmetry_group_IT_number 39
_symmetry_cell_setting 'orthorhombic'
loop_
_space_group_symop_operation_xyz
x,y,z
-x,-y,z
-x,1/2+y,z
x,1/2-y,z
x,1/2+y,1/2+z
-x,1/2-y,1/2+z
-x,y,1/2+z
x,-y,1/2+z
loop_
_atom_site_type_symbol
_atom_site_label
_atom_site_fract_x
_atom_site_fract_y
_atom_site_fract_z
Si Si1 0.185873 0.070900 0.201880
Si Si2 0.737942 0.567020 0.827733
Si Si3 0.668222 0.069838 0.118716
Si Si4 0.084421 0.073296 0.071506
Si Si5 0.415460 0.067351 0.246139
Si Si6 0.244500 0.932626 0.493036
O O1 0.213609 0.250000 0.199077
O O2 0.101851 0.050155 0.158028
O O3 0.185348 0.009057 0.284518
O O4 0.250147 0.963132 0.162128
O O5 0.740491 0.750000 0.819314
O O6 0.654167 0.502393 0.796965
O O7 0.747260 0.515221 0.910450
O O8 0.648222 0.250000 0.116775
O O9 0.596610 0.983139 0.162077
O O10 0.680349 0.006681 0.037137
O O11 0.075895 0.250000 0.051208
O O12 0.158693 0.004665 0.024264
O O13 0.000000 0.000000 0.049325
O O14 0.415187 0.250000 0.253071
O O15 0.500000 0.000000 0.274572
O O16 0.249818 0.750000 0.503470
#
# Coordination Sequence:
#
# PCOD8180745 Si02
#       6
#     8   8   8   8   8   8
#     4   9  17  31  49  70  98 129 164 204 247 295
#     4  10  19  33  54  77 102 134 171 207 250 304
#     4  10  18  30  51  76  98 126 167 204 241 294
#     4   9  18  32  50  72  98 131 169 212 258 300
#     4  11  21  35  54  76 104 133 167 210 254 298
#     4   9  19  35  52  73 104 137 168 207 254 303
#
# _framework density 18.146739
#
# number of rings (size 3 to 8) (size 9 to 14) (size 15 to 20)
#    0.000    2.333    0.000    7.000    0.000    4.667 
#    0.000    1.667    0.000    8.000    0.000    0.000 
#    0.000    0.000    0.000    0.000    0.000    0.000 
#
# Total GULP energy -297429.547288 kJ/mol
# GULP energy per Si atom -12392.897804 kJ/mol
# Density = 1.810544 g / cm^3
# Si number density = 18.146739 Si / 1000 Ang^3
#
#
#
# Elastic Constant Matrix: (Units=GPa)
#
#
# Indices 1 2 3 4 5 6 
#
# 1 80.5174 25.9770 40.5659 0.0000 0.0000 0.0000
# 2 25.9770 68.6698 40.2941 0.0000 0.0000 0.0000
# 3 40.5659 40.2941 143.0896 0.0000 0.0000 0.0000
# 4 0.0000 0.0000 0.0000 28.6085 0.0000 0.0000
# 5 0.0000 0.0000 0.0000 0.0000 18.6099 0.0000
# 6 0.0000 0.0000 0.0000 0.0000 0.0000 28.0916
#
#
#
# Elastic Compliance Matrix: (Units=1/GPa)
#
#
# Indices 1 2 3 4 5 6 
#
# 1 0.015309 -0.003887 -0.003246 0.000000 0.000000 0.000000
# 2 -0.003887 0.018432 -0.004089 0.000000 0.000000 0.000000
# 3 -0.003246 -0.004089 0.009060 0.000000 0.000000 0.000000
# 4 0.000000 0.000000 0.000000 0.034955 0.000000 0.000000
# 5 0.000000 0.000000 0.000000 0.000000 0.053735 0.000000
# 6 0.000000 0.000000 0.000000 0.000000 0.000000 0.035598
#
#
# Mechanical properties :
#
#
# Convention : Reuss Voigt Hill
#
# Bulk Modulus (GPa) = 49.11809 56.21675 52.66742
# Shear Modulus (GPa) = 25.46915 27.42465 26.44690
#
# Velocity S-wave (km/s) = 3.75041 3.89173 3.82172
# Velocity P-wave (km/s) = 6.77348 7.15823 6.96851
#
# Compressibility (1/GPa) = 0.02035910
#
# Stress axis : x y z
#
# Youngs Moduli (GPa) = 65.32195 54.25406 110.37444
#
# Poissons Ratio (x) = 0.21087 0.35822
# Poissons Ratio (y) = 0.25389 0.45127
# Poissons Ratio (z) = 0.21200 0.22182
#
# Static dielectric constant tensor:
#      x y z
#    x 3.340950 0.000000 0.000000 
#    y 0.000000 3.340130 0.000000 
#    z 0.000000 0.000000 3.687560 
# 
# 
# High freq. dielectric constant tensor:
#      x y z
#    x 1.676120 0.000000 0.000000 
#    y 0.000000 1.710750 0.000000 
#    z 0.000000 0.000000 1.698600 
# 
# From -- ./inp_files/12845.got.cif
#   From: 2010.03.12/outbox.cif.g09.slc.cpg/sg39_7_cif.got.tgz:12845.got - 2010.04.14 02:53:20.
