data_PCOD8180161
_publ_section_title
;
Structure prediction by ZEFSAII (Michael W. Deem and Ramdas Pophale) SiO2 
 PCOD8180161
Probable space group: A M M 2
;
_chemical_formula_sum "Si O2"
_cell_formula_units_Z 48
_cell_length_a 7.480992
_cell_length_b 8.963066
_cell_length_c 34.907329
_cell_angle_alpha 90.000000
_cell_angle_beta 90.000000
_cell_angle_gamma 90.000000
_cell_volume 2340.628043
_symmetry_space_group_name_H-M "A M M 2"
_symmetry_group_IT_number 38
_symmetry_cell_setting 'orthorhombic'
loop_
_space_group_symop_operation_xyz
x,y,z
-x,-y,z
-x,y,z
x,-y,z
x,1/2+y,1/2+z
-x,1/2-y,1/2+z
-x,1/2+y,1/2+z
x,1/2-y,1/2+z
loop_
_atom_site_type_symbol
_atom_site_label
_atom_site_fract_x
_atom_site_fract_y
_atom_site_fract_z
Si Si1 0.211905 0.167414 0.618990
Si Si2 0.786723 0.831786 0.043944
Si Si3 0.500000 0.323559 0.334146
Si Si4 0.500000 0.321817 0.247644
Si Si5 0.791474 0.674925 0.696445
Si Si6 0.212430 0.167639 0.468848
Si Si7 0.796601 0.175853 0.891921
O O1 0.289291 0.244141 0.580799
O O2 0.273157 0.263236 0.655484
O O3 0.000000 0.162741 0.616653
O O4 0.289570 0.000000 0.622458
O O5 0.000000 0.830169 0.044097
O O6 0.713903 0.000000 0.045317
O O7 0.710750 0.753704 0.005764
O O8 0.500000 0.500000 0.332539
O O9 0.500000 0.261225 0.291180
O O10 0.322909 0.268070 0.356401
O O11 0.500000 0.500000 0.244878
O O12 0.679709 0.258613 0.228850
O O13 0.750704 0.500000 0.697635
O O14 0.000000 0.709151 0.703713
O O15 0.278412 0.248131 0.430358
O O16 0.000000 0.168943 0.470375
O O17 0.287723 0.000000 0.469323
O O18 0.000000 0.224028 0.883139
O O19 0.780815 0.000000 0.898267
#
# Coordination Sequence:
#
# PCOD8180161 Si02
#       7
#     8   8   4   4   8   8   8
#     4   9  16  27  46  74 107 143 184 229 275 322
#     4   9  15  23  39  67 103 142 183 223 264 315
#     4   9  20  37  57  82 107 134 173 219 269 328
#     4  11  23  39  61  88 115 144 183 233 287 342
#     4  10  21  38  59  83 114 152 191 231 279 338
#     4   9  16  26  42  68 102 138 177 220 264 311
#     4   9  17  32  54  77 103 137 175 215 262 318
#
# _framework density 20.507315999999999
#
# number of rings (size 3 to 8) (size 9 to 14) (size 15 to 20)
#    0.000    2.667    0.000    2.250    0.000    7.667 
#    0.000    3.750    0.000    3.000    0.000    5.833 
#    0.000    0.000    0.000    0.000    0.000    0.000 
#
# Total GULP energy -297594.464823 kJ/mol
# GULP energy per Si atom -12399.769368 kJ/mol
# Density = 2.046064 g / cm^3
# Si number density = 20.507316 Si / 1000 Ang^3
#
#
#
# Elastic Constant Matrix: (Units=GPa)
#
#
# Indices 1 2 3 4 5 6 
#
# 1 69.3037 33.0575 57.8244 0.0000 0.0000 0.0000
# 2 33.0575 134.1014 81.8324 0.0000 0.0000 0.0000
# 3 57.8244 81.8324 215.0360 0.0000 0.0000 0.0000
# 4 0.0000 0.0000 0.0000 33.7006 0.0000 0.0000
# 5 0.0000 0.0000 0.0000 0.0000 -48.5635 0.0000
# 6 0.0000 0.0000 0.0000 0.0000 0.0000 12.4385
#
#
#
# Elastic Compliance Matrix: (Units=1/GPa)
#
#
# Indices 1 2 3 4 5 6 
#
# 1 0.019023 -0.002042 -0.004338 0.000000 0.000000 0.000000
# 2 -0.002042 0.009932 -0.003230 0.000000 0.000000 0.000000
# 3 -0.004338 -0.003230 0.007046 0.000000 0.000000 0.000000
# 4 0.000000 0.000000 0.000000 0.029673 0.000000 0.000000
# 5 0.000000 0.000000 0.000000 0.000000 -0.020592 0.000000
# 6 0.000000 0.000000 0.000000 0.000000 0.000000 0.080395
#
#
# Mechanical properties :
#
#
# Convention : Reuss Voigt Hill
#
# Bulk Modulus (GPa) = 59.59638 84.87441 72.23540
# Shear Modulus (GPa) = 33.26843 15.89691 24.58267
#
# Velocity S-wave (km/s) = 4.03211 2.78723 3.46602
# Velocity P-wave (km/s) = 7.12751 7.19968 7.16369
#
# Compressibility (1/GPa) = 0.01677954
#
# Stress axis : x y z
#
# Youngs Moduli (GPa) = 52.56795 100.68751 141.91804
#
# Poissons Ratio (x) = 0.20561 0.61568
# Poissons Ratio (y) = 0.10735 0.45846
# Poissons Ratio (z) = 0.22806 0.32526
#
# Static dielectric constant tensor:
#      x y z
#    x 3.419160 0.000000 0.000000 
#    y 0.000000 3.763570 0.000000 
#    z 0.000000 0.000000 3.914140 
# 
# 
# High freq. dielectric constant tensor:
#      x y z
#    x 1.782470 0.000000 0.000000 
#    y 0.000000 1.800680 0.000000 
#    z 0.000000 0.000000 1.803550 
# 
# From -- ./inp_files/24304.got.cif
#   From: 2010.03.12/outbox.cif.g09.slc.cpg/sg38_13_cif.got.tgz:24304.got - 2010.04.14 02:38:36.
