data_PCOD8180706
_publ_section_title
;
Structure prediction by ZEFSAII (Michael W. Deem and Ramdas Pophale) SiO2 
 PCOD8180706
Probable space group: A B M 2
;
_chemical_formula_sum "Si O2"
_cell_formula_units_Z 64
_cell_length_a 11.590610
_cell_length_b 30.617765
_cell_length_c 9.412926
_cell_angle_alpha 90.000000
_cell_angle_beta 90.000000
_cell_angle_gamma 90.000000
_cell_volume 3340.445748
_symmetry_space_group_name_H-M "A B M 2"
_symmetry_group_IT_number 39
_symmetry_cell_setting 'orthorhombic'
loop_
_space_group_symop_operation_xyz
x,y,z
-x,-y,z
-x,1/2+y,z
x,1/2-y,z
x,1/2+y,1/2+z
-x,1/2-y,1/2+z
-x,y,1/2+z
x,-y,1/2+z
loop_
_atom_site_type_symbol
_atom_site_label
_atom_site_fract_x
_atom_site_fract_y
_atom_site_fract_z
Si Si1 0.353374 0.301236 0.838190
Si Si2 0.536477 0.198305 0.627829
Si Si3 0.746583 0.647464 0.226886
Si Si4 0.047514 0.408131 0.723133
Si Si5 0.921658 0.144701 0.957836
Si Si6 0.187112 0.554630 0.657923
Si Si7 0.130201 0.698958 0.490628
Si Si8 0.867492 0.013784 0.377204
O O1 0.346007 0.250000 0.837837
O O2 0.409640 0.316260 0.687626
O O3 0.222381 0.317791 0.868714
O O4 0.440904 0.315845 0.965445
O O5 0.555628 0.250000 0.649354
O O6 0.627047 0.172913 0.726876
O O7 0.797011 0.650712 0.386265
O O8 0.730352 0.597128 0.174571
O O9 0.842183 0.671472 0.130787
O O10 0.103845 0.372556 0.617184
O O11 0.137931 0.445460 0.767427
O O12 0.999098 0.388904 0.869265
O O13 0.943467 0.429461 0.635641
O O14 0.996778 0.189559 0.954453
O O15 0.208567 0.525819 0.516344
O O16 0.199381 0.525896 0.800702
O O17 0.146970 0.750000 0.520621
O O18 0.000000 0.000000 0.412640
#
# Coordination Sequence:
#
# PCOD8180706 Si02
#       8
#     8   8   8   8   8   8   8   8
#     4   8  16  31  53  74  92 122 167 219 261 294
#     4   9  17  34  56  75  99 130 169 217 264 303
#     4  10  20  33  50  70 106 142 169 207 253 309
#     4  10  18  31  46  63  96 137 170 208 248 289
#     4  11  19  33  47  68 104 141 172 209 243 302
#     4  10  19  28  46  68  96 132 167 206 247 300
#     4  10  19  33  51  70 100 141 176 207 255 307
#     4  10  18  27  45  69  94 133 174 205 252 295
#
# _framework density 19.159122
#
# number of rings (size 3 to 8) (size 9 to 14) (size 15 to 20)
#    0.000    2.250    3.750    2.250    3.500    1.000 
#    2.250    0.000    0.000    0.000    0.000    0.000 
#    0.000   21.000    0.000    0.000    0.000    0.000 
#
# Total GULP energy -396448.195565 kJ/mol
# GULP energy per Si atom -12389.006111 kJ/mol
# Density = 1.911551 g / cm^3
# Si number density = 19.159122 Si / 1000 Ang^3
#
#
#
# Elastic Constant Matrix: (Units=GPa)
#
#
# Indices 1 2 3 4 5 6 
#
# 1 22.1786 6.8768 5.7946 0.0000 0.0000 0.0000
# 2 6.8768 73.3007 17.6707 0.0000 0.0000 0.0000
# 3 5.7946 17.6707 63.0396 0.0000 0.0000 0.0000
# 4 0.0000 0.0000 0.0000 26.9291 0.0000 0.0000
# 5 0.0000 0.0000 0.0000 0.0000 18.3506 0.0000
# 6 0.0000 0.0000 0.0000 0.0000 0.0000 13.9769
#
#
#
# Elastic Compliance Matrix: (Units=1/GPa)
#
#
# Indices 1 2 3 4 5 6 
#
# 1 0.047076 -0.003618 -0.003313 0.000000 0.000000 0.000000
# 2 -0.003618 0.014909 -0.003847 0.000000 0.000000 0.000000
# 3 -0.003313 -0.003847 0.017246 0.000000 0.000000 0.000000
# 4 0.000000 0.000000 0.000000 0.037135 0.000000 0.000000
# 5 0.000000 0.000000 0.000000 0.000000 0.054494 0.000000
# 6 0.000000 0.000000 0.000000 0.000000 0.000000 0.071546
#
#
# Mechanical properties :
#
#
# Convention : Reuss Voigt Hill
#
# Bulk Modulus (GPa) = 17.33832 24.35590 20.84711
# Shear Modulus (GPa) = 17.65623 20.39646 19.02635
#
# Velocity S-wave (km/s) = 3.03901 3.26633 3.15472
# Velocity P-wave (km/s) = 4.62422 5.19281 4.91674
#
# Compressibility (1/GPa) = 0.05767570
#
# Stress axis : x y z
#
# Youngs Moduli (GPa) = 21.24234 67.07292 57.98492
#
# Poissons Ratio (x) = 0.24265 0.19211
# Poissons Ratio (y) = 0.07685 0.22305
# Poissons Ratio (z) = 0.07038 0.25801
#
# Static dielectric constant tensor:
#      x y z
#    x 3.245120 0.000000 0.000000 
#    y 0.000000 3.604480 0.000000 
#    z 0.000000 0.000000 3.601100 
# 
# 
# High freq. dielectric constant tensor:
#      x y z
#    x 1.681370 0.000000 0.000000 
#    y 0.000000 1.740210 0.000000 
#    z 0.000000 0.000000 1.750420 
# 
# From -- ./inp_files/3580.got.cif
#   From: 2010.03.12/outbox.cif.g09.slc.cpg/sg39_2_cif.got.tgz:3580.got - 2010.04.14 02:53:20.
