data_PCOD8180396
_publ_section_title
;
Structure prediction by ZEFSAII (Michael W. Deem and Ramdas Pophale) SiO2 
 PCOD8180396
Probable space group: A M M 2
;
_chemical_formula_sum "Si O2"
_cell_formula_units_Z 56
_cell_length_a 21.306695
_cell_length_b 8.758697
_cell_length_c 15.304647
_cell_angle_alpha 90.000000
_cell_angle_beta 90.000000
_cell_angle_gamma 90.000000
_cell_volume 2856.136167
_symmetry_space_group_name_H-M "A M M 2"
_symmetry_group_IT_number 38
_symmetry_cell_setting 'orthorhombic'
loop_
_space_group_symop_operation_xyz
x,y,z
-x,-y,z
-x,y,z
x,-y,z
x,1/2+y,1/2+z
-x,1/2-y,1/2+z
-x,1/2+y,1/2+z
x,1/2-y,1/2+z
loop_
_atom_site_type_symbol
_atom_site_label
_atom_site_fract_x
_atom_site_fract_y
_atom_site_fract_z
Si Si1 0.846049 0.320592 0.105630
Si Si2 0.073557 0.324171 0.752438
Si Si3 0.621777 0.824757 0.963826
Si Si4 0.930674 0.319287 0.948830
Si Si5 0.628208 0.324688 0.267558
Si Si6 0.710606 0.820453 0.120519
Si Si7 0.500000 0.177545 0.525663
Si Si8 0.500000 0.820128 0.213241
O O1 0.833601 0.500000 0.099564
O O2 0.887875 0.286476 0.190018
O O3 0.780989 0.234484 0.111461
O O4 0.881594 0.256066 0.019731
O O5 0.092211 0.500000 0.735224
O O6 0.091236 0.275149 0.851294
O O7 0.000000 0.299751 0.735785
O O8 0.651437 0.807202 0.867484
O O9 0.561015 0.717781 0.969341
O O10 0.601948 0.000000 0.981544
O O11 0.672561 0.768863 0.034542
O O12 0.935372 0.500000 0.956551
O O13 0.000000 0.250037 0.967807
O O14 0.620337 0.500000 0.240152
O O15 0.680314 0.250184 0.206750
O O16 0.561195 0.245227 0.259454
O O17 0.709468 0.000000 0.131860
O O18 0.500000 0.278807 0.612001
O O19 0.500000 0.000000 0.550134
O O20 0.500000 0.000000 0.224045
#
# Coordination Sequence:
#
# PCOD8180396 Si02
#       8
#     8   8   8   8   8   8   4   4
#     4  11  22  36  57  84 116 152 193 241 286 339
#     4   9  18  35  59  86 116 150 189 234 285 345
#     4  10  23  42  63  86 119 154 189 241 302 353
#     4   8  16  33  57  84 114 149 188 232 284 340
#     4  11  23  41  64  91 118 151 194 244 296 348
#     4  11  24  42  60  81 115 160 198 239 290 349
#     4  12  23  36  63  94 120 152 195 243 288 347
#     4  12  23  38  61  90 124 158 191 237 296 347
#
# _framework density 19.606909000000002
#
# number of rings (size 3 to 8) (size 9 to 14) (size 15 to 20)
#    0.000    1.714    1.429    4.286    0.000    5.429 
#    0.000    4.286    0.000    1.714    0.000    0.000 
#    0.000    0.000    0.000    0.000    0.000    0.000 
#
# Total GULP energy -347281.633329 kJ/mol
# GULP energy per Si atom -12402.915476 kJ/mol
# Density = 1.956228 g / cm^3
# Si number density = 19.606909 Si / 1000 Ang^3
#
#
#
# Elastic Constant Matrix: (Units=GPa)
#
#
# Indices 1 2 3 4 5 6 
#
# 1 101.7320 35.8459 62.8862 0.0000 0.0000 0.0000
# 2 35.8459 80.5547 37.6863 0.0000 0.0000 0.0000
# 3 62.8862 37.6863 137.7703 0.0000 0.0000 0.0000
# 4 0.0000 0.0000 0.0000 28.2837 0.0000 0.0000
# 5 0.0000 0.0000 0.0000 0.0000 10.0427 0.0000
# 6 0.0000 0.0000 0.0000 0.0000 0.0000 -20.3760
#
#
#
# Elastic Compliance Matrix: (Units=1/GPa)
#
#
# Indices 1 2 3 4 5 6 
#
# 1 0.014689 -0.003899 -0.005638 0.000000 0.000000 0.000000
# 2 -0.003899 0.015270 -0.002398 0.000000 0.000000 0.000000
# 3 -0.005638 -0.002398 0.010488 0.000000 0.000000 0.000000
# 4 0.000000 0.000000 0.000000 0.035356 0.000000 0.000000
# 5 0.000000 0.000000 0.000000 0.000000 0.099575 0.000000
# 6 0.000000 0.000000 0.000000 0.000000 0.000000 -0.049077
#
#
# Mechanical properties :
#
#
# Convention : Reuss Voigt Hill
#
# Bulk Modulus (GPa) = 60.32038 65.87711 63.09875
# Shear Modulus (GPa) = 32.11386 15.83266 23.97326
#
# Velocity S-wave (km/s) = 4.05147 2.84474 3.50050
# Velocity P-wave (km/s) = 7.26068 6.66798 6.97063
#
# Compressibility (1/GPa) = 0.01657814
#
# Stress axis : x y z
#
# Youngs Moduli (GPa) = 68.07899 65.48611 95.34704
#
# Poissons Ratio (x) = 0.25530 0.53760
# Poissons Ratio (y) = 0.26541 0.22861
# Poissons Ratio (z) = 0.38386 0.15701
#
# Static dielectric constant tensor:
#      x y z
#    x 3.894730 0.000000 0.000000 
#    y 0.000000 3.460330 0.000000 
#    z 0.000000 0.000000 3.803770 
# 
# 
# High freq. dielectric constant tensor:
#      x y z
#    x 1.759710 0.000000 0.000000 
#    y 0.000000 1.755430 0.000000 
#    z 0.000000 0.000000 1.779260 
# 
# From -- ./inp_files/15563.got.cif
#   From: 2010.03.12/outbox.cif.g09.slc.cpg/sg38_8_cif.got.tgz:15563.got - 2010.04.14 02:38:36.
