data_PCOD8180026
_publ_section_title
;
Structure prediction by ZEFSAII (Michael W. Deem and Ramdas Pophale) SiO2 
 PCOD8180026
Probable space group: A M M 2
;
_chemical_formula_sum "Si O2"
_cell_formula_units_Z 56
_cell_length_a 21.739611
_cell_length_b 9.040042
_cell_length_c 15.249788
_cell_angle_alpha 90.000000
_cell_angle_beta 90.000000
_cell_angle_gamma 90.000000
_cell_volume 2996.995033
_symmetry_space_group_name_H-M "A M M 2"
_symmetry_group_IT_number 38
_symmetry_cell_setting 'orthorhombic'
loop_
_space_group_symop_operation_xyz
x,y,z
-x,-y,z
-x,y,z
x,-y,z
x,1/2+y,1/2+z
-x,1/2-y,1/2+z
-x,1/2+y,1/2+z
x,1/2-y,1/2+z
loop_
_atom_site_type_symbol
_atom_site_label
_atom_site_fract_x
_atom_site_fract_y
_atom_site_fract_z
Si Si1 0.783217 0.176034 0.908060
Si Si2 0.569643 0.326263 0.067645
Si Si3 0.000000 0.824415 0.751390
Si Si4 0.868100 0.324517 0.253005
Si Si5 0.134063 0.324464 0.050643
Si Si6 0.569758 0.673296 0.743234
Si Si7 0.652650 0.825593 0.405758
Si Si8 0.000000 0.174283 0.556264
O O1 0.816459 0.235912 0.819455
O O2 0.714511 0.233639 0.905078
O O3 0.783992 0.000000 0.913164
O O4 0.815870 0.239120 0.994199
O O5 0.500000 0.274546 0.046388
O O6 0.572145 0.500000 0.081129
O O7 0.594389 0.251571 0.155955
O O8 0.613669 0.275660 0.989703
O O9 0.934934 0.767940 0.791498
O O10 0.000000 0.761340 0.653428
O O11 0.000000 0.000000 0.752810
O O12 0.867583 0.500000 0.253521
O O13 0.857259 0.273458 0.152349
O O14 0.144272 0.500000 0.041501
O O15 0.065493 0.277193 0.013680
O O16 0.500000 0.723052 0.765137
O O17 0.572866 0.500000 0.727571
O O18 0.613433 0.722615 0.821803
O O19 0.666770 0.000000 0.406631
O O20 0.000000 0.000000 0.563179
#
# Coordination Sequence:
#
# PCOD8180026 Si02
#       8
#     8   8   4   8   8   8   8   4
#     4  11  23  35  48  74 106 136 173 214 254 296
#     4   9  18  34  57  82 104 129 166 209 252 301
#     4   7  10  23  48  73  92 119 162 205 247 298
#     4   8  16  31  51  72  97 129 165 206 251 301
#     4   9  17  34  56  75  98 132 171 209 253 308
#     4   9  18  34  57  83 107 131 164 208 257 304
#     4  10  21  37  54  72 101 142 177 204 243 301
#     4   7  12  25  51  79  96 119 164 213 251 298
#
# _framework density 18.685383000000002
#
# number of rings (size 3 to 8) (size 9 to 14) (size 15 to 20)
#    0.000    3.000    0.000    2.571    0.000    4.571 
#    0.000    6.786    0.000    4.286    0.000    2.000 
#    0.000    0.000    0.000    0.000    0.000    0.000 
#
# Total GULP energy -346920.316569 kJ/mol
# GULP energy per Si atom -12390.011306 kJ/mol
# Density = 1.864285 g / cm^3
# Si number density = 18.685383 Si / 1000 Ang^3
#
#
#
# Elastic Constant Matrix: (Units=GPa)
#
#
# Indices 1 2 3 4 5 6 
#
# 1 152.7544 43.3223 93.3096 0.0000 0.0000 0.0000
# 2 43.3223 32.7312 39.1925 0.0000 0.0000 0.0000
# 3 93.3096 39.1925 141.4788 0.0000 0.0000 0.0000
# 4 0.0000 0.0000 0.0000 26.2993 0.0000 0.0000
# 5 0.0000 0.0000 0.0000 0.0000 184.2275 0.0000
# 6 0.0000 0.0000 0.0000 0.0000 0.0000 16.1824
#
#
#
# Elastic Compliance Matrix: (Units=1/GPa)
#
#
# Indices 1 2 3 4 5 6 
#
# 1 0.012944 -0.010340 -0.005673 0.000000 0.000000 0.000000
# 2 -0.010340 0.053976 -0.008133 0.000000 0.000000 0.000000
# 3 -0.005673 -0.008133 0.013062 0.000000 0.000000 0.000000
# 4 0.000000 0.000000 0.000000 0.038024 0.000000 0.000000
# 5 0.000000 0.000000 0.000000 0.000000 0.005428 0.000000
# 6 0.000000 0.000000 0.000000 0.000000 0.000000 0.061796
#
#
# Mechanical properties :
#
#
# Convention : Reuss Voigt Hill
#
# Bulk Modulus (GPa) = 31.55421 75.40147 53.47784
# Shear Modulus (GPa) = 20.48467 55.41786 37.95127
#
# Velocity S-wave (km/s) = 3.31463 5.45186 4.51163
# Velocity P-wave (km/s) = 5.61896 8.94825 7.47141
#
# Compressibility (1/GPa) = 0.03169149
#
# Stress axis : x y z
#
# Youngs Moduli (GPa) = 77.25556 18.52671 76.55553
#
# Poissons Ratio (x) = 0.19157 0.43427
# Poissons Ratio (y) = 0.79883 0.62262
# Poissons Ratio (z) = 0.43824 0.15068
#
# Static dielectric constant tensor:
#      x y z
#    x 3.734110 0.000000 0.000000 
#    y 0.000000 3.046880 0.000000 
#    z 0.000000 0.000000 3.534260 
# 
# 
# High freq. dielectric constant tensor:
#      x y z
#    x 1.736040 0.000000 0.000000 
#    y 0.000000 1.689280 0.000000 
#    z 0.000000 0.000000 1.723840 
# 
# From -- ./inp_files/15534.got.cif
#   From: 2010.03.12/outbox.cif.g09.slc.cpg/sg38_8_cif.got.tgz:15534.got - 2010.04.14 02:38:36.
