data_PCOD8180783
_publ_section_title
;
Structure prediction by ZEFSAII (Michael W. Deem and Ramdas Pophale) SiO2 
 PCOD8180783
Probable space group: A B M 2
;
_chemical_formula_sum "Si O2"
_cell_formula_units_Z 64
_cell_length_a 14.841357
_cell_length_b 8.736084
_cell_length_c 24.455620
_cell_angle_alpha 90.000000
_cell_angle_beta 90.000000
_cell_angle_gamma 90.000000
_cell_volume 3170.801761
_symmetry_space_group_name_H-M "A B M 2"
_symmetry_group_IT_number 39
_symmetry_cell_setting 'orthorhombic'
loop_
_space_group_symop_operation_xyz
x,y,z
-x,-y,z
-x,1/2+y,z
x,1/2-y,z
x,1/2+y,1/2+z
-x,1/2-y,1/2+z
-x,y,1/2+z
x,-y,1/2+z
loop_
_atom_site_type_symbol
_atom_site_label
_atom_site_fract_x
_atom_site_fract_y
_atom_site_fract_z
Si Si1 0.099525 0.931551 0.510610
Si Si2 0.401813 0.430045 0.502629
Si Si3 0.750510 0.072440 0.204511
Si Si4 0.401168 0.430020 0.894734
Si Si5 0.096299 0.427482 0.618935
Si Si6 0.743726 0.072233 0.820499
Si Si7 0.902404 0.429489 0.900680
Si Si8 0.597267 0.570003 0.622842
O O1 0.100235 0.750000 0.508818
O O2 0.145392 0.992562 0.566490
O O3 0.143603 0.997944 0.455220
O O4 0.000000 0.000000 0.512700
O O5 0.500000 0.500000 0.501084
O O6 0.404082 0.250000 0.492688
O O7 0.352256 0.507636 0.450618
O O8 0.362316 0.472574 0.562494
O O9 0.737713 0.250000 0.220280
O O10 0.842205 0.047468 0.171515
O O11 0.667038 0.012062 0.168152
O O12 0.756418 0.968461 0.257527
O O13 0.500000 0.500000 0.885763
O O14 0.410781 0.250000 0.898206
O O15 0.339013 0.475085 0.843895
O O16 0.083573 0.250000 0.604792
O O17 0.000000 0.500000 0.632785
O O18 0.720455 0.250000 0.827247
O O19 0.836913 0.030962 0.850647
O O20 0.914481 0.250000 0.909987
O O21 0.000000 0.500000 0.887627
O O22 0.500000 0.500000 0.634571
O O23 0.584989 0.750000 0.625821
#
# Coordination Sequence:
#
# PCOD8180783 Si02
#       8
#     8   8   8   8   8   8   8   8
#     4  10  18  31  55  86 117 147 183 227 279 339
#     4   9  16  30  54  84 116 146 181 224 275 336
#     4  10  23  41  58  79 110 149 192 235 280 333
#     4  11  22  38  61  87 117 151 188 232 283 337
#     4  10  20  36  58  83 114 151 188 231 284 337
#     4  11  25  42  59  82 112 149 194 240 284 335
#     4  10  21  38  60  85 115 149 186 231 285 342
#     4   9  19  36  58  84 113 146 181 222 275 331
#
# _framework density 20.184170999999999
#
# number of rings (size 3 to 8) (size 9 to 14) (size 15 to 20)
#    0.000    2.000    0.000    6.000    0.000    6.000 
#    0.000    6.250    0.000    0.000    0.000    0.000 
#    0.000    0.000    0.000    0.000    0.000    0.000 
#
# Total GULP energy -396697.168296 kJ/mol
# GULP energy per Si atom -12396.786509 kJ/mol
# Density = 2.013823 g / cm^3
# Si number density = 20.184171 Si / 1000 Ang^3
#
#
#
# Elastic Constant Matrix: (Units=GPa)
#
#
# Indices 1 2 3 4 5 6 
#
# 1 86.9484 44.7076 53.0072 0.0000 0.0000 0.0000
# 2 44.7076 123.6470 56.6490 0.0000 0.0000 0.0000
# 3 53.0072 56.6490 148.3954 0.0000 0.0000 0.0000
# 4 0.0000 0.0000 0.0000 26.0517 0.0000 0.0000
# 5 0.0000 0.0000 0.0000 0.0000 -260.3725 0.0000
# 6 0.0000 0.0000 0.0000 0.0000 0.0000 25.1129
#
#
#
# Elastic Compliance Matrix: (Units=1/GPa)
#
#
# Indices 1 2 3 4 5 6 
#
# 1 0.016092 -0.003860 -0.004274 0.000000 0.000000 0.000000
# 2 -0.003860 0.010728 -0.002716 0.000000 0.000000 0.000000
# 3 -0.004274 -0.002716 0.009303 0.000000 0.000000 0.000000
# 4 0.000000 0.000000 0.000000 0.038385 0.000000 0.000000
# 5 0.000000 0.000000 0.000000 0.000000 -0.003841 0.000000
# 6 0.000000 0.000000 0.000000 0.000000 0.000000 0.039820
#
#
# Mechanical properties :
#
#
# Convention : Reuss Voigt Hill
#
# Bulk Modulus (GPa) = 69.34704 74.19093 71.76898
# Shear Modulus (GPa) = 36.49758 -28.19978 4.14890
#
# Velocity S-wave (km/s) = 4.25694 -3.74187 1.43526
# Velocity P-wave (km/s) = 7.65466 4.26240 6.19523
#
# Compressibility (1/GPa) = 0.01442023
#
# Stress axis : x y z
#
# Youngs Moduli (GPa) = 62.14374 93.21609 107.49683
#
# Poissons Ratio (x) = 0.35981 0.45949
# Poissons Ratio (y) = 0.23987 0.29201
# Poissons Ratio (z) = 0.26563 0.25322
#
# Static dielectric constant tensor:
#      x y z
#    x 4.022120 0.000000 0.000000 
#    y 0.000000 3.712820 0.000000 
#    z 0.000000 0.000000 4.292390 
# 
# 
# High freq. dielectric constant tensor:
#      x y z
#    x 1.773610 0.000000 0.000000 
#    y 0.000000 1.795950 0.000000 
#    z 0.000000 0.000000 1.798260 
# 
# From -- ./inp_files/16213.got.cif
#   From: 2010.03.12/outbox.cif.g09.slc.cpg/sg39_9_cif.got.tgz:16213.got - 2010.04.14 02:53:20.
