data_PCOD8180014
_publ_section_title
;
Structure prediction by ZEFSAII (Michael W. Deem and Ramdas Pophale) SiO2 
 PCOD8180014
Probable space group: A M M 2
;
_chemical_formula_sum "Si O2"
_cell_formula_units_Z 48
_cell_length_a 17.971760
_cell_length_b 12.857245
_cell_length_c 9.707959
_cell_angle_alpha 90.000000
_cell_angle_beta 90.000000
_cell_angle_gamma 90.000000
_cell_volume 2243.192082
_symmetry_space_group_name_H-M "A M M 2"
_symmetry_group_IT_number 38
_symmetry_cell_setting 'orthorhombic'
loop_
_space_group_symop_operation_xyz
x,y,z
-x,-y,z
-x,y,z
x,-y,z
x,1/2+y,1/2+z
-x,1/2-y,1/2+z
-x,1/2+y,1/2+z
x,1/2-y,1/2+z
loop_
_atom_site_type_symbol
_atom_site_label
_atom_site_fract_x
_atom_site_fract_y
_atom_site_fract_z
Si Si1 0.159375 0.750000 0.843520
Si Si2 0.709938 0.616539 0.748145
Si Si3 0.912064 0.378465 0.093520
Si Si4 0.417881 0.876721 0.747038
Si Si5 0.290062 0.883461 0.938895
Si Si6 0.417881 0.876721 0.440002
O O1 0.211657 0.674032 0.756593
O O2 0.112351 0.817427 0.732907
O O3 0.211657 0.825968 0.930447
O O4 0.112351 0.682573 0.954133
O O5 0.724777 0.500000 0.800481
O O6 0.680070 0.618483 0.593520
O O7 0.645007 0.669484 0.839421
O O8 0.883119 0.500000 0.093520
O O9 0.000000 0.379050 0.093520
O O10 0.500000 0.835225 0.788693
O O11 0.354993 0.830516 0.847619
O O12 0.396988 0.839670 0.593520
O O13 0.418847 0.000000 0.755530
O O14 0.275223 0.000000 0.886559
O O15 0.500000 0.835225 0.398347
O O16 0.418847 0.000000 0.431510
#
# Coordination Sequence:
#
# PCOD8180014 Si02
#       6
#     8   8   8   8   8   8
#     4  12  23  44  67  98 136 172 216 270 331 392
#     4  10  21  36  57  88 125 167 216 268 327 389
#     4  11  26  48  75 105 136 175 219 265 327 402
#     4   8  15  29  51  81 119 166 219 273 328 382
#     4  10  21  36  57  88 125 167 216 268 327 389
#     4   8  15  29  51  81 119 166 219 273 328 382
#
# _framework density 21.398078000000002
#
# number of rings (size 3 to 8) (size 9 to 14) (size 15 to 20)
#    0.000    2.167    1.667    2.500    2.333    0.667 
#    0.000    4.167    0.000    4.000    0.000    0.000 
#    0.000    0.000    0.000    0.000    0.000    0.000 
#
# Total GULP energy -297400.684327 kJ/mol
# GULP energy per Si atom -12391.695180 kJ/mol
# Density = 2.134938 g / cm^3
# Si number density = 21.398078 Si / 1000 Ang^3
#
#
#
# Elastic Constant Matrix: (Units=GPa)
#
#
# Indices 1 2 3 4 5 6 
#
# 1 124.5196 37.6733 62.2108 0.0000 0.0000 0.0000
# 2 37.6733 115.4170 54.9486 0.0000 0.0000 0.0000
# 3 62.2108 54.9486 128.5305 0.0000 0.0000 0.0000
# 4 0.0000 0.0000 0.0000 27.9266 0.0000 0.0000
# 5 0.0000 0.0000 0.0000 0.0000 47.8499 0.0000
# 6 0.0000 0.0000 0.0000 0.0000 0.0000 70.7909
#
#
#
# Elastic Compliance Matrix: (Units=1/GPa)
#
#
# Indices 1 2 3 4 5 6 
#
# 1 0.010744 -0.001295 -0.004647 0.000000 0.000000 0.000000
# 2 -0.001295 0.011034 -0.004091 0.000000 0.000000 0.000000
# 3 -0.004647 -0.004091 0.011778 0.000000 0.000000 0.000000
# 4 0.000000 0.000000 0.000000 0.035808 0.000000 0.000000
# 5 0.000000 0.000000 0.000000 0.000000 0.020899 0.000000
# 6 0.000000 0.000000 0.000000 0.000000 0.000000 0.014126
#
#
# Mechanical properties :
#
#
# Convention : Reuss Voigt Hill
#
# Bulk Modulus (GPa) = 74.11643 75.34807 74.73225
# Shear Modulus (GPa) = 38.77422 43.55577 41.16500
#
# Velocity S-wave (km/s) = 4.26143 4.51655 4.39084
# Velocity P-wave (km/s) = 7.67627 7.90493 7.79144
#
# Compressibility (1/GPa) = 0.01349229
#
# Stress axis : x y z
#
# Youngs Moduli (GPa) = 93.07378 90.62597 84.90238
#
# Poissons Ratio (x) = 0.11733 0.39453
# Poissons Ratio (y) = 0.12050 0.34731
# Poissons Ratio (z) = 0.43250 0.37072
#
# Static dielectric constant tensor:
#      x y z
#    x 3.891650 0.000000 0.000000 
#    y 0.000000 4.064610 0.000000 
#    z 0.000000 0.000000 3.913650 
# 
# 
# High freq. dielectric constant tensor:
#      x y z
#    x 1.828760 0.000000 0.000000 
#    y 0.000000 1.865760 0.000000 
#    z 0.000000 0.000000 1.840810 
# 
# From -- ./inp_files/6193.got.cif
#   From: 2010.03.12/outbox.cif.g09.slc.cpg/sg38_4_cif.got.tgz:6193.got - 2010.04.14 02:38:36.
