data_PCOD8180278
_publ_section_title
;
Structure prediction by ZEFSAII (Michael W. Deem and Ramdas Pophale) SiO2 
 PCOD8180278
Probable space group: A M M 2
;
_chemical_formula_sum "Si O2"
_cell_formula_units_Z 56
_cell_length_a 14.283924
_cell_length_b 13.326103
_cell_length_c 12.583480
_cell_angle_alpha 90.000000
_cell_angle_beta 90.000000
_cell_angle_gamma 90.000000
_cell_volume 2395.253369
_symmetry_space_group_name_H-M "A M M 2"
_symmetry_group_IT_number 38
_symmetry_cell_setting 'orthorhombic'
loop_
_space_group_symop_operation_xyz
x,y,z
-x,-y,z
-x,y,z
x,-y,z
x,1/2+y,1/2+z
-x,1/2-y,1/2+z
-x,1/2+y,1/2+z
x,1/2-y,1/2+z
loop_
_atom_site_type_symbol
_atom_site_label
_atom_site_fract_x
_atom_site_fract_y
_atom_site_fract_z
Si Si1 0.743102 0.118209 0.018070
Si Si2 0.896908 0.381616 0.112604
Si Si3 0.739371 0.618422 0.271475
Si Si4 0.894715 0.117741 0.189870
Si Si5 0.599324 0.383130 0.871744
Si Si6 0.394429 0.772606 0.163748
Si Si7 0.800512 0.119813 0.403844
O O1 0.837261 0.146578 0.083821
O O2 0.657936 0.186111 0.059908
O O3 0.720288 0.000000 0.030865
O O4 0.756825 0.146375 0.894460
O O5 0.898122 0.500000 0.103550
O O6 0.832415 0.345776 0.209278
O O7 0.000000 0.338654 0.134113
O O8 0.860265 0.336968 0.001098
O O9 0.721159 0.500000 0.256678
O O10 0.651449 0.675002 0.219573
O O11 0.840864 0.162764 0.292982
O O12 0.000000 0.162168 0.181395
O O13 0.901155 0.000000 0.204203
O O14 0.500000 0.335650 0.914749
O O15 0.595490 0.500000 0.892537
O O16 0.606963 0.364509 0.746142
O O17 0.693987 0.340093 0.925169
O O18 0.500000 0.742210 0.131587
O O19 0.800822 0.000000 0.400401
#
# Coordination Sequence:
#
# PCOD8180278 Si02
#       7
#     8   8   8   8   8   8   8
#     4  10  21  41  67  96 130 169 213 266 323 386
#     4   9  18  35  60  87 118 166 220 262 313 383
#     4  10  24  44  65  92 131 173 214 262 320 387
#     4   9  16  28  53  91 129 166 209 260 322 384
#     4   9  17  31  56  92 129 164 207 262 322 377
#     4  11  23  40  64  92 125 167 215 265 320 382
#     4   9  15  27  52  88 128 163 204 262 318 374
#
# _framework density 23.379573000000001
#
# number of rings (size 3 to 8) (size 9 to 14) (size 15 to 20)
#    0.000    2.429    1.429    0.857    0.000    5.143 
#    0.000    7.143    0.000    2.571    0.000    2.000 
#    0.000    0.000    0.000    0.000    0.000    0.000 
#
# Total GULP energy -347024.802869 kJ/mol
# GULP energy per Si atom -12393.742960 kJ/mol
# Density = 2.332636 g / cm^3
# Si number density = 23.379573 Si / 1000 Ang^3
#
#
#
# Elastic Constant Matrix: (Units=GPa)
#
#
# Indices 1 2 3 4 5 6 
#
# 1 247.6303 34.8983 93.5227 0.0000 0.0000 0.0000
# 2 34.8983 44.9357 48.2488 0.0000 0.0000 0.0000
# 3 93.5227 48.2488 168.4801 0.0000 0.0000 0.0000
# 4 0.0000 0.0000 0.0000 31.5999 0.0000 0.0000
# 5 0.0000 0.0000 0.0000 0.0000 8.6979 0.0000
# 6 0.0000 0.0000 0.0000 0.0000 0.0000 -22.8690
#
#
#
# Elastic Compliance Matrix: (Units=1/GPa)
#
#
# Indices 1 2 3 4 5 6 
#
# 1 0.005165 -0.001347 -0.002481 0.000000 0.000000 0.000000
# 2 -0.001347 0.032487 -0.008556 0.000000 0.000000 0.000000
# 3 -0.002481 -0.008556 0.009763 0.000000 0.000000 0.000000
# 4 0.000000 0.000000 0.000000 0.031646 0.000000 0.000000
# 5 0.000000 0.000000 0.000000 0.000000 0.114970 0.000000
# 6 0.000000 0.000000 0.000000 0.000000 0.000000 -0.043727
#
#
# Mechanical properties :
#
#
# Convention : Reuss Voigt Hill
#
# Bulk Modulus (GPa) = 44.15681 90.48730 67.32205
# Shear Modulus (GPa) = 27.37920 22.44418 24.91169
#
# Velocity S-wave (km/s) = 3.42581 3.10173 3.26779
# Velocity P-wave (km/s) = 5.88015 7.18438 6.56473
#
# Compressibility (1/GPa) = 0.02264656
#
# Stress axis : x y z
#
# Youngs Moduli (GPa) = 193.59960 30.78183 102.42741
#
# Poissons Ratio (x) = 0.04147 0.25417
# Poissons Ratio (y) = 0.26080 0.87633
# Poissons Ratio (z) = 0.48041 0.26336
#
# Static dielectric constant tensor:
#      x y z
#    x 4.784250 0.000000 0.000000 
#    y 0.000000 4.068380 0.000000 
#    z 0.000000 0.000000 4.163920 
# 
# 
# High freq. dielectric constant tensor:
#      x y z
#    x 1.930900 0.000000 0.000000 
#    y 0.000000 1.932290 0.000000 
#    z 0.000000 0.000000 1.919330 
# 
# From -- ./inp_files/10093.got.cif
#   From: 2010.03.12/outbox.cif.g09.slc.cpg/sg38_6_cif.got.tgz:10093.got - 2010.04.14 02:38:36.
