data_PCOD8180582
_publ_section_title
;
Structure prediction by ZEFSAII (Michael W. Deem and Ramdas Pophale) SiO2 
 PCOD8180582
Probable space group: A B M 2
;
_chemical_formula_sum "Si O2"
_cell_formula_units_Z 64
_cell_length_a 34.388787
_cell_length_b 15.329226
_cell_length_c 5.350139
_cell_angle_alpha 90.000000
_cell_angle_beta 90.000000
_cell_angle_gamma 90.000000
_cell_volume 2820.344434
_symmetry_space_group_name_H-M "A B M 2"
_symmetry_group_IT_number 39
_symmetry_cell_setting 'orthorhombic'
loop_
_space_group_symop_operation_xyz
x,y,z
-x,-y,z
-x,1/2+y,z
x,1/2-y,z
x,1/2+y,1/2+z
-x,1/2-y,1/2+z
-x,y,1/2+z
x,-y,1/2+z
loop_
_atom_site_type_symbol
_atom_site_label
_atom_site_fract_x
_atom_site_fract_y
_atom_site_fract_z
Si Si1 0.397433 0.647760 0.103640
Si Si2 0.767328 0.402067 0.103654
Si Si3 0.016147 0.597664 0.603658
Si Si4 0.859437 0.902033 0.603659
Si Si5 0.516188 0.402534 0.103627
Si Si6 0.264995 0.902674 0.603654
Si Si7 0.351266 0.352293 0.103642
Si Si8 0.108283 0.097568 0.103659
O O1 0.406921 0.750000 0.103638
O O2 0.437391 0.594880 0.103656
O O3 0.374364 0.620793 0.353678
O O4 0.374367 0.620791 0.853592
O O5 0.813382 0.400044 0.103653
O O6 0.750851 0.354341 0.353039
O O7 0.751926 0.500387 0.103655
O O8 0.750851 0.354341 0.854269
O O9 0.062214 0.597742 0.603654
O O10 0.000000 0.500000 0.603661
O O11 1.000000 0.645551 0.353659
O O12 0.875736 0.854424 0.353731
O O13 0.875209 0.000104 0.603664
O O14 0.875735 0.854424 0.853589
O O15 0.500000 0.500000 0.103585
O O16 0.499997 0.354242 0.353617
O O17 0.311429 0.905773 0.603651
O O18 0.341667 0.250000 0.103649
#
# Coordination Sequence:
#
# PCOD8180582 Si02
#       8
#     8   8   8   8   8   8   8   8
#     4  10  21  38  58  78 101 133 170 202 235 279
#     4  10  19  30  45  67  92 119 148 190 243 281
#     4  10  16  22  28  39  59  85 124 175 227 263
#     4  10  16  25  36  51  73  98 134 174 222 272
#     4  10  21  38  56  81 112 138 165 203 246 284
#     4  10  18  32  48  69  95 120 153 188 235 283
#     4  10  21  37  56  77 101 131 166 200 232 273
#     4  10  16  22  33  46  63  96 132 174 229 267
#
# _framework density 22.692263000000001
#
# number of rings (size 3 to 8) (size 9 to 14) (size 15 to 20)
#    0.000    2.000    0.000    9.000    0.000    0.500 
#    0.000   15.000    0.000    0.000    0.000    0.000 
#    0.000    0.000    0.000    0.000    0.000    0.000 
#
# Total GULP energy -396584.402412 kJ/mol
# GULP energy per Si atom -12393.262575 kJ/mol
# Density = 2.264061 g / cm^3
# Si number density = 22.692263 Si / 1000 Ang^3
#
#
#
# Elastic Constant Matrix: (Units=GPa)
#
#
# Indices 1 2 3 4 5 6 
#
# 1 253.6086 16.9730 119.4964 0.0000 0.0000 0.0000
# 2 16.9730 16.6537 4.9803 0.0000 0.0000 0.0000
# 3 119.4964 4.9803 308.7793 0.0000 0.0000 0.0000
# 4 0.0000 0.0000 0.0000 -2.3573 0.0000 0.0000
# 5 0.0000 0.0000 0.0000 0.0000 52.7992 0.0000
# 6 0.0000 0.0000 0.0000 0.0000 0.0000 -3.7907
#
#
#
# Elastic Compliance Matrix: (Units=1/GPa)
#
#
# Indices 1 2 3 4 5 6 
#
# 1 0.005162 -0.004687 -0.001922 0.000000 0.000000 0.000000
# 2 -0.004687 0.064593 0.000772 0.000000 0.000000 0.000000
# 3 -0.001922 0.000772 0.003970 0.000000 0.000000 0.000000
# 4 0.000000 0.000000 0.000000 -0.424212 0.000000 0.000000
# 5 0.000000 0.000000 0.000000 0.000000 0.018940 0.000000
# 6 0.000000 0.000000 0.000000 0.000000 0.000000 -0.263803
#
#
# Mechanical properties :
#
#
# Convention : Reuss Voigt Hill
#
# Bulk Modulus (GPa) = 16.11577 95.77122 55.94350
# Shear Modulus (GPa) = -8.88112 38.50304 14.81096
#
# Velocity S-wave (km/s) = -1.98046 4.12363 2.55755
# Velocity P-wave (km/s) = 1.37393 8.06030 5.78170
#
# Compressibility (1/GPa) = 0.06205103
#
# Stress axis : x y z
#
# Youngs Moduli (GPa) = 193.70514 15.48167 251.88787
#
# Poissons Ratio (x) = 0.07256 0.48420
# Poissons Ratio (y) = 0.90782 -0.19443
# Poissons Ratio (z) = 0.37235 -0.01195
#
# Static dielectric constant tensor:
#      x y z
#    x 3.978570 0.000000 0.000000 
#    y 0.000000 3.224930 0.000000 
#    z 0.000000 0.000000 -1.961030 
# 
# 
# High freq. dielectric constant tensor:
#      x y z
#    x 1.907720 0.000000 0.000000 
#    y 0.000000 1.817100 0.000000 
#    z 0.000000 0.000000 1.945950 
# 
# From -- ./inp_files/1456.got.cif
#   From: 2010.03.12/outbox.cif.g09.slc.cpg/sg39_1_cif.got.tgz:1456.got - 2010.04.14 02:53:20.
