data_PCOD8180987
_publ_section_title
;
Structure prediction by ZEFSAII (Michael W. Deem and Ramdas Pophale) SiO2 
 PCOD8180987
Probable space group: A B M 2
;
_chemical_formula_sum "Si O2"
_cell_formula_units_Z 56
_cell_length_a 15.505197
_cell_length_b 9.021054
_cell_length_c 20.237126
_cell_angle_alpha 90.000000
_cell_angle_beta 90.000000
_cell_angle_gamma 90.000000
_cell_volume 2830.631965
_symmetry_space_group_name_H-M "A B M 2"
_symmetry_group_IT_number 39
_symmetry_cell_setting 'orthorhombic'
loop_
_space_group_symop_operation_xyz
x,y,z
-x,-y,z
-x,1/2+y,z
x,1/2-y,z
x,1/2+y,1/2+z
-x,1/2-y,1/2+z
-x,y,1/2+z
x,-y,1/2+z
loop_
_atom_site_type_symbol
_atom_site_label
_atom_site_fract_x
_atom_site_fract_y
_atom_site_fract_z
Si Si1 0.418311 0.414971 0.225790
Si Si2 0.770427 0.925016 0.195169
Si Si3 0.414906 0.074001 0.999341
Si Si4 0.911111 0.078813 0.447171
Si Si5 0.769005 0.075681 0.547600
Si Si6 0.635269 0.918524 0.370368
Si Si7 0.195210 0.422151 0.822290
O O1 0.500000 0.500000 0.195644
O O2 0.424746 0.250000 0.197226
O O3 0.328022 0.483494 0.201092
O O4 0.422964 0.418788 0.304980
O O5 0.775415 0.750000 0.210913
O O6 0.802440 0.963253 0.121375
O O7 0.827577 0.012899 0.249425
O O8 0.424510 0.250000 0.002141
O O9 0.500000 0.000000 0.032440
O O10 0.411218 0.021436 0.923575
O O11 0.328178 0.015358 0.035879
O O12 0.923237 0.250000 0.464786
O O13 0.836430 0.009512 0.494506
O O14 0.886874 0.057243 0.370199
O O15 0.000000 0.000000 0.463273
O O16 0.763445 0.250000 0.536864
O O17 0.646182 0.750000 0.396599
O O18 0.728394 0.984920 0.354371
O O19 0.221583 0.250000 0.817027
#
# Coordination Sequence:
#
# PCOD8180987 Si02
#       7
#     8   8   8   8   8   8   8
#     4   9  18  29  44  70 101 138 185 232 275 323
#     4   9  19  36  57  78 107 152 196 230 280 344
#     4  11  21  34  52  79 115 156 198 241 288 338
#     4  10  21  39  63  90 114 147 187 233 292 348
#     4   9  19  39  60  79 114 158 193 233 288 343
#     4  10  19  32  51  77 108 146 193 239 287 339
#     4  10  19  35  58  85 115 143 180 234 293 343
#
# _framework density 19.783567999999999
#
# number of rings (size 3 to 8) (size 9 to 14) (size 15 to 20)
#    0.000    2.286    1.429    2.571    0.000    5.714 
#    0.000    2.857    0.000    3.429    0.000    0.000 
#    0.000    0.000    0.000    0.000    0.000    0.000 
#
# Total GULP energy -347105.547396 kJ/mol
# GULP energy per Si atom -12396.626693 kJ/mol
# Density = 1.973854 g / cm^3
# Si number density = 19.783568 Si / 1000 Ang^3
#
#
#
# Elastic Constant Matrix: (Units=GPa)
#
#
# Indices 1 2 3 4 5 6 
#
# 1 108.7486 35.8303 44.5455 0.0000 0.0000 0.0000
# 2 35.8303 69.1862 29.0420 0.0000 0.0000 0.0000
# 3 44.5455 29.0420 109.5409 0.0000 0.0000 0.0000
# 4 0.0000 0.0000 0.0000 21.2696 0.0000 0.0000
# 5 0.0000 0.0000 0.0000 0.0000 11.3000 0.0000
# 6 0.0000 0.0000 0.0000 0.0000 0.0000 30.6754
#
#
#
# Elastic Compliance Matrix: (Units=1/GPa)
#
#
# Indices 1 2 3 4 5 6 
#
# 1 0.012308 -0.004808 -0.003730 0.000000 0.000000 0.000000
# 2 -0.004808 0.018142 -0.002855 0.000000 0.000000 0.000000
# 3 -0.003730 -0.002855 0.011403 0.000000 0.000000 0.000000
# 4 0.000000 0.000000 0.000000 0.047016 0.000000 0.000000
# 5 0.000000 0.000000 0.000000 0.000000 0.088496 0.000000
# 6 0.000000 0.000000 0.000000 0.000000 0.000000 0.032599
#
#
# Mechanical properties :
#
#
# Convention : Reuss Voigt Hill
#
# Bulk Modulus (GPa) = 52.44802 56.25682 54.35242
# Shear Modulus (GPa) = 20.91134 24.51951 22.71543
#
# Velocity S-wave (km/s) = 3.25469 3.52431 3.39218
# Velocity P-wave (km/s) = 6.37906 6.71259 6.54795
#
# Compressibility (1/GPa) = 0.01906650
#
# Stress axis : x y z
#
# Youngs Moduli (GPa) = 81.25025 55.12054 87.69786
#
# Poissons Ratio (x) = 0.26502 0.32713
# Poissons Ratio (y) = 0.39066 0.25035
# Poissons Ratio (z) = 0.30308 0.15735
#
# Static dielectric constant tensor:
#      x y z
#    x 3.451020 0.000000 0.000000 
#    y 0.000000 3.466670 0.000000 
#    z 0.000000 0.000000 3.728250 
# 
# 
# High freq. dielectric constant tensor:
#      x y z
#    x 1.749090 0.000000 0.000000 
#    y 0.000000 1.754300 0.000000 
#    z 0.000000 0.000000 1.770920 
# 
# From -- ./inp_files/14735.got.cif
#   From: 2010.03.12/outbox.cif.g09.slc.cpg/sg39_8_cif.got.tgz:14735.got - 2010.04.14 02:53:20.
