data_PCOD8180530
_publ_section_title
;
Structure prediction by ZEFSAII (Michael W. Deem and Ramdas Pophale) SiO2 
 PCOD8180530
Probable space group: A M M 2
;
_chemical_formula_sum "Si O2"
_cell_formula_units_Z 56
_cell_length_a 9.685498
_cell_length_b 13.582885
_cell_length_c 29.238230
_cell_angle_alpha 90.000000
_cell_angle_beta 90.000000
_cell_angle_gamma 90.000000
_cell_volume 3846.493985
_symmetry_space_group_name_H-M "A M M 2"
_symmetry_group_IT_number 38
_symmetry_cell_setting 'orthorhombic'
loop_
_space_group_symop_operation_xyz
x,y,z
-x,-y,z
-x,y,z
x,-y,z
x,1/2+y,1/2+z
-x,1/2-y,1/2+z
-x,1/2+y,1/2+z
x,1/2-y,1/2+z
loop_
_atom_site_type_symbol
_atom_site_label
_atom_site_fract_x
_atom_site_fract_y
_atom_site_fract_z
Si Si1 0.336195 0.890549 0.134580
Si Si2 0.159546 0.614375 0.816490
Si Si3 0.654182 0.117301 0.234085
Si Si4 0.157762 0.889648 0.965245
Si Si5 0.657792 0.609956 0.988840
Si Si6 0.159843 0.198536 0.412517
Si Si7 0.338734 0.799526 0.041858
O O1 0.500000 0.897755 0.136413
O O2 0.287951 0.848552 0.184153
O O3 0.287735 0.818495 0.093750
O O4 0.275211 0.000000 0.125558
O O5 0.192629 0.500000 0.826289
O O6 0.245927 0.656685 0.773812
O O7 0.204003 0.678001 0.860497
O O8 0.000000 0.629503 0.804410
O O9 0.500000 0.158638 0.243104
O O10 0.651264 0.000000 0.233879
O O11 0.190252 0.812906 0.924365
O O12 0.000000 0.876488 0.981807
O O13 0.183970 0.000000 0.946568
O O14 0.256103 0.871112 0.008244
O O15 0.500000 0.624067 0.972761
O O16 0.683807 0.500000 0.007692
O O17 0.693120 0.685831 0.029676
O O18 0.753187 0.627825 0.945190
O O19 0.000000 0.170929 0.419678
O O20 0.500000 0.825178 0.036426
#
# Coordination Sequence:
#
# PCOD8180530 Si02
#       7
#     8   8   8   8   8   8   8
#     4   8  13  22  37  56  75  95 122 153 182 219
#     4   9  16  25  37  54  75  97 122 152 184 220
#     4   8  14  24  37  53  73  96 121 150 185 223
#     4   9  17  28  40  56  79 102 125 157 191 221
#     4   9  17  27  38  56  81 103 126 159 191 217
#     4   9  17  28  41  56  75 102 132 155 183 227
#     4   9  16  26  41  58  76 102 132 156 183 222
#
# _framework density 14.558712999999999
#
# number of rings (size 3 to 8) (size 9 to 14) (size 15 to 20)
#    0.000    3.286    0.000    1.714    0.000    2.286 
#    0.000    2.143    0.000    2.571    0.000    1.000 
#    0.000    1.143    0.000    0.000    0.000    0.000 
#
# Total GULP energy -347039.451796 kJ/mol
# GULP energy per Si atom -12394.266136 kJ/mol
# Density = 1.452558 g / cm^3
# Si number density = 14.558713 Si / 1000 Ang^3
#
#
#
# Elastic Constant Matrix: (Units=GPa)
#
#
# Indices 1 2 3 4 5 6 
#
# 1 43.1184 27.8162 49.4630 0.0000 0.0000 0.0000
# 2 27.8162 75.4226 53.4716 0.0000 0.0000 0.0000
# 3 49.4630 53.4716 145.2717 0.0000 0.0000 0.0000
# 4 0.0000 0.0000 0.0000 19.3860 0.0000 0.0000
# 5 0.0000 0.0000 0.0000 0.0000 16.8640 0.0000
# 6 0.0000 0.0000 0.0000 0.0000 0.0000 14.3891
#
#
#
# Elastic Compliance Matrix: (Units=1/GPa)
#
#
# Indices 1 2 3 4 5 6 
#
# 1 0.040617 -0.007002 -0.011252 0.000000 0.000000 0.000000
# 2 -0.007002 0.019147 -0.004664 0.000000 0.000000 0.000000
# 3 -0.011252 -0.004664 0.012431 0.000000 0.000000 0.000000
# 4 0.000000 0.000000 0.000000 0.051584 0.000000 0.000000
# 5 0.000000 0.000000 0.000000 0.000000 0.059298 0.000000
# 6 0.000000 0.000000 0.000000 0.000000 0.000000 0.069497
#
#
# Mechanical properties :
#
#
# Convention : Reuss Voigt Hill
#
# Bulk Modulus (GPa) = 37.93673 58.36826 48.15249
# Shear Modulus (GPa) = 16.27619 18.99861 17.63740
#
# Velocity S-wave (km/s) = 3.34723 3.61635 3.48439
# Velocity P-wave (km/s) = 6.40726 7.59052 7.02385
#
# Compressibility (1/GPa) = 0.02635968
#
# Stress axis : x y z
#
# Youngs Moduli (GPa) = 24.62023 52.22627 80.44158
#
# Poissons Ratio (x) = 0.36571 0.90513
# Poissons Ratio (y) = 0.17240 0.37514
# Poissons Ratio (z) = 0.27703 0.24356
#
# Static dielectric constant tensor:
#      x y z
#    x 2.821040 0.000000 0.000000 
#    y 0.000000 2.740640 0.000000 
#    z 0.000000 0.000000 3.012480 
# 
# 
# High freq. dielectric constant tensor:
#      x y z
#    x 1.548590 0.000000 0.000000 
#    y 0.000000 1.529140 0.000000 
#    z 0.000000 0.000000 1.550660 
# 
# From -- ./inp_files/22532.got.cif
#   From: 2010.03.12/outbox.cif.g09.slc.cpg/sg38_12_cif.got.tgz:22532.got - 2010.04.14 02:38:36.
