data_PCOD8180494
_publ_section_title
;
Structure prediction by ZEFSAII (Michael W. Deem and Ramdas Pophale) SiO2 
 PCOD8180494
Probable space group: A M M 2
;
_chemical_formula_sum "Si O2"
_cell_formula_units_Z 40
_cell_length_a 7.766363
_cell_length_b 8.994758
_cell_length_c 28.863391
_cell_angle_alpha 90.000000
_cell_angle_beta 90.000000
_cell_angle_gamma 90.000000
_cell_volume 2016.297082
_symmetry_space_group_name_H-M "A M M 2"
_symmetry_group_IT_number 38
_symmetry_cell_setting 'orthorhombic'
loop_
_space_group_symop_operation_xyz
x,y,z
-x,-y,z
-x,y,z
x,-y,z
x,1/2+y,1/2+z
-x,1/2-y,1/2+z
-x,1/2+y,1/2+z
x,1/2-y,1/2+z
loop_
_atom_site_type_symbol
_atom_site_label
_atom_site_fract_x
_atom_site_fract_y
_atom_site_fract_z
Si Si1 0.190584 0.322877 0.995980
Si Si2 0.798155 0.832328 0.599562
Si Si3 0.500000 0.323423 0.828682
Si Si4 0.500000 0.323046 0.934156
Si Si5 0.805788 0.671443 0.274858
Si Si6 0.696022 0.332921 0.687797
O O1 0.185987 0.500000 0.995257
O O2 0.329780 0.259559 0.959690
O O3 0.000000 0.261939 0.982737
O O4 0.241903 0.272165 0.047886
O O5 0.702649 0.726538 0.635572
O O6 0.000000 0.828049 0.609385
O O7 0.727806 0.000000 0.605439
O O8 0.500000 0.500000 0.824598
O O9 0.500000 0.267461 0.881585
O O10 0.674392 0.264376 0.805858
O O11 0.500000 0.500000 0.936744
O O12 0.749424 0.500000 0.275268
O O13 0.804783 0.729069 0.222049
O O14 0.000000 0.691170 0.294293
O O15 0.500000 0.331870 0.705358
O O16 0.770673 0.500000 0.689202
#
# Coordination Sequence:
#
# PCOD8180494 Si02
#       6
#     8   8   4   4   8   8
#     4   8  15  29  49  77 112 146 185 230 271 323
#     4   9  18  32  52  80 112 148 191 232 273 329
#     4  11  23  39  60  91 122 147 186 241 300 355
#     4   9  18  31  52  81 112 145 180 225 288 343
#     4  11  24  42  64  86 112 152 198 240 286 344
#     4  11  23  36  53  82 118 152 189 234 286 342
#
# _framework density 19.838346000000001
#
# number of rings (size 3 to 8) (size 9 to 14) (size 15 to 20)
#    0.000    2.200    1.000    3.300    1.400    6.400 
#    0.000    2.000    0.000    2.400    0.000    0.000 
#    0.000    0.000    0.000    0.000    0.000    0.000 
#
# Total GULP energy -247998.288856 kJ/mol
# GULP energy per Si atom -12399.914443 kJ/mol
# Density = 1.979319 g / cm^3
# Si number density = 19.838346 Si / 1000 Ang^3
#
#
#
# Elastic Constant Matrix: (Units=GPa)
#
#
# Indices 1 2 3 4 5 6 
#
# 1 110.8988 37.7596 64.6427 0.0000 0.0000 0.0000
# 2 37.7596 84.7797 43.0285 0.0000 0.0000 0.0000
# 3 64.6427 43.0285 139.8291 0.0000 0.0000 0.0000
# 4 0.0000 0.0000 0.0000 22.3026 0.0000 0.0000
# 5 0.0000 0.0000 0.0000 0.0000 25.6306 0.0000
# 6 0.0000 0.0000 0.0000 0.0000 0.0000 19.4450
#
#
#
# Elastic Compliance Matrix: (Units=1/GPa)
#
#
# Indices 1 2 3 4 5 6 
#
# 1 0.013063 -0.003263 -0.005035 0.000000 0.000000 0.000000
# 2 -0.003263 0.014793 -0.003044 0.000000 0.000000 0.000000
# 3 -0.005035 -0.003044 0.010416 0.000000 0.000000 0.000000
# 4 0.000000 0.000000 0.000000 0.044838 0.000000 0.000000
# 5 0.000000 0.000000 0.000000 0.000000 0.039016 0.000000
# 6 0.000000 0.000000 0.000000 0.000000 0.000000 0.051427
#
#
# Mechanical properties :
#
#
# Convention : Reuss Voigt Hill
#
# Bulk Modulus (GPa) = 64.14730 69.59658 66.87194
# Shear Modulus (GPa) = 24.82218 26.14741 25.48480
#
# Velocity S-wave (km/s) = 3.54110 3.63440 3.58805
# Velocity P-wave (km/s) = 7.00888 7.26428 7.13772
#
# Compressibility (1/GPa) = 0.01558912
#
# Stress axis : x y z
#
# Youngs Moduli (GPa) = 76.55199 67.59817 96.00657
#
# Poissons Ratio (x) = 0.22055 0.48340
# Poissons Ratio (y) = 0.24976 0.29224
# Poissons Ratio (z) = 0.38544 0.20576
#
# Static dielectric constant tensor:
#      x y z
#    x 3.707370 0.000000 0.000000 
#    y 0.000000 3.312340 0.000000 
#    z 0.000000 0.000000 3.669380 
# 
# 
# High freq. dielectric constant tensor:
#      x y z
#    x 1.782410 0.000000 0.000000 
#    y 0.000000 1.739840 0.000000 
#    z 0.000000 0.000000 1.771810 
# 
# From -- ./inp_files/23274.got.cif
#   From: 2010.03.12/outbox.cif.g09.slc.cpg/sg38_12_cif.got.tgz:23274.got - 2010.04.14 02:38:36.
