data_PCOD8180187
_publ_section_title
;
Structure prediction by ZEFSAII (Michael W. Deem and Ramdas Pophale) SiO2 
 PCOD8180187
Probable space group: A M M 2
;
_chemical_formula_sum "Si O2"
_cell_formula_units_Z 64
_cell_length_a 8.955815
_cell_length_b 22.177917
_cell_length_c 15.433790
_cell_angle_alpha 90.000000
_cell_angle_beta 90.000000
_cell_angle_gamma 90.000000
_cell_volume 3065.479769
_symmetry_space_group_name_H-M "A M M 2"
_symmetry_group_IT_number 38
_symmetry_cell_setting 'orthorhombic'
loop_
_space_group_symop_operation_xyz
x,y,z
-x,-y,z
-x,y,z
x,-y,z
x,1/2+y,1/2+z
-x,1/2-y,1/2+z
-x,1/2+y,1/2+z
x,1/2-y,1/2+z
loop_
_atom_site_type_symbol
_atom_site_label
_atom_site_fract_x
_atom_site_fract_y
_atom_site_fract_z
Si Si1 0.174099 0.312403 0.440760
Si Si2 0.675456 0.568729 0.689639
Si Si3 0.332898 0.928997 0.527266
Si Si4 0.835248 0.071011 0.363511
Si Si5 0.327342 0.262442 0.275552
Si Si6 0.676404 0.932857 0.890751
Si Si7 0.826441 0.319092 0.633436
Si Si8 0.671137 0.105637 0.708842
O O1 0.253397 0.268365 0.371153
O O2 0.237242 0.380732 0.441302
O O3 0.200249 0.287775 0.539195
O O4 0.000000 0.314826 0.417682
O O5 0.500000 0.577641 0.679636
O O6 0.722106 0.500000 0.668156
O O7 0.723828 0.587372 0.786273
O O8 0.760904 0.613107 0.624456
O O9 0.500000 0.901287 0.521220
O O10 0.233352 0.900278 0.450823
O O11 0.251241 0.912644 0.618329
O O12 0.341785 0.000000 0.515553
O O13 0.000000 0.098917 0.346925
O O14 0.849632 0.000000 0.374122
O O15 0.500000 0.246048 0.289293
O O16 0.253356 0.212839 0.214192
O O17 0.305172 0.324158 0.224558
O O18 0.500000 0.917822 0.895184
O O19 0.733145 0.931562 0.790807
O O20 0.709142 0.000000 0.928747
O O21 0.000000 0.322161 0.655283
O O22 0.500000 0.087361 0.697225
#
# Coordination Sequence:
#
# PCOD8180187 Si02
#       8
#     8   8   8   8   8   8   8   8
#     4  10  22  40  61  86 121 161 198 243 299 359
#     4  10  21  38  61  88 116 148 190 240 293 350
#     4   9  15  25  45  72 105 146 191 239 289 344
#     4   9  17  30  47  70 106 148 185 227 282 341
#     4  10  21  40  64  87 114 152 199 251 299 346
#     4   9  17  31  54  84 118 156 198 245 297 351
#     4  11  24  42  64  89 119 157 197 240 297 359
#     4   8  15  29  50  77 108 145 191 242 292 340
#
# _framework density 20.877645000000001
#
# number of rings (size 3 to 8) (size 9 to 14) (size 15 to 20)
#    0.000    2.500    0.000    3.000    0.000    6.500 
#    2.250    5.625    0.000    3.000    0.000    0.000 
#    0.000    0.000    0.000    0.000    0.000    0.000 
#
# Total GULP energy -396599.300564 kJ/mol
# GULP energy per Si atom -12393.728143 kJ/mol
# Density = 2.083013 g / cm^3
# Si number density = 20.877645 Si / 1000 Ang^3
#
#
#
# Elastic Constant Matrix: (Units=GPa)
#
#
# Indices 1 2 3 4 5 6 
#
# 1 110.1996 40.3946 49.9376 0.0000 0.0000 0.0000
# 2 40.3946 60.7827 33.8381 0.0000 0.0000 0.0000
# 3 49.9376 33.8381 120.3843 0.0000 0.0000 0.0000
# 4 0.0000 0.0000 0.0000 24.4774 0.0000 0.0000
# 5 0.0000 0.0000 0.0000 0.0000 29.6280 0.0000
# 6 0.0000 0.0000 0.0000 0.0000 0.0000 24.6319
#
#
#
# Elastic Compliance Matrix: (Units=1/GPa)
#
#
# Indices 1 2 3 4 5 6 
#
# 1 0.013169 -0.006770 -0.003560 0.000000 0.000000 0.000000
# 2 -0.006770 0.022985 -0.003652 0.000000 0.000000 0.000000
# 3 -0.003560 -0.003652 0.010810 0.000000 0.000000 0.000000
# 4 0.000000 0.000000 0.000000 0.040854 0.000000 0.000000
# 5 0.000000 0.000000 0.000000 0.000000 0.033752 0.000000
# 6 0.000000 0.000000 0.000000 0.000000 0.000000 0.040598
#
#
# Mechanical properties :
#
#
# Convention : Reuss Voigt Hill
#
# Bulk Modulus (GPa) = 52.63337 59.96747 56.30042
# Shear Modulus (GPa) = 25.44981 26.89387 26.17184
#
# Velocity S-wave (km/s) = 3.49520 3.59300 3.54444
# Velocity P-wave (km/s) = 6.44622 6.78222 6.61635
#
# Compressibility (1/GPa) = 0.01899935
#
# Stress axis : x y z
#
# Youngs Moduli (GPa) = 75.93430 43.50751 92.50697
#
# Poissons Ratio (x) = 0.29455 0.32931
# Poissons Ratio (y) = 0.51409 0.33785
# Poissons Ratio (z) = 0.27032 0.15890
#
# Static dielectric constant tensor:
#      x y z
#    x 3.731420 0.000000 0.000000 
#    y 0.000000 3.588830 0.000000 
#    z 0.000000 0.000000 3.960350 
# 
# 
# High freq. dielectric constant tensor:
#      x y z
#    x 1.802670 0.000000 0.000000 
#    y 0.000000 1.794230 0.000000 
#    z 0.000000 0.000000 1.828830 
# 
# From -- ./inp_files/12806.got.cif
#   From: 2010.03.12/outbox.cif.g09.slc.cpg/sg38_7_cif.got.tgz:12806.got - 2010.04.14 02:38:36.
