data_PCOD8180275
_publ_section_title
;
Structure prediction by ZEFSAII (Michael W. Deem and Ramdas Pophale) SiO2 
 PCOD8180275
Probable space group: A M M 2
;
_chemical_formula_sum "Si O2"
_cell_formula_units_Z 64
_cell_length_a 14.057742
_cell_length_b 22.896350
_cell_length_c 9.833143
_cell_angle_alpha 90.000000
_cell_angle_beta 90.000000
_cell_angle_gamma 90.000000
_cell_volume 3165.003384
_symmetry_space_group_name_H-M "A M M 2"
_symmetry_group_IT_number 38
_symmetry_cell_setting 'orthorhombic'
loop_
_space_group_symop_operation_xyz
x,y,z
-x,-y,z
-x,y,z
x,-y,z
x,1/2+y,1/2+z
-x,1/2-y,1/2+z
-x,1/2+y,1/2+z
x,1/2-y,1/2+z
loop_
_atom_site_type_symbol
_atom_site_label
_atom_site_fract_x
_atom_site_fract_y
_atom_site_fract_z
Si Si1 0.715927 0.633047 0.190940
Si Si2 0.387360 0.840013 0.127955
Si Si3 0.110472 0.068137 0.301521
Si Si4 0.107108 0.433773 0.234156
Si Si5 0.743281 0.715419 0.431605
Si Si6 0.106458 0.378713 0.514473
Si Si7 0.390962 0.065936 0.908357
Si Si8 0.732906 0.153709 0.398529
O O1 0.824787 0.613134 0.163060
O O2 0.709802 0.690824 0.284689
O O3 0.663515 0.580854 0.269517
O O4 0.674359 0.643334 0.039782
O O5 0.500000 0.831077 0.144559
O O6 0.342054 0.849672 0.275786
O O7 0.343155 0.785833 0.042343
O O8 0.358339 0.896298 0.037585
O O9 0.133294 0.085451 0.147603
O O10 0.181283 0.107293 0.391310
O O11 0.000000 0.080715 0.339163
O O12 0.133817 0.000000 0.325219
O O13 0.134369 0.500000 0.195243
O O14 0.118573 0.426044 0.395899
O O15 0.000000 0.420053 0.185833
O O16 0.828359 0.677845 0.495154
O O17 0.777558 0.781325 0.406783
O O18 0.000000 0.353713 0.521296
O O19 0.500000 0.078100 0.875745
O O20 0.369659 0.000000 0.949418
#
# Coordination Sequence:
#
# PCOD8180275 Si02
#       8
#     8   8   8   8   8   8   8   8
#     4  10  22  35  56  85 118 154 195 244 304 364
#     4  10  22  41  63  90 119 158 210 260 316 377
#     4  10  22  39  60  90 128 168 208 254 314 376
#     4   9  17  31  53  81 113 148 191 240 286 343
#     4  10  21  41  62  86 118 158 204 256 308 370
#     4   9  17  34  61  90 114 151 205 255 296 353
#     4   9  19  39  64  86 113 152 200 252 306 369
#     4  12  24  39  60  90 127 162 201 256 315 375
#
# _framework density 20.221146999999998
#
# number of rings (size 3 to 8) (size 9 to 14) (size 15 to 20)
#    0.000    2.125    1.250    1.500    0.000    5.000 
#    0.000    3.750    0.000    1.500    0.000    0.000 
#    0.000    0.000    0.000    0.000    0.000    0.000 
#
# Total GULP energy -396670.515051 kJ/mol
# GULP energy per Si atom -12395.953595 kJ/mol
# Density = 2.017512 g / cm^3
# Si number density = 20.221147 Si / 1000 Ang^3
#
#
#
# Elastic Constant Matrix: (Units=GPa)
#
#
# Indices 1 2 3 4 5 6 
#
# 1 80.9309 42.4497 45.8822 0.0000 0.0000 0.0000
# 2 42.4497 107.2323 37.6263 0.0000 0.0000 0.0000
# 3 45.8822 37.6263 147.1144 0.0000 0.0000 0.0000
# 4 0.0000 0.0000 0.0000 18.5554 0.0000 0.0000
# 5 0.0000 0.0000 0.0000 0.0000 17.7915 0.0000
# 6 0.0000 0.0000 0.0000 0.0000 0.0000 21.5054
#
#
#
# Elastic Compliance Matrix: (Units=1/GPa)
#
#
# Indices 1 2 3 4 5 6 
#
# 1 0.017557 -0.005525 -0.004063 0.000000 0.000000 0.000000
# 2 -0.005525 0.011983 -0.001342 0.000000 0.000000 0.000000
# 3 -0.004063 -0.001342 0.008408 0.000000 0.000000 0.000000
# 4 0.000000 0.000000 0.000000 0.053893 0.000000 0.000000
# 5 0.000000 0.000000 0.000000 0.000000 0.056207 0.000000
# 6 0.000000 0.000000 0.000000 0.000000 0.000000 0.046500
#
#
# Mechanical properties :
#
#
# Convention : Reuss Voigt Hill
#
# Bulk Modulus (GPa) = 62.15142 65.24376 63.69759
# Shear Modulus (GPa) = 22.54588 25.52509 24.03548
#
# Velocity S-wave (km/s) = 3.34273 3.55674 3.45139
# Velocity P-wave (km/s) = 6.76026 7.01444 6.88852
#
# Compressibility (1/GPa) = 0.01608974
#
# Stress axis : x y z
#
# Youngs Moduli (GPa) = 56.95609 83.44836 118.93822
#
# Poissons Ratio (x) = 0.46104 0.48322
# Poissons Ratio (y) = 0.31467 0.15959
# Poissons Ratio (z) = 0.23140 0.11197
#
# Static dielectric constant tensor:
#      x y z
#    x 3.741580 0.000000 0.000000 
#    y 0.000000 3.613900 0.000000 
#    z 0.000000 0.000000 3.781230 
# 
# 
# High freq. dielectric constant tensor:
#      x y z
#    x 1.783330 0.000000 0.000000 
#    y 0.000000 1.781500 0.000000 
#    z 0.000000 0.000000 1.797850 
# 
# From -- ./inp_files/5901.got.cif
#   From: 2010.03.12/outbox.cif.g09.slc.cpg/sg38_3_cif.got.tgz:5901.got - 2010.04.14 02:38:36.
