data_PCOD8180576
_publ_section_title
;
Structure prediction by ZEFSAII (Michael W. Deem and Ramdas Pophale) SiO2 
 PCOD8180576
Probable space group: A B M 2
;
_chemical_formula_sum "Si O2"
_cell_formula_units_Z 48
_cell_length_a 30.821883
_cell_length_b 13.881687
_cell_length_c 5.167740
_cell_angle_alpha 90.000000
_cell_angle_beta 90.000000
_cell_angle_gamma 90.000000
_cell_volume 2211.067854
_symmetry_space_group_name_H-M "A B M 2"
_symmetry_group_IT_number 39
_symmetry_cell_setting 'orthorhombic'
loop_
_space_group_symop_operation_xyz
x,y,z
-x,-y,z
-x,1/2+y,z
x,1/2-y,z
x,1/2+y,1/2+z
-x,1/2-y,1/2+z
-x,y,1/2+z
x,-y,1/2+z
loop_
_atom_site_type_symbol
_atom_site_label
_atom_site_fract_x
_atom_site_fract_y
_atom_site_fract_z
Si Si1 0.527344 0.637814 0.080550
Si Si2 0.323294 0.750000 0.656984
Si Si3 0.732861 0.250000 0.156968
Si Si4 0.018697 0.109136 0.659615
Si Si5 0.792107 0.064942 0.144397
Si Si6 0.112385 0.058589 0.576568
Si Si7 0.621698 0.940571 0.099342
O O1 0.539518 0.750000 0.092151
O O2 0.494522 0.610103 0.309356
O O3 0.570453 0.576321 0.112411
O O4 0.284811 0.750000 0.448625
O O5 0.353100 0.658278 0.616805
O O6 0.305512 0.750000 0.948262
O O7 0.760519 0.154322 0.112462
O O8 0.070580 0.122812 0.639740
O O9 0.996541 0.162892 0.418484
O O10 0.000000 0.000000 0.677087
O O11 0.841142 0.108457 0.130436
O O12 0.783815 0.011961 0.416504
O O13 0.109657 0.031664 0.274006
O O14 0.635670 0.009569 0.332924
#
# Coordination Sequence:
#
# PCOD8180576 Si02
#       7
#     8   4   4   8   8   8   8
#     4  10  21  39  65  95 137 183 221 266 310 368
#     4  12  28  48  68  97 130 163 216 270 332 394
#     4  12  26  46  72  91 124 167 204 266 340 394
#     4  10  14  20  36  65 105 144 188 227 272 348
#     4  10  23  40  64  94 123 154 207 258 315 385
#     4  10  16  27  44  73 113 145 186 247 285 344
#     4  12  26  44  69 101 135 175 222 268 326 380
#
# _framework density 21.708966
#
# number of rings (size 3 to 8) (size 9 to 14) (size 15 to 20)
#    0.000    1.333    4.167    3.000    0.000    6.000 
#    0.000    0.000    0.000    0.000    0.000    1.167 
#    0.000    0.000    0.000    0.000    0.000    0.000 
#
# Total GULP energy -297523.475134 kJ/mol
# GULP energy per Si atom -12396.811464 kJ/mol
# Density = 2.165956 g / cm^3
# Si number density = 21.708966 Si / 1000 Ang^3
#
#
#
# Elastic Constant Matrix: (Units=GPa)
#
#
# Indices 1 2 3 4 5 6 
#
# 1 99.1307 42.7160 12.3647 0.0000 0.0000 0.0000
# 2 42.7160 66.7125 -6.1206 0.0000 0.0000 0.0000
# 3 12.3647 -6.1206 110.8117 0.0000 0.0000 0.0000
# 4 0.0000 0.0000 0.0000 11.5958 0.0000 0.0000
# 5 0.0000 0.0000 0.0000 0.0000 -17.4324 0.0000
# 6 0.0000 0.0000 0.0000 0.0000 0.0000 -46.2841
#
#
#
# Elastic Compliance Matrix: (Units=1/GPa)
#
#
# Indices 1 2 3 4 5 6 
#
# 1 0.014414 -0.009425 -0.002129 0.000000 0.000000 0.000000
# 2 -0.009425 0.021229 0.002224 0.000000 0.000000 0.000000
# 3 -0.002129 0.002224 0.009385 0.000000 0.000000 0.000000
# 4 0.000000 0.000000 0.000000 0.086238 0.000000 0.000000
# 5 0.000000 0.000000 0.000000 0.000000 -0.057364 0.000000
# 6 0.000000 0.000000 0.000000 0.000000 0.000000 -0.021606
#
#
# Mechanical properties :
#
#
# Convention : Reuss Voigt Hill
#
# Bulk Modulus (GPa) = 37.92430 41.61946 39.77188
# Shear Modulus (GPa) = 62.70006 4.75550 33.72778
#
# Velocity S-wave (km/s) = 5.38004 1.48166 3.94589
# Velocity P-wave (km/s) = 7.49002 4.70535 6.25463
#
# Compressibility (1/GPa) = 0.02636832
#
# Stress axis : x y z
#
# Youngs Moduli (GPa) = 69.37461 47.10645 106.55611
#
# Poissons Ratio (x) = 0.44397 0.22686
# Poissons Ratio (y) = 0.65385 -0.23700
# Poissons Ratio (z) = 0.14770 -0.10477
#
# Static dielectric constant tensor:
#      x y z
#    x 4.151900 0.000000 0.000000 
#    y 0.000000 3.685500 0.000000 
#    z 0.000000 0.000000 5.189500 
# 
# 
# High freq. dielectric constant tensor:
#      x y z
#    x 1.863420 0.000000 0.000000 
#    y 0.000000 1.826030 0.000000 
#    z 0.000000 0.000000 1.880370 
# 
# From -- ./inp_files/1393.got.cif
#   From: 2010.03.12/outbox.cif.g09.slc.cpg/sg39_1_cif.got.tgz:1393.got - 2010.04.14 02:53:20.
