data_PCOD8180069
_publ_section_title
;
Structure prediction by ZEFSAII (Michael W. Deem and Ramdas Pophale) SiO2 
 PCOD8180069
Probable space group: A M M 2
;
_chemical_formula_sum "Si O2"
_cell_formula_units_Z 56
_cell_length_a 21.233936
_cell_length_b 8.837044
_cell_length_c 15.384930
_cell_angle_alpha 90.000000
_cell_angle_beta 90.000000
_cell_angle_gamma 90.000000
_cell_volume 2886.908678
_symmetry_space_group_name_H-M "A M M 2"
_symmetry_group_IT_number 38
_symmetry_cell_setting 'orthorhombic'
loop_
_space_group_symop_operation_xyz
x,y,z
-x,-y,z
-x,y,z
x,-y,z
x,1/2+y,1/2+z
-x,1/2-y,1/2+z
-x,1/2+y,1/2+z
x,1/2-y,1/2+z
loop_
_atom_site_type_symbol
_atom_site_label
_atom_site_fract_x
_atom_site_fract_y
_atom_site_fract_z
Si Si1 0.878745 0.673462 0.799920
Si Si2 0.872257 0.674494 0.995456
Si Si3 0.000000 0.820777 0.050950
Si Si4 0.571629 0.677511 0.313016
Si Si5 0.000000 0.676627 0.237637
Si Si6 0.210016 0.677931 0.641782
Si Si7 0.654571 0.820813 0.650386
Si Si8 0.429001 0.678910 0.990333
O O1 0.899906 0.500000 0.784306
O O2 0.938851 0.782118 0.793498
O O3 0.827914 0.723929 0.728387
O O4 0.848928 0.692241 0.895895
O O5 0.881132 0.500000 0.021395
O O6 0.938757 0.756978 0.003958
O O7 0.820072 0.746162 0.057262
O O8 0.000000 0.775028 0.150974
O O9 0.000000 0.000000 0.043402
O O10 0.500000 0.727442 0.292606
O O11 0.575855 0.500000 0.327541
O O12 0.614988 0.730205 0.233975
O O13 0.597206 0.757362 0.399709
O O14 0.000000 0.500000 0.214778
O O15 0.209585 0.500000 0.626969
O O16 0.280017 0.735648 0.653836
O O17 0.616283 0.763573 0.566535
O O18 0.665746 0.000000 0.648019
O O19 0.500000 0.738815 0.007593
O O20 0.428814 0.500000 0.986281
#
# Coordination Sequence:
#
# PCOD8180069 Si02
#       8
#     8   8   4   8   4   8   8   8
#     4  10  23  42  62  84 117 153 187 237 297 347
#     4  11  23  41  64  89 115 152 196 238 290 350
#     4  12  23  38  61  90 124 154 185 237 296 341
#     4   9  18  34  57  85 115 147 186 235 287 336
#     4  12  23  36  63  94 118 150 193 239 286 345
#     4  11  24  41  59  82 115 156 194 240 290 340
#     4  10  21  37  57  80 112 153 193 234 280 343
#     4   9  18  34  57  84 113 147 187 232 286 343
#
# _framework density 19.397911000000001
#
# number of rings (size 3 to 8) (size 9 to 14) (size 15 to 20)
#    0.000    1.714    1.429    3.000    0.000    7.429 
#    0.000    4.286    0.000    4.286    0.000    0.000 
#    0.000    0.000    0.000    0.000    0.000    0.000 
#
# Total GULP energy -347309.348437 kJ/mol
# GULP energy per Si atom -12403.905301 kJ/mol
# Density = 1.935376 g / cm^3
# Si number density = 19.397911 Si / 1000 Ang^3
#
#
#
# Elastic Constant Matrix: (Units=GPa)
#
#
# Indices 1 2 3 4 5 6 
#
# 1 126.8766 52.4355 75.0351 0.0000 0.0000 0.0000
# 2 52.4355 78.0174 47.8893 0.0000 0.0000 0.0000
# 3 75.0351 47.8893 150.4805 0.0000 0.0000 0.0000
# 4 0.0000 0.0000 0.0000 32.0920 0.0000 0.0000
# 5 0.0000 0.0000 0.0000 0.0000 9.6246 0.0000
# 6 0.0000 0.0000 0.0000 0.0000 0.0000 31.1826
#
#
#
# Elastic Compliance Matrix: (Units=1/GPa)
#
#
# Indices 1 2 3 4 5 6 
#
# 1 0.013077 -0.005948 -0.004628 0.000000 0.000000 0.000000
# 2 -0.005948 0.018635 -0.002964 0.000000 0.000000 0.000000
# 3 -0.004628 -0.002964 0.009896 0.000000 0.000000 0.000000
# 4 0.000000 0.000000 0.000000 0.031160 0.000000 0.000000
# 5 0.000000 0.000000 0.000000 0.000000 0.103901 0.000000
# 6 0.000000 0.000000 0.000000 0.000000 0.000000 0.032069
#
#
# Mechanical properties :
#
#
# Convention : Reuss Voigt Hill
#
# Bulk Modulus (GPa) = 68.83481 78.45491 73.64486
# Shear Modulus (GPa) = 20.77608 26.58083 23.67845
#
# Velocity S-wave (km/s) = 3.27624 3.70576 3.49760
# Velocity P-wave (km/s) = 7.06218 7.67092 7.37284
#
# Compressibility (1/GPa) = 0.01452753
#
# Stress axis : x y z
#
# Youngs Moduli (GPa) = 76.47165 53.66190 101.04847
#
# Poissons Ratio (x) = 0.31920 0.46760
# Poissons Ratio (y) = 0.45488 0.29955
# Poissons Ratio (z) = 0.35387 0.15908
#
# Static dielectric constant tensor:
#      x y z
#    x 3.492700 0.000000 0.000000 
#    y 0.000000 3.498260 0.000000 
#    z 0.000000 0.000000 3.746480 
# 
# 
# High freq. dielectric constant tensor:
#      x y z
#    x 1.749700 0.000000 0.000000 
#    y 0.000000 1.753260 0.000000 
#    z 0.000000 0.000000 1.770900 
# 
# From -- ./inp_files/15517.got.cif
#   From: 2010.03.12/outbox.cif.g09.slc.cpg/sg38_8_cif.got.tgz:15517.got - 2010.04.14 02:38:36.
