data_PCOD8180587
_publ_section_title
;
Structure prediction by ZEFSAII (Michael W. Deem and Ramdas Pophale) SiO2 
 PCOD8180587
Probable space group: A B M 2
;
_chemical_formula_sum "Si O2"
_cell_formula_units_Z 64
_cell_length_a 20.920060
_cell_length_b 8.809833
_cell_length_c 19.610295
_cell_angle_alpha 90.000000
_cell_angle_beta 90.000000
_cell_angle_gamma 90.000000
_cell_volume 3614.221197
_symmetry_space_group_name_H-M "A B M 2"
_symmetry_group_IT_number 39
_symmetry_cell_setting 'orthorhombic'
loop_
_space_group_symop_operation_xyz
x,y,z
-x,-y,z
-x,1/2+y,z
x,1/2-y,z
x,1/2+y,1/2+z
-x,1/2-y,1/2+z
-x,y,1/2+z
x,-y,1/2+z
loop_
_atom_site_type_symbol
_atom_site_label
_atom_site_fract_x
_atom_site_fract_y
_atom_site_fract_z
Si Si1 0.567357 0.068491 0.504360
Si Si2 0.938892 0.929521 0.611141
Si Si3 0.320083 0.071217 0.259090
Si Si4 0.198600 0.418501 0.602241
Si Si5 0.675544 0.427881 0.605770
Si Si6 0.191205 0.078674 0.764509
Si Si7 0.063579 0.570685 0.759551
Si Si8 0.566662 0.430086 0.859370
O O1 0.563189 0.250000 0.501311
O O2 0.619988 0.007014 0.557620
O O3 0.500000 0.000000 0.528468
O O4 0.586645 0.004239 0.430790
O O5 0.946885 0.750000 0.625455
O O6 0.871685 0.959665 0.571228
O O7 0.937033 0.022568 0.681025
O O8 0.000000 0.000000 0.569761
O O9 0.309587 0.250000 0.257206
O O10 0.332701 0.007708 0.182539
O O11 0.380218 0.024206 0.304513
O O12 0.256245 0.998854 0.291444
O O13 0.218824 0.250000 0.579868
O O14 0.254557 0.528604 0.576011
O O15 0.190482 0.428901 0.683145
O O16 0.669763 0.250000 0.606308
O O17 0.189275 0.250000 0.791566
O O18 0.128766 0.992479 0.794028
O O19 0.062142 0.750000 0.767363
O O20 0.000000 0.500000 0.795369
O O21 0.500000 0.500000 0.833334
O O22 0.559690 0.250000 0.868078
#
# Coordination Sequence:
#
# PCOD8180587 Si02
#       8
#     8   8   8   8   8   8   8   8
#     4  10  20  34  51  70  92 119 151 186 226 271
#     4   9  15  22  32  50  76 109 149 186 222 266
#     4   9  18  32  48  68  93 121 153 188 229 274
#     4   8  15  25  37  56  83 113 146 183 222 266
#     4   9  18  31  47  67  91 119 151 187 226 270
#     4   9  16  26  39  58  84 114 148 185 227 272
#     4  10  16  22  33  50  76 112 151 188 225 267
#     4  10  20  34  52  71  93 121 152 187 227 272
#
# _framework density 17.707826000000001
#
# number of rings (size 3 to 8) (size 9 to 14) (size 15 to 20)
#    0.000    2.750    0.000    4.875    0.000    6.000 
#    0.000    0.000    0.000    0.000    0.000    0.000 
#    0.000    1.000    0.000    9.000    0.000   16.750 
#
# Total GULP energy -396555.470206 kJ/mol
# GULP energy per Si atom -12392.358444 kJ/mol
# Density = 1.766752 g / cm^3
# Si number density = 17.707826 Si / 1000 Ang^3
#
#
#
# Elastic Constant Matrix: (Units=GPa)
#
#
# Indices 1 2 3 4 5 6 
#
# 1 190.5509 63.6347 58.9856 0.0000 0.0000 0.0000
# 2 63.6347 86.3144 24.2374 0.0000 0.0000 0.0000
# 3 58.9856 24.2374 38.4185 0.0000 0.0000 0.0000
# 4 0.0000 0.0000 0.0000 13.0075 0.0000 0.0000
# 5 0.0000 0.0000 0.0000 0.0000 1.9314 0.0000
# 6 0.0000 0.0000 0.0000 0.0000 0.0000 36.1920
#
#
#
# Elastic Compliance Matrix: (Units=1/GPa)
#
#
# Indices 1 2 3 4 5 6 
#
# 1 0.011092 -0.004126 -0.014426 0.000000 0.000000 0.000000
# 2 -0.004126 0.015615 -0.003516 0.000000 0.000000 0.000000
# 3 -0.014426 -0.003516 0.050397 0.000000 0.000000 0.000000
# 4 0.000000 0.000000 0.000000 0.076879 0.000000 0.000000
# 5 0.000000 0.000000 0.000000 0.000000 0.517756 0.000000
# 6 0.000000 0.000000 0.000000 0.000000 0.000000 0.027630
#
#
# Mechanical properties :
#
#
# Convention : Reuss Voigt Hill
#
# Bulk Modulus (GPa) = 30.33411 67.66657 49.00034
# Shear Modulus (GPa) = 6.62696 21.45459 14.04077
#
# Velocity S-wave (km/s) = 1.93663 3.48456 2.81893
# Velocity P-wave (km/s) = 4.70831 7.38142 6.19086
#
# Compressibility (1/GPa) = 0.03296618
#
# Stress axis : x y z
#
# Youngs Moduli (GPa) = 90.15830 64.04147 19.84265
#
# Poissons Ratio (x) = 0.26425 0.28626
# Poissons Ratio (y) = 0.37202 0.06976
# Poissons Ratio (z) = 1.30065 0.22516
#
# Static dielectric constant tensor:
#      x y z
#    x 4.013840 0.000000 0.000000 
#    y 0.000000 3.310800 0.000000 
#    z 0.000000 0.000000 2.793320 
# 
# 
# High freq. dielectric constant tensor:
#      x y z
#    x 1.712690 0.000000 0.000000 
#    y 0.000000 1.692480 0.000000 
#    z 0.000000 0.000000 1.607400 
# 
# From -- ./inp_files/15060.got.cif
#   From: 2010.03.12/outbox.cif.g09.slc.cpg/sg39_8_cif.got.tgz:15060.got - 2010.04.14 02:53:20.
