data_PCOD8180811
_publ_section_title
;
Structure prediction by ZEFSAII (Michael W. Deem and Ramdas Pophale) SiO2 
 PCOD8180811
Probable space group: A B M 2
;
_chemical_formula_sum "Si O2"
_cell_formula_units_Z 64
_cell_length_a 23.971521
_cell_length_b 8.720136
_cell_length_c 15.344906
_cell_angle_alpha 90.000000
_cell_angle_beta 90.000000
_cell_angle_gamma 90.000000
_cell_volume 3207.621248
_symmetry_space_group_name_H-M "A B M 2"
_symmetry_group_IT_number 39
_symmetry_cell_setting 'orthorhombic'
loop_
_space_group_symop_operation_xyz
x,y,z
-x,-y,z
-x,1/2+y,z
x,1/2-y,z
x,1/2+y,1/2+z
-x,1/2-y,1/2+z
-x,y,1/2+z
x,-y,1/2+z
loop_
_atom_site_type_symbol
_atom_site_label
_atom_site_fract_x
_atom_site_fract_y
_atom_site_fract_z
Si Si1 0.559004 0.068844 0.375000
Si Si2 0.173507 0.569491 0.354352
Si Si3 0.945948 0.072880 0.103352
Si Si4 0.441742 0.430472 0.677978
Si Si5 0.175671 0.574272 0.161253
Si Si6 0.634488 0.569589 0.520789
Si Si7 0.754221 0.929790 0.013919
Si Si8 0.943468 0.430882 0.415665
O O1 0.554940 0.250000 0.381723
O O2 0.573283 0.014924 0.276157
O O3 0.500000 0.000000 0.405604
O O4 0.607883 0.010799 0.436993
O O5 0.169002 0.750000 0.368313
O O6 0.196230 0.529408 0.258234
O O7 0.216806 0.505784 0.425979
O O8 0.111353 0.501170 0.367699
O O9 0.957291 0.250000 0.080556
O O10 0.891199 0.054405 0.162230
O O11 0.000000 0.000000 0.152601
O O12 0.937491 0.977145 0.015818
O O13 0.500000 0.500000 0.646531
O O14 0.448168 0.250000 0.675923
O O15 0.394762 0.486511 0.610278
O O16 0.191712 0.750000 0.138335
O O17 0.204508 0.459621 0.094362
O O18 0.628173 0.750000 0.508860
O O19 0.698452 0.524423 0.528543
O O20 0.740652 0.750000 0.008120
O O21 0.946906 0.250000 0.405965
O O22 0.000000 0.500000 0.373950
#
# Coordination Sequence:
#
# PCOD8180811 Si02
#       8
#     8   8   8   8   8   8   8   8
#     4  10  20  37  60  89 121 155 190 230 278 332
#     4   9  20  38  59  79 108 147 184 226 285 345
#     4  10  19  31  53  81 110 141 176 221 277 335
#     4   9  20  37  59  86 120 155 188 227 278 332
#     4  10  21  39  60  81 107 145 187 230 282 341
#     4  11  23  39  59  85 116 154 195 238 282 333
#     4  11  23  41  60  81 110 148 191 239 286 334
#     4  10  18  32  54  80 110 143 179 223 277 338
#
# _framework density 19.952480999999999
#
# number of rings (size 3 to 8) (size 9 to 14) (size 15 to 20)
#    0.000    2.000    1.250    3.000    0.000    4.500 
#    0.000    7.500    0.000    0.000    0.000    0.000 
#    0.000    0.000    0.000    0.000    0.000    0.000 
#
# Total GULP energy -396795.635226 kJ/mol
# GULP energy per Si atom -12399.863601 kJ/mol
# Density = 1.990707 g / cm^3
# Si number density = 19.952481 Si / 1000 Ang^3
#
#
#
# Elastic Constant Matrix: (Units=GPa)
#
#
# Indices 1 2 3 4 5 6 
#
# 1 112.4457 24.0786 48.9073 0.0000 0.0000 0.0000
# 2 24.0786 49.6805 20.6286 0.0000 0.0000 0.0000
# 3 48.9073 20.6286 104.7290 0.0000 0.0000 0.0000
# 4 0.0000 0.0000 0.0000 24.1666 0.0000 0.0000
# 5 0.0000 0.0000 0.0000 0.0000 12.6987 0.0000
# 6 0.0000 0.0000 0.0000 0.0000 0.0000 34.1626
#
#
#
# Elastic Compliance Matrix: (Units=1/GPa)
#
#
# Indices 1 2 3 4 5 6 
#
# 1 0.011760 -0.003724 -0.004758 0.000000 0.000000 0.000000
# 2 -0.003724 0.023101 -0.002811 0.000000 0.000000 0.000000
# 3 -0.004758 -0.002811 0.012324 0.000000 0.000000 0.000000
# 4 0.000000 0.000000 0.000000 0.041379 0.000000 0.000000
# 5 0.000000 0.000000 0.000000 0.000000 0.078748 0.000000
# 6 0.000000 0.000000 0.000000 0.000000 0.000000 0.029272
#
#
# Mechanical properties :
#
#
# Convention : Reuss Voigt Hill
#
# Bulk Modulus (GPa) = 40.65325 50.45381 45.55353
# Shear Modulus (GPa) = 21.99047 25.75497 23.87272
#
# Velocity S-wave (km/s) = 3.32345 3.59669 3.46277
# Velocity P-wave (km/s) = 5.92844 6.52611 6.23444
#
# Compressibility (1/GPa) = 0.02459828
#
# Stress axis : x y z
#
# Youngs Moduli (GPa) = 85.03221 43.28854 81.14072
#
# Poissons Ratio (x) = 0.16121 0.38610
# Poissons Ratio (y) = 0.31666 0.22809
# Poissons Ratio (z) = 0.40462 0.12169
#
# Static dielectric constant tensor:
#      x y z
#    x 3.770650 0.000000 0.000000 
#    y 0.000000 3.489370 0.000000 
#    z 0.000000 0.000000 3.702000 
# 
# 
# High freq. dielectric constant tensor:
#      x y z
#    x 1.779910 0.000000 0.000000 
#    y 0.000000 1.768440 0.000000 
#    z 0.000000 0.000000 1.779390 
# 
# From -- ./inp_files/10552.got.cif
#   From: 2010.03.12/outbox.cif.g09.slc.cpg/sg39_6_cif.got.tgz:10552.got - 2010.04.14 02:53:20.
