data_PCOD8180464
_publ_section_title
;
Structure prediction by ZEFSAII (Michael W. Deem and Ramdas Pophale) SiO2 
 PCOD8180464
Probable space group: A M M 2
;
_chemical_formula_sum "Si O2"
_cell_formula_units_Z 56
_cell_length_a 26.839034
_cell_length_b 26.321842
_cell_length_c 5.195735
_cell_angle_alpha 90.000000
_cell_angle_beta 90.000000
_cell_angle_gamma 90.000000
_cell_volume 3670.541603
_symmetry_space_group_name_H-M "A M M 2"
_symmetry_group_IT_number 38
_symmetry_cell_setting 'orthorhombic'
loop_
_space_group_symop_operation_xyz
x,y,z
-x,-y,z
-x,y,z
x,-y,z
x,1/2+y,1/2+z
-x,1/2-y,1/2+z
-x,1/2+y,1/2+z
x,1/2-y,1/2+z
loop_
_atom_site_type_symbol
_atom_site_label
_atom_site_fract_x
_atom_site_fract_y
_atom_site_fract_z
Si Si1 0.717290 0.060424 0.004330
Si Si2 0.604137 0.440274 0.532320
Si Si3 0.441409 0.605918 0.032206
Si Si4 0.226021 0.939375 0.503800
Si Si5 0.886575 0.060566 0.506957
Si Si6 0.559294 0.721379 0.000084
Si Si7 0.943735 0.060577 0.006940
O O1 0.660571 0.079550 0.004539
O O2 0.745951 0.082031 0.253024
O O3 0.718685 0.000000 0.009157
O O4 0.744947 0.081681 0.752345
O O5 0.600426 0.500000 0.485301
O O6 0.570616 0.412806 0.319177
O O7 0.585468 0.428346 0.819137
O O8 0.500000 0.601814 0.986770
O O9 0.422209 0.663475 0.002787
O O10 0.169705 0.918437 0.506694
O O11 0.225866 0.000000 0.504137
O O12 0.915080 0.081465 0.757157
O O13 0.886214 0.000000 0.506895
O O14 0.915214 0.081454 0.257125
O O15 0.500000 0.723208 0.004985
O O16 0.580694 0.749051 0.747578
O O17 0.000000 0.081675 0.006587
O O18 0.944172 0.000000 0.006846
#
# Coordination Sequence:
#
# PCOD8180464 Si02
#       7
#     8   8   8   8   8   8   8
#     4   9  17  28  40  52  68  93 122 154 191 225
#     4  11  22  34  46  62  87 116 142 166 196 240
#     4  11  22  34  49  68  87 110 139 166 196 240
#     4   9  15  24  37  50  62  79 112 155 191 221
#     4   9  15  21  30  43  56  73 101 138 176 216
#     4   9  17  31  50  69  87 105 128 163 203 237
#     4   9  15  21  27  37  56  79  99 123 166 226
#
# _framework density 15.256605
#
# number of rings (size 3 to 8) (size 9 to 14) (size 15 to 20)
#    0.000    2.429    0.000    3.857    0.000   11.429 
#    0.000    0.000    0.000    0.000    0.000    0.000 
#    0.000    0.000    0.000    0.000    0.000    0.000 
#
# Total GULP energy -347200.795576 kJ/mol
# GULP energy per Si atom -12400.028413 kJ/mol
# Density = 1.522188 g / cm^3
# Si number density = 15.256605 Si / 1000 Ang^3
#
#
#
# Elastic Constant Matrix: (Units=GPa)
#
#
# Indices 1 2 3 4 5 6 
#
# 1 93.1251 21.2973 42.2756 0.0000 0.0000 0.0000
# 2 21.2973 29.3389 15.3812 0.0000 0.0000 0.0000
# 3 42.2756 15.3812 128.1753 0.0000 0.0000 0.0000
# 4 0.0000 0.0000 0.0000 14.4087 0.0000 0.0000
# 5 0.0000 0.0000 0.0000 0.0000 31.5995 0.0000
# 6 0.0000 0.0000 0.0000 0.0000 0.0000 -0.0065
#
#
#
# Elastic Compliance Matrix: (Units=1/GPa)
#
#
# Indices 1 2 3 4 5 6 
#
# 1 0.014366 -0.008478 -0.003721 0.000000 0.000000 0.000000
# 2 -0.008478 0.041376 -0.002169 0.000000 0.000000 0.000000
# 3 -0.003721 -0.002169 0.009289 0.000000 0.000000 0.000000
# 4 0.000000 0.000000 0.000000 0.069402 0.000000 0.000000
# 5 0.000000 0.000000 0.000000 0.000000 0.031646 0.000000
# 6 0.000000 0.000000 0.000000 0.000000 0.000000**********
#
#
# Mechanical properties :
#
#
# Convention : Reuss Voigt Hill
#
# Bulk Modulus (GPa) = 27.55140 45.39416 36.47278
# Shear Modulus (GPa) = -0.03268 20.64603 10.30668
#
# Velocity S-wave (km/s) = -0.14651 3.68265 2.60196
# Velocity P-wave (km/s) = 4.25079 6.92105 5.74326
#
# Compressibility (1/GPa) = 0.03629580
#
# Stress axis : x y z
#
# Youngs Moduli (GPa) = 69.60732 24.16881 107.64978
#
# Poissons Ratio (x) = 0.20490 0.40057
# Poissons Ratio (y) = 0.59012 0.23349
# Poissons Ratio (z) = 0.25901 0.05242
#
# Static dielectric constant tensor:
#      x y z
#    x 3.004070 0.000000 0.000000 
#    y 0.000000 2.365670 0.000000 
#    z 0.000000 0.000000 3.172790 
# 
# 
# High freq. dielectric constant tensor:
#      x y z
#    x 1.583880 0.000000 0.000000 
#    y 0.000000 1.500820 0.000000 
#    z 0.000000 0.000000 1.611220 
# 
# From -- ./inp_files/2117.got.cif
#   From: 2010.03.12/outbox.cif.g09.slc.cpg/sg38_2_cif.got.tgz:2117.got - 2010.04.14 02:38:36.
