data_PCOD8180053
_publ_section_title
;
Structure prediction by ZEFSAII (Michael W. Deem and Ramdas Pophale) SiO2 
 PCOD8180053
Probable space group: A M M 2
;
_chemical_formula_sum "Si O2"
_cell_formula_units_Z 48
_cell_length_a 8.784884
_cell_length_b 20.356251
_cell_length_c 14.456589
_cell_angle_alpha 90.000000
_cell_angle_beta 90.000000
_cell_angle_gamma 90.000000
_cell_volume 2585.232832
_symmetry_space_group_name_H-M "A M M 2"
_symmetry_group_IT_number 38
_symmetry_cell_setting 'orthorhombic'
loop_
_space_group_symop_operation_xyz
x,y,z
-x,-y,z
-x,y,z
x,-y,z
x,1/2+y,1/2+z
-x,1/2-y,1/2+z
-x,1/2+y,1/2+z
x,1/2-y,1/2+z
loop_
_atom_site_type_symbol
_atom_site_label
_atom_site_fract_x
_atom_site_fract_y
_atom_site_fract_z
Si Si1 0.679343 0.772177 0.643920
Si Si2 0.180793 0.572951 0.829715
Si Si3 0.178671 0.131899 0.136354
Si Si4 0.819832 0.185368 0.464477
Si Si5 0.322455 0.698680 0.350051
Si Si6 0.674165 0.573566 0.464159
O O1 0.500000 0.777589 0.634816
O O2 0.730133 0.698657 0.621905
O O3 0.753557 0.819966 0.567746
O O4 0.736273 0.794367 0.745019
O O5 0.246725 0.500000 0.848519
O O6 0.236915 0.597547 0.729846
O O7 0.242675 0.622601 0.907689
O O8 0.000000 0.571230 0.830792
O O9 0.000000 0.147399 0.139903
O O10 0.216065 0.084219 0.051427
O O11 0.768611 0.252144 0.415329
O O12 0.000000 0.185189 0.469186
O O13 0.500000 0.716430 0.357286
O O14 0.287562 0.624405 0.382051
O O15 0.500000 0.582995 0.496901
O O16 0.701924 0.500000 0.425789
#
# Coordination Sequence:
#
# PCOD8180053 Si02
#       6
#     8   8   8   8   8   8
#     4  11  22  36  55  82 115 148 186 228 278 329
#     4   9  19  35  54  80 115 148 179 223 280 332
#     4  11  20  33  56  85 114 144 183 230 281 330
#     4  11  21  35  58  84 110 144 187 232 275 326
#     4  10  21  37  57  79 110 149 184 227 274 328
#     4  10  21  37  56  81 113 149 185 225 281 338
#
# _framework density 18.566993
#
# number of rings (size 3 to 8) (size 9 to 14) (size 15 to 20)
#    0.000    1.667    3.333    2.000    0.000    1.667 
#    0.000    0.833    0.000    6.000    0.000    0.000 
#    0.000    0.000    0.000    0.000    0.000    0.000 
#
# Total GULP energy -297667.989121 kJ/mol
# GULP energy per Si atom -12402.832880 kJ/mol
# Density = 1.852473 g / cm^3
# Si number density = 18.566993 Si / 1000 Ang^3
#
#
#
# Elastic Constant Matrix: (Units=GPa)
#
#
# Indices 1 2 3 4 5 6 
#
# 1 41.4933 15.1877 27.2657 0.0000 0.0000 0.0000
# 2 15.1877 113.9445 45.1505 0.0000 0.0000 0.0000
# 3 27.2657 45.1505 122.9493 0.0000 0.0000 0.0000
# 4 0.0000 0.0000 0.0000 32.5821 0.0000 0.0000
# 5 0.0000 0.0000 0.0000 0.0000 28.0881 0.0000
# 6 0.0000 0.0000 0.0000 0.0000 0.0000 15.5974
#
#
#
# Elastic Compliance Matrix: (Units=1/GPa)
#
#
# Indices 1 2 3 4 5 6 
#
# 1 0.028432 -0.001511 -0.005750 0.000000 0.000000 0.000000
# 2 -0.001511 0.010351 -0.003466 0.000000 0.000000 0.000000
# 3 -0.005750 -0.003466 0.010681 0.000000 0.000000 0.000000
# 4 0.000000 0.000000 0.000000 0.030692 0.000000 0.000000
# 5 0.000000 0.000000 0.000000 0.000000 0.035602 0.000000
# 6 0.000000 0.000000 0.000000 0.000000 0.000000 0.064113
#
#
# Mechanical properties :
#
#
# Convention : Reuss Voigt Hill
#
# Bulk Modulus (GPa) = 35.70220 50.39946 43.05083
# Shear Modulus (GPa) = 23.73457 27.97240 25.85349
#
# Velocity S-wave (km/s) = 3.57924 3.88566 3.73559
# Velocity P-wave (km/s) = 6.02925 6.88002 6.46864
#
# Compressibility (1/GPa) = 0.02800948
#
# Stress axis : x y z
#
# Youngs Moduli (GPa) = 35.17171 96.60845 93.62000
#
# Poissons Ratio (x) = 0.14599 0.53834
# Poissons Ratio (y) = 0.05315 0.32449
# Poissons Ratio (z) = 0.20225 0.33485
#
# Static dielectric constant tensor:
#      x y z
#    x 3.271500 0.000000 0.000000 
#    y 0.000000 3.543910 0.000000 
#    z 0.000000 0.000000 3.638350 
# 
# 
# High freq. dielectric constant tensor:
#      x y z
#    x 1.708770 0.000000 0.000000 
#    y 0.000000 1.717630 0.000000 
#    z 0.000000 0.000000 1.724230 
# 
# From -- ./inp_files/12031.got.cif
#   From: 2010.03.12/outbox.cif.g09.slc.cpg/sg38_7_cif.got.tgz:12031.got - 2010.04.14 02:38:36.
