data_PCOD8180201
_publ_section_title
;
Structure prediction by ZEFSAII (Michael W. Deem and Ramdas Pophale) SiO2 
 PCOD8180201
Probable space group: A M M 2
;
_chemical_formula_sum "Si O2"
_cell_formula_units_Z 64
_cell_length_a 17.494143
_cell_length_b 14.425697
_cell_length_c 12.092242
_cell_angle_alpha 90.000000
_cell_angle_beta 90.000000
_cell_angle_gamma 90.000000
_cell_volume 3051.661146
_symmetry_space_group_name_H-M "A M M 2"
_symmetry_group_IT_number 38
_symmetry_cell_setting 'orthorhombic'
loop_
_space_group_symop_operation_xyz
x,y,z
-x,-y,z
-x,y,z
x,-y,z
x,1/2+y,1/2+z
-x,1/2-y,1/2+z
-x,1/2+y,1/2+z
x,1/2-y,1/2+z
loop_
_atom_site_type_symbol
_atom_site_label
_atom_site_fract_x
_atom_site_fract_y
_atom_site_fract_z
Si Si1 0.588150 0.710267 0.859080
Si Si2 0.853619 0.396142 0.025671
Si Si3 0.306320 0.893872 0.198946
Si Si4 0.141977 0.897140 0.277367
Si Si5 0.343916 0.394504 0.303583
Si Si6 0.085374 0.211525 0.079384
Si Si7 0.678161 0.393572 0.045671
Si Si8 0.777529 0.393289 0.479588
O O1 0.500000 0.682856 0.858546
O O2 0.626545 0.669301 0.747962
O O3 0.596653 0.822008 0.856405
O O4 0.624689 0.670472 0.970986
O O5 0.864171 0.500000 0.075149
O O6 0.887204 0.390691 0.902026
O O7 0.901110 0.321668 0.095314
O O8 0.765406 0.366956 0.024231
O O9 0.232285 0.875507 0.274911
O O10 0.333694 0.000000 0.205145
O O11 0.285170 0.865248 0.073112
O O12 0.128983 0.000000 0.228962
O O13 0.093602 0.828663 0.201932
O O14 0.371112 0.500000 0.328959
O O15 0.339039 0.376162 0.173798
O O16 0.260290 0.377565 0.359376
O O17 0.146132 0.168430 0.992365
O O18 0.000000 0.192258 0.035239
O O19 0.662711 0.500000 0.012220
O O20 0.801557 0.500000 0.497557
#
# Coordination Sequence:
#
# PCOD8180201 Si02
#       8
#     8   8   8   8   8   8   8   8
#     4  12  25  37  63  98 128 161 203 263 326 368
#     4  10  21  38  62  89 119 163 212 259 307 366
#     4   9  18  36  62  91 123 157 201 258 309 362
#     4   9  19  38  63  86 115 161 210 253 306 373
#     4  10  24  44  64  89 125 173 216 252 307 383
#     4  11  23  35  57  95 131 163 202 259 325 377
#     4  10  22  42  67  93 122 161 215 266 311 372
#     4   9  20  40  66  91 121 165 215 262 307 369
#
# _framework density 20.972183999999999
#
# number of rings (size 3 to 8) (size 9 to 14) (size 15 to 20)
#    0.000    2.000    1.250    2.250    5.250    3.500 
#    0.000    2.500    0.000    3.000    0.000    7.000 
#    0.000    0.000    0.000    0.000    0.000    0.000 
#
# Total GULP energy -396783.975994 kJ/mol
# GULP energy per Si atom -12399.499250 kJ/mol
# Density = 2.092445 g / cm^3
# Si number density = 20.972184 Si / 1000 Ang^3
#
#
#
# Elastic Constant Matrix: (Units=GPa)
#
#
# Indices 1 2 3 4 5 6 
#
# 1 118.8804 65.2455 39.4693 0.0000 0.0000 0.0000
# 2 65.2455 119.0054 45.4763 0.0000 0.0000 0.0000
# 3 39.4693 45.4763 73.4043 0.0000 0.0000 0.0000
# 4 0.0000 0.0000 0.0000 31.0216 0.0000 0.0000
# 5 0.0000 0.0000 0.0000 0.0000 13.7791 0.0000
# 6 0.0000 0.0000 0.0000 0.0000 0.0000 10.0964
#
#
#
# Elastic Compliance Matrix: (Units=1/GPa)
#
#
# Indices 1 2 3 4 5 6 
#
# 1 0.012604 -0.005661 -0.003270 0.000000 0.000000 0.000000
# 2 -0.005661 0.013552 -0.005352 0.000000 0.000000 0.000000
# 3 -0.003270 -0.005352 0.018697 0.000000 0.000000 0.000000
# 4 0.000000 0.000000 0.000000 0.032236 0.000000 0.000000
# 5 0.000000 0.000000 0.000000 0.000000 0.072574 0.000000
# 6 0.000000 0.000000 0.000000 0.000000 0.000000 0.099045
#
#
# Mechanical properties :
#
#
# Convention : Reuss Voigt Hill
#
# Bulk Modulus (GPa) = 61.39723 67.96359 64.68041
# Shear Modulus (GPa) = 17.68639 21.71935 19.70287
#
# Velocity S-wave (km/s) = 2.90716 3.22161 3.06841
# Velocity P-wave (km/s) = 6.37243 6.80553 6.59254
#
# Compressibility (1/GPa) = 0.01628738
#
# Stress axis : x y z
#
# Youngs Moduli (GPa) = 79.33744 73.79164 53.48348
#
# Poissons Ratio (x) = 0.41771 0.17491
# Poissons Ratio (y) = 0.44911 0.28624
# Poissons Ratio (z) = 0.25946 0.39493
#
# Static dielectric constant tensor:
#      x y z
#    x 3.421000 0.000000 0.000000 
#    y 0.000000 4.017440 0.000000 
#    z 0.000000 0.000000 3.782790 
# 
# 
# High freq. dielectric constant tensor:
#      x y z
#    x 1.786100 0.000000 0.000000 
#    y 0.000000 1.837600 0.000000 
#    z 0.000000 0.000000 1.816200 
# 
# From -- ./inp_files/10600.got.cif
#   From: 2010.03.12/outbox.cif.g09.slc.cpg/sg38_6_cif.got.tgz:10600.got - 2010.04.14 02:38:36.
