data_PCOD8180639
_publ_section_title
;
Structure prediction by ZEFSAII (Michael W. Deem and Ramdas Pophale) SiO2 
 PCOD8180639
Probable space group: A B M 2
;
_chemical_formula_sum "Si O2"
_cell_formula_units_Z 56
_cell_length_a 19.715038
_cell_length_b 8.945871
_cell_length_c 15.548686
_cell_angle_alpha 90.000000
_cell_angle_beta 90.000000
_cell_angle_gamma 90.000000
_cell_volume 2742.293556
_symmetry_space_group_name_H-M "A B M 2"
_symmetry_group_IT_number 39
_symmetry_cell_setting 'orthorhombic'
loop_
_space_group_symop_operation_xyz
x,y,z
-x,-y,z
-x,1/2+y,z
x,1/2-y,z
x,1/2+y,1/2+z
-x,1/2-y,1/2+z
-x,y,1/2+z
x,-y,1/2+z
loop_
_atom_site_type_symbol
_atom_site_label
_atom_site_fract_x
_atom_site_fract_y
_atom_site_fract_z
Si Si1 0.936946 0.424214 0.884530
Si Si2 0.800385 0.922963 0.570181
Si Si3 0.572893 0.573156 0.974995
Si Si4 0.660099 0.923732 0.815883
Si Si5 0.652041 0.578149 0.625061
Si Si6 0.211439 0.079030 0.374466
Si Si7 0.933424 0.927374 0.070264
O O1 0.951562 0.250000 0.902935
O O2 0.864886 0.442976 0.835985
O O3 0.000000 0.500000 0.831931
O O4 0.932044 0.514898 0.972877
O O5 0.822215 0.750000 0.569648
O O6 0.732544 0.952612 0.624149
O O7 0.785897 0.977127 0.472880
O O8 0.862508 0.016601 0.612459
O O9 0.500000 0.500000 0.976861
O O10 0.564536 0.750000 0.971498
O O11 0.612437 0.509679 0.891124
O O12 0.613004 0.530395 0.061024
O O13 0.668250 0.750000 0.831522
O O14 0.627361 0.956797 0.722371
O O15 0.735769 0.988153 0.817894
O O16 0.636897 0.750000 0.599297
O O17 0.234123 0.250000 0.370285
O O18 0.938046 0.750000 0.076783
O O19 0.000000 0.000000 0.116299
#
# Coordination Sequence:
#
# PCOD8180639 Si02
#       7
#     8   8   8   8   8   8   8
#     4   9  16  26  41  68 103 143 191 238 289 342
#     4   9  17  31  52  76 107 148 191 235 286 341
#     4  11  24  42  64  92 122 153 190 232 280 339
#     4  10  22  38  60  90 120 151 193 237 283 340
#     4  10  21  40  63  88 120 156 193 237 287 340
#     4   9  17  30  51  78 109 150 193 237 288 343
#     4  10  17  25  41  68 104 143 188 240 290 342
#
# _framework density 20.420863000000001
#
# number of rings (size 3 to 8) (size 9 to 14) (size 15 to 20)
#    0.000    2.286    1.429    3.857    0.000    5.143 
#    0.000    1.429    0.000    0.857    0.000    2.000 
#    0.000    0.000    0.000    0.000    0.000    0.000 
#
# Total GULP energy -347057.199836 kJ/mol
# GULP energy per Si atom -12394.899994 kJ/mol
# Density = 2.037438 g / cm^3
# Si number density = 20.420863 Si / 1000 Ang^3
#
#
#
# Elastic Constant Matrix: (Units=GPa)
#
#
# Indices 1 2 3 4 5 6 
#
# 1 126.7483 54.5694 42.7409 0.0000 0.0000 0.0000
# 2 54.5694 94.5736 31.5327 0.0000 0.0000 0.0000
# 3 42.7409 31.5327 76.9221 0.0000 0.0000 0.0000
# 4 0.0000 0.0000 0.0000 18.5437 0.0000 0.0000
# 5 0.0000 0.0000 0.0000 0.0000 5.1877 0.0000
# 6 0.0000 0.0000 0.0000 0.0000 0.0000 38.8369
#
#
#
# Elastic Compliance Matrix: (Units=1/GPa)
#
#
# Indices 1 2 3 4 5 6 
#
# 1 0.011602 -0.005265 -0.004289 0.000000 0.000000 0.000000
# 2 -0.005265 0.014637 -0.003075 0.000000 0.000000 0.000000
# 3 -0.004289 -0.003075 0.016643 0.000000 0.000000 0.000000
# 4 0.000000 0.000000 0.000000 0.053927 0.000000 0.000000
# 5 0.000000 0.000000 0.000000 0.000000 0.192765 0.000000
# 6 0.000000 0.000000 0.000000 0.000000 0.000000 0.025749
#
#
# Mechanical properties :
#
#
# Convention : Reuss Voigt Hill
#
# Bulk Modulus (GPa) = 56.73269 61.76998 59.25133
# Shear Modulus (GPa) = 14.43189 23.80706 19.11948
#
# Velocity S-wave (km/s) = 2.66131 3.41812 3.06318
# Velocity P-wave (km/s) = 6.10618 6.77437 6.44894
#
# Compressibility (1/GPa) = 0.01762652
#
# Stress axis : x y z
#
# Youngs Moduli (GPa) = 86.18850 68.32121 60.08354
#
# Poissons Ratio (x) = 0.35970 0.25767
# Poissons Ratio (y) = 0.45376 0.18474
# Poissons Ratio (z) = 0.36963 0.21007
#
# Static dielectric constant tensor:
#      x y z
#    x 4.217260 0.000000 0.000000 
#    y 0.000000 3.631620 0.000000 
#    z 0.000000 0.000000 3.402260 
# 
# 
# High freq. dielectric constant tensor:
#      x y z
#    x 1.810200 0.000000 0.000000 
#    y 0.000000 1.792400 0.000000 
#    z 0.000000 0.000000 1.763000 
# 
# From -- ./inp_files/10373.got.cif
#   From: 2010.03.12/outbox.cif.g09.slc.cpg/sg39_6_cif.got.tgz:10373.got - 2010.04.14 02:53:20.
