data_PCOD8180979
_publ_section_title
;
Structure prediction by ZEFSAII (Michael W. Deem and Ramdas Pophale) SiO2 
 PCOD8180979
Probable space group: A B M 2
;
_chemical_formula_sum "Si O2"
_cell_formula_units_Z 40
_cell_length_a 13.978561
_cell_length_b 8.844504
_cell_length_c 20.065641
_cell_angle_alpha 90.000000
_cell_angle_beta 90.000000
_cell_angle_gamma 90.000000
_cell_volume 2480.784196
_symmetry_space_group_name_H-M "A B M 2"
_symmetry_group_IT_number 39
_symmetry_cell_setting 'orthorhombic'
loop_
_space_group_symop_operation_xyz
x,y,z
-x,-y,z
-x,1/2+y,z
x,1/2-y,z
x,1/2+y,1/2+z
-x,1/2-y,1/2+z
-x,y,1/2+z
x,-y,1/2+z
loop_
_atom_site_type_symbol
_atom_site_label
_atom_site_fract_x
_atom_site_fract_y
_atom_site_fract_z
Si Si1 0.599644 0.427361 0.417860
Si Si2 0.716970 0.421251 0.654717
Si Si3 0.266738 0.570708 0.023081
Si Si4 0.598810 0.926288 0.763717
Si Si5 0.098973 0.421180 0.084120
O O1 0.500000 0.500000 0.441303
O O2 0.596319 0.250000 0.432663
O O3 0.685829 0.504342 0.457083
O O4 0.618677 0.463320 0.340591
O O5 0.677649 0.250000 0.654357
O O6 0.676900 0.508161 0.588744
O O7 0.685771 0.504728 0.721731
O O8 0.833436 0.423041 0.650335
O O9 0.269772 0.750000 0.021530
O O10 0.156318 0.511507 0.025787
O O11 0.592164 0.750000 0.750019
O O12 0.500000 0.000000 0.739429
O O13 0.080305 0.250000 0.060056
O O14 0.000000 0.500000 0.101999
#
# Coordination Sequence:
#
# PCOD8180979 Si02
#       5
#     8   8   8   8   8
#     4  10  20  34  50  72 101 134 169 204 245 294
#     4   9  19  33  50  74 101 128 164 207 245 290
#     4  10  19  32  51  75 100 130 166 206 247 290
#     4  10  20  33  51  72 100 135 168 203 244 294
#     4   9  18  32  52  76 100 128 160 203 250 297
#
# _framework density 16.123933999999998
#
# number of rings (size 3 to 8) (size 9 to 14) (size 15 to 20)
#    1.200    1.200    0.000    3.600    0.000    3.200 
#    0.000    4.000    0.000    1.200    0.000    2.800 
#    0.000    0.000    0.000    0.000    0.000    0.000 
#
# Total GULP energy -247872.874809 kJ/mol
# GULP energy per Si atom -12393.643740 kJ/mol
# Density = 1.608724 g / cm^3
# Si number density = 16.123934 Si / 1000 Ang^3
#
#
#
# Elastic Constant Matrix: (Units=GPa)
#
#
# Indices 1 2 3 4 5 6 
#
# 1 93.6678 52.4778 47.4727 0.0000 0.0000 0.0000
# 2 52.4778 137.0333 52.1956 0.0000 0.0000 0.0000
# 3 47.4727 52.1956 68.4270 0.0000 0.0000 0.0000
# 4 0.0000 0.0000 0.0000 29.4534 0.0000 0.0000
# 5 0.0000 0.0000 0.0000 0.0000 13.2520 0.0000
# 6 0.0000 0.0000 0.0000 0.0000 0.0000 32.5008
#
#
#
# Elastic Compliance Matrix: (Units=1/GPa)
#
#
# Indices 1 2 3 4 5 6 
#
# 1 0.017238 -0.002884 -0.009759 0.000000 0.000000 0.000000
# 2 -0.002884 0.010769 -0.006213 0.000000 0.000000 0.000000
# 3 -0.009759 -0.006213 0.026124 0.000000 0.000000 0.000000
# 4 0.000000 0.000000 0.000000 0.033952 0.000000 0.000000
# 5 0.000000 0.000000 0.000000 0.000000 0.075460 0.000000
# 6 0.000000 0.000000 0.000000 0.000000 0.000000 0.030769
#
#
# Mechanical properties :
#
#
# Convention : Reuss Voigt Hill
#
# Bulk Modulus (GPa) = 60.91045 67.04671 63.97858
# Shear Modulus (GPa) = 21.05284 24.84005 22.94645
#
# Velocity S-wave (km/s) = 3.61735 3.92927 3.77653
# Velocity P-wave (km/s) = 7.43676 7.89037 7.66692
#
# Compressibility (1/GPa) = 0.01641754
#
# Stress axis : x y z
#
# Youngs Moduli (GPa) = 58.01116 92.86244 38.27868
#
# Poissons Ratio (x) = 0.26783 0.37357
# Poissons Ratio (y) = 0.16731 0.23784
# Poissons Ratio (z) = 0.56615 0.57698
#
# Static dielectric constant tensor:
#      x y z
#    x 2.874510 0.000000 0.000000 
#    y 0.000000 3.193790 0.000000 
#    z 0.000000 0.000000 2.861690 
# 
# 
# High freq. dielectric constant tensor:
#      x y z
#    x 1.601190 0.000000 0.000000 
#    y 0.000000 1.644970 0.000000 
#    z 0.000000 0.000000 1.597810 
# 
# From -- ./inp_files/14358.got.cif
#   From: 2010.03.12/outbox.cif.g09.slc.cpg/sg39_8_cif.got.tgz:14358.got - 2010.04.14 02:53:20.
