data_PCOD8180601
_publ_section_title
;
Structure prediction by ZEFSAII (Michael W. Deem and Ramdas Pophale) SiO2 
 PCOD8180601
Probable space group: A B M 2
;
_chemical_formula_sum "Si O2"
_cell_formula_units_Z 60
_cell_length_a 33.325290
_cell_length_b 18.510639
_cell_length_c 5.216755
_cell_angle_alpha 90.000000
_cell_angle_beta 90.000000
_cell_angle_gamma 90.000000
_cell_volume 3218.072244
_symmetry_space_group_name_H-M "A B M 2"
_symmetry_group_IT_number 39
_symmetry_cell_setting 'orthorhombic'
loop_
_space_group_symop_operation_xyz
x,y,z
-x,-y,z
-x,1/2+y,z
x,1/2-y,z
x,1/2+y,1/2+z
-x,1/2-y,1/2+z
-x,y,1/2+z
x,-y,1/2+z
loop_
_atom_site_type_symbol
_atom_site_label
_atom_site_fract_x
_atom_site_fract_y
_atom_site_fract_z
Si Si1 0.916591 0.668690 0.149370
Si Si2 0.196722 0.544872 0.102264
Si Si3 0.709787 0.545654 0.607266
Si Si4 0.526227 0.250000 0.630512
Si Si5 0.955474 0.470038 0.536745
Si Si6 0.645064 0.663084 0.601911
Si Si7 0.134188 0.667769 0.146782
Si Si8 0.603086 0.670354 0.102009
O O1 0.933551 0.750000 0.138954
O O2 0.954225 0.615210 0.099448
O O3 0.898115 0.650214 0.425577
O O4 0.884063 0.654982 0.927970
O O5 0.184590 0.504433 0.842326
O O6 0.243421 0.564626 0.107538
O O7 0.173332 0.619735 0.114227
O O8 0.697667 0.499501 0.358421
O O9 0.687732 0.623095 0.605984
O O10 0.493055 0.250000 0.411157
O O11 0.554329 0.178217 0.605716
O O12 0.933082 0.486828 0.267301
O O13 0.000000 0.500000 0.482900
O O14 0.650956 0.750000 0.601835
O O15 0.619925 0.632937 0.358069
O O16 0.618853 0.633519 0.842366
O O17 0.148653 0.750000 0.115690
O O18 0.622675 0.750000 0.102937
#
# Coordination Sequence:
#
# PCOD8180601 Si02
#       8
#     8   8   8   4   8   8   8   8
#     4  10  21  37  56  80 108 140 171 213 264 310
#     4  10  21  36  53  77 107 139 174 218 265 306
#     4  10  21  35  51  74 105 138 178 218 258 313
#     4  10  16  26  44  70 110 140 158 208 286 328
#     4  10  21  37  55  80 108 135 174 217 253 307
#     4  10  17  32  50  70  99 138 168 216 259 300
#     4  10  21  36  56  81 109 138 177 220 258 314
#     4   8  17  27  43  70 100 131 163 214 253 318
#
# _framework density 18.644701000000001
#
# number of rings (size 3 to 8) (size 9 to 14) (size 15 to 20)
#    0.400    1.867    0.000    3.200    0.000    3.733 
#    0.000    2.667    0.000    9.600    0.000    0.000 
#    0.000   37.333    0.000    0.000    0.000    0.000 
#
# Total GULP energy -371775.909542 kJ/mol
# GULP energy per Si atom -12392.530318 kJ/mol
# Density = 1.860226 g / cm^3
# Si number density = 18.644701 Si / 1000 Ang^3
#
#
#
# Elastic Constant Matrix: (Units=GPa)
#
#
# Indices 1 2 3 4 5 6 
#
# 1 62.0489 40.5136 12.4854 0.0000 0.0000 0.0000
# 2 40.5136 70.0149 14.4880 0.0000 0.0000 0.0000
# 3 12.4854 14.4880 132.1933 0.0000 0.0000 0.0000
# 4 0.0000 0.0000 0.0000 20.5684 0.0000 0.0000
# 5 0.0000 0.0000 0.0000 0.0000 7.8940 0.0000
# 6 0.0000 0.0000 0.0000 0.0000 0.0000 30.2857
#
#
#
# Elastic Compliance Matrix: (Units=1/GPa)
#
#
# Indices 1 2 3 4 5 6 
#
# 1 0.025990 -0.014868 -0.000825 0.000000 0.000000 0.000000
# 2 -0.014868 0.023120 -0.001130 0.000000 0.000000 0.000000
# 3 -0.000825 -0.001130 0.007766 0.000000 0.000000 0.000000
# 4 0.000000 0.000000 0.000000 0.048618 0.000000 0.000000
# 5 0.000000 0.000000 0.000000 0.000000 0.126678 0.000000
# 6 0.000000 0.000000 0.000000 0.000000 0.000000 0.033019
#
#
# Mechanical properties :
#
#
# Convention : Reuss Voigt Hill
#
# Bulk Modulus (GPa) = 43.04713 44.35899 43.70306
# Shear Modulus (GPa) = 16.30887 24.86764 20.58826
#
# Velocity S-wave (km/s) = 2.96077 3.65604 3.32662
# Velocity P-wave (km/s) = 5.90140 6.45488 6.18434
#
# Compressibility (1/GPa) = 0.02323035
#
# Stress axis : x y z
#
# Youngs Moduli (GPa) = 38.47575 43.25281 128.75944
#
# Poissons Ratio (x) = 0.64310 0.10626
# Poissons Ratio (y) = 0.57207 0.14544
# Poissons Ratio (z) = 0.03175 0.04886
#
# Static dielectric constant tensor:
#      x y z
#    x 3.216010 0.000000 0.000000 
#    y 0.000000 3.229040 0.000000 
#    z 0.000000 0.000000 4.072900 
# 
# 
# High freq. dielectric constant tensor:
#      x y z
#    x 1.698730 0.000000 0.000000 
#    y 0.000000 1.698780 0.000000 
#    z 0.000000 0.000000 1.759330 
# 
# From -- ./inp_files/1422.got.cif
#   From: 2010.03.12/outbox.cif.g09.slc.cpg/sg39_1_cif.got.tgz:1422.got - 2010.04.14 02:53:20.
