data_PCOD8180120
_publ_section_title
;
Structure prediction by ZEFSAII (Michael W. Deem and Ramdas Pophale) SiO2 
 PCOD8180120
Probable space group: A M M 2
;
_chemical_formula_sum "Si O2"
_cell_formula_units_Z 48
_cell_length_a 9.322578
_cell_length_b 17.026565
_cell_length_c 16.388761
_cell_angle_alpha 90.000000
_cell_angle_beta 90.000000
_cell_angle_gamma 90.000000
_cell_volume 2601.412294
_symmetry_space_group_name_H-M "A M M 2"
_symmetry_group_IT_number 38
_symmetry_cell_setting 'orthorhombic'
loop_
_space_group_symop_operation_xyz
x,y,z
-x,-y,z
-x,y,z
x,-y,z
x,1/2+y,1/2+z
-x,1/2-y,1/2+z
-x,1/2+y,1/2+z
x,1/2-y,1/2+z
loop_
_atom_site_type_symbol
_atom_site_label
_atom_site_fract_x
_atom_site_fract_y
_atom_site_fract_z
Si Si1 0.666586 0.657727 0.662140
Si Si2 0.834373 0.192745 0.633004
Si Si3 0.167355 0.000000 0.905966
Si Si4 0.165747 0.591461 0.978475
Si Si5 0.668286 0.189397 0.347967
Si Si6 0.669387 0.500000 0.574574
Si Si7 0.833131 0.659040 0.316223
O O1 0.500000 0.671214 0.646096
O O2 0.747854 0.727622 0.615917
O O3 0.702554 0.657587 0.757836
O O4 0.720074 0.575640 0.625436
O O5 0.793250 0.129292 0.565112
O O6 0.794053 0.155926 0.720539
O O7 0.000000 0.215769 0.629198
O O8 0.210514 0.075740 0.853450
O O9 0.000000 0.000000 0.927579
O O10 0.256055 0.000000 0.988021
O O11 0.198826 0.500000 0.985861
O O12 0.266290 0.626484 0.909136
O O13 0.000000 0.607531 0.956182
O O14 0.500000 0.198131 0.364246
O O15 0.741787 0.273923 0.361638
O O16 0.500000 0.500000 0.561213
O O17 0.000000 0.678085 0.330145
#
# Coordination Sequence:
#
# PCOD8180120 Si02
#       7
#     8   8   4   8   8   4   8
#     4   9  20  38  58  79 107 145 185 225 273 325
#     4   9  19  36  59  82 108 144 182 222 272 327
#     4  10  22  36  56  85 112 142 182 227 270 324
#     4  10  22  37  56  84 115 144 180 225 273 324
#     4  10  21  37  59  82 109 146 186 225 273 327
#     4  10  22  38  56  79 110 146 182 225 274 324
#     4   9  19  37  59  82 111 144 182 226 274 324
#
# _framework density 18.451515000000001
#
# number of rings (size 3 to 8) (size 9 to 14) (size 15 to 20)
#    0.000    2.500    0.000    0.500    4.667    3.000 
#    0.000    0.000    0.000    0.000    0.000    0.000 
#    0.000    0.000    0.000    0.000    0.000    0.000 
#
# Total GULP energy -297691.637405 kJ/mol
# GULP energy per Si atom -12403.818225 kJ/mol
# Density = 1.840952 g / cm^3
# Si number density = 18.451515 Si / 1000 Ang^3
#
#
#
# Elastic Constant Matrix: (Units=GPa)
#
#
# Indices 1 2 3 4 5 6 
#
# 1 63.9958 68.9396 51.5880 0.0000 0.0000 0.0000
# 2 68.9396 181.7776 84.0503 0.0000 0.0000 0.0000
# 3 51.5880 84.0503 96.9060 0.0000 0.0000 0.0000
# 4 0.0000 0.0000 0.0000 36.6213 0.0000 0.0000
# 5 0.0000 0.0000 0.0000 0.0000 31.7515 0.0000
# 6 0.0000 0.0000 0.0000 0.0000 0.0000 25.1514
#
#
#
# Elastic Compliance Matrix: (Units=1/GPa)
#
#
# Indices 1 2 3 4 5 6 
#
# 1 0.032096 -0.007133 -0.010900 0.000000 0.000000 0.000000
# 2 -0.007133 0.010770 -0.005544 0.000000 0.000000 0.000000
# 3 -0.010900 -0.005544 0.020930 0.000000 0.000000 0.000000
# 4 0.000000 0.000000 0.000000 0.027307 0.000000 0.000000
# 5 0.000000 0.000000 0.000000 0.000000 0.031495 0.000000
# 6 0.000000 0.000000 0.000000 0.000000 0.000000 0.039759
#
#
# Mechanical properties :
#
#
# Convention : Reuss Voigt Hill
#
# Bulk Modulus (GPa) = 60.08471 83.53725 71.81098
# Shear Modulus (GPa) = 23.24955 27.91163 25.58059
#
# Velocity S-wave (km/s) = 3.55355 3.89357 3.72744
# Velocity P-wave (km/s) = 7.03358 8.09848 7.58474
#
# Compressibility (1/GPa) = 0.01664317
#
# Stress axis : x y z
#
# Youngs Moduli (GPa) = 31.15605 92.85332 47.77739
#
# Poissons Ratio (x) = 0.66229 0.52078
# Poissons Ratio (y) = 0.22223 0.26487
# Poissons Ratio (z) = 0.33961 0.51477
#
# Static dielectric constant tensor:
#      x y z
#    x 3.361550 0.000000 0.000000 
#    y 0.000000 3.528480 0.000000 
#    z 0.000000 0.000000 3.457600 
# 
# 
# High freq. dielectric constant tensor:
#      x y z
#    x 1.710550 0.000000 0.000000 
#    y 0.000000 1.724300 0.000000 
#    z 0.000000 0.000000 1.720050 
# 
# From -- ./inp_files/12053.got.cif
#   From: 2010.03.12/outbox.cif.g09.slc.cpg/sg38_7_cif.got.tgz:12053.got - 2010.04.14 02:38:36.
