data_PCOD8180683
_publ_section_title
;
Structure prediction by ZEFSAII (Michael W. Deem and Ramdas Pophale) SiO2 
 PCOD8180683
Probable space group: A B M 2
;
_chemical_formula_sum "Si O2"
_cell_formula_units_Z 56
_cell_length_a 16.544094
_cell_length_b 18.009820
_cell_length_c 8.843842
_cell_angle_alpha 90.000000
_cell_angle_beta 90.000000
_cell_angle_gamma 90.000000
_cell_volume 2635.077158
_symmetry_space_group_name_H-M "A B M 2"
_symmetry_group_IT_number 39
_symmetry_cell_setting 'orthorhombic'
loop_
_space_group_symop_operation_xyz
x,y,z
-x,-y,z
-x,1/2+y,z
x,1/2-y,z
x,1/2+y,1/2+z
-x,1/2-y,1/2+z
-x,y,1/2+z
x,-y,1/2+z
loop_
_atom_site_type_symbol
_atom_site_label
_atom_site_fract_x
_atom_site_fract_y
_atom_site_fract_z
Si Si1 0.213568 0.404450 0.165750
Si Si2 0.904906 0.661161 0.670516
Si Si3 0.510656 0.617601 0.864507
Si Si4 0.934320 0.336735 0.509995
Si Si5 0.400898 0.042642 0.596582
Si Si6 0.611244 0.132927 0.627925
Si Si7 0.224859 0.938966 0.013595
O O1 0.292977 0.351298 0.139706
O O2 0.208836 0.475956 0.057966
O O3 0.207614 0.431383 0.336897
O O4 0.136931 0.354491 0.126858
O O5 0.892411 0.750000 0.660373
O O6 0.916918 0.632962 0.842359
O O7 0.826664 0.620220 0.606877
O O8 0.981469 0.631595 0.574627
O O9 0.572582 0.577326 0.754313
O O10 0.441828 0.663418 0.770897
O O11 0.466220 0.557412 0.968254
O O12 0.568658 0.666742 0.976266
O O13 0.944924 0.250000 0.501103
O O14 0.317462 0.080629 0.547798
O O15 0.393806 0.955966 0.626118
#
# Coordination Sequence:
#
# PCOD8180683 Si02
#       7
#     8   8   8   8   8   8   8
#     4  11  23  36  55  87 125 156 190 238 291 342
#     4  10  22  42  67  90 113 146 190 235 282 345
#     4  10  17  28  44  70 107 152 195 234 281 330
#     4  10  22  42  67  90 113 146 190 235 282 345
#     4  10  18  27  45  72 110 152 191 235 279 335
#     4  10  18  27  45  72 110 152 191 235 279 335
#     4  11  23  36  55  87 125 156 190 238 291 342
#
# _framework density 21.251750000000001
#
# number of rings (size 3 to 8) (size 9 to 14) (size 15 to 20)
#    0.000    1.714    1.429    5.143    8.000    2.286 
#    0.000    2.857    0.000    0.000    0.000    6.000 
#    0.000    0.000    0.000    0.000    0.000    0.000 
#
# Total GULP energy -347017.772619 kJ/mol
# GULP energy per Si atom -12393.491879 kJ/mol
# Density = 2.120338 g / cm^3
# Si number density = 21.251750 Si / 1000 Ang^3
#
#
#
# Elastic Constant Matrix: (Units=GPa)
#
#
# Indices 1 2 3 4 5 6 
#
# 1 117.3886 18.5249 49.4619 0.0000 0.0000 0.0000
# 2 18.5249 15.4944 11.5718 0.0000 0.0000 0.0000
# 3 49.4619 11.5718 154.3301 0.0000 0.0000 0.0000
# 4 0.0000 0.0000 0.0000 13.7392 0.0000 0.0000
# 5 0.0000 0.0000 0.0000 0.0000 38.6563 0.0000
# 6 0.0000 0.0000 0.0000 0.0000 0.0000 -112.7635
#
#
#
# Elastic Compliance Matrix: (Units=1/GPa)
#
#
# Indices 1 2 3 4 5 6 
#
# 1 0.011557 -0.011707 -0.002826 0.000000 0.000000 0.000000
# 2 -0.011707 0.080226 -0.002263 0.000000 0.000000 0.000000
# 3 -0.002826 -0.002263 0.007555 0.000000 0.000000 0.000000
# 4 0.000000 0.000000 0.000000 0.072784 0.000000 0.000000
# 5 0.000000 0.000000 0.000000 0.000000 0.025869 0.000000
# 6 0.000000 0.000000 0.000000 0.000000 0.000000 -0.008868
#
#
# Mechanical properties :
#
#
# Convention : Reuss Voigt Hill
#
# Bulk Modulus (GPa) = 15.21014 49.59226 32.40120
# Shear Modulus (GPa) = 20.43893 1.77004 11.10449
#
# Velocity S-wave (km/s) = 3.10458 0.91362 2.28835
# Velocity P-wave (km/s) = 4.47480 4.94967 4.71821
#
# Compressibility (1/GPa) = 0.06574562
#
# Stress axis : x y z
#
# Youngs Moduli (GPa) = 86.52820 12.46476 132.36086
#
# Poissons Ratio (x) = 0.14592 0.37407
# Poissons Ratio (y) = 1.01295 0.29960
# Poissons Ratio (z) = 0.24454 0.02821
#
# Static dielectric constant tensor:
#      x y z
#    x 4.499030 0.000000 0.000000 
#    y 0.000000 3.200320 0.000000 
#    z 0.000000 0.000000 4.448990 
# 
# 
# High freq. dielectric constant tensor:
#      x y z
#    x 1.852740 0.000000 0.000000 
#    y 0.000000 1.779400 0.000000 
#    z 0.000000 0.000000 1.857320 
# 
# From -- ./inp_files/3401.got.cif
#   From: 2010.03.12/outbox.cif.g09.slc.cpg/sg39_2_cif.got.tgz:3401.got - 2010.04.14 02:53:20.
