data_PCOD8180291
_publ_section_title
;
Structure prediction by ZEFSAII (Michael W. Deem and Ramdas Pophale) SiO2 
 PCOD8180291
Probable space group: A M M 2
;
_chemical_formula_sum "Si O2"
_cell_formula_units_Z 64
_cell_length_a 8.792418
_cell_length_b 30.074382
_cell_length_c 14.284832
_cell_angle_alpha 90.000000
_cell_angle_beta 90.000000
_cell_angle_gamma 90.000000
_cell_volume 3777.288666
_symmetry_space_group_name_H-M "A M M 2"
_symmetry_group_IT_number 38
_symmetry_cell_setting 'orthorhombic'
loop_
_space_group_symop_operation_xyz
x,y,z
-x,-y,z
-x,y,z
x,-y,z
x,1/2+y,1/2+z
-x,1/2-y,1/2+z
-x,1/2+y,1/2+z
x,1/2-y,1/2+z
loop_
_atom_site_type_symbol
_atom_site_label
_atom_site_fract_x
_atom_site_fract_y
_atom_site_fract_z
Si Si1 0.320554 0.697387 0.057440
Si Si2 0.321990 0.049252 0.987982
Si Si3 0.823076 0.134201 0.044350
Si Si4 0.671568 0.673212 0.369323
Si Si5 0.820848 0.366192 0.192558
Si Si6 0.677306 0.949550 0.772298
Si Si7 0.329919 0.275557 0.854449
Si Si8 0.821008 0.717993 0.660516
O O1 0.500000 0.693954 0.075446
O O2 0.234734 0.653160 0.093342
O O3 0.263579 0.741453 0.110714
O O4 0.281838 0.697466 0.947015
O O5 0.500000 0.048372 0.003675
O O6 0.284117 0.061785 0.880186
O O7 0.255637 0.000000 0.010404
O O8 0.252044 0.085611 0.058962
O O9 0.762852 0.171116 0.117345
O O10 0.000000 0.127491 0.056152
O O11 0.784632 0.149805 0.940402
O O12 0.500000 0.653895 0.380307
O O13 0.732908 0.664536 0.266202
O O14 0.672825 0.725079 0.388488
O O15 0.774354 0.417656 0.204774
O O16 0.000000 0.360687 0.203569
O O17 0.500000 0.941979 0.752647
O O18 0.724103 0.000000 0.748965
O O19 0.500000 0.288533 0.820971
O O20 0.213184 0.284396 0.770833
O O21 0.000000 0.724391 0.644488
#
# Coordination Sequence:
#
# PCOD8180291 Si02
#       8
#     8   8   8   8   8   8   8   8
#     4  11  22  37  54  73  99 135 178 215 251 299
#     4   9  18  32  51  74 100 134 173 211 253 301
#     4  11  22  33  48  76 106 138 173 207 255 309
#     4  11  20  32  50  72 101 138 176 214 250 292
#     4  12  23  33  49  77 106 137 172 209 256 307
#     4   9  18  33  52  74 102 136 172 209 251 301
#     4  10  22  37  54  73  97 135 180 219 252 293
#     4  11  23  35  51  75 105 136 169 211 258 306
#
# _framework density 16.943370000000002
#
# number of rings (size 3 to 8) (size 9 to 14) (size 15 to 20)
#    0.000    1.500    3.750    3.375    0.000    3.500 
#    0.000    1.250    0.000    0.000    0.000    0.875 
#    0.000    5.000    0.000    0.000    0.000    0.000 
#
# Total GULP energy -396784.441818 kJ/mol
# GULP energy per Si atom -12399.513807 kJ/mol
# Density = 1.690481 g / cm^3
# Si number density = 16.943370 Si / 1000 Ang^3
#
#
#
# Elastic Constant Matrix: (Units=GPa)
#
#
# Indices 1 2 3 4 5 6 
#
# 1 51.4715 35.1266 17.5219 0.0000 0.0000 0.0000
# 2 35.1266 107.6270 34.9024 0.0000 0.0000 0.0000
# 3 17.5219 34.9024 55.2087 0.0000 0.0000 0.0000
# 4 0.0000 0.0000 0.0000 26.2658 0.0000 0.0000
# 5 0.0000 0.0000 0.0000 0.0000 23.7322 0.0000
# 6 0.0000 0.0000 0.0000 0.0000 0.0000 25.5848
#
#
#
# Elastic Compliance Matrix: (Units=1/GPa)
#
#
# Indices 1 2 3 4 5 6 
#
# 1 0.025542 -0.007179 -0.003568 0.000000 0.000000 0.000000
# 2 -0.007179 0.013705 -0.006386 0.000000 0.000000 0.000000
# 3 -0.003568 -0.006386 0.023283 0.000000 0.000000 0.000000
# 4 0.000000 0.000000 0.000000 0.038072 0.000000 0.000000
# 5 0.000000 0.000000 0.000000 0.000000 0.042137 0.000000
# 6 0.000000 0.000000 0.000000 0.000000 0.000000 0.039086
#
#
# Mechanical properties :
#
#
# Convention : Reuss Voigt Hill
#
# Bulk Modulus (GPa) = 35.38049 43.26767 39.32408
# Shear Modulus (GPa) = 22.17175 23.56699 22.86937
#
# Velocity S-wave (km/s) = 3.62135 3.73356 3.67788
# Velocity P-wave (km/s) = 6.19779 6.64666 6.42614
#
# Compressibility (1/GPa) = 0.02826416
#
# Stress axis : x y z
#
# Youngs Moduli (GPa) = 39.15079 72.96422 42.95071
#
# Poissons Ratio (x) = 0.52383 0.15324
# Poissons Ratio (y) = 0.28108 0.27428
# Poissons Ratio (z) = 0.13968 0.46594
#
# Static dielectric constant tensor:
#      x y z
#    x 3.150490 0.000000 0.000000 
#    y 0.000000 3.377660 0.000000 
#    z 0.000000 0.000000 3.010860 
# 
# 
# High freq. dielectric constant tensor:
#      x y z
#    x 1.658710 0.000000 0.000000 
#    y 0.000000 1.653070 0.000000 
#    z 0.000000 0.000000 1.621660 
# 
# From -- ./inp_files/13117.got.cif
#   From: 2010.03.12/outbox.cif.g09.slc.cpg/sg38_7_cif.got.tgz:13117.got - 2010.04.14 02:38:36.
