data_PCOD8180421
_publ_section_title
;
Structure prediction by ZEFSAII (Michael W. Deem and Ramdas Pophale) SiO2 
 PCOD8180421
Probable space group: A M M 2
;
_chemical_formula_sum "Si O2"
_cell_formula_units_Z 64
_cell_length_a 14.225127
_cell_length_b 8.825368
_cell_length_c 31.457360
_cell_angle_alpha 90.000000
_cell_angle_beta 90.000000
_cell_angle_gamma 90.000000
_cell_volume 3949.219280
_symmetry_space_group_name_H-M "A M M 2"
_symmetry_group_IT_number 38
_symmetry_cell_setting 'orthorhombic'
loop_
_space_group_symop_operation_xyz
x,y,z
-x,-y,z
-x,y,z
x,-y,z
x,1/2+y,1/2+z
-x,1/2-y,1/2+z
-x,1/2+y,1/2+z
x,1/2-y,1/2+z
loop_
_atom_site_type_symbol
_atom_site_label
_atom_site_fract_x
_atom_site_fract_y
_atom_site_fract_z
Si Si1 0.287296 0.322045 0.933070
Si Si2 0.106108 0.324853 0.304410
Si Si3 0.611191 0.165451 0.102618
Si Si4 0.608044 0.821132 0.853985
Si Si5 0.893617 0.675549 0.403421
Si Si6 0.394549 0.681051 0.693395
Si Si7 0.714613 0.178283 0.275311
Si Si8 0.391581 0.180274 0.010284
O O1 0.298814 0.500000 0.928250
O O2 0.346115 0.242229 0.896397
O O3 0.177587 0.277583 0.930401
O O4 0.325077 0.268420 0.978285
O O5 0.125584 0.500000 0.294347
O O6 0.123745 0.292145 0.353874
O O7 0.175709 0.221560 0.276811
O O8 0.000000 0.280676 0.291763
O O9 0.500000 0.145004 0.104347
O O10 0.640649 0.247786 0.147189
O O11 0.659016 0.000000 0.101679
O O12 0.636489 0.244564 0.057567
O O13 0.500000 0.770268 0.852527
O O14 0.659247 0.758893 0.812781
O O15 0.619605 0.000000 0.854836
O O16 0.874950 0.500000 0.413512
O O17 0.000000 0.720187 0.416018
O O18 0.500000 0.738470 0.703945
O O19 0.394157 0.500000 0.690284
O O20 0.325788 0.738138 0.730458
O O21 0.701185 0.000000 0.280302
O O22 0.500000 0.218064 0.999782
O O23 0.375359 0.000000 0.007364
#
# Coordination Sequence:
#
# PCOD8180421 Si02
#       8
#     8   8   8   8   8   8   8   8
#     4  12  23  32  46  70  97 124 152 189 238 284
#     4   9  18  33  51  67  87 120 159 197 234 274
#     4   7  11  23  44  67  89 118 157 195 228 265
#     4  11  23  36  47  60  88 131 170 196 218 258
#     4   9  18  34  54  70  87 117 156 196 234 274
#     4   8  14  25  42  67  99 127 151 186 231 275
#     4  11  20  29  46  73  99 123 151 190 239 282
#     4   9  17  30  49  70  92 123 163 199 229 269
#
# _framework density 16.205735000000001
#
# number of rings (size 3 to 8) (size 9 to 14) (size 15 to 20)
#    0.000    2.500    1.250    4.875    0.000    3.750 
#    0.000    1.250    0.000    1.500    0.000    4.375 
#    0.000    3.000    0.000    0.000    0.000    0.000 
#
# Total GULP energy -396582.592307 kJ/mol
# GULP energy per Si atom -12393.206010 kJ/mol
# Density = 1.616885 g / cm^3
# Si number density = 16.205735 Si / 1000 Ang^3
#
#
#
# Elastic Constant Matrix: (Units=GPa)
#
#
# Indices 1 2 3 4 5 6 
#
# 1 99.8905 27.9643 54.4806 0.0000 0.0000 0.0000
# 2 27.9643 31.0279 18.6548 0.0000 0.0000 0.0000
# 3 54.4806 18.6548 119.6737 0.0000 0.0000 0.0000
# 4 0.0000 0.0000 0.0000 15.0949 0.0000 0.0000
# 5 0.0000 0.0000 0.0000 0.0000 8.8745 0.0000
# 6 0.0000 0.0000 0.0000 0.0000 0.0000 18.8684
#
#
#
# Elastic Compliance Matrix: (Units=1/GPa)
#
#
# Indices 1 2 3 4 5 6 
#
# 1 0.016232 -0.011240 -0.005638 0.000000 0.000000 0.000000
# 2 -0.011240 0.043345 -0.001640 0.000000 0.000000 0.000000
# 3 -0.005638 -0.001640 0.011178 0.000000 0.000000 0.000000
# 4 0.000000 0.000000 0.000000 0.066248 0.000000 0.000000
# 5 0.000000 0.000000 0.000000 0.000000 0.112682 0.000000
# 6 0.000000 0.000000 0.000000 0.000000 0.000000 0.052999
#
#
# Mechanical properties :
#
#
# Convention : Reuss Voigt Hill
#
# Bulk Modulus (GPa) = 29.65519 50.31018 39.98268
# Shear Modulus (GPa) = 14.24668 18.53372 16.39020
#
# Velocity S-wave (km/s) = 2.96820 3.38546 3.18367
# Velocity P-wave (km/s) = 5.48506 6.81130 6.18384
#
# Compressibility (1/GPa) = 0.03372092
#
# Stress axis : x y z
#
# Youngs Moduli (GPa) = 61.60524 23.07057 89.46055
#
# Poissons Ratio (x) = 0.25932 0.50434
# Poissons Ratio (y) = 0.69245 0.14669
# Poissons Ratio (z) = 0.34730 0.03783
#
# Static dielectric constant tensor:
#      x y z
#    x 3.072600 0.000000 0.000000 
#    y 0.000000 2.839920 0.000000 
#    z 0.000000 0.000000 3.407170 
# 
# 
# High freq. dielectric constant tensor:
#      x y z
#    x 1.607220 0.000000 0.000000 
#    y 0.000000 1.601870 0.000000 
#    z 0.000000 0.000000 1.620280 
# 
# From -- ./inp_files/25033.got.cif
#   From: 2010.03.12/outbox.cif.g09.slc.cpg/sg38_13_cif.got.tgz:25033.got - 2010.04.14 02:38:36.
