data_PCOD8180401
_publ_section_title
;
Structure prediction by ZEFSAII (Michael W. Deem and Ramdas Pophale) SiO2 
 PCOD8180401
Probable space group: A M M 2
;
_chemical_formula_sum "Si O2"
_cell_formula_units_Z 48
_cell_length_a 13.873467
_cell_length_b 8.988330
_cell_length_c 20.320918
_cell_angle_alpha 90.000000
_cell_angle_beta 90.000000
_cell_angle_gamma 90.000000
_cell_volume 2534.004243
_symmetry_space_group_name_H-M "A M M 2"
_symmetry_group_IT_number 38
_symmetry_cell_setting 'orthorhombic'
loop_
_space_group_symop_operation_xyz
x,y,z
-x,-y,z
-x,y,z
x,-y,z
x,1/2+y,1/2+z
-x,1/2-y,1/2+z
-x,1/2+y,1/2+z
x,1/2-y,1/2+z
loop_
_atom_site_type_symbol
_atom_site_label
_atom_site_fract_x
_atom_site_fract_y
_atom_site_fract_z
Si Si1 0.709136 0.175357 0.724570
Si Si2 0.388615 0.329118 0.604062
Si Si3 0.891364 0.172140 0.266400
Si Si4 0.890531 0.171863 0.419155
Si Si5 0.709864 0.326809 0.466758
Si Si6 0.613544 0.169452 0.347328
O O1 0.649472 0.224671 0.661426
O O2 0.818843 0.234710 0.720869
O O3 0.659163 0.236257 0.789447
O O4 0.710918 0.000000 0.727872
O O5 0.500000 0.292702 0.589962
O O6 0.375651 0.500000 0.625952
O O7 0.327833 0.293121 0.539350
O O8 0.864911 0.197031 0.342757
O O9 0.000000 0.227707 0.252474
O O10 0.881744 0.000000 0.247701
O O11 0.820604 0.273491 0.462842
O O12 0.000000 0.221306 0.433610
O O13 0.875988 0.000000 0.438072
O O14 0.702681 0.500000 0.449142
O O15 0.643599 0.235126 0.417184
O O16 0.500000 0.177639 0.340304
O O17 0.650949 0.000000 0.342326
#
# Coordination Sequence:
#
# PCOD8180401 Si02
#       6
#     8   8   8   8   8   8
#     4  12  24  37  58  89 119 149 192 246 295 342
#     4  10  23  43  62  80 113 161 202 238 289 351
#     4   9  18  35  60  87 117 155 194 233 284 347
#     4   9  18  34  58  87 119 156 194 233 283 345
#     4  11  22  37  60  90 118 148 192 245 294 342
#     4  11  23  38  58  83 114 153 194 237 289 349
#
# _framework density 18.942350999999999
#
# number of rings (size 3 to 8) (size 9 to 14) (size 15 to 20)
#    0.000    1.667    1.667    4.500    0.000    6.333 
#    0.000    2.500    0.000    1.000    0.000    0.000 
#    0.000    0.000    0.000    0.000    0.000    0.000 
#
# Total GULP energy -297699.596936 kJ/mol
# GULP energy per Si atom -12404.149872 kJ/mol
# Density = 1.889924 g / cm^3
# Si number density = 18.942351 Si / 1000 Ang^3
#
#
#
# Elastic Constant Matrix: (Units=GPa)
#
#
# Indices 1 2 3 4 5 6 
#
# 1 105.8717 44.9645 29.5452 0.0000 0.0000 0.0000
# 2 44.9645 98.7434 33.6856 0.0000 0.0000 0.0000
# 3 29.5452 33.6856 56.0264 0.0000 0.0000 0.0000
# 4 0.0000 0.0000 0.0000 31.1814 0.0000 0.0000
# 5 0.0000 0.0000 0.0000 0.0000 32.4147 0.0000
# 6 0.0000 0.0000 0.0000 0.0000 0.0000 29.3670
#
#
#
# Elastic Compliance Matrix: (Units=1/GPa)
#
#
# Indices 1 2 3 4 5 6 
#
# 1 0.012366 -0.004286 -0.003945 0.000000 0.000000 0.000000
# 2 -0.004286 0.014226 -0.006293 0.000000 0.000000 0.000000
# 3 -0.003945 -0.006293 0.023713 0.000000 0.000000 0.000000
# 4 0.000000 0.000000 0.000000 0.032070 0.000000 0.000000
# 5 0.000000 0.000000 0.000000 0.000000 0.030850 0.000000
# 6 0.000000 0.000000 0.000000 0.000000 0.000000 0.034052
#
#
# Mechanical properties :
#
#
# Convention : Reuss Voigt Hill
#
# Bulk Modulus (GPa) = 47.04128 53.00358 50.02243
# Shear Modulus (GPa) = 27.26141 28.75571 28.00856
#
# Velocity S-wave (km/s) = 3.79777 3.90046 3.84946
# Velocity P-wave (km/s) = 6.64218 6.95177 6.79873
#
# Compressibility (1/GPa) = 0.02125793
#
# Stress axis : x y z
#
# Youngs Moduli (GPa) = 80.86498 70.29579 42.17165
#
# Poissons Ratio (x) = 0.30125 0.16635
# Poissons Ratio (y) = 0.34655 0.26539
# Poissons Ratio (z) = 0.31898 0.44238
#
# Static dielectric constant tensor:
#      x y z
#    x 3.720110 0.000000 0.000000 
#    y 0.000000 3.470760 0.000000 
#    z 0.000000 0.000000 3.319000 
# 
# 
# High freq. dielectric constant tensor:
#      x y z
#    x 1.757360 0.000000 0.000000 
#    y 0.000000 1.736410 0.000000 
#    z 0.000000 0.000000 1.717860 
# 
# From -- ./inp_files/18155.got.cif
#   From: 2010.03.12/outbox.cif.g09.slc.cpg/sg38_10_cif.got.tgz:18155.got - 2010.04.14 02:38:36.
