data_PCOD8180822
_publ_section_title
;
Structure prediction by ZEFSAII (Michael W. Deem and Ramdas Pophale) SiO2 
 PCOD8180822
Probable space group: A B M 2
;
_chemical_formula_sum "Si O2"
_cell_formula_units_Z 64
_cell_length_a 23.966241
_cell_length_b 8.981646
_cell_length_c 15.345334
_cell_angle_alpha 90.000000
_cell_angle_beta 90.000000
_cell_angle_gamma 90.000000
_cell_volume 3303.179706
_symmetry_space_group_name_H-M "A B M 2"
_symmetry_group_IT_number 39
_symmetry_cell_setting 'orthorhombic'
loop_
_space_group_symop_operation_xyz
x,y,z
-x,-y,z
-x,1/2+y,z
x,1/2-y,z
x,1/2+y,1/2+z
-x,1/2-y,1/2+z
-x,y,1/2+z
x,-y,1/2+z
loop_
_atom_site_type_symbol
_atom_site_label
_atom_site_fract_x
_atom_site_fract_y
_atom_site_fract_z
Si Si1 0.748115 0.575410 0.978140
Si Si2 0.745588 0.917530 0.302200
Si Si3 0.559472 0.926051 0.880046
Si Si4 0.869548 0.920596 0.284215
Si Si5 0.059683 0.425660 0.639168
Si Si6 0.372595 0.579785 0.732932
Si Si7 0.631031 0.074503 0.539960
Si Si8 0.138807 0.924547 0.984332
O O1 0.755236 0.750000 0.990980
O O2 0.738769 0.539111 0.876950
O O3 0.803537 0.498839 0.015152
O O4 0.693584 0.511298 0.027583
O O5 0.745424 0.750000 0.342900
O O6 0.804998 0.941435 0.254432
O O7 0.694650 0.936600 0.235252
O O8 0.552015 0.750000 0.882373
O O9 0.500000 0.000000 0.868759
O O10 0.598001 0.968452 0.798733
O O11 0.588339 0.989691 0.967922
O O12 0.888875 0.750000 0.272134
O O13 0.876872 0.970710 0.385366
O O14 0.907264 0.025465 0.225207
O O15 0.052405 0.250000 0.642282
O O16 0.091108 0.477542 0.551083
O O17 0.000000 0.500000 0.638254
O O18 0.390104 0.750000 0.753953
O O19 0.391546 0.533387 0.635727
O O20 0.634665 0.250000 0.526513
O O21 0.148253 0.750000 0.989808
#
# Coordination Sequence:
#
# PCOD8180822 Si02
#       8
#     8   8   8   8   8   8   8   8
#     4  10  18  32  58  87 118 152 190 235 284 340
#     4   9  18  33  57  85 120 155 188 230 287 348
#     4  11  23  42  61  83 116 154 197 244 288 340
#     4   9  19  37  59  85 117 154 192 234 285 343
#     4  11  24  41  60  84 116 153 197 243 288 343
#     4  10  20  37  60  87 117 154 192 234 288 343
#     4   9  20  36  57  86 119 151 189 235 285 341
#     4   9  21  40  58  83 118 154 190 236 289 345
#
# _framework density 19.375268999999999
#
# number of rings (size 3 to 8) (size 9 to 14) (size 15 to 20)
#    0.000    2.250    1.250    1.875    1.750    4.000 
#    0.000    5.000    0.000    0.000    0.000    0.000 
#    0.000    0.000    0.000    0.000    0.000    0.000 
#
# Total GULP energy -396763.703483 kJ/mol
# GULP energy per Si atom -12398.865734 kJ/mol
# Density = 1.933117 g / cm^3
# Si number density = 19.375269 Si / 1000 Ang^3
#
#
#
# Elastic Constant Matrix: (Units=GPa)
#
#
# Indices 1 2 3 4 5 6 
#
# 1 128.9401 37.7271 57.2824 0.0000 0.0000 0.0000
# 2 37.7271 49.6266 29.8522 0.0000 0.0000 0.0000
# 3 57.2824 29.8522 105.4531 0.0000 0.0000 0.0000
# 4 0.0000 0.0000 0.0000 27.2076 0.0000 0.0000
# 5 0.0000 0.0000 0.0000 0.0000 22.1885 0.0000
# 6 0.0000 0.0000 0.0000 0.0000 0.0000 29.3756
#
#
#
# Elastic Compliance Matrix: (Units=1/GPa)
#
#
# Indices 1 2 3 4 5 6 
#
# 1 0.011549 -0.006034 -0.004566 0.000000 0.000000 0.000000
# 2 -0.006034 0.027438 -0.004490 0.000000 0.000000 0.000000
# 3 -0.004566 -0.004490 0.013234 0.000000 0.000000 0.000000
# 4 0.000000 0.000000 0.000000 0.036754 0.000000 0.000000
# 5 0.000000 0.000000 0.000000 0.000000 0.045068 0.000000
# 6 0.000000 0.000000 0.000000 0.000000 0.000000 0.034042
#
#
# Mechanical properties :
#
#
# Convention : Reuss Voigt Hill
#
# Bulk Modulus (GPa) = 45.36530 59.30481 52.33506
# Shear Modulus (GPa) = 24.31767 26.36487 25.34127
#
# Velocity S-wave (km/s) = 3.54657 3.69283 3.62044
# Velocity P-wave (km/s) = 6.34316 6.98983 6.67433
#
# Compressibility (1/GPa) = 0.02204328
#
# Stress axis : x y z
#
# Youngs Moduli (GPa) = 86.58602 36.44560 75.56345
#
# Poissons Ratio (x) = 0.21990 0.34499
# Poissons Ratio (y) = 0.52243 0.33927
# Poissons Ratio (z) = 0.39531 0.16364
#
# Static dielectric constant tensor:
#      x y z
#    x 3.689340 0.000000 0.000000 
#    y 0.000000 3.374070 0.000000 
#    z 0.000000 0.000000 3.558350 
# 
# 
# High freq. dielectric constant tensor:
#      x y z
#    x 1.758170 0.000000 0.000000 
#    y 0.000000 1.739490 0.000000 
#    z 0.000000 0.000000 1.752500 
# 
# From -- ./inp_files/10636.got.cif
#   From: 2010.03.12/outbox.cif.g09.slc.cpg/sg39_6_cif.got.tgz:10636.got - 2010.04.14 02:53:20.
