data_PCOD8180890
_publ_section_title
;
Structure prediction by ZEFSAII (Michael W. Deem and Ramdas Pophale) SiO2 
 PCOD8180890
Probable space group: A B M 2
;
_chemical_formula_sum "Si O2"
_cell_formula_units_Z 64
_cell_length_a 20.682643
_cell_length_b 9.184852
_cell_length_c 19.292269
_cell_angle_alpha 90.000000
_cell_angle_beta 90.000000
_cell_angle_gamma 90.000000
_cell_volume 3664.894753
_symmetry_space_group_name_H-M "A B M 2"
_symmetry_group_IT_number 39
_symmetry_cell_setting 'orthorhombic'
loop_
_space_group_symop_operation_xyz
x,y,z
-x,-y,z
-x,1/2+y,z
x,1/2-y,z
x,1/2+y,1/2+z
-x,1/2-y,1/2+z
-x,y,1/2+z
x,-y,1/2+z
loop_
_atom_site_type_symbol
_atom_site_label
_atom_site_fract_x
_atom_site_fract_y
_atom_site_fract_z
Si Si1 0.441328 0.090752 0.258880
Si Si2 0.438469 0.085871 0.423267
Si Si3 0.699343 0.922280 0.271161
Si Si4 0.813088 0.418870 0.668518
Si Si5 0.938470 0.414004 0.170228
Si Si6 0.937791 0.585498 0.505075
Si Si7 0.691368 0.921791 0.913076
Si Si8 0.188398 0.918191 0.509496
O O1 0.448853 0.250000 0.226456
O O2 0.447004 0.095163 0.341316
O O3 0.370382 0.027824 0.240345
O O4 0.500000 0.000000 0.225702
O O5 0.435118 0.250000 0.454107
O O6 0.500000 0.000000 0.455394
O O7 0.373376 0.998057 0.441714
O O8 0.697587 0.750000 0.288974
O O9 0.751505 0.963042 0.213710
O O10 0.714685 0.011385 0.340415
O O11 0.830509 0.250000 0.676528
O O12 0.873644 0.509280 0.697458
O O13 0.797508 0.458881 0.589235
O O14 0.940433 0.250000 0.198726
O O15 0.940040 0.417443 0.087648
O O16 0.000000 0.500000 0.200521
O O17 0.939511 0.750000 0.476656
O O18 0.871779 0.509831 0.479364
O O19 0.000000 0.500000 0.475067
O O20 0.678599 0.750000 0.904667
O O21 0.747415 0.956496 0.967660
O O22 0.169112 0.750000 0.502064
#
# Coordination Sequence:
#
# PCOD8180890 Si02
#       8
#     8   8   8   8   8   8   8   8
#     4   8  14  24  39  61  85 109 141 180 219 257
#     4   9  16  27  44  66  91 118 152 192 230 269
#     4   9  18  31  47  67  91 121 154 188 229 273
#     4   9  17  31  49  67  90 121 155 190 228 270
#     4   9  16  26  42  66  92 117 148 186 227 269
#     4   9  16  26  43  66  91 118 149 188 229 269
#     4  10  19  30  46  69  96 124 153 187 228 273
#     4   9  18  31  47  68  93 122 155 189 227 272
#
# _framework density 17.462985
#
# number of rings (size 3 to 8) (size 9 to 14) (size 15 to 20)
#    0.000    3.000    0.000    2.250    0.000    7.500 
#    0.000    0.000    0.000    1.500    0.000    7.000 
#    0.000    0.000    0.000    0.000    0.000    0.000 
#
# Total GULP energy -396700.664710 kJ/mol
# GULP energy per Si atom -12396.895772 kJ/mol
# Density = 1.742324 g / cm^3
# Si number density = 17.462985 Si / 1000 Ang^3
#
#
#
# Elastic Constant Matrix: (Units=GPa)
#
#
# Indices 1 2 3 4 5 6 
#
# 1 179.3607 90.4921 49.1995 0.0000 0.0000 0.0000
# 2 90.4921 116.2888 32.4257 0.0000 0.0000 0.0000
# 3 49.1995 32.4257 35.1394 0.0000 0.0000 0.0000
# 4 0.0000 0.0000 0.0000 13.0959 0.0000 0.0000
# 5 0.0000 0.0000 0.0000 0.0000 19.2481 0.0000
# 6 0.0000 0.0000 0.0000 0.0000 0.0000 37.7983
#
#
#
# Elastic Compliance Matrix: (Units=1/GPa)
#
#
# Indices 1 2 3 4 5 6 
#
# 1 0.011503 -0.006006 -0.010564 0.000000 0.000000 0.000000
# 2 -0.006006 0.014714 -0.005169 0.000000 0.000000 0.000000
# 3 -0.010564 -0.005169 0.048019 0.000000 0.000000 0.000000
# 4 0.000000 0.000000 0.000000 0.076360 0.000000 0.000000
# 5 0.000000 0.000000 0.000000 0.000000 0.051953 0.000000
# 6 0.000000 0.000000 0.000000 0.000000 0.000000 0.026456
#
#
# Mechanical properties :
#
#
# Convention : Reuss Voigt Hill
#
# Bulk Modulus (GPa) = 32.51117 75.00262 53.75690
# Shear Modulus (GPa) = 17.68442 24.60656 21.14549
#
# Velocity S-wave (km/s) = 3.18572 3.75783 3.48354
# Velocity P-wave (km/s) = 5.67356 7.86582 6.85786
#
# Compressibility (1/GPa) = 0.03075866
#
# Stress axis : x y z
#
# Youngs Moduli (GPa) = 86.93277 67.96217 20.82525
#
# Poissons Ratio (x) = 0.40816 0.22000
# Poissons Ratio (y) = 0.52210 0.10764
# Poissons Ratio (z) = 0.91835 0.35129
#
# Static dielectric constant tensor:
#      x y z
#    x 3.515510 0.000000 0.000000 
#    y 0.000000 3.436720 0.000000 
#    z 0.000000 0.000000 2.698290 
# 
# 
# High freq. dielectric constant tensor:
#      x y z
#    x 1.693020 0.000000 0.000000 
#    y 0.000000 1.683550 0.000000 
#    z 0.000000 0.000000 1.607080 
# 
# From -- ./inp_files/15026.got.cif
#   From: 2010.03.12/outbox.cif.g09.slc.cpg/sg39_8_cif.got.tgz:15026.got - 2010.04.14 02:53:20.
