data_PCOD8180837
_publ_section_title
;
Structure prediction by ZEFSAII (Michael W. Deem and Ramdas Pophale) SiO2 
 PCOD8180837
Probable space group: A B M 2
;
_chemical_formula_sum "Si O2"
_cell_formula_units_Z 64
_cell_length_a 24.136356
_cell_length_b 8.523291
_cell_length_c 15.426911
_cell_angle_alpha 90.000000
_cell_angle_beta 90.000000
_cell_angle_gamma 90.000000
_cell_volume 3173.642425
_symmetry_space_group_name_H-M "A B M 2"
_symmetry_group_IT_number 39
_symmetry_cell_setting 'orthorhombic'
loop_
_space_group_symop_operation_xyz
x,y,z
-x,-y,z
-x,1/2+y,z
x,1/2-y,z
x,1/2+y,1/2+z
-x,1/2-y,1/2+z
-x,y,1/2+z
x,-y,1/2+z
loop_
_atom_site_type_symbol
_atom_site_label
_atom_site_fract_x
_atom_site_fract_y
_atom_site_fract_z
Si Si1 0.124293 0.562884 0.226390
Si Si2 0.439116 0.063389 0.624373
Si Si3 0.759722 0.432375 0.288606
Si Si4 0.134929 0.432964 0.537418
Si Si5 0.366491 0.435856 0.975206
Si Si6 0.939912 0.064224 0.883848
Si Si7 0.748490 0.067433 0.972235
Si Si8 0.639169 0.936359 0.777627
O O1 0.124134 0.750000 0.235649
O O2 0.185399 0.491287 0.247193
O O3 0.110098 0.506907 0.128687
O O4 0.078326 0.492220 0.289110
O O5 0.438760 0.250000 0.619929
O O6 0.403245 0.998744 0.705832
O O7 0.500000 0.000000 0.640024
O O8 0.416849 0.995508 0.533825
O O9 0.761046 0.250000 0.267711
O O10 0.761450 0.459690 0.390584
O O11 0.700948 0.500829 0.253494
O O12 0.124370 0.250000 0.530212
O O13 0.102377 0.508003 0.455816
O O14 0.201012 0.466597 0.537996
O O15 0.361125 0.250000 0.981398
O O16 0.310180 0.514767 0.012791
O O17 0.377104 0.490761 0.875441
O O18 0.940948 0.250000 0.884418
O O19 0.000000 0.000000 0.906488
O O20 0.746358 0.250000 0.945967
O O21 0.639400 0.750000 0.775848
#
# Coordination Sequence:
#
# PCOD8180837 Si02
#       8
#     8   8   8   8   8   8   8   8
#     4  10  20  36  60  88 116 152 192 236 291 346
#     4  11  23  40  61  85 115 155 199 242 289 345
#     4   9  17  32  57  85 117 151 190 236 288 348
#     4   9  20  36  58  86 118 153 192 235 288 348
#     4  10  21  39  59  86 119 154 195 242 290 345
#     4  11  23  42  61  83 116 155 198 244 289 343
#     4  10  18  33  58  86 119 155 191 235 289 347
#     4   8  18  36  58  83 114 154 194 234 285 342
#
# _framework density 20.166103
#
# number of rings (size 3 to 8) (size 9 to 14) (size 15 to 20)
#    0.000    2.250    1.250    2.250    1.750    1.000 
#    0.000   11.250    0.000    0.000    0.000    0.000 
#    0.000    0.000    0.000    0.000    0.000    0.000 
#
# Total GULP energy -396645.312793 kJ/mol
# GULP energy per Si atom -12395.166025 kJ/mol
# Density = 2.012020 g / cm^3
# Si number density = 20.166103 Si / 1000 Ang^3
#
#
#
# Elastic Constant Matrix: (Units=GPa)
#
#
# Indices 1 2 3 4 5 6 
#
# 1 112.2803 24.2636 44.4036 0.0000 0.0000 0.0000
# 2 24.2636 31.3989 14.4243 0.0000 0.0000 0.0000
# 3 44.4036 14.4243 95.4504 0.0000 0.0000 0.0000
# 4 0.0000 0.0000 0.0000 21.2569 0.0000 0.0000
# 5 0.0000 0.0000 0.0000 0.0000 38.2284 0.0000
# 6 0.0000 0.0000 0.0000 0.0000 0.0000 29.2261
#
#
#
# Elastic Compliance Matrix: (Units=1/GPa)
#
#
# Indices 1 2 3 4 5 6 
#
# 1 0.012334 -0.007410 -0.004618 0.000000 0.000000 0.000000
# 2 -0.007410 0.038675 -0.002398 0.000000 0.000000 0.000000
# 3 -0.004618 -0.002398 0.012987 0.000000 0.000000 0.000000
# 4 0.000000 0.000000 0.000000 0.047044 0.000000 0.000000
# 5 0.000000 0.000000 0.000000 0.000000 0.026159 0.000000
# 6 0.000000 0.000000 0.000000 0.000000 0.000000 0.034216
#
#
# Mechanical properties :
#
#
# Convention : Reuss Voigt Hill
#
# Bulk Modulus (GPa) = 28.45260 45.03474 36.74367
# Shear Modulus (GPa) = 23.58711 28.14480 25.86596
#
# Velocity S-wave (km/s) = 3.42371 3.73989 3.58529
# Velocity P-wave (km/s) = 5.45608 6.40542 5.94972
#
# Compressibility (1/GPa) = 0.03514617
#
# Stress axis : x y z
#
# Youngs Moduli (GPa) = 81.07850 25.85622 76.99862
#
# Poissons Ratio (x) = 0.19158 0.35558
# Poissons Ratio (y) = 0.60075 0.18462
# Poissons Ratio (z) = 0.37442 0.06199
#
# Static dielectric constant tensor:
#      x y z
#    x 3.691880 0.000000 0.000000 
#    y 0.000000 3.384880 0.000000 
#    z 0.000000 0.000000 3.819900 
# 
# 
# High freq. dielectric constant tensor:
#      x y z
#    x 1.791770 0.000000 0.000000 
#    y 0.000000 1.760170 0.000000 
#    z 0.000000 0.000000 1.788830 
# 
# From -- ./inp_files/10670.got.cif
#   From: 2010.03.12/outbox.cif.g09.slc.cpg/sg39_6_cif.got.tgz:10670.got - 2010.04.14 02:53:20.
