data_PCOD8180973
_publ_section_title
;
Structure prediction by ZEFSAII (Michael W. Deem and Ramdas Pophale) SiO2 
 PCOD8180973
Probable space group: A B M 2
;
_chemical_formula_sum "Si O2"
_cell_formula_units_Z 48
_cell_length_a 16.669294
_cell_length_b 8.680187
_cell_length_c 18.505612
_cell_angle_alpha 90.000000
_cell_angle_beta 90.000000
_cell_angle_gamma 90.000000
_cell_volume 2677.624913
_symmetry_space_group_name_H-M "A B M 2"
_symmetry_group_IT_number 39
_symmetry_cell_setting 'orthorhombic'
loop_
_space_group_symop_operation_xyz
x,y,z
-x,-y,z
-x,1/2+y,z
x,1/2-y,z
x,1/2+y,1/2+z
-x,1/2-y,1/2+z
-x,y,1/2+z
x,-y,1/2+z
loop_
_atom_site_type_symbol
_atom_site_label
_atom_site_fract_x
_atom_site_fract_y
_atom_site_fract_z
Si Si1 0.270466 0.566211 0.116770
Si Si2 0.831257 0.082100 0.992278
Si Si3 0.235316 0.431355 0.780077
Si Si4 0.084893 0.934236 0.856790
Si Si5 0.415020 0.067797 0.030433
Si Si6 0.670236 0.420439 0.901695
O O1 0.277531 0.750000 0.105770
O O2 0.254696 0.519145 0.198575
O O3 0.352039 0.488936 0.090228
O O4 0.194772 0.501445 0.067859
O O5 0.866524 0.250000 0.011044
O O6 0.894930 0.999235 0.938327
O O7 0.750788 0.097559 0.946404
O O8 0.225198 0.250000 0.788959
O O9 0.151593 0.510804 0.800452
O O10 0.310223 0.487583 0.828254
O O11 0.084294 0.750000 0.857664
O O12 0.000000 0.000000 0.831290
O O13 0.417880 0.250000 0.030557
O O14 0.500000 0.000000 0.054315
O O15 0.394649 0.011188 0.949390
O O16 0.636653 0.250000 0.882708
#
# Coordination Sequence:
#
# PCOD8180973 Si02
#       6
#     8   8   8   8   8   8
#     4   9  18  34  54  76 105 138 170 208 257 311
#     4   7  13  28  49  69  91 125 163 200 245 296
#     4  10  19  32  53  79 106 137 173 211 256 312
#     4  10  19  32  51  73 100 134 174 220 267 311
#     4  11  21  34  54  78 104 134 172 215 259 307
#     4   9  17  32  52  73 100 132 168 208 250 299
#
# _framework density 17.926335000000002
#
# number of rings (size 3 to 8) (size 9 to 14) (size 15 to 20)
#    0.000    2.667    0.000    5.000    0.000    1.333 
#    0.000    2.500    0.000    6.000    0.000    0.000 
#    0.000    0.000    0.000    0.000    0.000    0.000 
#
# Total GULP energy -297368.082276 kJ/mol
# GULP energy per Si atom -12390.336762 kJ/mol
# Density = 1.788553 g / cm^3
# Si number density = 17.926335 Si / 1000 Ang^3
#
#
#
# Elastic Constant Matrix: (Units=GPa)
#
#
# Indices 1 2 3 4 5 6 
#
# 1 97.1467 42.8090 54.9227 0.0000 0.0000 0.0000
# 2 42.8090 94.2271 47.8373 0.0000 0.0000 0.0000
# 3 54.9227 47.8373 144.7068 0.0000 0.0000 0.0000
# 4 0.0000 0.0000 0.0000 24.6793 0.0000 0.0000
# 5 0.0000 0.0000 0.0000 0.0000 17.2445 0.0000
# 6 0.0000 0.0000 0.0000 0.0000 0.0000 24.4641
#
#
#
# Elastic Compliance Matrix: (Units=1/GPa)
#
#
# Indices 1 2 3 4 5 6 
#
# 1 0.014588 -0.004586 -0.004021 0.000000 0.000000 0.000000
# 2 -0.004586 0.014195 -0.002952 0.000000 0.000000 0.000000
# 3 -0.004021 -0.002952 0.009412 0.000000 0.000000 0.000000
# 4 0.000000 0.000000 0.000000 0.040520 0.000000 0.000000
# 5 0.000000 0.000000 0.000000 0.000000 0.057990 0.000000
# 6 0.000000 0.000000 0.000000 0.000000 0.000000 0.040876
#
#
# Mechanical properties :
#
#
# Convention : Reuss Voigt Hill
#
# Bulk Modulus (GPa) = 66.32378 69.69096 68.00737
# Shear Modulus (GPa) = 24.30440 25.97834 25.14137
#
# Velocity S-wave (km/s) = 3.68610 3.81093 3.74904
# Velocity P-wave (km/s) = 7.42932 7.63708 7.53391
#
# Compressibility (1/GPa) = 0.01507755
#
# Stress axis : x y z
#
# Youngs Moduli (GPa) = 68.55043 70.44787 106.24356
#
# Poissons Ratio (x) = 0.32310 0.42716
# Poissons Ratio (y) = 0.31439 0.31361
# Poissons Ratio (z) = 0.27561 0.20795
#
# Static dielectric constant tensor:
#      x y z
#    x 3.283040 0.000000 0.000000 
#    y 0.000000 3.278670 0.000000 
#    z 0.000000 0.000000 3.542360 
# 
# 
# High freq. dielectric constant tensor:
#      x y z
#    x 1.674090 0.000000 0.000000 
#    y 0.000000 1.689090 0.000000 
#    z 0.000000 0.000000 1.690550 
# 
# From -- ./inp_files/12653.got.cif
#   From: 2010.03.12/outbox.cif.g09.slc.cpg/sg39_7_cif.got.tgz:12653.got - 2010.04.14 02:53:20.
