data_PCOD8180191
_publ_section_title
;
Structure prediction by ZEFSAII (Michael W. Deem and Ramdas Pophale) SiO2 
 PCOD8180191
Probable space group: A M M 2
;
_chemical_formula_sum "Si O2"
_cell_formula_units_Z 56
_cell_length_a 21.285182
_cell_length_b 8.699939
_cell_length_c 15.434283
_cell_angle_alpha 90.000000
_cell_angle_beta 90.000000
_cell_angle_gamma 90.000000
_cell_volume 2858.117208
_symmetry_space_group_name_H-M "A M M 2"
_symmetry_group_IT_number 38
_symmetry_cell_setting 'orthorhombic'
loop_
_space_group_symop_operation_xyz
x,y,z
-x,-y,z
-x,y,z
x,-y,z
x,1/2+y,1/2+z
-x,1/2-y,1/2+z
-x,1/2+y,1/2+z
x,1/2-y,1/2+z
loop_
_atom_site_type_symbol
_atom_site_label
_atom_site_fract_x
_atom_site_fract_y
_atom_site_fract_z
Si Si1 0.369767 0.319995 0.092730
Si Si2 0.713245 0.318199 0.443279
Si Si3 0.926435 0.322129 0.097443
Si Si4 0.927694 0.178914 0.277648
Si Si5 0.143097 0.819599 0.938217
Si Si6 0.500000 0.817919 0.844498
Si Si7 0.632134 0.319311 0.285415
Si Si8 0.500000 0.318516 0.543136
O O1 0.374922 0.500000 0.075886
O O2 0.343691 0.282117 0.188999
O O3 0.438708 0.249140 0.088002
O O4 0.321075 0.248112 0.026662
O O5 0.707499 0.500000 0.448123
O O6 0.785085 0.264921 0.444157
O O7 0.680896 0.251924 0.355926
O O8 0.909662 0.500000 0.083442
O O9 0.904811 0.272061 0.193293
O O10 0.000000 0.290450 0.085197
O O11 0.890124 0.220189 0.028089
O O12 0.887745 0.228085 0.359872
O O13 0.000000 0.216938 0.298546
O O14 0.917730 0.000000 0.258878
O O15 0.137024 0.000000 0.920003
O O16 0.562541 0.747854 0.800220
O O17 0.500000 0.000000 0.834731
O O18 0.500000 0.767191 0.943852
O O19 0.627273 0.500000 0.300862
O O20 0.500000 0.500000 0.553561
#
# Coordination Sequence:
#
# PCOD8180191 Si02
#       8
#     8   8   8   8   8   4   8   4
#     4  11  22  36  59  88 113 141 187 244 290 332
#     4  10  22  41  59  79 112 156 197 229 276 345
#     4  10  21  38  61  88 118 154 197 244 294 351
#     4  10  21  38  61  89 120 153 192 243 300 353
#     4  11  23  37  58  87 119 158 201 243 290 351
#     4   9  15  29  59  82  99 141 186 220 269 336
#     4   9  18  35  58  81 107 145 188 225 275 343
#     4  11  20  35  61  84 111 151 186 226 287 352
#
# _framework density 19.593318
#
# number of rings (size 3 to 8) (size 9 to 14) (size 15 to 20)
#    0.000    1.857    1.429    2.786    0.000    6.857 
#    0.000    2.857    0.000    0.000    0.000    0.000 
#    0.000    0.000    0.000    0.000    0.000    0.000 
#
# Total GULP energy -347255.557029 kJ/mol
# GULP energy per Si atom -12401.984180 kJ/mol
# Density = 1.954872 g / cm^3
# Si number density = 19.593318 Si / 1000 Ang^3
#
#
#
# Elastic Constant Matrix: (Units=GPa)
#
#
# Indices 1 2 3 4 5 6 
#
# 1 113.4003 32.3661 73.6804 0.0000 0.0000 0.0000
# 2 32.3661 32.0033 15.3331 0.0000 0.0000 0.0000
# 3 73.6804 15.3331 130.7867 0.0000 0.0000 0.0000
# 4 0.0000 0.0000 0.0000 34.0392 0.0000 0.0000
# 5 0.0000 0.0000 0.0000 0.0000 5868.1495 0.0000
# 6 0.0000 0.0000 0.0000 0.0000 0.0000 26.0055
#
#
#
# Elastic Compliance Matrix: (Units=1/GPa)
#
#
# Indices 1 2 3 4 5 6 
#
# 1 0.018779 -0.014751 -0.008850 0.000000 0.000000 0.000000
# 2 -0.014751 0.044694 0.003071 0.000000 0.000000 0.000000
# 3 -0.008850 0.003071 0.012272 0.000000 0.000000 0.000000
# 4 0.000000 0.000000 0.000000 0.029378 0.000000 0.000000
# 5 0.000000 0.000000 0.000000 0.000000 0.000170 0.000000
# 6 0.000000 0.000000 0.000000 0.000000 0.000000 0.038453
#
#
# Mechanical properties :
#
#
# Convention : Reuss Voigt Hill
#
# Bulk Modulus (GPa) = 28.83227 57.66105 43.24666
# Shear Modulus (GPa) = 25.46228 1195.95955 610.71092
#
# Velocity S-wave (km/s) = 3.60882 24.73291 17.67400
# Velocity P-wave (km/s) = 5.66675 29.07086 20.94310
#
# Compressibility (1/GPa) = 0.03468336
#
# Stress axis : x y z
#
# Youngs Moduli (GPa) = 53.25209 22.37417 81.48855
#
# Poissons Ratio (x) = 0.33005 0.72115
# Poissons Ratio (y) = 0.78555 -0.25022
# Poissons Ratio (z) = 0.47127 -0.06870
#
# Static dielectric constant tensor:
#      x y z
#    x -11.872970 0.000000 0.000000 
#    y 0.000000 3.415080 0.000000 
#    z 0.000000 0.000000 3.708800 
# 
# 
# High freq. dielectric constant tensor:
#      x y z
#    x 1.762290 0.000000 0.000000 
#    y 0.000000 1.748740 0.000000 
#    z 0.000000 0.000000 1.780010 
# 
# From -- ./inp_files/15571.got.cif
#   From: 2010.03.12/outbox.cif.g09.slc.cpg/sg38_8_cif.got.tgz:15571.got - 2010.04.14 02:38:36.
