data_PCOD8180523
_publ_section_title
;
Structure prediction by ZEFSAII (Michael W. Deem and Ramdas Pophale) SiO2 
 PCOD8180523
Probable space group: A M M 2
;
_chemical_formula_sum "Si O2"
_cell_formula_units_Z 56
_cell_length_a 9.629288
_cell_length_b 9.869136
_cell_length_c 35.886488
_cell_angle_alpha 90.000000
_cell_angle_beta 90.000000
_cell_angle_gamma 90.000000
_cell_volume 3410.391745
_symmetry_space_group_name_H-M "A M M 2"
_symmetry_group_IT_number 38
_symmetry_cell_setting 'orthorhombic'
loop_
_space_group_symop_operation_xyz
x,y,z
-x,-y,z
-x,y,z
x,-y,z
x,1/2+y,1/2+z
-x,1/2-y,1/2+z
-x,1/2+y,1/2+z
x,1/2-y,1/2+z
loop_
_atom_site_type_symbol
_atom_site_label
_atom_site_fract_x
_atom_site_fract_y
_atom_site_fract_z
Si Si1 0.161537 0.156200 0.618640
Si Si2 0.661379 0.843352 0.258395
Si Si3 0.164933 0.848374 0.053639
Si Si4 0.339341 0.844126 0.690088
Si Si5 0.834717 0.348103 0.470977
Si Si6 0.165568 0.348953 0.908168
Si Si7 0.154200 0.661074 0.826392
O O1 0.221712 0.243712 0.584301
O O2 0.247220 0.198263 0.654949
O O3 0.000000 0.186824 0.626466
O O4 0.185606 0.000000 0.608253
O O5 0.500000 0.824816 0.267122
O O6 0.708065 0.752428 0.223642
O O7 0.742585 0.787234 0.294408
O O8 0.697866 0.000000 0.249679
O O9 0.000000 0.845911 0.053863
O O10 0.217876 0.000000 0.063195
O O11 0.217095 0.805213 0.012352
O O12 0.500000 0.820251 0.679843
O O13 0.312299 0.000000 0.701539
O O14 0.783556 0.500000 0.461983
O O15 0.770472 0.247538 0.440111
O O16 0.000000 0.342231 0.469573
O O17 0.225393 0.500000 0.914676
O O18 0.208283 0.291923 0.867246
O O19 0.000000 0.353077 0.910267
O O20 0.148159 0.500000 0.826910
O O21 0.000000 0.719409 0.818326
#
# Coordination Sequence:
#
# PCOD8180523 Si02
#       7
#     8   8   8   8   8   8   8
#     4   9  17  28  42  61  83 105 132 167 201 233
#     4   9  17  29  45  63  80 101 134 171 199 230
#     4   8  14  24  37  55  81 110 135 161 198 240
#     4   9  18  32  46  59  80 109 134 159 199 246
#     4   8  13  21  33  51  78 108 132 157 193 233
#     4   8  13  21  34  52  74 102 134 163 191 228
#     4   8  14  25  40  59  84 109 131 161 203 242
#
# _framework density 16.420400000000001
#
# number of rings (size 3 to 8) (size 9 to 14) (size 15 to 20)
#    0.000    3.571    0.000    1.714    0.000    1.714 
#    0.000    3.571    0.000    0.857    0.000    1.000 
#    0.000    5.714    0.000    0.000    0.000    0.000 
#
# Total GULP energy -347021.720799 kJ/mol
# GULP energy per Si atom -12393.632886 kJ/mol
# Density = 1.638303 g / cm^3
# Si number density = 16.420400 Si / 1000 Ang^3
#
#
#
# Elastic Constant Matrix: (Units=GPa)
#
#
# Indices 1 2 3 4 5 6 
#
# 1 29.9101 26.2287 47.3865 0.0000 0.0000 0.0000
# 2 26.2287 80.3590 89.6827 0.0000 0.0000 0.0000
# 3 47.3865 89.6827 179.9048 0.0000 0.0000 0.0000
# 4 0.0000 0.0000 0.0000 33.6500 0.0000 0.0000
# 5 0.0000 0.0000 0.0000 0.0000 1.8707 0.0000
# 6 0.0000 0.0000 0.0000 0.0000 0.0000 10.9415
#
#
#
# Elastic Compliance Matrix: (Units=1/GPa)
#
#
# Indices 1 2 3 4 5 6 
#
# 1 0.058011 -0.004241 -0.013166 0.000000 0.000000 0.000000
# 2 -0.004241 0.028359 -0.013020 0.000000 0.000000 0.000000
# 3 -0.013166 -0.013020 0.015517 0.000000 0.000000 0.000000
# 4 0.000000 0.000000 0.000000 0.029718 0.000000 0.000000
# 5 0.000000 0.000000 0.000000 0.000000 0.534560 0.000000
# 6 0.000000 0.000000 0.000000 0.000000 0.000000 0.091395
#
#
# Mechanical properties :
#
#
# Convention : Reuss Voigt Hill
#
# Bulk Modulus (GPa) = 24.37040 68.52996 46.45018
# Shear Modulus (GPa) = 6.00895 17.75083 11.87989
#
# Velocity S-wave (km/s) = 1.91504 3.29146 2.69268
# Velocity P-wave (km/s) = 4.44563 7.50135 6.16578
#
# Compressibility (1/GPa) = 0.04103338
#
# Stress axis : x y z
#
# Youngs Moduli (GPa) = 17.23801 35.26229 64.44645
#
# Poissons Ratio (x) = 0.14955 0.84849
# Poissons Ratio (y) = 0.07311 0.83908
# Poissons Ratio (z) = 0.22695 0.45911
#
# Static dielectric constant tensor:
#      x y z
#    x 2.722270 0.000000 0.000000 
#    y 0.000000 3.144340 0.000000 
#    z 0.000000 0.000000 3.435720 
# 
# 
# High freq. dielectric constant tensor:
#      x y z
#    x 1.581070 0.000000 0.000000 
#    y 0.000000 1.619240 0.000000 
#    z 0.000000 0.000000 1.642640 
# 
# From -- ./inp_files/23829.got.cif
#   From: 2010.03.12/outbox.cif.g09.slc.cpg/sg38_12_cif.got.tgz:23829.got - 2010.04.14 02:38:36.
