data_PCOD8180499
_publ_section_title
;
Structure prediction by ZEFSAII (Michael W. Deem and Ramdas Pophale) SiO2 
 PCOD8180499
Probable space group: A M M 2
;
_chemical_formula_sum "Si O2"
_cell_formula_units_Z 48
_cell_length_a 8.811609
_cell_length_b 23.081300
_cell_length_c 11.675227
_cell_angle_alpha 90.000000
_cell_angle_beta 90.000000
_cell_angle_gamma 90.000000
_cell_volume 2374.547256
_symmetry_space_group_name_H-M "A M M 2"
_symmetry_group_IT_number 38
_symmetry_cell_setting 'orthorhombic'
loop_
_space_group_symop_operation_xyz
x,y,z
-x,-y,z
-x,y,z
x,-y,z
x,1/2+y,1/2+z
-x,1/2-y,1/2+z
-x,1/2+y,1/2+z
x,1/2-y,1/2+z
loop_
_atom_site_type_symbol
_atom_site_label
_atom_site_fract_x
_atom_site_fract_y
_atom_site_fract_z
Si Si1 0.821991 0.144019 0.041790
Si Si2 0.675252 0.343384 0.784164
Si Si3 0.830891 0.934418 0.423656
Si Si4 0.679138 0.933480 0.855225
Si Si5 0.171006 0.370808 0.147240
Si Si6 0.821367 0.272352 0.973401
O O1 0.770305 0.144149 0.171711
O O2 0.000000 0.133568 0.034955
O O3 0.741923 0.091955 0.974136
O O4 0.775597 0.206314 0.991691
O O5 0.500000 0.333562 0.754536
O O6 0.697817 0.399413 0.862971
O O7 0.739284 0.288747 0.854756
O O8 0.823280 0.924300 0.559477
O O9 0.000000 0.915763 0.380663
O O10 0.797711 0.000000 0.394994
O O11 0.500000 0.933593 0.861347
O O12 0.728204 0.889601 0.754585
O O13 0.738372 0.000000 0.838572
O O14 0.000000 0.359804 0.192567
O O15 0.231369 0.312642 0.081404
O O16 0.000000 0.282038 0.957041
#
# Coordination Sequence:
#
# PCOD8180499 Si02
#       6
#     8   8   8   8   8   8
#     4  11  24  42  65  87 115 159 208 253 298 358
#     4  11  23  38  58  88 123 154 190 242 305 366
#     4   9  18  35  60  87 116 155 203 248 288 342
#     4  11  25  42  59  87 128 167 205 252 308 367
#     4   9  18  36  62  91 119 153 199 250 300 355
#     4   9  21  41  64  89 118 154 201 251 301 358
#
# _framework density 20.214379000000001
#
# number of rings (size 3 to 8) (size 9 to 14) (size 15 to 20)
#    0.000    2.000    0.000    4.000    2.333    7.000 
#    0.000    0.000    0.000    0.000    0.000    0.000 
#    0.000    0.000    0.000    0.000    0.000    0.000 
#
# Total GULP energy -297547.580416 kJ/mol
# GULP energy per Si atom -12397.815851 kJ/mol
# Density = 2.016837 g / cm^3
# Si number density = 20.214379 Si / 1000 Ang^3
#
#
#
# Elastic Constant Matrix: (Units=GPa)
#
#
# Indices 1 2 3 4 5 6 
#
# 1 49.8035 30.7205 28.5935 0.0000 0.0000 0.0000
# 2 30.7205 87.2736 27.8303 0.0000 0.0000 0.0000
# 3 28.5935 27.8303 95.8372 0.0000 0.0000 0.0000
# 4 0.0000 0.0000 0.0000 15.3020 0.0000 0.0000
# 5 0.0000 0.0000 0.0000 0.0000 22.0825 0.0000
# 6 0.0000 0.0000 0.0000 0.0000 0.0000 25.5106
#
#
#
# Elastic Compliance Matrix: (Units=1/GPa)
#
#
# Indices 1 2 3 4 5 6 
#
# 1 0.028631 -0.008105 -0.006189 0.000000 0.000000 0.000000
# 2 -0.008105 0.014922 -0.001915 0.000000 0.000000 0.000000
# 3 -0.006189 -0.001915 0.012837 0.000000 0.000000 0.000000
# 4 0.000000 0.000000 0.000000 0.065351 0.000000 0.000000
# 5 0.000000 0.000000 0.000000 0.000000 0.045285 0.000000
# 6 0.000000 0.000000 0.000000 0.000000 0.000000 0.039199
#
#
# Mechanical properties :
#
#
# Convention : Reuss Voigt Hill
#
# Bulk Modulus (GPa) = 41.71380 45.24478 43.47929
# Shear Modulus (GPa) = 20.27302 22.29702 21.28502
#
# Velocity S-wave (km/s) = 3.17030 3.32479 3.24846
# Velocity P-wave (km/s) = 5.83794 6.09672 5.96873
#
# Compressibility (1/GPa) = 0.02397288
#
# Stress axis : x y z
#
# Youngs Moduli (GPa) = 34.92671 67.01599 77.90023
#
# Poissons Ratio (x) = 0.54315 0.48211
# Poissons Ratio (y) = 0.28307 0.14918
# Poissons Ratio (z) = 0.21615 0.12834
#
# Static dielectric constant tensor:
#      x y z
#    x 3.513530 0.000000 0.000000 
#    y 0.000000 3.827740 0.000000 
#    z 0.000000 0.000000 3.597890 
# 
# 
# High freq. dielectric constant tensor:
#      x y z
#    x 1.778600 0.000000 0.000000 
#    y 0.000000 1.795190 0.000000 
#    z 0.000000 0.000000 1.790180 
# 
# From -- ./inp_files/8126.got.cif
#   From: 2010.03.12/outbox.cif.g09.slc.cpg/sg38_5_cif.got.tgz:8126.got - 2010.04.14 02:38:36.
