data_PCOD8180917
_publ_section_title
;
Structure prediction by ZEFSAII (Michael W. Deem and Ramdas Pophale) SiO2 
 PCOD8180917
Probable space group: A B M 2
;
_chemical_formula_sum "Si O2"
_cell_formula_units_Z 40
_cell_length_a 9.996871
_cell_length_b 8.951976
_cell_length_c 25.472511
_cell_angle_alpha 90.000000
_cell_angle_beta 90.000000
_cell_angle_gamma 90.000000
_cell_volume 2279.579568
_symmetry_space_group_name_H-M "A B M 2"
_symmetry_group_IT_number 39
_symmetry_cell_setting 'orthorhombic'
loop_
_space_group_symop_operation_xyz
x,y,z
-x,-y,z
-x,1/2+y,z
x,1/2-y,z
x,1/2+y,1/2+z
-x,1/2-y,1/2+z
-x,y,1/2+z
x,-y,1/2+z
loop_
_atom_site_type_symbol
_atom_site_label
_atom_site_fract_x
_atom_site_fract_y
_atom_site_fract_z
Si Si1 0.143007 0.424628 0.301610
Si Si2 0.636853 0.926241 0.106246
Si Si3 0.636358 0.424934 0.486931
Si Si4 0.142202 0.076142 0.185956
Si Si5 0.854728 0.072705 0.403422
O O1 0.131005 0.250000 0.314782
O O2 0.207395 0.451266 0.244034
O O3 0.000000 0.500000 0.298733
O O4 0.783820 0.491763 0.350123
O O5 0.621808 0.750000 0.112278
O O6 0.755243 0.988465 0.143060
O O7 0.500000 0.000000 0.125688
O O8 0.669181 0.973852 0.046523
O O9 0.500000 0.500000 0.466774
O O10 0.613352 0.250000 0.482676
O O11 0.760574 0.476483 0.451455
O O12 0.116947 0.250000 0.176932
O O13 0.000000 0.000000 0.178237
O O14 0.869558 0.250000 0.399305
O O15 0.000000 0.000000 0.412499
#
# Coordination Sequence:
#
# PCOD8180917 Si02
#       5
#     8   8   8   8   8
#     4   9  16  28  46  68  94 125 155 188 230 275
#     4   9  18  34  51  69  94 124 156 193 233 277
#     4   9  19  34  51  69  93 124 158 193 233 277
#     4   9  18  31  49  72  97 122 154 193 232 274
#     4  10  19  31  48  72  97 123 155 193 232 275
#
# _framework density 17.547094999999999
#
# number of rings (size 3 to 8) (size 9 to 14) (size 15 to 20)
#    0.000    2.800    0.000    2.400    0.000    4.000 
#    0.000    1.000    0.000    4.800    0.000    0.000 
#    0.000    0.000    0.000    0.000    0.000    0.000 
#
# Total GULP energy -247867.435028 kJ/mol
# GULP energy per Si atom -12393.371751 kJ/mol
# Density = 1.750716 g / cm^3
# Si number density = 17.547095 Si / 1000 Ang^3
#
#
#
# Elastic Constant Matrix: (Units=GPa)
#
#
# Indices 1 2 3 4 5 6 
#
# 1 108.1505 39.6741 85.9261 0.0000 0.0000 0.0000
# 2 39.6741 57.8021 45.4892 0.0000 0.0000 0.0000
# 3 85.9261 45.4892 137.0699 0.0000 0.0000 0.0000
# 4 0.0000 0.0000 0.0000 24.6691 0.0000 0.0000
# 5 0.0000 0.0000 0.0000 0.0000 14.1273 0.0000
# 6 0.0000 0.0000 0.0000 0.0000 0.0000 26.0720
#
#
#
# Elastic Compliance Matrix: (Units=1/GPa)
#
#
# Indices 1 2 3 4 5 6 
#
# 1 0.019467 -0.005086 -0.010515 0.000000 0.000000 0.000000
# 2 -0.005086 0.024745 -0.005024 0.000000 0.000000 0.000000
# 3 -0.010515 -0.005024 0.015555 0.000000 0.000000 0.000000
# 4 0.000000 0.000000 0.000000 0.040537 0.000000 0.000000
# 5 0.000000 0.000000 0.000000 0.000000 0.070785 0.000000
# 6 0.000000 0.000000 0.000000 0.000000 0.000000 0.038355
#
#
# Mechanical properties :
#
#
# Convention : Reuss Voigt Hill
#
# Bulk Modulus (GPa) = 54.00752 71.68904 62.84828
# Shear Modulus (GPa) = 19.46548 21.76922 20.61735
#
# Velocity S-wave (km/s) = 3.33427 3.52606 3.43151
# Velocity P-wave (km/s) = 6.75785 7.58428 7.18296
#
# Compressibility (1/GPa) = 0.01851594
#
# Stress axis : x y z
#
# Youngs Moduli (GPa) = 51.37001 40.41226 64.28998
#
# Poissons Ratio (x) = 0.20554 0.67603
# Poissons Ratio (y) = 0.26128 0.32297
# Poissons Ratio (z) = 0.54017 0.20302
#
# Static dielectric constant tensor:
#      x y z
#    x 3.074750 0.000000 0.000000 
#    y 0.000000 3.270760 0.000000 
#    z 0.000000 0.000000 4.088070 
# 
# 
# High freq. dielectric constant tensor:
#      x y z
#    x 1.648180 0.000000 0.000000 
#    y 0.000000 1.680820 0.000000 
#    z 0.000000 0.000000 1.694110 
# 
# From -- ./inp_files/11370.got.cif
#   From: 2010.03.12/outbox.cif.g09.slc.cpg/sg39_6_cif.got.tgz:11370.got - 2010.04.14 02:53:20.
