data_PCOD8180740
_publ_section_title
;
Structure prediction by ZEFSAII (Michael W. Deem and Ramdas Pophale) SiO2 
 PCOD8180740
Probable space group: A B M 2
;
_chemical_formula_sum "Si O2"
_cell_formula_units_Z 60
_cell_length_a 15.398096
_cell_length_b 9.544381
_cell_length_c 22.157320
_cell_angle_alpha 90.000000
_cell_angle_beta 90.000000
_cell_angle_gamma 90.000000
_cell_volume 3256.357068
_symmetry_space_group_name_H-M "A B M 2"
_symmetry_group_IT_number 39
_symmetry_cell_setting 'orthorhombic'
loop_
_space_group_symop_operation_xyz
x,y,z
-x,-y,z
-x,1/2+y,z
x,1/2-y,z
x,1/2+y,1/2+z
-x,1/2-y,1/2+z
-x,y,1/2+z
x,-y,1/2+z
loop_
_atom_site_type_symbol
_atom_site_label
_atom_site_fract_x
_atom_site_fract_y
_atom_site_fract_z
Si Si1 0.262290 0.586372 0.429000
Si Si2 0.172536 0.909750 0.550777
Si Si3 0.584420 0.911979 0.231587
Si Si4 0.000000 0.000000 0.985811
Si Si5 0.114087 0.599393 0.886358
Si Si6 0.761676 0.416513 0.675986
Si Si7 0.585415 0.086133 0.872096
Si Si8 0.076535 0.592134 0.750389
O O1 0.278658 0.750000 0.412908
O O2 0.245167 0.564436 0.499969
O O3 0.176717 0.533090 0.394595
O O4 0.340885 0.487006 0.411494
O O5 0.165886 0.750000 0.568321
O O6 0.076214 0.950127 0.529827
O O7 0.206282 0.984148 0.612232
O O8 0.564919 0.750000 0.216871
O O9 0.666173 0.973194 0.194029
O O10 0.607833 0.930486 0.301859
O O11 0.500000 0.000000 0.212968
O O12 0.041628 0.887632 0.939330
O O13 0.164635 0.750000 0.887145
O O14 0.068972 0.580771 0.822211
O O15 0.753596 0.250000 0.673984
O O16 0.830352 0.463301 0.727163
O O17 0.575269 0.250000 0.889784
O O18 0.500000 0.000000 0.888794
O O19 0.062190 0.750000 0.727458
O O20 0.000000 0.500000 0.721211
#
# Coordination Sequence:
#
# PCOD8180740 Si02
#       8
#     8   8   8   4   8   8   8   8
#     4  10  20  33  51  76 104 137 177 216 258 309
#     4   9  19  33  50  72 100 140 183 218 257 310
#     4   9  18  34  58  82 105 134 171 215 266 322
#     4  10  18  30  50  74  98 138 180 228 258 314
#     4  10  19  32  50  73 103 135 171 218 272 319
#     4   9  18  34  53  73 103 142 179 213 261 321
#     4  10  19  33  55  83 111 137 169 211 267 323
#     4  10  20  33  51  75 104 138 174 215 267 319
#
# _framework density 18.425498000000001
#
# number of rings (size 3 to 8) (size 9 to 14) (size 15 to 20)
#    0.000    2.400    0.667    2.000    0.933    3.733 
#    0.000    1.333    0.000    7.200    0.000    0.000 
#    0.000    0.000    0.000    0.000    0.000    0.000 
#
# Total GULP energy -371752.404731 kJ/mol
# GULP energy per Si atom -12391.746824 kJ/mol
# Density = 1.838356 g / cm^3
# Si number density = 18.425498 Si / 1000 Ang^3
#
#
#
# Elastic Constant Matrix: (Units=GPa)
#
#
# Indices 1 2 3 4 5 6 
#
# 1 153.6585 60.0172 66.4796 0.0000 0.0000 0.0000
# 2 60.0172 86.7902 34.3857 0.0000 0.0000 0.0000
# 3 66.4796 34.3857 85.7758 0.0000 0.0000 0.0000
# 4 0.0000 0.0000 0.0000 16.5519 0.0000 0.0000
# 5 0.0000 0.0000 0.0000 0.0000 14.7281 0.0000
# 6 0.0000 0.0000 0.0000 0.0000 0.0000 33.0128
#
#
#
# Elastic Compliance Matrix: (Units=1/GPa)
#
#
# Indices 1 2 3 4 5 6 
#
# 1 0.011510 -0.005260 -0.006812 0.000000 0.000000 0.000000
# 2 -0.005260 0.016102 -0.002378 0.000000 0.000000 0.000000
# 3 -0.006812 -0.002378 0.017891 0.000000 0.000000 0.000000
# 4 0.000000 0.000000 0.000000 0.060416 0.000000 0.000000
# 5 0.000000 0.000000 0.000000 0.000000 0.067898 0.000000
# 6 0.000000 0.000000 0.000000 0.000000 0.000000 0.030291
#
#
# Mechanical properties :
#
#
# Convention : Reuss Voigt Hill
#
# Bulk Modulus (GPa) = 60.23198 71.99884 66.11541
# Shear Modulus (GPa) = 20.96076 23.88134 22.42105
#
# Velocity S-wave (km/s) = 3.37648 3.60405 3.49212
# Velocity P-wave (km/s) = 6.92541 7.51528 7.22636
#
# Compressibility (1/GPa) = 0.01660248
#
# Stress axis : x y z
#
# Youngs Moduli (GPa) = 86.88391 62.10476 55.89464
#
# Poissons Ratio (x) = 0.32670 0.38073
# Poissons Ratio (y) = 0.45705 0.13291
# Poissons Ratio (z) = 0.59182 0.14768
#
# Static dielectric constant tensor:
#      x y z
#    x 4.079460 0.000000 0.000000 
#    y 0.000000 3.341900 0.000000 
#    z 0.000000 0.000000 3.429120 
# 
# 
# High freq. dielectric constant tensor:
#      x y z
#    x 1.716490 0.000000 0.000000 
#    y 0.000000 1.697870 0.000000 
#    z 0.000000 0.000000 1.707060 
# 
# From -- ./inp_files/16088.got.cif
#   From: 2010.03.12/outbox.cif.g09.slc.cpg/sg39_9_cif.got.tgz:16088.got - 2010.04.14 02:53:20.
