data_PCOD8180402
_publ_section_title
;
Structure prediction by ZEFSAII (Michael W. Deem and Ramdas Pophale) SiO2 
 PCOD8180402
Probable space group: A M M 2
;
_chemical_formula_sum "Si O2"
_cell_formula_units_Z 64
_cell_length_a 8.478598
_cell_length_b 23.905835
_cell_length_c 15.506652
_cell_angle_alpha 90.000000
_cell_angle_beta 90.000000
_cell_angle_gamma 90.000000
_cell_volume 3143.011735
_symmetry_space_group_name_H-M "A M M 2"
_symmetry_group_IT_number 38
_symmetry_cell_setting 'orthorhombic'
loop_
_space_group_symop_operation_xyz
x,y,z
-x,-y,z
-x,y,z
x,-y,z
x,1/2+y,1/2+z
-x,1/2-y,1/2+z
-x,1/2+y,1/2+z
x,1/2-y,1/2+z
loop_
_atom_site_type_symbol
_atom_site_label
_atom_site_fract_x
_atom_site_fract_y
_atom_site_fract_z
Si Si1 0.315797 0.864844 0.764650
Si Si2 0.815672 0.435681 0.113108
Si Si3 0.816393 0.858731 0.454355
Si Si4 0.314700 0.130485 0.955491
Si Si5 0.818640 0.749084 0.709750
Si Si6 0.683706 0.251357 0.523330
Si Si7 0.311813 0.062756 0.115859
Si Si8 0.683908 0.636867 0.774940
O O1 0.500000 0.849735 0.761163
O O2 0.278210 0.911773 0.694467
O O3 0.266657 0.888449 0.859073
O O4 0.217664 0.808898 0.750381
O O5 0.768144 0.500000 0.100684
O O6 0.000000 0.428306 0.131508
O O7 0.764896 0.403485 0.026458
O O8 0.715758 0.802314 0.464433
O O9 0.775958 0.883185 0.360359
O O10 0.000000 0.844628 0.461986
O O11 0.500000 0.127555 0.966950
O O12 0.259470 0.194169 0.971232
O O13 0.240904 0.089352 0.027641
O O14 0.786478 0.753458 0.608738
O O15 0.712746 0.701881 0.754310
O O16 0.000000 0.733942 0.726099
O O17 0.500000 0.254524 0.548555
O O18 0.500000 0.062953 0.113995
O O19 0.251039 0.099377 0.196249
O O20 0.245751 0.000000 0.124724
O O21 0.500000 0.626879 0.789902
#
# Coordination Sequence:
#
# PCOD8180402 Si02
#       8
#     8   8   8   8   8   8   8   8
#     4  11  22  37  62  93 121 154 199 251 300 355
#     4  10  23  43  62  82 118 166 207 247 301 361
#     4  11  23  39  60  88 120 158 200 245 303 365
#     4   9  19  35  57  89 121 151 189 237 298 354
#     4  12  23  37  59  88 123 161 196 241 303 367
#     4  11  20  36  62  90 121 156 194 244 301 361
#     4   9  18  35  59  86 117 153 195 247 301 348
#     4  11  22  38  61  89 120 157 201 250 299 355
#
# _framework density 20.362634
#
# number of rings (size 3 to 8) (size 9 to 14) (size 15 to 20)
#    0.000    1.500    2.500    3.375    0.000    2.750 
#    0.000    3.125    0.000    1.125    0.000    0.000 
#    0.000    0.000    0.000    0.000    0.000    0.000 
#
# Total GULP energy -396907.193481 kJ/mol
# GULP energy per Si atom -12403.349796 kJ/mol
# Density = 2.031629 g / cm^3
# Si number density = 20.362634 Si / 1000 Ang^3
#
#
#
# Elastic Constant Matrix: (Units=GPa)
#
#
# Indices 1 2 3 4 5 6 
#
# 1 44.7701 15.7843 20.5134 0.0000 0.0000 0.0000
# 2 15.7843 129.0897 62.2092 0.0000 0.0000 0.0000
# 3 20.5134 62.2092 170.9511 0.0000 0.0000 0.0000
# 4 0.0000 0.0000 0.0000 14.9909 0.0000 0.0000
# 5 0.0000 0.0000 0.0000 0.0000 22.0515 0.0000
# 6 0.0000 0.0000 0.0000 0.0000 0.0000 19.8177
#
#
#
# Elastic Compliance Matrix: (Units=1/GPa)
#
#
# Indices 1 2 3 4 5 6 
#
# 1 0.024005 -0.001876 -0.002198 0.000000 0.000000 0.000000
# 2 -0.001876 0.009541 -0.003247 0.000000 0.000000 0.000000
# 3 -0.002198 -0.003247 0.007295 0.000000 0.000000 0.000000
# 4 0.000000 0.000000 0.000000 0.066707 0.000000 0.000000
# 5 0.000000 0.000000 0.000000 0.000000 0.045348 0.000000
# 6 0.000000 0.000000 0.000000 0.000000 0.000000 0.050460
#
#
# Mechanical properties :
#
#
# Convention : Reuss Voigt Hill
#
# Bulk Modulus (GPa) = 38.16920 60.20275 49.18597
# Shear Modulus (GPa) = 22.05272 27.79230 24.92251
#
# Velocity S-wave (km/s) = 3.29447 3.69842 3.50227
# Velocity P-wave (km/s) = 5.76687 6.91861 6.36883
#
# Compressibility (1/GPa) = 0.02619914
#
# Stress axis : x y z
#
# Youngs Moduli (GPa) = 41.65837 104.81582 137.08342
#
# Poissons Ratio (x) = 0.19664 0.30128
# Poissons Ratio (y) = 0.07815 0.44507
# Poissons Ratio (z) = 0.09156 0.34031
#
# Static dielectric constant tensor:
#      x y z
#    x 3.401450 0.000000 0.000000 
#    y 0.000000 3.752030 0.000000 
#    z 0.000000 0.000000 3.962320 
# 
# 
# High freq. dielectric constant tensor:
#      x y z
#    x 1.772620 0.000000 0.000000 
#    y 0.000000 1.790010 0.000000 
#    z 0.000000 0.000000 1.813070 
# 
# From -- ./inp_files/12715.got.cif
#   From: 2010.03.12/outbox.cif.g09.slc.cpg/sg38_7_cif.got.tgz:12715.got - 2010.04.14 02:38:36.
