data_PCOD8180955
_publ_section_title
;
Structure prediction by ZEFSAII (Michael W. Deem and Ramdas Pophale) SiO2 
 PCOD8180955
Probable space group: A B M 2
;
_chemical_formula_sum "Si O2"
_cell_formula_units_Z 64
_cell_length_a 9.317474
_cell_length_b 15.071142
_cell_length_c 21.095654
_cell_angle_alpha 90.000000
_cell_angle_beta 90.000000
_cell_angle_gamma 90.000000
_cell_volume 2962.356659
_symmetry_space_group_name_H-M "A B M 2"
_symmetry_group_IT_number 39
_symmetry_cell_setting 'orthorhombic'
loop_
_space_group_symop_operation_xyz
x,y,z
-x,-y,z
-x,1/2+y,z
x,1/2-y,z
x,1/2+y,1/2+z
-x,1/2-y,1/2+z
-x,y,1/2+z
x,-y,1/2+z
loop_
_atom_site_type_symbol
_atom_site_label
_atom_site_fract_x
_atom_site_fract_y
_atom_site_fract_z
Si Si1 0.299534 0.096236 0.524150
Si Si2 0.196539 0.591430 0.561670
Si Si3 0.107613 0.846894 0.430694
Si Si4 0.783266 0.649948 0.395817
Si Si5 0.835337 0.981968 0.824960
Si Si6 0.074922 0.153530 0.615368
Si Si7 0.294700 0.645596 0.222821
Si Si8 0.519521 0.147268 0.619162
O O1 0.328992 0.126833 0.451857
O O2 0.189622 0.162565 0.558597
O O3 0.450777 0.094982 0.560205
O O4 0.230401 0.000106 0.528425
O O5 0.168237 0.656655 0.502354
O O6 0.313014 0.623934 0.613774
O O7 0.050940 0.583141 0.602496
O O8 0.143318 0.750000 0.400609
O O9 0.173748 0.926103 0.389827
O O10 0.936667 0.861015 0.429910
O O11 0.757561 0.750000 0.369416
O O12 0.766169 0.579417 0.338254
O O13 0.733474 0.925321 0.778307
O O14 0.000000 0.000000 0.801729
O O15 0.002582 0.250000 0.623919
O O16 0.160175 0.126072 0.677863
O O17 0.296950 0.750000 0.244750
O O18 0.444150 0.620725 0.186295
O O19 0.490988 0.250000 0.608395
#
# Coordination Sequence:
#
# PCOD8180955 Si02
#       8
#     8   8   8   8   8   8   8   8
#     4  11  20  34  54  87 129 162 196 246 313 385
#     4  12  21  33  56  95 131 157 203 260 308 374
#     4  10  19  31  53  89 129 161 196 256 316 367
#     4  10  19  33  55  90 129 162 199 253 319 374
#     4  10  20  34  57  90 123 159 212 261 306 369
#     4  10  20  34  58  90 124 162 201 250 313 374
#     4   9  20  39  59  86 123 167 210 252 309 378
#     4  10  22  38  57  86 123 166 207 252 315 375
#
# _framework density 21.604420999999999
#
# number of rings (size 3 to 8) (size 9 to 14) (size 15 to 20)
#    0.000    1.750    2.500    4.125    0.000    2.500 
#    0.000    0.000    0.000    0.000   26.000    2.625 
#    0.000    0.000    0.000    0.000    0.000    0.000 
#
# Total GULP energy -396523.915060 kJ/mol
# GULP energy per Si atom -12391.372346 kJ/mol
# Density = 2.155525 g / cm^3
# Si number density = 21.604421 Si / 1000 Ang^3
#
#
#
# Elastic Constant Matrix: (Units=GPa)
#
#
# Indices 1 2 3 4 5 6 
#
# 1 70.8799 14.1414 28.3994 0.0000 0.0000 0.0000
# 2 14.1414 122.4085 40.8340 0.0000 0.0000 0.0000
# 3 28.3994 40.8340 92.4452 0.0000 0.0000 0.0000
# 4 0.0000 0.0000 0.0000 30.7721 0.0000 0.0000
# 5 0.0000 0.0000 0.0000 0.0000 23.8413 0.0000
# 6 0.0000 0.0000 0.0000 0.0000 0.0000 15.2720
#
#
#
# Elastic Compliance Matrix: (Units=1/GPa)
#
#
# Indices 1 2 3 4 5 6 
#
# 1 0.016095 -0.000246 -0.004836 0.000000 0.000000 0.000000
# 2 -0.000246 0.009585 -0.004158 0.000000 0.000000 0.000000
# 3 -0.004836 -0.004158 0.014139 0.000000 0.000000 0.000000
# 4 0.000000 0.000000 0.000000 0.032497 0.000000 0.000000
# 5 0.000000 0.000000 0.000000 0.000000 0.041944 0.000000
# 6 0.000000 0.000000 0.000000 0.000000 0.000000 0.065479
#
#
# Mechanical properties :
#
#
# Convention : Reuss Voigt Hill
#
# Bulk Modulus (GPa) = 46.86193 50.27592 48.56892
# Shear Modulus (GPa) = 24.35073 27.46767 25.90920
#
# Velocity S-wave (km/s) = 3.36090 3.56953 3.46678
# Velocity P-wave (km/s) = 6.06621 6.34904 6.20923
#
# Compressibility (1/GPa) = 0.02133928
#
# Stress axis : x y z
#
# Youngs Moduli (GPa) = 62.13108 104.33070 70.72433
#
# Poissons Ratio (x) = 0.02569 0.34200
# Poissons Ratio (y) = 0.01530 0.29408
# Poissons Ratio (z) = 0.30044 0.43382
#
# Static dielectric constant tensor:
#      x y z
#    x 3.686290 0.000000 0.000000 
#    y 0.000000 4.035080 0.000000 
#    z 0.000000 0.000000 3.659900 
# 
# 
# High freq. dielectric constant tensor:
#      x y z
#    x 1.819290 0.000000 0.000000 
#    y 0.000000 1.867690 0.000000 
#    z 0.000000 0.000000 1.818850 
# 
# From -- ./inp_files/15674.got.cif
#   From: 2010.03.12/outbox.cif.g09.slc.cpg/sg39_8_cif.got.tgz:15674.got - 2010.04.14 02:53:20.
