data_PCOD8180448
_publ_section_title
;
Structure prediction by ZEFSAII (Michael W. Deem and Ramdas Pophale) SiO2 
 PCOD8180448
Probable space group: A M M 2
;
_chemical_formula_sum "Si O2"
_cell_formula_units_Z 56
_cell_length_a 8.791747
_cell_length_b 14.362535
_cell_length_c 22.663927
_cell_angle_alpha 90.000000
_cell_angle_beta 90.000000
_cell_angle_gamma 90.000000
_cell_volume 2861.814268
_symmetry_space_group_name_H-M "A M M 2"
_symmetry_group_IT_number 38
_symmetry_cell_setting 'orthorhombic'
loop_
_space_group_symop_operation_xyz
x,y,z
-x,-y,z
-x,y,z
x,-y,z
x,1/2+y,1/2+z
-x,1/2-y,1/2+z
-x,1/2+y,1/2+z
x,1/2-y,1/2+z
loop_
_atom_site_type_symbol
_atom_site_label
_atom_site_fract_x
_atom_site_fract_y
_atom_site_fract_z
Si Si1 0.321158 0.106871 0.992520
Si Si2 0.820214 0.280718 0.598899
Si Si3 0.820971 0.395475 0.707735
Si Si4 0.819715 0.102301 0.338414
Si Si5 0.321662 0.104739 0.642763
Si Si6 0.177548 0.704789 0.383164
Si Si7 0.326571 0.608144 0.277762
O O1 0.500000 0.113198 0.001186
O O2 0.278670 0.149659 0.929518
O O3 0.265146 0.000000 0.995308
O O4 0.240485 0.166496 0.042227
O O5 0.750721 0.327713 0.658167
O O6 0.766887 0.173646 0.598823
O O7 0.000000 0.286028 0.596505
O O8 0.779779 0.500000 0.688236
O O9 0.752469 0.375690 0.772923
O O10 0.000000 0.380410 0.709174
O O11 0.774503 0.185281 0.383148
O O12 0.000000 0.098233 0.332084
O O13 0.760770 0.000000 0.360340
O O14 0.500000 0.118131 0.633811
O O15 0.276553 0.125488 0.710414
O O16 0.273012 0.000000 0.625788
O O17 0.210439 0.665111 0.318231
O O18 0.000000 0.692626 0.398116
O O19 0.500000 0.641393 0.288266
O O20 0.312871 0.500000 0.293817
#
# Coordination Sequence:
#
# PCOD8180448 Si02
#       7
#     8   8   8   8   8   8   8
#     4  11  25  43  59  75 102 143 185 222 268 333
#     4  11  21  34  56  84 111 139 177 228 280 324
#     4   8  14  26  47  77 111 141 166 201 258 323
#     4   8  15  29  49  76 110 141 167 202 256 320
#     4   9  19  36  56  79 111 150 187 221 263 323
#     4  11  21  33  54  82 108 138 181 233 281 319
#     4   9  18  33  53  78 111 150 184 216 264 325
#
# _framework density 19.568007000000001
#
# number of rings (size 3 to 8) (size 9 to 14) (size 15 to 20)
#    0.000    2.429    0.000    4.714    0.000    5.714 
#    0.000    2.143    0.000    4.286    0.000    8.000 
#    0.000    0.000    0.000    0.000    0.000    0.000 
#
# Total GULP energy -347115.272184 kJ/mol
# GULP energy per Si atom -12396.974007 kJ/mol
# Density = 1.952347 g / cm^3
# Si number density = 19.568007 Si / 1000 Ang^3
#
#
#
# Elastic Constant Matrix: (Units=GPa)
#
#
# Indices 1 2 3 4 5 6 
#
# 1 43.4176 37.4442 26.3944 0.0000 0.0000 0.0000
# 2 37.4442 140.6380 65.7690 0.0000 0.0000 0.0000
# 3 26.3944 65.7690 70.9258 0.0000 0.0000 0.0000
# 4 0.0000 0.0000 0.0000 35.3933 0.0000 0.0000
# 5 0.0000 0.0000 0.0000 0.0000 29.0465 0.0000
# 6 0.0000 0.0000 0.0000 0.0000 0.0000 25.2522
#
#
#
# Elastic Compliance Matrix: (Units=1/GPa)
#
#
# Indices 1 2 3 4 5 6 
#
# 1 0.031763 -0.005172 -0.007025 0.000000 0.000000 0.000000
# 2 -0.005172 0.013397 -0.010498 0.000000 0.000000 0.000000
# 3 -0.007025 -0.010498 0.026448 0.000000 0.000000 0.000000
# 4 0.000000 0.000000 0.000000 0.028254 0.000000 0.000000
# 5 0.000000 0.000000 0.000000 0.000000 0.034428 0.000000
# 6 0.000000 0.000000 0.000000 0.000000 0.000000 0.039600
#
#
# Mechanical properties :
#
#
# Convention : Reuss Voigt Hill
#
# Bulk Modulus (GPa) = 38.14035 57.13295 47.63665
# Shear Modulus (GPa) = 21.92807 26.29666 24.11236
#
# Velocity S-wave (km/s) = 3.35118 3.66985 3.51413
# Velocity P-wave (km/s) = 5.87430 6.87150 6.39237
#
# Compressibility (1/GPa) = 0.02621895
#
# Stress axis : x y z
#
# Youngs Moduli (GPa) = 31.48352 74.64450 37.80964
#
# Poissons Ratio (x) = 0.38603 0.26560
# Poissons Ratio (y) = 0.16282 0.39693
# Poissons Ratio (z) = 0.22116 0.78363
#
# Static dielectric constant tensor:
#      x y z
#    x 3.205900 0.000000 0.000000 
#    y 0.000000 3.910600 0.000000 
#    z 0.000000 0.000000 3.491550 
# 
# 
# High freq. dielectric constant tensor:
#      x y z
#    x 1.733020 0.000000 0.000000 
#    y 0.000000 1.779030 0.000000 
#    z 0.000000 0.000000 1.745390 
# 
# From -- ./inp_files/19815.got.cif
#   From: 2010.03.12/outbox.cif.g09.slc.cpg/sg38_10_cif.got.tgz:19815.got - 2010.04.14 02:38:36.
