data_PCOD8180390
_publ_section_title
;
Structure prediction by ZEFSAII (Michael W. Deem and Ramdas Pophale) SiO2 
 PCOD8180390
Probable space group: A M M 2
;
_chemical_formula_sum "Si O2"
_cell_formula_units_Z 56
_cell_length_a 18.196863
_cell_length_b 9.027014
_cell_length_c 20.763963
_cell_angle_alpha 90.000000
_cell_angle_beta 90.000000
_cell_angle_gamma 90.000000
_cell_volume 3410.757853
_symmetry_space_group_name_H-M "A M M 2"
_symmetry_group_IT_number 38
_symmetry_cell_setting 'orthorhombic'
loop_
_space_group_symop_operation_xyz
x,y,z
-x,-y,z
-x,y,z
x,-y,z
x,1/2+y,1/2+z
-x,1/2-y,1/2+z
-x,1/2+y,1/2+z
x,1/2-y,1/2+z
loop_
_atom_site_type_symbol
_atom_site_label
_atom_site_fract_x
_atom_site_fract_y
_atom_site_fract_z
Si Si1 0.084628 0.173212 0.886850
Si Si2 0.149403 0.829012 0.507968
Si Si3 0.841416 0.674025 0.253094
Si Si4 0.716951 0.670281 0.701617
Si Si5 0.417732 0.171340 0.126115
Si Si6 0.086724 0.168852 0.131393
Si Si7 0.709742 0.829527 0.578009
O O1 0.116253 0.217700 0.817656
O O2 0.000000 0.221579 0.889789
O O3 0.093863 0.000000 0.900263
O O4 0.130342 0.260830 0.939601
O O5 0.106716 0.748175 0.564785
O O6 0.238405 0.812955 0.515737
O O7 0.126005 0.000000 0.509505
O O8 0.840073 0.500000 0.241909
O O9 0.756816 0.736375 0.258128
O O10 0.881189 0.750453 0.193653
O O11 0.738275 0.500000 0.710089
O O12 0.627777 0.690771 0.694115
O O13 0.750988 0.736824 0.634804
O O14 0.500000 0.235022 0.134298
O O15 0.372901 0.260325 0.070004
O O16 0.419802 0.000000 0.105862
O O17 0.000000 0.174133 0.138325
O O18 0.115516 0.000000 0.129416
O O19 0.701725 0.000000 0.599054
#
# Coordination Sequence:
#
# PCOD8180390 Si02
#       7
#     8   8   8   8   8   8   8
#     4  10  23  40  54  70  97 133 172 217 268 313
#     4  11  22  35  52  73  99 130 167 213 256 303
#     4  11  21  35  53  73  98 129 167 213 258 305
#     4   9  17  29  48  72 100 132 163 200 242 292
#     4   8  15  27  44  72 108 138 164 199 245 296
#     4  11  22  33  49  72  96 125 162 204 253 308
#     4   9  17  29  46  72 101 129 163 203 245 291
#
# _framework density 16.418638999999999
#
# number of rings (size 3 to 8) (size 9 to 14) (size 15 to 20)
#    0.857    1.286    1.429    2.571    0.000    6.857 
#    0.000    0.000    0.000    0.000    0.000    1.000 
#    0.000    3.429    0.000    0.000    0.000    0.000 
#
# Total GULP energy -346868.695900 kJ/mol
# GULP energy per Si atom -12388.167711 kJ/mol
# Density = 1.638127 g / cm^3
# Si number density = 16.418639 Si / 1000 Ang^3
#
#
#
# Elastic Constant Matrix: (Units=GPa)
#
#
# Indices 1 2 3 4 5 6 
#
# 1 107.2948 44.5875 37.1918 0.0000 0.0000 0.0000
# 2 44.5875 89.8635 51.9832 0.0000 0.0000 0.0000
# 3 37.1918 51.9832 71.5966 0.0000 0.0000 0.0000
# 4 0.0000 0.0000 0.0000 27.2065 0.0000 0.0000
# 5 0.0000 0.0000 0.0000 0.0000 19.7828 0.0000
# 6 0.0000 0.0000 0.0000 0.0000 0.0000 25.5351
#
#
#
# Elastic Compliance Matrix: (Units=1/GPa)
#
#
# Indices 1 2 3 4 5 6 
#
# 1 0.012189 -0.004112 -0.003346 0.000000 0.000000 0.000000
# 2 -0.004112 0.020574 -0.012801 0.000000 0.000000 0.000000
# 3 -0.003346 -0.012801 0.025000 0.000000 0.000000 0.000000
# 4 0.000000 0.000000 0.000000 0.036756 0.000000 0.000000
# 5 0.000000 0.000000 0.000000 0.000000 0.050549 0.000000
# 6 0.000000 0.000000 0.000000 0.000000 0.000000 0.039162
#
#
# Mechanical properties :
#
#
# Convention : Reuss Voigt Hill
#
# Bulk Modulus (GPa) = 57.99450 59.58666 58.79058
# Shear Modulus (GPa) = 21.69240 23.50438 22.59839
#
# Velocity S-wave (km/s) = 3.63878 3.78771 3.71399
# Velocity P-wave (km/s) = 7.28377 7.44982 7.36727
#
# Compressibility (1/GPa) = 0.01724301
#
# Stress axis : x y z
#
# Youngs Moduli (GPa) = 82.04264 48.60610 40.00033
#
# Poissons Ratio (x) = 0.19988 0.13384
# Poissons Ratio (y) = 0.33737 0.51206
# Poissons Ratio (z) = 0.27451 0.62223
#
# Static dielectric constant tensor:
#      x y z
#    x 3.309220 0.000000 0.000000 
#    y 0.000000 3.226760 0.000000 
#    z 0.000000 0.000000 2.815300 
# 
# 
# High freq. dielectric constant tensor:
#      x y z
#    x 1.633700 0.000000 0.000000 
#    y 0.000000 1.648150 0.000000 
#    z 0.000000 0.000000 1.591400 
# 
# From -- ./inp_files/21495.got.cif
#   From: 2010.03.12/outbox.cif.g09.slc.cpg/sg38_11_cif.got.tgz:21495.got - 2010.04.14 02:38:36.
