data_PCOD8180334
_publ_section_title
;
Structure prediction by ZEFSAII (Michael W. Deem and Ramdas Pophale) SiO2 
 PCOD8180334
Probable space group: A M M 2
;
_chemical_formula_sum "Si O2"
_cell_formula_units_Z 40
_cell_length_a 9.134069
_cell_length_b 7.553878
_cell_length_c 29.115155
_cell_angle_alpha 90.000000
_cell_angle_beta 90.000000
_cell_angle_gamma 90.000000
_cell_volume 2008.877067
_symmetry_space_group_name_H-M "A M M 2"
_symmetry_group_IT_number 38
_symmetry_cell_setting 'orthorhombic'
loop_
_space_group_symop_operation_xyz
x,y,z
-x,-y,z
-x,y,z
x,-y,z
x,1/2+y,1/2+z
-x,1/2-y,1/2+z
-x,1/2+y,1/2+z
x,1/2-y,1/2+z
loop_
_atom_site_type_symbol
_atom_site_label
_atom_site_fract_x
_atom_site_fract_y
_atom_site_fract_z
Si Si1 0.332386 0.198853 0.598850
Si Si2 0.671196 0.800023 0.376404
Si Si3 0.174572 0.500000 0.543341
Si Si4 0.837889 0.789911 0.288149
Si Si5 0.328029 0.500000 0.446965
Si Si6 0.169154 0.791731 0.186651
O O1 0.500000 0.266401 0.598316
O O2 0.233046 0.324574 0.567890
O O3 0.273312 0.193818 0.650812
O O4 0.323065 0.000000 0.578786
O O5 0.500000 0.798700 0.368769
O O6 0.736759 0.720249 0.329296
O O7 0.715194 0.675232 0.418595
O O8 0.727802 0.000000 0.386669
O O9 0.228680 0.500000 0.491458
O O10 0.000000 0.500000 0.545440
O O11 0.782328 0.728691 0.237798
O O12 0.000000 0.714219 0.296800
O O13 0.841345 0.000000 0.288056
O O14 0.500000 0.500000 0.459922
O O15 0.000000 0.740247 0.178016
O O16 0.190453 0.000000 0.180069
#
# Coordination Sequence:
#
# PCOD8180334 Si02
#       6
#     8   8   4   8   4   8
#     4  11  24  41  62  89 120 156 199 247 300 359
#     4   9  18  34  56  81 111 149 191 235 287 343
#     4  12  26  44  66  90 118 154 198 252 309 366
#     4   8  15  29  51  80 115 154 193 232 282 342
#     4  10  22  40  60  84 114 148 192 248 301 352
#     4   9  17  32  56  85 118 159 200 241 293 348
#
# _framework density 19.911619000000002
#
# number of rings (size 3 to 8) (size 9 to 14) (size 15 to 20)
#    0.000    2.400    1.000    2.700    0.000    4.000 
#    1.800    4.000    0.000    0.000    0.000    0.000 
#    0.000    0.000    0.000    0.000    0.000    0.000 
#
# Total GULP energy -247947.662989 kJ/mol
# GULP energy per Si atom -12397.383149 kJ/mol
# Density = 1.986630 g / cm^3
# Si number density = 19.911619 Si / 1000 Ang^3
#
#
#
# Elastic Constant Matrix: (Units=GPa)
#
#
# Indices 1 2 3 4 5 6 
#
# 1 104.6731 48.1530 78.4488 0.0000 0.0000 0.0000
# 2 48.1530 89.1654 54.4779 0.0000 0.0000 0.0000
# 3 78.4488 54.4779 159.0574 0.0000 0.0000 0.0000
# 4 0.0000 0.0000 0.0000 -8.4988 0.0000 0.0000
# 5 0.0000 0.0000 0.0000 0.0000 41.5268 0.0000
# 6 0.0000 0.0000 0.0000 0.0000 0.0000 12.8015
#
#
#
# Elastic Compliance Matrix: (Units=1/GPa)
#
#
# Indices 1 2 3 4 5 6 
#
# 1 0.016791 -0.005069 -0.006545 0.000000 0.000000 0.000000
# 2 -0.005069 0.015713 -0.002882 0.000000 0.000000 0.000000
# 3 -0.006545 -0.002882 0.010502 0.000000 0.000000 0.000000
# 4 0.000000 0.000000 0.000000 -0.117664 0.000000 0.000000
# 5 0.000000 0.000000 0.000000 0.000000 0.024081 0.000000
# 6 0.000000 0.000000 0.000000 0.000000 0.000000 0.078116
#
#
# Mechanical properties :
#
#
# Convention : Reuss Voigt Hill
#
# Bulk Modulus (GPa) = 71.35494 79.45060 75.40277
# Shear Modulus (GPa) = 81.69641 20.62032 51.15837
#
# Velocity S-wave (km/s) = 6.41238 3.22155 5.07430
# Velocity P-wave (km/s) = 9.52567 7.33663 8.50190
#
# Compressibility (1/GPa) = 0.01401445
#
# Stress axis : x y z
#
# Youngs Moduli (GPa) = 59.55627 63.64079 95.21668
#
# Poissons Ratio (x) = 0.32257 0.62323
# Poissons Ratio (y) = 0.30187 0.27441
# Poissons Ratio (z) = 0.38982 0.18341
#
# Static dielectric constant tensor:
#      x y z
#    x 3.643010 0.000000 0.000000 
#    y 0.000000 3.762520 0.000000 
#    z 0.000000 0.000000 3.773280 
# 
# 
# High freq. dielectric constant tensor:
#      x y z
#    x 1.766770 0.000000 0.000000 
#    y 0.000000 1.773340 0.000000 
#    z 0.000000 0.000000 1.777400 
# 
# From -- ./inp_files/23276.got.cif
#   From: 2010.03.12/outbox.cif.g09.slc.cpg/sg38_12_cif.got.tgz:23276.got - 2010.04.14 02:38:36.
