data_PCOD8180989
_publ_section_title
;
Structure prediction by ZEFSAII (Michael W. Deem and Ramdas Pophale) SiO2 
 PCOD8180989
Probable space group: A B M 2
;
_chemical_formula_sum "Si O2"
_cell_formula_units_Z 56
_cell_length_a 15.200155
_cell_length_b 8.725118
_cell_length_c 19.982373
_cell_angle_alpha 90.000000
_cell_angle_beta 90.000000
_cell_angle_gamma 90.000000
_cell_volume 2650.125172
_symmetry_space_group_name_H-M "A B M 2"
_symmetry_group_IT_number 39
_symmetry_cell_setting 'orthorhombic'
loop_
_space_group_symop_operation_xyz
x,y,z
-x,-y,z
-x,1/2+y,z
x,1/2-y,z
x,1/2+y,1/2+z
-x,1/2-y,1/2+z
-x,y,1/2+z
x,-y,1/2+z
loop_
_atom_site_type_symbol
_atom_site_label
_atom_site_fract_x
_atom_site_fract_y
_atom_site_fract_z
Si Si1 0.229931 0.069887 0.437120
Si Si2 0.650366 0.078412 0.617932
Si Si3 0.824738 0.927359 0.581813
Si Si4 0.409142 0.928398 0.763323
Si Si5 0.227889 0.569559 0.301717
Si Si6 0.090749 0.429547 0.200987
Si Si7 0.588953 0.075055 0.473781
O O1 0.225247 0.250000 0.424428
O O2 0.174752 0.023689 0.503573
O O3 0.188441 0.981810 0.373643
O O4 0.330883 0.021859 0.445027
O O5 0.692059 0.250000 0.621919
O O6 0.594206 0.043136 0.683709
O O7 0.586570 0.066220 0.554340
O O8 0.728400 0.956086 0.612470
O O9 0.848151 0.750000 0.590469
O O10 0.896241 0.025076 0.622975
O O11 0.404854 0.750000 0.781990
O O12 0.500000 0.000000 0.790399
O O13 0.328522 0.014073 0.798804
O O14 0.221646 0.750000 0.293397
O O15 0.172649 0.492323 0.242885
O O16 0.085805 0.250000 0.209408
O O17 0.000000 0.500000 0.228235
O O18 0.597058 0.250000 0.448789
O O19 0.500000 0.000000 0.445636
#
# Coordination Sequence:
#
# PCOD8180989 Si02
#       7
#     8   8   8   8   8   8   8
#     4  10  22  40  62  88 122 166 209 255 314 374
#     4   9  18  32  53  81 118 161 204 256 315 370
#     4  10  20  37  64  95 125 159 203 253 309 372
#     4  11  22  36  56  86 124 170 217 266 318 373
#     4  12  25  43  65  93 129 170 215 264 318 379
#     4  12  25  44  71 101 132 165 206 257 315 378
#     4  10  19  32  51  80 116 159 211 263 315 370
#
# _framework density 21.131077999999999
#
# number of rings (size 3 to 8) (size 9 to 14) (size 15 to 20)
#    0.000    1.429    1.429    4.714    0.000    3.429 
#    0.000    3.571    0.000    3.429    0.000    0.000 
#    0.000    0.000    0.000    0.000    0.000    0.000 
#
# Total GULP energy -347288.917690 kJ/mol
# GULP energy per Si atom -12403.175632 kJ/mol
# Density = 2.108298 g / cm^3
# Si number density = 21.131078 Si / 1000 Ang^3
#
#
#
# Elastic Constant Matrix: (Units=GPa)
#
#
# Indices 1 2 3 4 5 6 
#
# 1 76.0752 37.9431 23.4883 0.0000 0.0000 0.0000
# 2 37.9431 141.3632 47.2225 0.0000 0.0000 0.0000
# 3 23.4883 47.2225 104.7287 0.0000 0.0000 0.0000
# 4 0.0000 0.0000 0.0000 30.9940 0.0000 0.0000
# 5 0.0000 0.0000 0.0000 0.0000 6.6833 0.0000
# 6 0.0000 0.0000 0.0000 0.0000 0.0000 35.4834
#
#
#
# Elastic Compliance Matrix: (Units=1/GPa)
#
#
# Indices 1 2 3 4 5 6 
#
# 1 0.015486 -0.003528 -0.001882 0.000000 0.000000 0.000000
# 2 -0.003528 0.009132 -0.003327 0.000000 0.000000 0.000000
# 3 -0.001882 -0.003327 0.011471 0.000000 0.000000 0.000000
# 4 0.000000 0.000000 0.000000 0.032264 0.000000 0.000000
# 5 0.000000 0.000000 0.000000 0.000000 0.149627 0.000000
# 6 0.000000 0.000000 0.000000 0.000000 0.000000 0.028182
#
#
# Mechanical properties :
#
#
# Convention : Reuss Voigt Hill
#
# Bulk Modulus (GPa) = 53.71998 59.94165 56.83081
# Shear Modulus (GPa) = 18.52950 28.86635 23.69792
#
# Velocity S-wave (km/s) = 2.96443 3.70004 3.35247
# Velocity P-wave (km/s) = 6.09874 6.83241 6.47597
#
# Compressibility (1/GPa) = 0.01861505
#
# Stress axis : x y z
#
# Youngs Moduli (GPa) = 64.57644 109.50455 87.17938
#
# Poissons Ratio (x) = 0.38629 0.16411
# Poissons Ratio (y) = 0.22780 0.29000
# Poissons Ratio (z) = 0.12156 0.36427
#
# Static dielectric constant tensor:
#      x y z
#    x 3.577940 0.000000 0.000000 
#    y 0.000000 3.836790 0.000000 
#    z 0.000000 0.000000 4.086230 
# 
# 
# High freq. dielectric constant tensor:
#      x y z
#    x 1.799070 0.000000 0.000000 
#    y 0.000000 1.837490 0.000000 
#    z 0.000000 0.000000 1.838740 
# 
# From -- ./inp_files/14796.got.cif
#   From: 2010.03.12/outbox.cif.g09.slc.cpg/sg39_8_cif.got.tgz:14796.got - 2010.04.14 02:53:20.
