data_PCOD8180229
_publ_section_title
;
Structure prediction by ZEFSAII (Michael W. Deem and Ramdas Pophale) SiO2 
 PCOD8180229
Probable space group: A M M 2
;
_chemical_formula_sum "Si O2"
_cell_formula_units_Z 48
_cell_length_a 15.124383
_cell_length_b 8.807448
_cell_length_c 18.843590
_cell_angle_alpha 90.000000
_cell_angle_beta 90.000000
_cell_angle_gamma 90.000000
_cell_volume 2510.102179
_symmetry_space_group_name_H-M "A M M 2"
_symmetry_group_IT_number 38
_symmetry_cell_setting 'orthorhombic'
loop_
_space_group_symop_operation_xyz
x,y,z
-x,-y,z
-x,y,z
x,-y,z
x,1/2+y,1/2+z
-x,1/2-y,1/2+z
-x,1/2+y,1/2+z
x,1/2-y,1/2+z
loop_
_atom_site_type_symbol
_atom_site_label
_atom_site_fract_x
_atom_site_fract_y
_atom_site_fract_z
Si Si1 0.849472 0.172961 0.934510
Si Si2 0.500000 0.824017 0.346817
Si Si3 0.000000 0.180693 0.188494
Si Si4 0.650715 0.320444 0.089744
Si Si5 0.000000 0.677627 0.846923
Si Si6 0.836761 0.176724 0.096553
Si Si7 0.647347 0.678792 0.439252
Si Si8 0.500000 0.823520 0.179765
O O1 0.748198 0.216867 0.918863
O O2 0.911537 0.276900 0.887364
O O3 0.868953 0.000000 0.913577
O O4 0.871621 0.200855 0.016781
O O5 0.587261 0.745723 0.377596
O O6 0.500000 0.798465 0.263463
O O7 0.500000 0.000000 0.367743
O O8 0.000000 0.248203 0.267836
O O9 0.912170 0.239262 0.148863
O O10 0.000000 0.000000 0.185617
O O11 0.642088 0.500000 0.086474
O O12 0.749687 0.274212 0.111038
O O13 0.587072 0.255521 0.149710
O O14 0.621733 0.253355 0.014011
O O15 0.000000 0.500000 0.838808
O O16 0.813507 0.000000 0.109098
O O17 0.632423 0.500000 0.446998
O O18 0.500000 0.000000 0.159213
#
# Coordination Sequence:
#
# PCOD8180229 Si02
#       8
#     8   4   4   8   4   8   8   4
#     4   9  19  36  58  80 103 140 185 225 266 321
#     4  11  24  39  58  85 115 147 184 231 280 325
#     4   9  19  35  55  79 108 145 186 224 268 329
#     4  11  22  37  59  87 115 142 183 236 281 324
#     4  11  22  33  51  81 114 145 176 222 280 329
#     4   9  18  37  61  80 103 142 190 230 270 324
#     4  10  21  39  62  84 110 147 188 228 277 336
#     4  11  24  41  58  79 113 155 190 221 272 337
#
# _framework density 19.122727000000001
#
# number of rings (size 3 to 8) (size 9 to 14) (size 15 to 20)
#    0.000    2.000    0.000    4.750    0.000    7.333 
#    0.000    7.083    0.000    0.000    0.000    0.000 
#    0.000    0.000    0.000    0.000    0.000    0.000 
#
# Total GULP energy -297690.840783 kJ/mol
# GULP energy per Si atom -12403.785033 kJ/mol
# Density = 1.907920 g / cm^3
# Si number density = 19.122727 Si / 1000 Ang^3
#
#
#
# Elastic Constant Matrix: (Units=GPa)
#
#
# Indices 1 2 3 4 5 6 
#
# 1 120.8545 55.5159 77.2820 0.0000 0.0000 0.0000
# 2 55.5159 111.1110 57.8903 0.0000 0.0000 0.0000
# 3 77.2820 57.8903 115.4496 0.0000 0.0000 0.0000
# 4 0.0000 0.0000 0.0000 29.5428 0.0000 0.0000
# 5 0.0000 0.0000 0.0000 0.0000 10.3006 0.0000
# 6 0.0000 0.0000 0.0000 0.0000 0.0000 29.2008
#
#
#
# Elastic Compliance Matrix: (Units=1/GPa)
#
#
# Indices 1 2 3 4 5 6 
#
# 1 0.015221 -0.003109 -0.008630 0.000000 0.000000 0.000000
# 2 -0.003109 0.012818 -0.004346 0.000000 0.000000 0.000000
# 3 -0.008630 -0.004346 0.016618 0.000000 0.000000 0.000000
# 4 0.000000 0.000000 0.000000 0.033849 0.000000 0.000000
# 5 0.000000 0.000000 0.000000 0.000000 0.097082 0.000000
# 6 0.000000 0.000000 0.000000 0.000000 0.000000 0.034246
#
#
# Mechanical properties :
#
#
# Convention : Reuss Voigt Hill
#
# Bulk Modulus (GPa) = 80.08522 80.97684 80.53103
# Shear Modulus (GPa) = 20.31150 24.25732 22.28441
#
# Velocity S-wave (km/s) = 3.26262 3.56547 3.41741
# Velocity P-wave (km/s) = 7.49423 7.70636 7.60103
#
# Compressibility (1/GPa) = 0.01248670
#
# Stress axis : x y z
#
# Youngs Moduli (GPa) = 65.69808 78.01709 60.17484
#
# Poissons Ratio (x) = 0.24253 0.51932
# Poissons Ratio (y) = 0.20423 0.26154
# Poissons Ratio (z) = 0.56699 0.33908
#
# Static dielectric constant tensor:
#      x y z
#    x 3.599020 0.000000 0.000000 
#    y 0.000000 3.435160 0.000000 
#    z 0.000000 0.000000 3.509400 
# 
# 
# High freq. dielectric constant tensor:
#      x y z
#    x 1.757550 0.000000 0.000000 
#    y 0.000000 1.739870 0.000000 
#    z 0.000000 0.000000 1.741670 
# 
# From -- ./inp_files/18252.got.cif
#   From: 2010.03.12/outbox.cif.g09.slc.cpg/sg38_10_cif.got.tgz:18252.got - 2010.04.14 02:38:36.
