data_PCOD8180999
_publ_section_title
;
Structure prediction by ZEFSAII (Michael W. Deem and Ramdas Pophale) SiO2 
 PCOD8180999
Probable space group: A B M 2
;
_chemical_formula_sum "Si O2"
_cell_formula_units_Z 64
_cell_length_a 19.619637
_cell_length_b 9.291402
_cell_length_c 19.965975
_cell_angle_alpha 90.000000
_cell_angle_beta 90.000000
_cell_angle_gamma 90.000000
_cell_volume 3639.676138
_symmetry_space_group_name_H-M "A B M 2"
_symmetry_group_IT_number 39
_symmetry_cell_setting 'orthorhombic'
loop_
_space_group_symop_operation_xyz
x,y,z
-x,-y,z
-x,1/2+y,z
x,1/2-y,z
x,1/2+y,1/2+z
-x,1/2-y,1/2+z
-x,y,1/2+z
x,-y,1/2+z
loop_
_atom_site_type_symbol
_atom_site_label
_atom_site_fract_x
_atom_site_fract_y
_atom_site_fract_z
Si Si1 0.069662 0.416580 0.382600
Si Si2 0.346628 0.585202 0.162260
Si Si3 0.818534 0.918073 0.486593
Si Si4 0.833256 0.083046 0.763264
Si Si5 0.809576 0.414622 0.136301
Si Si6 0.430116 0.079720 0.057248
Si Si7 0.683101 0.584889 0.951651
Si Si8 0.702547 0.085506 0.303208
O O1 0.054682 0.250000 0.395722
O O2 0.121873 0.476413 0.438641
O O3 0.100529 0.442103 0.308935
O O4 0.000000 0.500000 0.389758
O O5 0.367631 0.750000 0.146931
O O6 0.270965 0.552691 0.135244
O O7 0.399052 0.478036 0.126806
O O8 0.348988 0.551970 0.242002
O O9 0.806118 0.750000 0.474196
O O10 0.839988 0.949659 0.563303
O O11 0.748230 0.993598 0.470405
O O12 0.817416 0.250000 0.753170
O O13 0.847498 0.012853 0.690898
O O14 0.768724 0.014264 0.800342
O O15 0.822636 0.250000 0.156651
O O16 0.441720 0.250000 0.063262
O O17 0.500000 0.000000 0.041770
O O18 0.380932 0.036905 0.995939
O O19 0.701394 0.750000 0.966180
O O20 0.664037 0.560183 0.873479
O O21 0.728321 0.250000 0.296067
#
# Coordination Sequence:
#
# PCOD8180999 Si02
#       8
#     8   8   8   8   8   8   8   8
#     4  10  22  37  54  78 108 146 185 225 273 327
#     4   9  17  32  54  78 105 140 175 214 265 321
#     4  10  19  35  56  80 109 142 182 224 271 324
#     4  10  19  32  52  79 108 136 176 226 266 314
#     4   9  18  32  54  80 108 140 172 216 272 323
#     4  11  23  37  54  78 109 145 183 223 271 326
#     4  10  20  34  55  83 110 140 180 226 270 319
#     4   9  18  33  54  80 109 139 173 216 271 322
#
# _framework density 17.583981000000001
#
# number of rings (size 3 to 8) (size 9 to 14) (size 15 to 20)
#    0.000    2.250    2.500    1.500    0.000    4.500 
#    0.000    1.250    0.000    4.500    0.000    0.000 
#    0.000    0.000    0.000    0.000    0.000    0.000 
#
# Total GULP energy -396815.285335 kJ/mol
# GULP energy per Si atom -12400.477667 kJ/mol
# Density = 1.754396 g / cm^3
# Si number density = 17.583981 Si / 1000 Ang^3
#
#
#
# Elastic Constant Matrix: (Units=GPa)
#
#
# Indices 1 2 3 4 5 6 
#
# 1 108.8246 62.8036 65.7181 0.0000 0.0000 0.0000
# 2 62.8036 84.0704 58.8366 0.0000 0.0000 0.0000
# 3 65.7181 58.8366 131.5581 0.0000 0.0000 0.0000
# 4 0.0000 0.0000 0.0000 28.1562 0.0000 0.0000
# 5 0.0000 0.0000 0.0000 0.0000 23.1785 0.0000
# 6 0.0000 0.0000 0.0000 0.0000 0.0000 30.7857
#
#
#
# Elastic Compliance Matrix: (Units=1/GPa)
#
#
# Indices 1 2 3 4 5 6 
#
# 1 0.017647 -0.010209 -0.004250 0.000000 0.000000 0.000000
# 2 -0.010209 0.023220 -0.005285 0.000000 0.000000 0.000000
# 3 -0.004250 -0.005285 0.012088 0.000000 0.000000 0.000000
# 4 0.000000 0.000000 0.000000 0.035516 0.000000 0.000000
# 5 0.000000 0.000000 0.000000 0.000000 0.043143 0.000000
# 6 0.000000 0.000000 0.000000 0.000000 0.000000 0.032483
#
#
# Mechanical properties :
#
#
# Convention : Reuss Voigt Hill
#
# Bulk Modulus (GPa) = 74.25175 77.68550 75.96862
# Shear Modulus (GPa) = 24.03009 25.56374 24.79692
#
# Velocity S-wave (km/s) = 3.70075 3.81702 3.75934
# Velocity P-wave (km/s) = 7.78327 7.98134 7.88293
#
# Compressibility (1/GPa) = 0.01346770
#
# Stress axis : x y z
#
# Youngs Moduli (GPa) = 56.66683 43.06678 82.72944
#
# Poissons Ratio (x) = 0.43966 0.35157
# Poissons Ratio (y) = 0.57850 0.43721
# Poissons Ratio (z) = 0.24081 0.22760
#
# Static dielectric constant tensor:
#      x y z
#    x 2.961450 0.000000 0.000000 
#    y 0.000000 3.279050 0.000000 
#    z 0.000000 0.000000 3.701960 
# 
# 
# High freq. dielectric constant tensor:
#      x y z
#    x 1.646170 0.000000 0.000000 
#    y 0.000000 1.682160 0.000000 
#    z 0.000000 0.000000 1.697510 
# 
# From -- ./inp_files/15041.got.cif
#   From: 2010.03.12/outbox.cif.g09.slc.cpg/sg39_8_cif.got.tgz:15041.got - 2010.04.14 02:53:20.
