data_PCOD8180851
_publ_section_title
;
Structure prediction by ZEFSAII (Michael W. Deem and Ramdas Pophale) SiO2 
 PCOD8180851
Probable space group: A B M 2
;
_chemical_formula_sum "Si O2"
_cell_formula_units_Z 48
_cell_length_a 9.746464
_cell_length_b 15.470312
_cell_length_c 14.280175
_cell_angle_alpha 90.000000
_cell_angle_beta 90.000000
_cell_angle_gamma 90.000000
_cell_volume 2153.176767
_symmetry_space_group_name_H-M "A B M 2"
_symmetry_group_IT_number 39
_symmetry_cell_setting 'orthorhombic'
loop_
_space_group_symop_operation_xyz
x,y,z
-x,-y,z
-x,1/2+y,z
x,1/2-y,z
x,1/2+y,1/2+z
-x,1/2-y,1/2+z
-x,y,1/2+z
x,-y,1/2+z
loop_
_atom_site_type_symbol
_atom_site_label
_atom_site_fract_x
_atom_site_fract_y
_atom_site_fract_z
Si Si1 0.205065 0.352323 0.562130
Si Si2 0.611459 0.150515 0.387492
Si Si3 0.912934 0.586906 0.368841
Si Si4 0.847689 0.846465 0.764487
Si Si5 0.481817 0.647008 0.580086
Si Si6 0.344860 0.149729 0.269114
O O1 0.196899 0.250000 0.542722
O O2 0.125547 0.397765 0.476641
O O3 0.131392 0.383379 0.659016
O O4 0.361748 0.385276 0.571111
O O5 0.654156 0.250000 0.397251
O O6 0.727227 0.103712 0.323504
O O7 0.605760 0.110706 0.492037
O O8 0.460662 0.140863 0.346805
O O9 0.779236 0.589114 0.302810
O O10 0.000000 0.500000 0.355112
O O11 0.014579 0.658716 0.325730
O O12 0.791652 0.750000 0.746006
O O13 0.484926 0.750000 0.583292
O O14 0.405672 0.612176 0.672390
O O15 0.297743 0.250000 0.260384
#
# Coordination Sequence:
#
# PCOD8180851 Si02
#       6
#     8   8   8   8   8   8
#     4  10  19  37  66  93 119 159 216 276 327 369
#     4   9  16  30  58  93 123 149 201 273 329 374
#     4  12  26  40  57  87 136 182 208 245 312 404
#     4  10  21  38  62  92 123 160 210 273 327 376
#     4   9  16  29  60  98 122 150 203 277 336 371
#     4  10  18  34  62  93 122 162 218 272 321 374
#
# _framework density 22.292642000000001
#
# number of rings (size 3 to 8) (size 9 to 14) (size 15 to 20)
#    0.000    2.000    3.333    1.500    0.000    2.000 
#    0.000    4.167    0.000    2.000    0.000    0.000 
#    0.000    0.000    0.000    0.000    0.000    0.000 
#
# Total GULP energy -297409.987105 kJ/mol
# GULP energy per Si atom -12392.082796 kJ/mol
# Density = 2.224190 g / cm^3
# Si number density = 22.292642 Si / 1000 Ang^3
#
#
#
# Elastic Constant Matrix: (Units=GPa)
#
#
# Indices 1 2 3 4 5 6 
#
# 1 128.8184 20.1746 77.2745 0.0000 0.0000 0.0000
# 2 20.1746 29.4107 25.3570 0.0000 0.0000 0.0000
# 3 77.2745 25.3570 210.2027 0.0000 0.0000 0.0000
# 4 0.0000 0.0000 0.0000 13.1927 0.0000 0.0000
# 5 0.0000 0.0000 0.0000 0.0000 48.8435 0.0000
# 6 0.0000 0.0000 0.0000 0.0000 0.0000 21.6794
#
#
#
# Elastic Compliance Matrix: (Units=1/GPa)
#
#
# Indices 1 2 3 4 5 6 
#
# 1 0.010423 -0.004293 -0.003314 0.000000 0.000000 0.000000
# 2 -0.004293 0.039716 -0.003213 0.000000 0.000000 0.000000
# 3 -0.003314 -0.003213 0.006363 0.000000 0.000000 0.000000
# 4 0.000000 0.000000 0.000000 0.075799 0.000000 0.000000
# 5 0.000000 0.000000 0.000000 0.000000 0.020474 0.000000
# 6 0.000000 0.000000 0.000000 0.000000 0.000000 0.046127
#
#
# Mechanical properties :
#
#
# Convention : Reuss Voigt Hill
#
# Bulk Modulus (GPa) = 28.68356 68.22709 48.45532
# Shear Modulus (GPa) = 21.53672 33.11819 27.32746
#
# Velocity S-wave (km/s) = 3.11157 3.85854 3.50501
# Velocity P-wave (km/s) = 5.07976 7.10794 6.17765
#
# Compressibility (1/GPa) = 0.03486318
#
# Stress axis : x y z
#
# Youngs Moduli (GPa) = 95.94113 25.17881 157.15524
#
# Poissons Ratio (x) = 0.10808 0.52079
# Poissons Ratio (y) = 0.41185 0.50492
# Poissons Ratio (z) = 0.31794 0.08090
#
# Static dielectric constant tensor:
#      x y z
#    x 3.969570 0.000000 0.000000 
#    y 0.000000 3.454850 0.000000 
#    z 0.000000 0.000000 4.416830 
# 
# 
# High freq. dielectric constant tensor:
#      x y z
#    x 1.874910 0.000000 0.000000 
#    y 0.000000 1.826630 0.000000 
#    z 0.000000 0.000000 1.900900 
# 
# From -- ./inp_files/8355.got.cif
#   From: 2010.03.12/outbox.cif.g09.slc.cpg/sg39_5_cif.got.tgz:8355.got - 2010.04.14 02:53:20.
