data_PCOD8180237
_publ_section_title
;
Structure prediction by ZEFSAII (Michael W. Deem and Ramdas Pophale) SiO2 
 PCOD8180237
Probable space group: A M M 2
;
_chemical_formula_sum "Si O2"
_cell_formula_units_Z 48
_cell_length_a 16.718677
_cell_length_b 8.922561
_cell_length_c 15.809032
_cell_angle_alpha 90.000000
_cell_angle_beta 90.000000
_cell_angle_gamma 90.000000
_cell_volume 2358.287297
_symmetry_space_group_name_H-M "A M M 2"
_symmetry_group_IT_number 38
_symmetry_cell_setting 'orthorhombic'
loop_
_space_group_symop_operation_xyz
x,y,z
-x,-y,z
-x,y,z
x,-y,z
x,1/2+y,1/2+z
-x,1/2-y,1/2+z
-x,1/2+y,1/2+z
x,1/2-y,1/2+z
loop_
_atom_site_type_symbol
_atom_site_label
_atom_site_fract_x
_atom_site_fract_y
_atom_site_fract_z
Si Si1 0.500000 0.330113 0.273310
Si Si2 0.178136 0.327832 0.102828
Si Si3 0.189066 0.177671 0.272610
Si Si4 0.331074 0.826035 0.853246
Si Si5 0.909737 0.321899 0.935048
Si Si6 0.655049 0.828209 0.525396
Si Si7 0.500000 0.324445 0.599050
O O1 0.500000 0.500000 0.236688
O O2 0.423510 0.301056 0.331123
O O3 0.500000 0.214114 0.197282
O O4 0.153115 0.500000 0.117430
O O5 0.150649 0.231699 0.184059
O O6 0.134134 0.262266 0.019565
O O7 0.273882 0.314013 0.093080
O O8 0.275930 0.254979 0.280418
O O9 0.134296 0.235169 0.350264
O O10 0.198586 0.000000 0.272015
O O11 0.311310 0.738387 0.938643
O O12 0.310479 0.000000 0.863978
O O13 0.907983 0.500000 0.935358
O O14 0.000000 0.259740 0.934097
O O15 0.578659 0.738098 0.555473
O O16 0.630466 0.000000 0.511558
O O17 0.500000 0.500000 0.585529
#
# Coordination Sequence:
#
# PCOD8180237 Si02
#       7
#     4   8   8   8   8   8   4
#     4  10  23  40  55  79 115 157 201 249 302 357
#     4  10  21  39  62  90 121 160 205 250 305 365
#     4  11  22  38  61  92 124 161 206 250 305 369
#     4  11  22  38  61  87 119 158 204 255 305 359
#     4   9  19  39  64  88 121 162 201 247 306 371
#     4  11  22  39  61  85 118 160 205 252 304 361
#     4  12  25  38  55  85 119 157 205 253 300 357
#
# _framework density 20.353755
#
# number of rings (size 3 to 8) (size 9 to 14) (size 15 to 20)
#    0.000    1.500    1.667    3.750    0.000    8.000 
#    0.000    0.000    0.000    3.500    0.000    0.000 
#    0.000    0.000    0.000    0.000    0.000    0.000 
#
# Total GULP energy -297702.084105 kJ/mol
# GULP energy per Si atom -12404.253504 kJ/mol
# Density = 2.030743 g / cm^3
# Si number density = 20.353755 Si / 1000 Ang^3
#
#
#
# Elastic Constant Matrix: (Units=GPa)
#
#
# Indices 1 2 3 4 5 6 
#
# 1 113.6632 39.7442 46.7634 0.0000 0.0000 0.0000
# 2 39.7442 109.3133 54.1858 0.0000 0.0000 0.0000
# 3 46.7634 54.1858 151.2455 0.0000 0.0000 0.0000
# 4 0.0000 0.0000 0.0000 39.0643 0.0000 0.0000
# 5 0.0000 0.0000 0.0000 0.0000 20.6486 0.0000
# 6 0.0000 0.0000 0.0000 0.0000 0.0000 14.8320
#
#
#
# Elastic Compliance Matrix: (Units=1/GPa)
#
#
# Indices 1 2 3 4 5 6 
#
# 1 0.010715 -0.002740 -0.002331 0.000000 0.000000 0.000000
# 2 -0.002740 0.011824 -0.003389 0.000000 0.000000 0.000000
# 3 -0.002331 -0.003389 0.008547 0.000000 0.000000 0.000000
# 4 0.000000 0.000000 0.000000 0.025599 0.000000 0.000000
# 5 0.000000 0.000000 0.000000 0.000000 0.048429 0.000000
# 6 0.000000 0.000000 0.000000 0.000000 0.000000 0.067422
#
#
# Mechanical properties :
#
#
# Convention : Reuss Voigt Hill
#
# Bulk Modulus (GPa) = 70.59559 72.84542 71.72051
# Shear Modulus (GPa) = 25.74946 30.47755 28.11350
#
# Velocity S-wave (km/s) = 3.56068 3.87381 3.72054
# Velocity P-wave (km/s) = 7.18778 7.47502 7.33281
#
# Compressibility (1/GPa) = 0.01416519
#
# Stress axis : x y z
#
# Youngs Moduli (GPa) = 93.32497 84.57242 117.00407
#
# Poissons Ratio (x) = 0.23175 0.27277
# Poissons Ratio (y) = 0.25573 0.39652
# Poissons Ratio (z) = 0.21757 0.28661
#
# Static dielectric constant tensor:
#      x y z
#    x 3.730380 0.000000 0.000000 
#    y 0.000000 3.526850 0.000000 
#    z 0.000000 0.000000 3.813670 
# 
# 
# High freq. dielectric constant tensor:
#      x y z
#    x 1.795470 0.000000 0.000000 
#    y 0.000000 1.780890 0.000000 
#    z 0.000000 0.000000 1.807050 
# 
# From -- ./inp_files/14999.got.cif
#   From: 2010.03.12/outbox.cif.g09.slc.cpg/sg38_8_cif.got.tgz:14999.got - 2010.04.14 02:38:36.
