data_PCOD8180730
_publ_section_title
;
Structure prediction by ZEFSAII (Michael W. Deem and Ramdas Pophale) SiO2 
 PCOD8180730
Probable space group: A B M 2
;
_chemical_formula_sum "Si O2"
_cell_formula_units_Z 52
_cell_length_a 12.277957
_cell_length_b 20.846053
_cell_length_c 13.264211
_cell_angle_alpha 90.000000
_cell_angle_beta 90.000000
_cell_angle_gamma 90.000000
_cell_volume 3394.934248
_symmetry_space_group_name_H-M "A B M 2"
_symmetry_group_IT_number 39
_symmetry_cell_setting 'orthorhombic'
loop_
_space_group_symop_operation_xyz
x,y,z
-x,-y,z
-x,1/2+y,z
x,1/2-y,z
x,1/2+y,1/2+z
-x,1/2-y,1/2+z
-x,y,1/2+z
x,-y,1/2+z
loop_
_atom_site_type_symbol
_atom_site_label
_atom_site_fract_x
_atom_site_fract_y
_atom_site_fract_z
Si Si1 0.176275 0.565200 0.312390
Si Si2 0.330903 0.322194 0.812267
Si Si3 0.659233 1.000000 0.444775
Si Si4 0.823725 0.065200 0.077160
Si Si5 0.330903 0.322194 0.577284
Si Si6 0.500000 0.391912 0.444775
Si Si7 0.000000 0.000000 0.444775
O O1 0.222281 0.636512 0.337496
O O2 0.270262 0.516419 0.346318
O O3 0.150658 0.556383 0.194775
O O4 0.068570 0.548904 0.375621
O O5 0.307195 0.250000 0.849565
O O6 0.355426 0.325164 0.694775
O O7 0.442482 0.347553 0.861941
O O8 0.591210 0.059992 0.489004
O O9 0.729737 0.983580 0.543233
O O10 0.591211 0.940008 0.400546
O O11 0.777719 0.136513 0.052054
O O12 0.931430 0.048904 0.013930
O O13 0.307195 0.250000 0.539986
O O14 0.442481 0.347553 0.527609
#
# Coordination Sequence:
#
# PCOD8180730 Si02
#       7
#     8   8   8   8   8   8   4
#     4   9  17  29  44  61  83 106 131 170 208 240
#     4   9  17  28  42  61  84 111 139 163 194 237
#     4   8  16  26  40  64  88 108 136 162 196 238
#     4   9  17  29  44  61  83 106 131 170 208 240
#     4   9  17  28  42  61  84 111 139 163 194 237
#     4   9  15  26  42  62  87 113 136 164 190 227
#     4  10  18  30  46  64  76  98 138 172 212 256
#
# _framework density 15.316938
#
# number of rings (size 3 to 8) (size 9 to 14) (size 15 to 20)
#    0.000    3.077    0.000    0.923    0.000    1.231 
#    0.000    6.923    0.000    0.000    0.000    0.000 
#    0.000    0.000    0.000    0.000    0.000    0.000 
#
# Total GULP energy -322119.935484 kJ/mol
# GULP energy per Si atom -12389.228288 kJ/mol
# Density = 1.528208 g / cm^3
# Si number density = 15.316938 Si / 1000 Ang^3
#
#
#
# Elastic Constant Matrix: (Units=GPa)
#
#
# Indices 1 2 3 4 5 6 
#
# 1 107.8454 63.0361 55.3309 0.0000 0.0000 0.0000
# 2 63.0361 124.8635 53.5959 0.0000 0.0000 0.0000
# 3 55.3309 53.5959 77.1178 0.0000 0.0000 0.0000
# 4 0.0000 0.0000 0.0000 21.3838 0.0000 0.0000
# 5 0.0000 0.0000 0.0000 0.0000 21.5670 0.0000
# 6 0.0000 0.0000 0.0000 0.0000 0.0000 17.0118
#
#
#
# Elastic Compliance Matrix: (Units=1/GPa)
#
#
# Indices 1 2 3 4 5 6 
#
# 1 0.016327 -0.004581 -0.008531 0.000000 0.000000 0.000000
# 2 -0.004581 0.012699 -0.005539 0.000000 0.000000 0.000000
# 3 -0.008531 -0.005539 0.022937 0.000000 0.000000 0.000000
# 4 0.000000 0.000000 0.000000 0.046764 0.000000 0.000000
# 5 0.000000 0.000000 0.000000 0.000000 0.046367 0.000000
# 6 0.000000 0.000000 0.000000 0.000000 0.000000 0.058783
#
#
# Mechanical properties :
#
#
# Convention : Reuss Voigt Hill
#
# Bulk Modulus (GPa) = 68.20243 72.63917 70.42080
# Shear Modulus (GPa) = 20.31986 21.18344 20.75165
#
# Velocity S-wave (km/s) = 3.64624 3.72292 3.68478
# Velocity P-wave (km/s) = 7.89626 8.12448 8.01118
#
# Compressibility (1/GPa) = 0.01466223
#
# Stress axis : x y z
#
# Youngs Moduli (GPa) = 61.24949 78.74775 43.59731
#
# Poissons Ratio (x) = 0.36072 0.37191
# Poissons Ratio (y) = 0.28057 0.24148
# Poissons Ratio (z) = 0.52249 0.43617
#
# Static dielectric constant tensor:
#      x y z
#    x 2.980390 0.000000 0.000000 
#    y 0.000000 3.200520 0.000000 
#    z 0.000000 0.000000 2.794990 
# 
# 
# High freq. dielectric constant tensor:
#      x y z
#    x 1.584670 0.000000 0.000000 
#    y 0.000000 1.591010 0.000000 
#    z 0.000000 0.000000 1.573800 
# 
# From -- ./inp_files/5974.got.cif
#   From: 2010.03.12/outbox.cif.g09.slc.cpg/sg39_3_cif.got.tgz:5974.got - 2010.04.14 02:53:20.
