data_PCOD8180836
_publ_section_title
;
Structure prediction by ZEFSAII (Michael W. Deem and Ramdas Pophale) SiO2 
 PCOD8180836
Probable space group: A B M 2
;
_chemical_formula_sum "Si O2"
_cell_formula_units_Z 32
_cell_length_a 13.555709
_cell_length_b 8.807122
_cell_length_c 15.152834
_cell_angle_alpha 90.000000
_cell_angle_beta 90.000000
_cell_angle_gamma 90.000000
_cell_volume 1809.048104
_symmetry_space_group_name_H-M "A B M 2"
_symmetry_group_IT_number 39
_symmetry_cell_setting 'orthorhombic'
loop_
_space_group_symop_operation_xyz
x,y,z
-x,-y,z
-x,1/2+y,z
x,1/2-y,z
x,1/2+y,1/2+z
-x,1/2-y,1/2+z
-x,y,1/2+z
x,-y,1/2+z
loop_
_atom_site_type_symbol
_atom_site_label
_atom_site_fract_x
_atom_site_fract_y
_atom_site_fract_z
Si Si1 0.745148 0.421524 0.455900
Si Si2 0.718119 0.078128 0.647913
Si Si3 0.604896 0.070089 0.301311
Si Si4 0.893256 0.071003 0.068139
O O1 0.779754 0.250000 0.434405
O O2 0.679300 0.422446 0.546163
O O3 0.681771 0.488268 0.375409
O O4 0.843042 0.523440 0.474013
O O5 0.728115 0.250000 0.683812
O O6 0.640866 0.985478 0.706139
O O7 0.825936 0.996507 0.648157
O O8 0.595456 0.250000 0.301837
O O9 0.500000 0.000000 0.324326
O O10 0.900212 0.250000 0.076540
O O11 0.000000 0.000000 0.075967
#
# Coordination Sequence:
#
# PCOD8180836 Si02
#       4
#     8   8   8   8
#     4   8  19  37  55  78 111 144 180 225 269 321
#     4   9  19  37  56  80 111 143 181 226 270 321
#     4  11  22  37  56  81 111 145 183 225 272 323
#     4  10  18  33  58  83 109 144 180 221 274 324
#
# _framework density 17.688860999999999
#
# number of rings (size 3 to 8) (size 9 to 14) (size 15 to 20)
#    1.500    1.000    0.000    3.000    0.000    3.000 
#    0.000    3.750    0.000    6.000    0.000    0.000 
#    0.000    0.000    0.000    0.000    0.000    0.000 
#
# Total GULP energy -198236.511849 kJ/mol
# GULP energy per Si atom -12389.781991 kJ/mol
# Density = 1.764860 g / cm^3
# Si number density = 17.688861 Si / 1000 Ang^3
#
#
#
# Elastic Constant Matrix: (Units=GPa)
#
#
# Indices 1 2 3 4 5 6 
#
# 1 78.8504 40.4233 10.4793 0.0000 0.0000 0.0000
# 2 40.4233 111.0197 19.3369 0.0000 0.0000 0.0000
# 3 10.4793 19.3369 47.3072 0.0000 0.0000 0.0000
# 4 0.0000 0.0000 0.0000 24.8935 0.0000 0.0000
# 5 0.0000 0.0000 0.0000 0.0000 31.3038 0.0000
# 6 0.0000 0.0000 0.0000 0.0000 0.0000 35.4109
#
#
#
# Elastic Compliance Matrix: (Units=1/GPa)
#
#
# Indices 1 2 3 4 5 6 
#
# 1 0.015659 -0.005488 -0.001225 0.000000 0.000000 0.000000
# 2 -0.005488 0.011621 -0.003535 0.000000 0.000000 0.000000
# 3 -0.001225 -0.003535 0.022855 0.000000 0.000000 0.000000
# 4 0.000000 0.000000 0.000000 0.040171 0.000000 0.000000
# 5 0.000000 0.000000 0.000000 0.000000 0.031945 0.000000
# 6 0.000000 0.000000 0.000000 0.000000 0.000000 0.028240
#
#
# Mechanical properties :
#
#
# Convention : Reuss Voigt Hill
#
# Bulk Modulus (GPa) = 33.73976 41.96180 37.85078
# Shear Modulus (GPa) = 27.64480 29.45083 28.54782
#
# Velocity S-wave (km/s) = 3.95756 4.08479 4.02168
# Velocity P-wave (km/s) = 6.32444 6.78388 6.55818
#
# Compressibility (1/GPa) = 0.02963862
#
# Stress axis : x y z
#
# Youngs Moduli (GPa) = 63.86278 86.04914 43.75487
#
# Poissons Ratio (x) = 0.47224 0.05362
# Poissons Ratio (y) = 0.35048 0.15465
# Poissons Ratio (z) = 0.07826 0.30414
#
# Static dielectric constant tensor:
#      x y z
#    x 3.116360 0.000000 0.000000 
#    y 0.000000 3.307750 0.000000 
#    z 0.000000 0.000000 3.126900 
# 
# 
# High freq. dielectric constant tensor:
#      x y z
#    x 1.668360 0.000000 0.000000 
#    y 0.000000 1.697290 0.000000 
#    z 0.000000 0.000000 1.664280 
# 
# From -- ./inp_files/8898.got.cif
#   From: 2010.03.12/outbox.cif.g09.slc.cpg/sg39_5_cif.got.tgz:8898.got - 2010.04.14 02:53:20.
