data_PCOD8180829
_publ_section_title
;
Structure prediction by ZEFSAII (Michael W. Deem and Ramdas Pophale) SiO2 
 PCOD8180829
Probable space group: A B M 2
;
_chemical_formula_sum "Si O2"
_cell_formula_units_Z 64
_cell_length_a 19.287255
_cell_length_b 8.737191
_cell_length_c 20.703058
_cell_angle_alpha 90.000000
_cell_angle_beta 90.000000
_cell_angle_gamma 90.000000
_cell_volume 3488.805441
_symmetry_space_group_name_H-M "A B M 2"
_symmetry_group_IT_number 39
_symmetry_cell_setting 'orthorhombic'
loop_
_space_group_symop_operation_xyz
x,y,z
-x,-y,z
-x,1/2+y,z
x,1/2-y,z
x,1/2+y,1/2+z
-x,1/2-y,1/2+z
-x,y,1/2+z
x,-y,1/2+z
loop_
_atom_site_type_symbol
_atom_site_label
_atom_site_fract_x
_atom_site_fract_y
_atom_site_fract_z
Si Si1 0.219176 0.931318 0.027400
Si Si2 0.928928 0.930659 0.335212
Si Si3 0.703074 0.430140 0.407637
Si Si4 0.205921 0.431094 0.785927
Si Si5 0.070494 0.571132 0.981848
Si Si6 0.571854 0.568642 0.352563
Si Si7 0.571536 0.568838 0.712628
Si Si8 0.715916 0.569435 0.660425
O O1 0.230048 0.750000 0.017671
O O2 0.249869 0.993165 0.094900
O O3 0.137452 0.973801 0.024584
O O4 0.259659 0.021914 0.972845
O O5 0.931573 0.750000 0.331340
O O6 0.916863 0.988598 0.408795
O O7 0.868908 0.992256 0.289229
O O8 0.000000 0.000000 0.307974
O O9 0.688986 0.250000 0.406811
O O10 0.749908 0.482708 0.347671
O O11 0.630525 0.519322 0.403175
O O12 0.197181 0.250000 0.783624
O O13 0.243161 0.497060 0.722038
O O14 0.058787 0.750000 0.981263
O O15 0.000000 0.500000 0.011464
O O16 0.500000 0.500000 0.378888
O O17 0.566493 0.750000 0.347409
O O18 0.588926 0.499330 0.282514
O O19 0.500000 0.500000 0.684387
O O20 0.563893 0.750000 0.720170
O O21 0.634529 0.524001 0.664696
O O22 0.723328 0.750000 0.662066
#
# Coordination Sequence:
#
# PCOD8180829 Si02
#       8
#     8   8   8   8   8   8   8   8
#     4  10  20  37  57  80 109 147 189 228 273 330
#     4  10  19  32  51  80 109 139 178 226 276 326
#     4  11  21  35  56  82 112 143 181 226 274 326
#     4  10  19  34  55  79 107 143 181 222 270 325
#     4   9  18  31  51  77 104 135 178 224 271 327
#     4  11  21  34  55  83 113 145 182 230 279 327
#     4  10  18  33  54  81 109 143 184 225 274 328
#     4   9  19  36  57  78 109 149 186 223 274 332
#
# _framework density 18.344387999999999
#
# number of rings (size 3 to 8) (size 9 to 14) (size 15 to 20)
#    0.000    2.000    2.500    3.000    0.000    1.500 
#    0.000    3.125    0.000    3.000    0.000    0.000 
#    0.000    0.000    0.000    0.000    0.000    0.000 
#
# Total GULP energy -396824.742690 kJ/mol
# GULP energy per Si atom -12400.773209 kJ/mol
# Density = 1.830264 g / cm^3
# Si number density = 18.344388 Si / 1000 Ang^3
#
#
#
# Elastic Constant Matrix: (Units=GPa)
#
#
# Indices 1 2 3 4 5 6 
#
# 1 174.0290 47.8563 73.2280 0.0000 0.0000 0.0000
# 2 47.8563 65.0819 28.0405 0.0000 0.0000 0.0000
# 3 73.2280 28.0405 108.3430 0.0000 0.0000 0.0000
# 4 0.0000 0.0000 0.0000 18.9925 0.0000 0.0000
# 5 0.0000 0.0000 0.0000 0.0000 33.8004 0.0000
# 6 0.0000 0.0000 0.0000 0.0000 0.0000 33.5765
#
#
#
# Elastic Compliance Matrix: (Units=1/GPa)
#
#
# Indices 1 2 3 4 5 6 
#
# 1 0.009084 -0.004541 -0.004964 0.000000 0.000000 0.000000
# 2 -0.004541 0.019563 -0.001994 0.000000 0.000000 0.000000
# 3 -0.004964 -0.001994 0.013102 0.000000 0.000000 0.000000
# 4 0.000000 0.000000 0.000000 0.052652 0.000000 0.000000
# 5 0.000000 0.000000 0.000000 0.000000 0.029585 0.000000
# 6 0.000000 0.000000 0.000000 0.000000 0.000000 0.029783
#
#
# Mechanical properties :
#
#
# Convention : Reuss Voigt Hill
#
# Bulk Modulus (GPa) = 53.33356 71.74483 62.53919
# Shear Modulus (GPa) = 27.31975 30.49580 28.90777
#
# Velocity S-wave (km/s) = 3.86329 4.08168 3.97399
# Velocity P-wave (km/s) = 7.00262 7.83635 7.43119
#
# Compressibility (1/GPa) = 0.01874992
#
# Stress axis : x y z
#
# Youngs Moduli (GPa) = 110.08700 51.11615 76.32697
#
# Poissons Ratio (x) = 0.23210 0.37892
# Poissons Ratio (y) = 0.49986 0.15222
# Poissons Ratio (z) = 0.54652 0.10194
#
# Static dielectric constant tensor:
#      x y z
#    x 3.647610 0.000000 0.000000 
#    y 0.000000 3.236700 0.000000 
#    z 0.000000 0.000000 3.289290 
# 
# 
# High freq. dielectric constant tensor:
#      x y z
#    x 1.730040 0.000000 0.000000 
#    y 0.000000 1.704030 0.000000 
#    z 0.000000 0.000000 1.679120 
# 
# From -- ./inp_files/13126.got.cif
#   From: 2010.03.12/outbox.cif.g09.slc.cpg/sg39_7_cif.got.tgz:13126.got - 2010.04.14 02:53:20.
