data_PCOD8180383
_publ_section_title
;
Structure prediction by ZEFSAII (Michael W. Deem and Ramdas Pophale) SiO2 
 PCOD8180383
Probable space group: A M M 2
;
_chemical_formula_sum "Si O2"
_cell_formula_units_Z 48
_cell_length_a 15.040867
_cell_length_b 16.573480
_cell_length_c 9.352098
_cell_angle_alpha 90.000000
_cell_angle_beta 90.000000
_cell_angle_gamma 90.000000
_cell_volume 2331.286392
_symmetry_space_group_name_H-M "A M M 2"
_symmetry_group_IT_number 38
_symmetry_cell_setting 'orthorhombic'
loop_
_space_group_symop_operation_xyz
x,y,z
-x,-y,z
-x,y,z
x,-y,z
x,1/2+y,1/2+z
-x,1/2-y,1/2+z
-x,1/2+y,1/2+z
x,1/2-y,1/2+z
loop_
_atom_site_type_symbol
_atom_site_label
_atom_site_fract_x
_atom_site_fract_y
_atom_site_fract_z
Si Si1 0.742146 0.347140 0.973080
Si Si2 0.198151 0.589351 0.261002
Si Si3 0.000000 0.155524 0.768389
Si Si4 0.713695 0.164031 0.024981
Si Si5 0.000000 0.691743 0.585705
Si Si6 0.848195 0.906603 0.229389
Si Si7 0.397869 0.405845 0.742138
O O1 0.831860 0.360311 0.879018
O O2 0.656538 0.368470 0.877419
O O3 0.755498 0.406054 0.106895
O O4 0.737122 0.258023 0.041518
O O5 0.207581 0.500000 0.321347
O O6 0.092049 0.606285 0.256694
O O7 0.259311 0.644364 0.363279
O O8 0.000000 0.218210 0.640600
O O9 0.000000 0.202724 0.916874
O O10 0.760934 0.102025 0.134676
O O11 0.615872 0.143260 0.089183
O O12 0.082304 0.640350 0.635388
O O13 0.874369 0.000000 0.254881
O O14 0.500000 0.394038 0.783897
O O15 0.373738 0.500000 0.725345
#
# Coordination Sequence:
#
# PCOD8180383 Si02
#       7
#     8   8   4   8   4   8   8
#     4  11  23  41  62  93 126 164 202 254 313 378
#     4  12  24  39  62  91 127 163 207 262 313 361
#     4  12  27  41  60  92 128 170 212 264 314 356
#     4  11  21  39  64  90 122 159 207 252 311 368
#     4  12  25  41  62  88 124 168 218 270 310 362
#     4  11  23  40  63  87 120 167 216 255 304 372
#     4  10  22  43  68  92 123 164 208 253 309 382
#
# _framework density 20.589489
#
# number of rings (size 3 to 8) (size 9 to 14) (size 15 to 20)
#    0.000    0.833    1.667    8.500    2.333    1.333 
#    0.000    2.500    0.000    3.000    0.000    0.000 
#    0.000    0.000    0.000    0.000    0.000    0.000 
#
# Total GULP energy -297346.954643 kJ/mol
# GULP energy per Si atom -12389.456443 kJ/mol
# Density = 2.054263 g / cm^3
# Si number density = 20.589489 Si / 1000 Ang^3
#
#
#
# Elastic Constant Matrix: (Units=GPa)
#
#
# Indices 1 2 3 4 5 6 
#
# 1 73.7828 12.0925 31.1911 0.0000 0.0000 0.0000
# 2 12.0925 95.2302 12.3101 0.0000 0.0000 0.0000
# 3 31.1911 12.3101 115.7226 0.0000 0.0000 0.0000
# 4 0.0000 0.0000 0.0000 35.1095 0.0000 0.0000
# 5 0.0000 0.0000 0.0000 0.0000 36.2988 0.0000
# 6 0.0000 0.0000 0.0000 0.0000 0.0000 29.4648
#
#
#
# Elastic Compliance Matrix: (Units=1/GPa)
#
#
# Indices 1 2 3 4 5 6 
#
# 1 0.015490 -0.001447 -0.004021 0.000000 0.000000 0.000000
# 2 -0.001447 0.010782 -0.000757 0.000000 0.000000 0.000000
# 3 -0.004021 -0.000757 0.009806 0.000000 0.000000 0.000000
# 4 0.000000 0.000000 0.000000 0.028482 0.000000 0.000000
# 5 0.000000 0.000000 0.000000 0.000000 0.027549 0.000000
# 6 0.000000 0.000000 0.000000 0.000000 0.000000 0.033939
#
#
# Mechanical properties :
#
#
# Convention : Reuss Voigt Hill
#
# Bulk Modulus (GPa) = 42.32281 43.99145 43.15713
# Shear Modulus (GPa) = 34.15870 35.45074 34.80472
#
# Velocity S-wave (km/s) = 4.07755 4.15395 4.11592
# Velocity P-wave (km/s) = 6.53978 6.66479 6.60258
#
# Compressibility (1/GPa) = 0.02362792
#
# Stress axis : x y z
#
# Youngs Moduli (GPa) = 64.55598 92.74303 101.98111
#
# Poissons Ratio (x) = 0.13422 0.41009
# Poissons Ratio (y) = 0.09342 0.07719
# Poissons Ratio (z) = 0.25960 0.07020
#
# Static dielectric constant tensor:
#      x y z
#    x 3.578650 0.000000 0.000000 
#    y 0.000000 3.729680 0.000000 
#    z 0.000000 0.000000 3.863620 
# 
# 
# High freq. dielectric constant tensor:
#      x y z
#    x 1.794640 0.000000 0.000000 
#    y 0.000000 1.815390 0.000000 
#    z 0.000000 0.000000 1.815770 
# 
# From -- ./inp_files/5503.got.cif
#   From: 2010.03.12/outbox.cif.g09.slc.cpg/sg38_3_cif.got.tgz:5503.got - 2010.04.14 02:38:36.
