data_PCOD8180801
_publ_section_title
;
Structure prediction by ZEFSAII (Michael W. Deem and Ramdas Pophale) SiO2 
 PCOD8180801
Probable space group: A B M 2
;
_chemical_formula_sum "Si O2"
_cell_formula_units_Z 48
_cell_length_a 9.569982
_cell_length_b 8.560082
_cell_length_c 31.228423
_cell_angle_alpha 90.000000
_cell_angle_beta 90.000000
_cell_angle_gamma 90.000000
_cell_volume 2558.227124
_symmetry_space_group_name_H-M "A B M 2"
_symmetry_group_IT_number 39
_symmetry_cell_setting 'orthorhombic'
loop_
_space_group_symop_operation_xyz
x,y,z
-x,-y,z
-x,1/2+y,z
x,1/2-y,z
x,1/2+y,1/2+z
-x,1/2-y,1/2+z
-x,y,1/2+z
x,-y,1/2+z
loop_
_atom_site_type_symbol
_atom_site_label
_atom_site_fract_x
_atom_site_fract_y
_atom_site_fract_z
Si Si1 0.155463 0.434656 0.958580
Si Si2 0.845355 0.066000 0.045893
Si Si3 0.153508 0.433067 0.371896
Si Si4 0.348563 0.430394 0.705725
Si Si5 0.343503 0.566275 0.620108
Si Si6 0.654615 0.931581 0.800205
O O1 0.157987 0.250000 0.960467
O O2 0.226908 0.494118 0.914614
O O3 0.000000 0.500000 0.957227
O O4 0.225264 0.501912 0.001871
O O5 0.855938 0.250000 0.043193
O O6 0.747689 0.016261 0.084435
O O7 0.000000 0.000000 0.053152
O O8 0.141092 0.250000 0.378374
O O9 0.247787 0.471825 0.331491
O O10 0.000000 0.500000 0.363736
O O11 0.500000 0.500000 0.711934
O O12 0.357834 0.250000 0.692169
O O13 0.275005 0.524015 0.666638
O O14 0.277645 0.450868 0.752418
O O15 0.500000 0.500000 0.618149
O O16 0.342896 0.750000 0.612503
O O17 0.650640 0.750000 0.813231
O O18 0.500000 0.000000 0.803157
#
# Coordination Sequence:
#
# PCOD8180801 Si02
#       6
#     8   8   8   8   8   8
#     4  10  18  32  53  77 104 137 176 214 256 310
#     4  11  21  36  56  80 108 139 176 217 262 311
#     4  11  21  35  55  79 107 140 177 218 263 310
#     4   9  17  31  52  76 103 137 176 215 257 310
#     4  11  21  35  55  80 108 140 177 217 262 311
#     4  10  20  35  55  80 108 139 176 217 262 312
#
# _framework density 18.762993999999999
#
# number of rings (size 3 to 8) (size 9 to 14) (size 15 to 20)
#    0.000    1.667    0.000   10.000    0.000    2.000 
#    0.000    1.667    0.000    4.000    0.000    0.000 
#    0.000    0.000    0.000    0.000    0.000    0.000 
#
# Total GULP energy -297478.628301 kJ/mol
# GULP energy per Si atom -12394.942846 kJ/mol
# Density = 1.872029 g / cm^3
# Si number density = 18.762994 Si / 1000 Ang^3
#
#
#
# Elastic Constant Matrix: (Units=GPa)
#
#
# Indices 1 2 3 4 5 6 
#
# 1 49.2440 27.6771 47.3482 0.0000 0.0000 0.0000
# 2 27.6771 170.6921 55.5654 0.0000 0.0000 0.0000
# 3 47.3482 55.5654 160.9989 0.0000 0.0000 0.0000
# 4 0.0000 0.0000 0.0000 38.4829 0.0000 0.0000
# 5 0.0000 0.0000 0.0000 0.0000 31.1595 0.0000
# 6 0.0000 0.0000 0.0000 0.0000 0.0000 26.7587
#
#
#
# Elastic Compliance Matrix: (Units=1/GPa)
#
#
# Indices 1 2 3 4 5 6 
#
# 1 0.029010 -0.002170 -0.007782 0.000000 0.000000 0.000000
# 2 -0.002170 0.006762 -0.001696 0.000000 0.000000 0.000000
# 3 -0.007782 -0.001696 0.009085 0.000000 0.000000 0.000000
# 4 0.000000 0.000000 0.000000 0.025986 0.000000 0.000000
# 5 0.000000 0.000000 0.000000 0.000000 0.032093 0.000000
# 6 0.000000 0.000000 0.000000 0.000000 0.000000 0.037371
#
#
# Mechanical properties :
#
#
# Convention : Reuss Voigt Hill
#
# Bulk Modulus (GPa) = 46.38126 71.34626 58.86376
# Shear Modulus (GPa) = 29.27565 35.96983 32.62274
#
# Velocity S-wave (km/s) = 3.95433 4.38318 4.17427
# Velocity P-wave (km/s) = 6.75442 7.98272 7.39412
#
# Compressibility (1/GPa) = 0.02156043
#
# Stress axis : x y z
#
# Youngs Moduli (GPa) = 34.47121 147.87658 110.06969
#
# Poissons Ratio (x) = 0.32095 0.85661
# Poissons Ratio (y) = 0.07482 0.18663
# Poissons Ratio (z) = 0.26827 0.25074
#
# Static dielectric constant tensor:
#      x y z
#    x 2.968150 0.000000 0.000000 
#    y 0.000000 3.669870 0.000000 
#    z 0.000000 0.000000 4.519860 
# 
# 
# High freq. dielectric constant tensor:
#      x y z
#    x 1.673740 0.000000 0.000000 
#    y 0.000000 1.754970 0.000000 
#    z 0.000000 0.000000 1.758940 
# 
# From -- ./inp_files/16901.got.cif
#   From: 2010.03.12/outbox.cif.g09.slc.cpg/sg39_9_cif.got.tgz:16901.got - 2010.04.14 02:53:20.
