data_PCOD8180057
_publ_section_title
;
Structure prediction by ZEFSAII (Michael W. Deem and Ramdas Pophale) SiO2 
 PCOD8180057
Probable space group: A M M 2
;
_chemical_formula_sum "Si O2"
_cell_formula_units_Z 48
_cell_length_a 8.399380
_cell_length_b 30.369330
_cell_length_c 9.121636
_cell_angle_alpha 90.000000
_cell_angle_beta 90.000000
_cell_angle_gamma 90.000000
_cell_volume 2326.779229
_symmetry_space_group_name_H-M "A M M 2"
_symmetry_group_IT_number 38
_symmetry_cell_setting 'orthorhombic'
loop_
_space_group_symop_operation_xyz
x,y,z
-x,-y,z
-x,y,z
x,-y,z
x,1/2+y,1/2+z
-x,1/2-y,1/2+z
-x,1/2+y,1/2+z
x,1/2-y,1/2+z
loop_
_atom_site_type_symbol
_atom_site_label
_atom_site_fract_x
_atom_site_fract_y
_atom_site_fract_z
Si Si1 0.814082 0.950203 0.941100
Si Si2 0.811391 0.370647 0.245841
Si Si3 0.684289 0.050182 0.255719
Si Si4 0.185267 0.370146 0.916829
Si Si5 0.815040 0.710931 0.436825
Si Si6 0.682690 0.288749 0.756364
O O1 0.754558 0.916965 0.815027
O O2 0.000000 0.943512 0.975745
O O3 0.778414 0.000000 0.888073
O O4 0.717724 0.938422 0.086836
O O5 0.748045 0.330222 0.343538
O O6 0.000000 0.369176 0.238228
O O7 0.744412 0.366194 0.081314
O O8 0.500000 0.058609 0.288766
O O9 0.790146 0.080239 0.361319
O O10 0.734060 0.000000 0.288540
O O11 0.282057 0.337863 0.811171
O O12 0.000000 0.357868 0.911256
O O13 0.715447 0.714422 0.584494
O O14 0.794579 0.755089 0.343278
O O15 0.000000 0.704634 0.476092
O O16 0.500000 0.276622 0.785774
#
# Coordination Sequence:
#
# PCOD8180057 Si02
#       6
#     8   8   8   8   8   8
#     4   9  17  33  58  85 112 146 191 241 292 347
#     4   9  20  36  57  85 114 146 190 243 290 337
#     4  10  21  37  56  82 117 154 193 240 294 350
#     4  11  22  38  60  86 116 153 197 241 290 351
#     4  11  22  40  64  88 117 156 200 243 292 353
#     4  12  25  41  61  89 122 154 193 244 300 352
#
# _framework density 20.629375
#
# number of rings (size 3 to 8) (size 9 to 14) (size 15 to 20)
#    0.000    1.667    0.000    5.000    0.000    4.333 
#    0.000    6.667    0.000    2.000    0.000    0.000 
#    0.000    0.000    0.000    0.000    0.000    0.000 
#
# Total GULP energy -297734.160170 kJ/mol
# GULP energy per Si atom -12405.590007 kJ/mol
# Density = 2.058242 g / cm^3
# Si number density = 20.629375 Si / 1000 Ang^3
#
#
#
# Elastic Constant Matrix: (Units=GPa)
#
#
# Indices 1 2 3 4 5 6 
#
# 1 48.8264 14.0386 14.8542 0.0000 0.0000 0.0000
# 2 14.0386 118.3566 61.9487 0.0000 0.0000 0.0000
# 3 14.8542 61.9487 132.2448 0.0000 0.0000 0.0000
# 4 0.0000 0.0000 0.0000 43.1202 0.0000 0.0000
# 5 0.0000 0.0000 0.0000 0.0000 19.2711 0.0000
# 6 0.0000 0.0000 0.0000 0.0000 0.0000 23.8141
#
#
#
# Elastic Compliance Matrix: (Units=1/GPa)
#
#
# Indices 1 2 3 4 5 6 
#
# 1 0.021461 -0.001701 -0.001614 0.000000 0.000000 0.000000
# 2 -0.001701 0.011328 -0.005116 0.000000 0.000000 0.000000
# 3 -0.001614 -0.005116 0.010139 0.000000 0.000000 0.000000
# 4 0.000000 0.000000 0.000000 0.023191 0.000000 0.000000
# 5 0.000000 0.000000 0.000000 0.000000 0.051891 0.000000
# 6 0.000000 0.000000 0.000000 0.000000 0.000000 0.041992
#
#
# Mechanical properties :
#
#
# Convention : Reuss Voigt Hill
#
# Bulk Modulus (GPa) = 38.36131 53.45674 45.90902
# Shear Modulus (GPa) = 26.94658 31.14682 29.04670
#
# Velocity S-wave (km/s) = 3.61809 3.88987 3.75644
# Velocity P-wave (km/s) = 6.00749 6.79293 6.41225
#
# Compressibility (1/GPa) = 0.02606793
#
# Stress axis : x y z
#
# Youngs Moduli (GPa) = 46.59678 88.27436 98.62567
#
# Poissons Ratio (x) = 0.15014 0.15916
# Poissons Ratio (y) = 0.07925 0.50453
# Poissons Ratio (z) = 0.07520 0.45158
#
# Static dielectric constant tensor:
#      x y z
#    x 3.465160 0.000000 0.000000 
#    y 0.000000 3.869570 0.000000 
#    z 0.000000 0.000000 3.796690 
# 
# 
# High freq. dielectric constant tensor:
#      x y z
#    x 1.790290 0.000000 0.000000 
#    y 0.000000 1.820180 0.000000 
#    z 0.000000 0.000000 1.809850 
# 
# From -- ./inp_files/3746.got.cif
#   From: 2010.03.12/outbox.cif.g09.slc.cpg/sg38_2_cif.got.tgz:3746.got - 2010.04.14 02:38:36.
