data_PCOD8180592
_publ_section_title
;
Structure prediction by ZEFSAII (Michael W. Deem and Ramdas Pophale) SiO2 
 PCOD8180592
Probable space group: A B M 2
;
_chemical_formula_sum "Si O2"
_cell_formula_units_Z 48
_cell_length_a 9.379040
_cell_length_b 8.793426
_cell_length_c 31.491416
_cell_angle_alpha 90.000000
_cell_angle_beta 90.000000
_cell_angle_gamma 90.000000
_cell_volume 2597.219711
_symmetry_space_group_name_H-M "A B M 2"
_symmetry_group_IT_number 39
_symmetry_cell_setting 'orthorhombic'
loop_
_space_group_symop_operation_xyz
x,y,z
-x,-y,z
-x,1/2+y,z
x,1/2-y,z
x,1/2+y,1/2+z
-x,1/2-y,1/2+z
-x,y,1/2+z
x,-y,1/2+z
loop_
_atom_site_type_symbol
_atom_site_label
_atom_site_fract_x
_atom_site_fract_y
_atom_site_fract_z
Si Si1 0.658809 0.429862 0.282620
Si Si2 0.155033 0.430360 0.535204
Si Si3 0.652703 0.425211 0.700779
Si Si4 0.654630 0.572224 0.365015
Si Si5 0.655471 0.426865 0.606666
Si Si6 0.346386 0.572772 0.958232
O O1 0.500000 0.500000 0.282142
O O2 0.656118 0.250000 0.283216
O O3 0.737117 0.489506 0.239386
O O4 0.737784 0.491460 0.325555
O O5 0.143892 0.250000 0.536383
O O6 0.235461 0.487153 0.576728
O O7 0.237907 0.489863 0.493430
O O8 0.000000 0.500000 0.533935
O O9 0.500000 0.500000 0.696404
O O10 0.636765 0.250000 0.713502
O O11 0.722518 0.444559 0.654237
O O12 0.500000 0.500000 0.367354
O O13 0.643813 0.750000 0.355243
O O14 0.722834 0.539818 0.411468
O O15 0.500000 0.500000 0.602102
O O16 0.642925 0.250000 0.594266
O O17 0.500000 0.500000 0.964945
O O18 0.371615 0.750000 0.964310
#
# Coordination Sequence:
#
# PCOD8180592 Si02
#       6
#     8   8   8   8   8   8
#     4  10  16  22  35  59  92 126 158 192 235 283
#     4  11  23  38  54  74 100 131 168 209 255 304
#     4   9  16  26  41  63  93 127 161 196 238 286
#     4   9  15  25  40  61  91 124 157 193 236 284
#     4  10  20  34  53  77 103 133 169 208 251 299
#     4   9  19  33  51  74  99 129 165 204 246 294
#
# _framework density 18.481300999999998
#
# number of rings (size 3 to 8) (size 9 to 14) (size 15 to 20)
#    0.000    2.333    0.000    6.000    0.000    5.333 
#    0.000    0.000    0.000    0.000    0.000    1.167 
#    0.000    2.667    0.000    0.000    0.000    0.000 
#
# Total GULP energy -297346.600969 kJ/mol
# GULP energy per Si atom -12389.441707 kJ/mol
# Density = 1.843924 g / cm^3
# Si number density = 18.481301 Si / 1000 Ang^3
#
#
#
# Elastic Constant Matrix: (Units=GPa)
#
#
# Indices 1 2 3 4 5 6 
#
# 1 61.8939 29.4844 52.7102 0.0000 0.0000 0.0000
# 2 29.4844 123.5284 73.0605 0.0000 0.0000 0.0000
# 3 52.7102 73.0605 185.4880 0.0000 0.0000 0.0000
# 4 0.0000 0.0000 0.0000 11.3659 0.0000 0.0000
# 5 0.0000 0.0000 0.0000 0.0000 1.8686 0.0000
# 6 0.0000 0.0000 0.0000 0.0000 0.0000 18.1554
#
#
#
# Elastic Compliance Matrix: (Units=1/GPa)
#
#
# Indices 1 2 3 4 5 6 
#
# 1 0.021686 -0.001996 -0.005376 0.000000 0.000000 0.000000
# 2 -0.001996 0.010738 -0.003662 0.000000 0.000000 0.000000
# 3 -0.005376 -0.003662 0.008361 0.000000 0.000000 0.000000
# 4 0.000000 0.000000 0.000000 0.087983 0.000000 0.000000
# 5 0.000000 0.000000 0.000000 0.000000 0.535152 0.000000
# 6 0.000000 0.000000 0.000000 0.000000 0.000000 0.055080
#
#
# Mechanical properties :
#
#
# Convention : Reuss Voigt Hill
#
# Bulk Modulus (GPa) = 53.43058 75.71339 64.57198
# Shear Modulus (GPa) = 6.69068 20.65499 13.67284
#
# Velocity S-wave (km/s) = 1.90476 3.34670 2.72291
# Velocity P-wave (km/s) = 5.81471 7.48267 6.70079
#
# Compressibility (1/GPa) = 0.01871588
#
# Stress axis : x y z
#
# Youngs Moduli (GPa) = 46.11221 93.12935 119.59750
#
# Poissons Ratio (x) = 0.18593 0.64298
# Poissons Ratio (y) = 0.09206 0.43798
# Poissons Ratio (z) = 0.24791 0.34105
#
# Static dielectric constant tensor:
#      x y z
#    x 2.746120 0.000000 0.000000 
#    y 0.000000 4.113460 0.000000 
#    z 0.000000 0.000000 5.194370 
# 
# 
# High freq. dielectric constant tensor:
#      x y z
#    x 1.631820 0.000000 0.000000 
#    y 0.000000 1.734190 0.000000 
#    z 0.000000 0.000000 1.757320 
# 
# From -- ./inp_files/17618.got.cif
#   From: 2010.03.12/outbox.cif.g09.slc.cpg/sg39_9_cif.got.tgz:17618.got - 2010.04.14 02:53:20.
