data_PCOD8180397
_publ_section_title
;
Structure prediction by ZEFSAII (Michael W. Deem and Ramdas Pophale) SiO2 
 PCOD8180397
Probable space group: A M M 2
;
_chemical_formula_sum "Si O2"
_cell_formula_units_Z 40
_cell_length_a 12.578349
_cell_length_b 8.823123
_cell_length_c 18.117291
_cell_angle_alpha 90.000000
_cell_angle_beta 90.000000
_cell_angle_gamma 90.000000
_cell_volume 2010.662759
_symmetry_space_group_name_H-M "A M M 2"
_symmetry_group_IT_number 38
_symmetry_cell_setting 'orthorhombic'
loop_
_space_group_symop_operation_xyz
x,y,z
-x,-y,z
-x,y,z
x,-y,z
x,1/2+y,1/2+z
-x,1/2-y,1/2+z
-x,1/2+y,1/2+z
x,1/2-y,1/2+z
loop_
_atom_site_type_symbol
_atom_site_label
_atom_site_fract_x
_atom_site_fract_y
_atom_site_fract_z
Si Si1 0.301058 0.675449 0.189880
Si Si2 0.877586 0.175149 0.450388
Si Si3 0.877029 0.174527 0.280959
Si Si4 0.307463 0.177415 0.033627
Si Si5 0.500000 0.825576 0.792216
Si Si6 0.500000 0.677766 0.947561
O O1 0.298677 0.500000 0.167138
O O2 0.190336 0.717800 0.228191
O O3 0.396317 0.712355 0.245046
O O4 0.320039 0.774508 0.117822
O O5 0.852569 0.216554 0.365666
O O6 0.808847 0.279266 0.504105
O O7 0.000000 0.208550 0.468671
O O8 0.850346 0.000000 0.465247
O O9 0.000000 0.203597 0.262824
O O10 0.847104 0.000000 0.265941
O O11 0.394781 0.257718 0.984122
O O12 0.324641 0.000000 0.027137
O O13 0.500000 0.715885 0.861615
O O14 0.500000 0.000000 0.818467
O O15 0.500000 0.500000 0.958781
#
# Coordination Sequence:
#
# PCOD8180397 Si02
#       6
#     8   8   8   8   4   4
#     4  11  23  39  60  86 119 156 194 239 291 348
#     4   9  19  38  63  89 119 156 198 243 291 346
#     4   9  19  37  60  86 117 153 195 243 292 344
#     4  12  25  40  60  87 121 157 196 243 293 347
#     4  10  23  42  63  89 117 147 189 240 291 346
#     4  12  25  42  65  89 117 153 193 238 291 352
#
# _framework density 19.893937999999999
#
# number of rings (size 3 to 8) (size 9 to 14) (size 15 to 20)
#    0.000    1.600    0.000    6.300    0.000    8.000 
#    0.000    2.000    0.000    0.000    0.000    0.000 
#    0.000    0.000    0.000    0.000    0.000    0.000 
#
# Total GULP energy -248124.865279 kJ/mol
# GULP energy per Si atom -12406.243264 kJ/mol
# Density = 1.984866 g / cm^3
# Si number density = 19.893938 Si / 1000 Ang^3
#
#
#
# Elastic Constant Matrix: (Units=GPa)
#
#
# Indices 1 2 3 4 5 6 
#
# 1 108.1480 57.5311 56.2822 0.0000 0.0000 0.0000
# 2 57.5311 132.4847 63.9198 0.0000 0.0000 0.0000
# 3 56.2822 63.9198 110.8218 0.0000 0.0000 0.0000
# 4 0.0000 0.0000 0.0000 193.1223 0.0000 0.0000
# 5 0.0000 0.0000 0.0000 0.0000 5.7439 0.0000
# 6 0.0000 0.0000 0.0000 0.0000 0.0000 91.0695
#
#
#
# Elastic Compliance Matrix: (Units=1/GPa)
#
#
# Indices 1 2 3 4 5 6 
#
# 1 0.013700 -0.003592 -0.004886 0.000000 0.000000 0.000000
# 2 -0.003592 0.011400 -0.004751 0.000000 0.000000 0.000000
# 3 -0.004886 -0.004751 0.014245 0.000000 0.000000 0.000000
# 4 0.000000 0.000000 0.000000 0.005178 0.000000 0.000000
# 5 0.000000 0.000000 0.000000 0.000000 0.174097 0.000000
# 6 0.000000 0.000000 0.000000 0.000000 0.000000 0.010981
#
#
# Mechanical properties :
#
#
# Convention : Reuss Voigt Hill
#
# Bulk Modulus (GPa) = 77.59551 78.54676 78.07113
# Shear Modulus (GPa) = 19.20450 69.56857 44.38654
#
# Velocity S-wave (km/s) = 3.11037 5.91994 4.72864
# Velocity P-wave (km/s) = 7.21030 9.28956 8.31518
#
# Compressibility (1/GPa) = 0.01288734
#
# Stress axis : x y z
#
# Youngs Moduli (GPa) = 72.99193 87.71853 70.19840
#
# Poissons Ratio (x) = 0.31507 0.34299
# Poissons Ratio (y) = 0.26218 0.33353
# Poissons Ratio (z) = 0.35664 0.41677
#
# Static dielectric constant tensor:
#      x y z
#    x 3.689730 0.000000 0.000000 
#    y 0.000000 3.571770 0.000000 
#    z 0.000000 0.000000 3.621750 
# 
# 
# High freq. dielectric constant tensor:
#      x y z
#    x 1.790940 0.000000 0.000000 
#    y 0.000000 1.776310 0.000000 
#    z 0.000000 0.000000 1.781550 
# 
# From -- ./inp_files/14302.got.cif
#   From: 2010.03.12/outbox.cif.g09.slc.cpg/sg38_8_cif.got.tgz:14302.got - 2010.04.14 02:38:36.
