data_PCOD8180526
_publ_section_title
;
Structure prediction by ZEFSAII (Michael W. Deem and Ramdas Pophale) SiO2 
 PCOD8180526
Probable space group: A M M 2
;
_chemical_formula_sum "Si O2"
_cell_formula_units_Z 48
_cell_length_a 9.199428
_cell_length_b 9.742991
_cell_length_c 31.266910
_cell_angle_alpha 90.000000
_cell_angle_beta 90.000000
_cell_angle_gamma 90.000000
_cell_volume 2802.451399
_symmetry_space_group_name_H-M "A M M 2"
_symmetry_group_IT_number 38
_symmetry_cell_setting 'orthorhombic'
loop_
_space_group_symop_operation_xyz
x,y,z
-x,-y,z
-x,y,z
x,-y,z
x,1/2+y,1/2+z
-x,1/2-y,1/2+z
-x,1/2+y,1/2+z
x,1/2-y,1/2+z
loop_
_atom_site_type_symbol
_atom_site_label
_atom_site_fract_x
_atom_site_fract_y
_atom_site_fract_z
Si Si1 0.829811 0.158944 0.989000
Si Si2 0.826947 0.152944 0.412358
Si Si3 0.663524 0.663740 0.737794
Si Si4 0.664208 0.336685 0.573066
Si Si5 0.838031 0.836750 0.318515
Si Si6 0.835581 0.163691 0.155310
O O1 0.769696 0.243073 0.948371
O O2 0.000000 0.184129 0.996957
O O3 0.796607 0.000000 0.980112
O O4 0.744977 0.214200 0.030399
O O5 0.775462 0.204787 0.365353
O O6 0.000000 0.148915 0.411908
O O7 0.766301 0.000000 0.422014
O O8 0.500000 0.720490 0.734082
O O9 0.663744 0.500000 0.738007
O O10 0.733563 0.721819 0.781550
O O11 0.755908 0.719139 0.697706
O O12 0.500000 0.279309 0.573617
O O13 0.663980 0.500000 0.574565
O O14 0.750167 0.278543 0.614082
O O15 0.000000 0.776246 0.311420
O O16 0.846096 0.000000 0.316011
O O17 0.000000 0.220219 0.154583
O O18 0.835961 0.000000 0.154825
#
# Coordination Sequence:
#
# PCOD8180526 Si02
#       6
#     8   8   8   8   8   8
#     4   9  16  26  41  60  80 103 134 170 203 235
#     4   8  14  25  41  59  79 105 136 168 201 236
#     4   9  15  21  30  47  72  99 125 155 193 235
#     4   9  16  25  36  51  74 103 131 160 198 241
#     4   8  13  22  35  49  67  95 129 159 188 227
#     4   9  15  22  33  49  70  98 131 162 191 230
#
# _framework density 17.127863000000001
#
# number of rings (size 3 to 8) (size 9 to 14) (size 15 to 20)
#    0.000    3.333    0.000    2.500    0.000    6.000 
#    0.000    0.833    0.000    1.500    0.000    0.000 
#    0.000    1.333    0.000   11.333    0.000   12.500 
#
# Total GULP energy -297473.979484 kJ/mol
# GULP energy per Si atom -12394.749145 kJ/mol
# Density = 1.708888 g / cm^3
# Si number density = 17.127863 Si / 1000 Ang^3
#
#
#
# Elastic Constant Matrix: (Units=GPa)
#
#
# Indices 1 2 3 4 5 6 
#
# 1 115.3445 16.8021 84.8989 0.0000 0.0000 0.0000
# 2 16.8021 19.5787 33.0546 0.0000 0.0000 0.0000
# 3 84.8989 33.0546 197.2889 0.0000 0.0000 0.0000
# 4 0.0000 0.0000 0.0000 17.5440 0.0000 0.0000
# 5 0.0000 0.0000 0.0000 0.0000 16.2252 0.0000
# 6 0.0000 0.0000 0.0000 0.0000 0.0000 5.3673
#
#
#
# Elastic Compliance Matrix: (Units=1/GPa)
#
#
# Indices 1 2 3 4 5 6 
#
# 1 0.012765 -0.002344 -0.005101 0.000000 0.000000 0.000000
# 2 -0.002344 0.071652 -0.010996 0.000000 0.000000 0.000000
# 3 -0.005101 -0.010996 0.009106 0.000000 0.000000 0.000000
# 4 0.000000 0.000000 0.000000 0.057000 0.000000 0.000000
# 5 0.000000 0.000000 0.000000 0.000000 0.061633 0.000000
# 6 0.000000 0.000000 0.000000 0.000000 0.000000 0.186313
#
#
# Mechanical properties :
#
#
# Convention : Reuss Voigt Hill
#
# Bulk Modulus (GPa) = 17.65469 66.85815 42.25642
# Shear Modulus (GPa) = 11.00762 20.99106 15.99934
#
# Velocity S-wave (km/s) = 2.53785 3.50458 3.05964
# Velocity P-wave (km/s) = 4.34943 7.44954 6.09972
#
# Compressibility (1/GPa) = 0.05664218
#
# Stress axis : x y z
#
# Youngs Moduli (GPa) = 78.33689 13.95633 109.81750
#
# Poissons Ratio (x) = 0.03271 0.56014
# Poissons Ratio (y) = 0.18360 1.20759
# Poissons Ratio (z) = 0.39957 0.15347
#
# Static dielectric constant tensor:
#      x y z
#    x 3.225270 0.000000 0.000000 
#    y 0.000000 2.539630 0.000000 
#    z 0.000000 0.000000 3.589150 
# 
# 
# High freq. dielectric constant tensor:
#      x y z
#    x 1.652100 0.000000 0.000000 
#    y 0.000000 1.572410 0.000000 
#    z 0.000000 0.000000 1.682490 
# 
# From -- ./inp_files/21876.got.cif
#   From: 2010.03.12/outbox.cif.g09.slc.cpg/sg38_11_cif.got.tgz:21876.got - 2010.04.14 02:38:36.
