data_PCOD8180196
_publ_section_title
;
Structure prediction by ZEFSAII (Michael W. Deem and Ramdas Pophale) SiO2 
 PCOD8180196
Probable space group: A M M 2
;
_chemical_formula_sum "Si O2"
_cell_formula_units_Z 48
_cell_length_a 8.627984
_cell_length_b 23.267642
_cell_length_c 11.822980
_cell_angle_alpha 90.000000
_cell_angle_beta 90.000000
_cell_angle_gamma 90.000000
_cell_volume 2373.496846
_symmetry_space_group_name_H-M "A M M 2"
_symmetry_group_IT_number 38
_symmetry_cell_setting 'orthorhombic'
loop_
_space_group_symop_operation_xyz
x,y,z
-x,-y,z
-x,y,z
x,-y,z
x,1/2+y,1/2+z
-x,1/2-y,1/2+z
-x,1/2+y,1/2+z
x,1/2-y,1/2+z
loop_
_atom_site_type_symbol
_atom_site_label
_atom_site_fract_x
_atom_site_fract_y
_atom_site_fract_z
Si Si1 0.681576 0.349362 0.403720
Si Si2 0.174151 0.565911 0.788398
Si Si3 0.181827 0.269398 0.853040
Si Si4 0.678286 0.659506 0.660012
Si Si5 0.815814 0.066024 0.729950
Si Si6 0.821036 0.628814 0.009700
O O1 0.500000 0.360369 0.395383
O O2 0.726062 0.289746 0.345183
O O3 0.738663 0.342997 0.532200
O O4 0.764959 0.403843 0.346304
O O5 0.191386 0.500000 0.762727
O O6 0.301402 0.595938 0.710252
O O7 0.207171 0.578050 0.919997
O O8 0.000000 0.588168 0.759804
O O9 0.212878 0.298306 0.731827
O O10 0.244824 0.311142 0.955517
O O11 0.000000 0.257602 0.866320
O O12 0.500000 0.679097 0.667532
O O13 0.745645 0.105465 0.626819
O O14 0.000000 0.064580 0.721833
O O15 0.753194 0.000000 0.725080
O O16 0.000000 0.640124 0.033064
#
# Coordination Sequence:
#
# PCOD8180196 Si02
#       6
#     8   8   8   8   8   8
#     4  11  25  41  57  81 118 160 197 239 294 357
#     4   9  17  32  57  86 114 147 190 239 288 339
#     4  10  21  38  63  90 115 145 192 247 301 357
#     4  10  22  39  56  80 115 152 191 236 292 354
#     4  10  21  38  61  89 120 157 203 247 292 352
#     4   8  16  33  58  89 117 144 183 241 299 343
#
# _framework density 20.223326
#
# number of rings (size 3 to 8) (size 9 to 14) (size 15 to 20)
#    0.000    2.333    0.000    3.000    2.333    6.000 
#    0.000    6.667    0.000    4.000    0.000    0.000 
#    0.000    0.000    0.000    0.000    0.000    0.000 
#
# Total GULP energy -297476.472768 kJ/mol
# GULP energy per Si atom -12394.853032 kJ/mol
# Density = 2.017730 g / cm^3
# Si number density = 20.223326 Si / 1000 Ang^3
#
#
#
# Elastic Constant Matrix: (Units=GPa)
#
#
# Indices 1 2 3 4 5 6 
#
# 1 23.3120 14.3214 17.9254 0.0000 0.0000 0.0000
# 2 14.3214 109.3998 47.5164 0.0000 0.0000 0.0000
# 3 17.9254 47.5164 108.7656 0.0000 0.0000 0.0000
# 4 0.0000 0.0000 0.0000 20.0700 0.0000 0.0000
# 5 0.0000 0.0000 0.0000 0.0000 27.5930 0.0000
# 6 0.0000 0.0000 0.0000 0.0000 0.0000 24.9735
#
#
#
# Elastic Compliance Matrix: (Units=1/GPa)
#
#
# Indices 1 2 3 4 5 6 
#
# 1 0.050296 -0.003683 -0.006680 0.000000 0.000000 0.000000
# 2 -0.003683 0.011551 -0.004439 0.000000 0.000000 0.000000
# 3 -0.006680 -0.004439 0.012234 0.000000 0.000000 0.000000
# 4 0.000000 0.000000 0.000000 0.049826 0.000000 0.000000
# 5 0.000000 0.000000 0.000000 0.000000 0.036241 0.000000
# 6 0.000000 0.000000 0.000000 0.000000 0.000000 0.040042
#
#
# Mechanical properties :
#
#
# Convention : Reuss Voigt Hill
#
# Bulk Modulus (GPa) = 22.48378 44.55596 33.51987
# Shear Modulus (GPa) = 20.43985 25.30825 22.87405
#
# Velocity S-wave (km/s) = 3.18261 3.54141 3.36679
# Velocity P-wave (km/s) = 4.96460 6.22911 5.63245
#
# Compressibility (1/GPa) = 0.04447650
#
# Stress axis : x y z
#
# Youngs Moduli (GPa) = 19.88249 86.57209 81.73633
#
# Poissons Ratio (x) = 0.31882 0.54602
# Poissons Ratio (y) = 0.07322 0.36286
# Poissons Ratio (z) = 0.13282 0.38433
#
# Static dielectric constant tensor:
#      x y z
#    x 3.424070 0.000000 0.000000 
#    y 0.000000 3.764220 0.000000 
#    z 0.000000 0.000000 3.807660 
# 
# 
# High freq. dielectric constant tensor:
#      x y z
#    x 1.761600 0.000000 0.000000 
#    y 0.000000 1.795160 0.000000 
#    z 0.000000 0.000000 1.791550 
# 
# From -- ./inp_files/8129.got.cif
#   From: 2010.03.12/outbox.cif.g09.slc.cpg/sg38_5_cif.got.tgz:8129.got - 2010.04.14 02:38:36.
