data_PCOD8180407
_publ_section_title
;
Structure prediction by ZEFSAII (Michael W. Deem and Ramdas Pophale) SiO2 
 PCOD8180407
Probable space group: A M M 2
;
_chemical_formula_sum "Si O2"
_cell_formula_units_Z 40
_cell_length_a 11.348315
_cell_length_b 8.772059
_cell_length_c 20.256072
_cell_angle_alpha 90.000000
_cell_angle_beta 90.000000
_cell_angle_gamma 90.000000
_cell_volume 2016.453253
_symmetry_space_group_name_H-M "A M M 2"
_symmetry_group_IT_number 38
_symmetry_cell_setting 'orthorhombic'
loop_
_space_group_symop_operation_xyz
x,y,z
-x,-y,z
-x,y,z
x,-y,z
x,1/2+y,1/2+z
-x,1/2-y,1/2+z
-x,1/2+y,1/2+z
x,1/2-y,1/2+z
loop_
_atom_site_type_symbol
_atom_site_label
_atom_site_fract_x
_atom_site_fract_y
_atom_site_fract_z
Si Si1 0.361747 0.829976 0.451260
Si Si2 0.237554 0.178867 0.832093
Si Si3 0.000000 0.680048 0.879613
Si Si4 0.636764 0.823329 0.210347
Si Si5 0.000000 0.180393 0.532234
Si Si6 0.239002 0.177652 0.072231
O O1 0.500000 0.843780 0.452118
O O2 0.325774 0.731580 0.388740
O O3 0.321606 0.747720 0.516942
O O4 0.304892 0.000000 0.447220
O O5 0.112499 0.259125 0.840790
O O6 0.294739 0.221218 0.762620
O O7 0.218179 0.000000 0.836292
O O8 0.000000 0.500000 0.876493
O O9 0.000000 0.736524 0.955878
O O10 0.500000 0.774827 0.206882
O O11 0.697397 0.789730 0.140860
O O12 0.648325 0.000000 0.230468
O O13 0.887831 0.243685 0.571081
O O14 0.000000 0.000000 0.535985
O O15 0.222536 0.000000 0.058521
#
# Coordination Sequence:
#
# PCOD8180407 Si02
#       6
#     8   8   4   8   4   8
#     4  11  23  39  61  90 125 166 210 257 313 376
#     4  12  25  40  64  95 126 163 211 265 316 367
#     4  11  23  42  67  92 126 168 210 257 317 380
#     4  10  23  44  66  91 129 173 212 254 312 379
#     4  11  23  40  65  94 128 168 210 257 315 378
#     4  11  23  40  66  95 125 164 211 262 314 369
#
# _framework density 19.836808999999999
#
# number of rings (size 3 to 8) (size 9 to 14) (size 15 to 20)
#    0.000    1.000    2.000    4.800    0.000    8.400 
#    0.000    1.000    0.000    0.000    0.000    0.000 
#    0.000    0.000    0.000    0.000    0.000    0.000 
#
# Total GULP energy -248119.296064 kJ/mol
# GULP energy per Si atom -12405.964803 kJ/mol
# Density = 1.979166 g / cm^3
# Si number density = 19.836809 Si / 1000 Ang^3
#
#
#
# Elastic Constant Matrix: (Units=GPa)
#
#
# Indices 1 2 3 4 5 6 
#
# 1 146.2397 56.1318 58.2444 0.0000 0.0000 0.0000
# 2 56.1318 114.1111 61.2227 0.0000 0.0000 0.0000
# 3 58.2444 61.2227 103.9722 0.0000 0.0000 0.0000
# 4 0.0000 0.0000 0.0000 33.5122 0.0000 0.0000
# 5 0.0000 0.0000 0.0000 0.0000 41.5965 0.0000
# 6 0.0000 0.0000 0.0000 0.0000 0.0000 31.0546
#
#
#
# Elastic Compliance Matrix: (Units=1/GPa)
#
#
# Indices 1 2 3 4 5 6 
#
# 1 0.009302 -0.002602 -0.003679 0.000000 0.000000 0.000000
# 2 -0.002602 0.013538 -0.006514 0.000000 0.000000 0.000000
# 3 -0.003679 -0.006514 0.015515 0.000000 0.000000 0.000000
# 4 0.000000 0.000000 0.000000 0.029840 0.000000 0.000000
# 5 0.000000 0.000000 0.000000 0.000000 0.024041 0.000000
# 6 0.000000 0.000000 0.000000 0.000000 0.000000 0.032201
#
#
# Mechanical properties :
#
#
# Convention : Reuss Voigt Hill
#
# Bulk Modulus (GPa) = 78.33966 79.50233 78.92099
# Shear Modulus (GPa) = 32.40825 33.81425 33.11125
#
# Velocity S-wave (km/s) = 4.04634 4.13319 4.09000
# Velocity P-wave (km/s) = 7.83635 7.93365 7.88515
#
# Compressibility (1/GPa) = 0.01276493
#
# Stress axis : x y z
#
# Youngs Moduli (GPa) = 107.50379 73.86424 64.45536
#
# Poissons Ratio (x) = 0.19219 0.23712
# Poissons Ratio (y) = 0.27972 0.41988
# Poissons Ratio (z) = 0.39548 0.48117
#
# Static dielectric constant tensor:
#      x y z
#    x 3.746280 0.000000 0.000000 
#    y 0.000000 3.802090 0.000000 
#    z 0.000000 0.000000 3.660530 
# 
# 
# High freq. dielectric constant tensor:
#      x y z
#    x 1.792830 0.000000 0.000000 
#    y 0.000000 1.785700 0.000000 
#    z 0.000000 0.000000 1.778410 
# 
# From -- ./inp_files/20461.got.cif
#   From: 2010.03.12/outbox.cif.g09.slc.cpg/sg38_11_cif.got.tgz:20461.got - 2010.04.14 02:38:36.
