data_PCOD8180322
_publ_section_title
;
Structure prediction by ZEFSAII (Michael W. Deem and Ramdas Pophale) SiO2 
 PCOD8180322
Probable space group: A M M 2
;
_chemical_formula_sum "Si O2"
_cell_formula_units_Z 56
_cell_length_a 8.804748
_cell_length_b 21.140763
_cell_length_c 14.280439
_cell_angle_alpha 90.000000
_cell_angle_beta 90.000000
_cell_angle_gamma 90.000000
_cell_volume 2658.147931
_symmetry_space_group_name_H-M "A M M 2"
_symmetry_group_IT_number 38
_symmetry_cell_setting 'orthorhombic'
loop_
_space_group_symop_operation_xyz
x,y,z
-x,-y,z
-x,y,z
x,-y,z
x,1/2+y,1/2+z
-x,1/2-y,1/2+z
-x,1/2+y,1/2+z
x,1/2-y,1/2+z
loop_
_atom_site_type_symbol
_atom_site_label
_atom_site_fract_x
_atom_site_fract_y
_atom_site_fract_z
Si Si1 0.178878 0.429332 0.868430
Si Si2 0.320229 0.256054 0.552484
Si Si3 0.330705 0.141194 0.207972
Si Si4 0.175312 0.157250 0.907228
Si Si5 0.180153 0.620448 0.068309
Si Si6 0.321753 0.071903 0.751257
Si Si7 0.665634 0.070817 0.034730
O O1 0.243097 0.500000 0.845025
O O2 0.229595 0.373320 0.798196
O O3 0.000000 0.431187 0.864922
O O4 0.235516 0.409966 0.971160
O O5 0.500000 0.247939 0.544880
O O6 0.274661 0.302543 0.638990
O O7 0.257904 0.280921 0.451267
O O8 0.241897 0.190962 0.577745
O O9 0.500000 0.156023 0.243934
O O10 0.323288 0.076932 0.146493
O O11 0.251998 0.128059 0.814731
O O12 0.000000 0.172818 0.886916
O O13 0.192032 0.103993 0.986606
O O14 0.249090 0.576987 0.149164
O O15 0.000000 0.621342 0.077303
O O16 0.500000 0.084247 0.745331
O O17 0.288842 0.000000 0.788464
O O18 0.500000 0.100844 0.003434
O O19 0.668781 0.000000 0.001441
#
# Coordination Sequence:
#
# PCOD8180322 Si02
#       7
#     8   8   8   8   8   8   8
#     4  10  22  39  59  86 120 155 190 235 293 350
#     4  10  22  42  63  87 122 160 201 246 297 358
#     4   9  19  35  57  84 114 151 193 239 287 341
#     4  11  22  36  58  88 120 155 197 246 301 359
#     4  11  24  42  63  87 119 158 202 253 304 355
#     4  11  24  42  64  90 120 158 204 251 304 366
#     4   9  17  31  51  78 115 155 193 238 294 354
#
# _framework density 21.067302000000002
#
# number of rings (size 3 to 8) (size 9 to 14) (size 15 to 20)
#    0.000    1.857    0.000    4.714    0.000    9.714 
#    0.000    2.857    0.000    0.000    0.000    0.000 
#    0.000    0.000    0.000    0.000    0.000    0.000 
#
# Total GULP energy -346965.309380 kJ/mol
# GULP energy per Si atom -12391.618192 kJ/mol
# Density = 2.101935 g / cm^3
# Si number density = 21.067302 Si / 1000 Ang^3
#
#
#
# Elastic Constant Matrix: (Units=GPa)
#
#
# Indices 1 2 3 4 5 6 
#
# 1 83.2890 20.1815 45.8413 0.0000 0.0000 0.0000
# 2 20.1815 66.0760 38.6199 0.0000 0.0000 0.0000
# 3 45.8413 38.6199 94.6822 0.0000 0.0000 0.0000
# 4 0.0000 0.0000 0.0000 18.0105 0.0000 0.0000
# 5 0.0000 0.0000 0.0000 0.0000 35.2631 0.0000
# 6 0.0000 0.0000 0.0000 0.0000 0.0000 27.4286
#
#
#
# Elastic Compliance Matrix: (Units=1/GPa)
#
#
# Indices 1 2 3 4 5 6 
#
# 1 0.016380 -0.000483 -0.007734 0.000000 0.000000 0.000000
# 2 -0.000483 0.019886 -0.007877 0.000000 0.000000 0.000000
# 3 -0.007734 -0.007877 0.017519 0.000000 0.000000 0.000000
# 4 0.000000 0.000000 0.000000 0.055523 0.000000 0.000000
# 5 0.000000 0.000000 0.000000 0.000000 0.028358 0.000000
# 6 0.000000 0.000000 0.000000 0.000000 0.000000 0.036458
#
#
# Mechanical properties :
#
#
# Convention : Reuss Voigt Hill
#
# Bulk Modulus (GPa) = 46.30258 50.37029 48.33643
# Shear Modulus (GPa) = 23.41803 25.43408 24.42605
#
# Velocity S-wave (km/s) = 3.33766 3.47836 3.40873
# Velocity P-wave (km/s) = 6.07284 6.33191 6.20373
#
# Compressibility (1/GPa) = 0.02159707
#
# Stress axis : x y z
#
# Youngs Moduli (GPa) = 61.05070 50.28733 57.08076
#
# Poissons Ratio (x) = 0.02428 0.44144
# Poissons Ratio (y) = 0.02948 0.44965
# Poissons Ratio (z) = 0.47214 0.39613
#
# Static dielectric constant tensor:
#      x y z
#    x 3.806500 0.000000 0.000000 
#    y 0.000000 3.914270 0.000000 
#    z 0.000000 0.000000 3.866830 
# 
# 
# High freq. dielectric constant tensor:
#      x y z
#    x 1.818330 0.000000 0.000000 
#    y 0.000000 1.826120 0.000000 
#    z 0.000000 0.000000 1.828030 
# 
# From -- ./inp_files/12453.got.cif
#   From: 2010.03.12/outbox.cif.g09.slc.cpg/sg38_7_cif.got.tgz:12453.got - 2010.04.14 02:38:36.
