data_PCOD8180178
_publ_section_title
;
Structure prediction by ZEFSAII (Michael W. Deem and Ramdas Pophale) SiO2 
 PCOD8180178
Probable space group: A M M 2
;
_chemical_formula_sum "Si O2"
_cell_formula_units_Z 48
_cell_length_a 8.580673
_cell_length_b 20.246053
_cell_length_c 14.376424
_cell_angle_alpha 90.000000
_cell_angle_beta 90.000000
_cell_angle_gamma 90.000000
_cell_volume 2497.540814
_symmetry_space_group_name_H-M "A M M 2"
_symmetry_group_IT_number 38
_symmetry_cell_setting 'orthorhombic'
loop_
_space_group_symop_operation_xyz
x,y,z
-x,-y,z
-x,y,z
x,-y,z
x,1/2+y,1/2+z
-x,1/2-y,1/2+z
-x,1/2+y,1/2+z
x,1/2-y,1/2+z
loop_
_atom_site_type_symbol
_atom_site_label
_atom_site_fract_x
_atom_site_fract_y
_atom_site_fract_z
Si Si1 0.319853 0.314667 0.521800
Si Si2 0.179136 0.573955 0.027425
Si Si3 0.180331 0.923918 0.897727
Si Si4 0.180286 0.803022 0.407110
Si Si5 0.179845 0.765706 0.201995
Si Si6 0.679612 0.624530 0.210301
O O1 0.500000 0.312484 0.547859
O O2 0.283040 0.382284 0.469047
O O3 0.281640 0.252936 0.455977
O O4 0.221225 0.313670 0.616832
O O5 0.205924 0.500000 0.988536
O O6 0.285825 0.583860 0.117320
O O7 0.000000 0.585006 0.057090
O O8 0.226708 0.625225 0.946639
O O9 0.214900 0.903611 0.792342
O O10 0.000000 0.909299 0.917290
O O11 0.222872 0.000000 0.913188
O O12 0.216810 0.803866 0.297534
O O13 0.000000 0.786385 0.426574
O O14 0.284636 0.700949 0.192388
O O15 0.000000 0.744465 0.196489
O O16 0.500000 0.615834 0.237788
#
# Coordination Sequence:
#
# PCOD8180178 Si02
#       6
#     8   8   8   8   8   8
#     4  12  24  38  61  90 122 157 197 250 306 357
#     4  10  21  38  60  87 120 159 201 245 298 359
#     4  11  24  42  63  87 119 162 206 247 299 365
#     4  10  21  38  62  86 116 159 203 248 291 350
#     4  11  22  38  61  88 120 158 204 247 294 357
#     4  12  23  35  57  91 126 157 195 248 307 358
#
# _framework density 19.218906
#
# number of rings (size 3 to 8) (size 9 to 14) (size 15 to 20)
#    0.000    1.000    3.333    4.500    0.000    4.333 
#    0.000    0.833    0.000    3.000    0.000    0.000 
#    0.000    0.000    0.000    0.000    0.000    0.000 
#
# Total GULP energy -297754.147275 kJ/mol
# GULP energy per Si atom -12406.422803 kJ/mol
# Density = 1.917516 g / cm^3
# Si number density = 19.218906 Si / 1000 Ang^3
#
#
#
# Elastic Constant Matrix: (Units=GPa)
#
#
# Indices 1 2 3 4 5 6 
#
# 1 50.7550 21.6575 23.2335 0.0000 0.0000 0.0000
# 2 21.6575 120.4326 50.7259 0.0000 0.0000 0.0000
# 3 23.2335 50.7259 125.4383 0.0000 0.0000 0.0000
# 4 0.0000 0.0000 0.0000 17.6731 0.0000 0.0000
# 5 0.0000 0.0000 0.0000 0.0000 18.9969 0.0000
# 6 0.0000 0.0000 0.0000 0.0000 0.0000 15.6725
#
#
#
# Elastic Compliance Matrix: (Units=1/GPa)
#
#
# Indices 1 2 3 4 5 6 
#
# 1 0.022248 -0.002730 -0.003017 0.000000 0.000000 0.000000
# 2 -0.002730 0.010343 -0.003677 0.000000 0.000000 0.000000
# 3 -0.003017 -0.003677 0.010018 0.000000 0.000000 0.000000
# 4 0.000000 0.000000 0.000000 0.056583 0.000000 0.000000
# 5 0.000000 0.000000 0.000000 0.000000 0.052640 0.000000
# 6 0.000000 0.000000 0.000000 0.000000 0.000000 0.063806
#
#
# Mechanical properties :
#
#
# Convention : Reuss Voigt Hill
#
# Bulk Modulus (GPa) = 42.08517 54.20663 48.14590
# Shear Modulus (GPa) = 20.62647 23.86911 22.24779
#
# Velocity S-wave (km/s) = 3.27959 3.52797 3.40604
# Velocity P-wave (km/s) = 6.02381 6.69787 6.36976
#
# Compressibility (1/GPa) = 0.02376134
#
# Stress axis : x y z
#
# Youngs Moduli (GPa) = 44.94693 96.68275 99.82322
#
# Poissons Ratio (x) = 0.26397 0.30114
# Poissons Ratio (y) = 0.12272 0.36704
# Poissons Ratio (z) = 0.13559 0.35550
#
# Static dielectric constant tensor:
#      x y z
#    x 3.488020 0.000000 0.000000 
#    y 0.000000 3.537450 0.000000 
#    z 0.000000 0.000000 3.582700 
# 
# 
# High freq. dielectric constant tensor:
#      x y z
#    x 1.750240 0.000000 0.000000 
#    y 0.000000 1.743560 0.000000 
#    z 0.000000 0.000000 1.748380 
# 
# From -- ./inp_files/12030.got.cif
#   From: 2010.03.12/outbox.cif.g09.slc.cpg/sg38_7_cif.got.tgz:12030.got - 2010.04.14 02:38:36.
