data_PCOD8180524
_publ_section_title
;
Structure prediction by ZEFSAII (Michael W. Deem and Ramdas Pophale) SiO2 
 PCOD8180524
Probable space group: A M M 2
;
_chemical_formula_sum "Si O2"
_cell_formula_units_Z 48
_cell_length_a 9.378751
_cell_length_b 9.268716
_cell_length_c 31.263086
_cell_angle_alpha 90.000000
_cell_angle_beta 90.000000
_cell_angle_gamma 90.000000
_cell_volume 2717.668161
_symmetry_space_group_name_H-M "A M M 2"
_symmetry_group_IT_number 38
_symmetry_cell_setting 'orthorhombic'
loop_
_space_group_symop_operation_xyz
x,y,z
-x,-y,z
-x,y,z
x,-y,z
x,1/2+y,1/2+z
-x,1/2-y,1/2+z
-x,1/2+y,1/2+z
x,1/2-y,1/2+z
loop_
_atom_site_type_symbol
_atom_site_label
_atom_site_fract_x
_atom_site_fract_y
_atom_site_fract_z
Si Si1 0.334168 0.332018 0.418070
Si Si2 0.670223 0.662541 0.253331
Si Si3 0.669803 0.160879 0.173086
Si Si4 0.839599 0.171779 0.000235
Si Si5 0.659191 0.828038 0.079095
Si Si6 0.669630 0.162833 0.334761
O O1 0.500000 0.302858 0.427387
O O2 0.306457 0.500000 0.408800
O O3 0.246323 0.275206 0.458740
O O4 0.277740 0.243652 0.377323
O O5 0.500000 0.663351 0.253490
O O6 0.728922 0.500000 0.256427
O O7 0.729668 0.733454 0.209663
O O8 0.729838 0.752962 0.293505
O O9 0.500000 0.154589 0.174533
O O10 0.716386 0.218850 0.126116
O O11 0.730682 0.000000 0.181373
O O12 0.000000 0.232692 0.998239
O O13 0.839279 0.000000 0.001847
O O14 0.763833 0.234405 0.042759
O O15 0.500000 0.766820 0.070858
O O16 0.653644 0.000000 0.077363
O O17 0.500000 0.162512 0.333314
O O18 0.729560 0.000000 0.334467
#
# Coordination Sequence:
#
# PCOD8180524 Si02
#       6
#     8   8   8   8   8   8
#     4   9  16  26  41  61  85 112 141 173 209 248
#     4   9  15  22  34  55  84 112 135 165 208 252
#     4   8  13  21  34  53  78 108 139 168 200 241
#     4   9  16  25  39  61  86 110 139 176 214 249
#     4   8  13  22  37  57  81 110 143 175 206 243
#     4   9  16  25  38  57  82 111 141 172 207 248
#
# _framework density 17.662201
#
# number of rings (size 3 to 8) (size 9 to 14) (size 15 to 20)
#    0.000    3.333    0.000    2.500    0.000    6.000 
#    0.000    0.000    0.000    1.500    0.000    5.833 
#    0.000    4.000    0.000    0.000    0.000    0.000 
#
# Total GULP energy -297479.668662 kJ/mol
# GULP energy per Si atom -12394.986194 kJ/mol
# Density = 1.762200 g / cm^3
# Si number density = 17.662201 Si / 1000 Ang^3
#
#
#
# Elastic Constant Matrix: (Units=GPa)
#
#
# Indices 1 2 3 4 5 6 
#
# 1 48.7780 20.7926 51.8740 0.0000 0.0000 0.0000
# 2 20.7926 83.5859 71.9648 0.0000 0.0000 0.0000
# 3 51.8740 71.9648 202.1935 0.0000 0.0000 0.0000
# 4 0.0000 0.0000 0.0000 25.6409 0.0000 0.0000
# 5 0.0000 0.0000 0.0000 0.0000 2.6907 0.0000
# 6 0.0000 0.0000 0.0000 0.0000 0.0000 4.8976
#
#
#
# Elastic Compliance Matrix: (Units=1/GPa)
#
#
# Indices 1 2 3 4 5 6 
#
# 1 0.028268 -0.001136 -0.006848 0.000000 0.000000 0.000000
# 2 -0.001136 0.017295 -0.005864 0.000000 0.000000 0.000000
# 3 -0.006848 -0.005864 0.008790 0.000000 0.000000 0.000000
# 4 0.000000 0.000000 0.000000 0.039000 0.000000 0.000000
# 5 0.000000 0.000000 0.000000 0.000000 0.371650 0.000000
# 6 0.000000 0.000000 0.000000 0.000000 0.000000 0.204184
#
#
# Mechanical properties :
#
#
# Convention : Reuss Voigt Hill
#
# Bulk Modulus (GPa) = 37.51423 69.31336 53.41380
# Shear Modulus (GPa) = 7.08447 19.30757 13.19602
#
# Velocity S-wave (km/s) = 2.00494 3.30988 2.73634
# Velocity P-wave (km/s) = 5.16195 7.34412 6.34751
#
# Compressibility (1/GPa) = 0.02665655
#
# Stress axis : x y z
#
# Youngs Moduli (GPa) = 35.37584 57.81913 113.76723
#
# Poissons Ratio (x) = 0.06568 0.77908
# Poissons Ratio (y) = 0.04019 0.66717
# Poissons Ratio (z) = 0.24225 0.33907
#
# Static dielectric constant tensor:
#      x y z
#    x 2.818370 0.000000 0.000000 
#    y 0.000000 3.064800 0.000000 
#    z 0.000000 0.000000 3.652100 
# 
# 
# High freq. dielectric constant tensor:
#      x y z
#    x 1.618540 0.000000 0.000000 
#    y 0.000000 1.646890 0.000000 
#    z 0.000000 0.000000 1.704930 
# 
# From -- ./inp_files/24827.got.cif
#   From: 2010.03.12/outbox.cif.g09.slc.cpg/sg38_13_cif.got.tgz:24827.got - 2010.04.14 02:38:36.
