data_PCOD8180918
_publ_section_title
;
Structure prediction by ZEFSAII (Michael W. Deem and Ramdas Pophale) SiO2 
 PCOD8180918
Probable space group: A B M 2
;
_chemical_formula_sum "Si O2"
_cell_formula_units_Z 64
_cell_length_a 14.320188
_cell_length_b 8.790868
_cell_length_c 31.132274
_cell_angle_alpha 90.000000
_cell_angle_beta 90.000000
_cell_angle_gamma 90.000000
_cell_volume 3919.144917
_symmetry_space_group_name_H-M "A B M 2"
_symmetry_group_IT_number 39
_symmetry_cell_setting 'orthorhombic'
loop_
_space_group_symop_operation_xyz
x,y,z
-x,-y,z
-x,1/2+y,z
x,1/2-y,z
x,1/2+y,1/2+z
-x,1/2-y,1/2+z
-x,y,1/2+z
x,-y,1/2+z
loop_
_atom_site_type_symbol
_atom_site_label
_atom_site_fract_x
_atom_site_fract_y
_atom_site_fract_z
Si Si1 0.597678 0.575393 0.643210
Si Si2 0.710755 0.070699 0.473767
Si Si3 0.096484 0.430219 0.837783
Si Si4 0.601263 0.929964 0.889005
Si Si5 0.904923 0.928444 0.936817
Si Si6 0.717336 0.930427 0.312151
Si Si7 0.397943 0.570662 0.050015
Si Si8 0.602878 0.570668 0.736321
O O1 0.500000 0.500000 0.649321
O O2 0.575370 0.750000 0.637956
O O3 0.642698 0.523163 0.597616
O O4 0.650128 0.544415 0.688584
O O5 0.709290 0.250000 0.480509
O O6 0.642295 0.023681 0.435111
O O7 0.815731 0.013125 0.463693
O O8 0.677431 0.990872 0.516860
O O9 0.098491 0.250000 0.830910
O O10 0.110487 0.476094 0.887497
O O11 0.177197 0.509213 0.810258
O O12 0.000000 0.500000 0.820528
O O13 0.596535 0.750000 0.883161
O O14 0.500000 0.000000 0.883738
O O15 0.667316 0.996245 0.852768
O O16 0.915006 0.750000 0.940768
O O17 0.000000 0.000000 0.955615
O O18 0.714488 0.750000 0.315999
O O19 0.669068 0.982984 0.268612
O O20 0.500000 0.500000 0.041906
O O21 0.407321 0.750000 0.043832
O O22 0.500000 0.500000 0.739965
O O23 0.597371 0.750000 0.747300
#
# Coordination Sequence:
#
# PCOD8180918 Si02
#       8
#     8   8   8   8   8   8   8   8
#     4   8  16  30  48  69  94 124 160 200 244 288
#     4  10  20  34  49  69  97 129 163 199 240 287
#     4  10  19  35  54  74  97 126 161 205 248 289
#     4  11  22  36  48  64  95 133 170 203 237 284
#     4   9  18  33  51  71  94 122 158 201 243 284
#     4  12  23  34  49  72  98 130 167 202 243 293
#     4  10  19  31  48  72  99 129 164 201 241 289
#     4  10  19  33  51  71  98 131 164 203 246 292
#
# _framework density 16.330092
#
# number of rings (size 3 to 8) (size 9 to 14) (size 15 to 20)
#    0.000    2.000    1.250    3.375    0.000    4.000 
#    0.000    0.000    0.000    0.000    0.000    0.875 
#    0.000    2.000    0.000    0.000    0.000    0.000 
#
# Total GULP energy -396619.336954 kJ/mol
# GULP energy per Si atom -12394.354280 kJ/mol
# Density = 1.629292 g / cm^3
# Si number density = 16.330092 Si / 1000 Ang^3
#
#
#
# Elastic Constant Matrix: (Units=GPa)
#
#
# Indices 1 2 3 4 5 6 
#
# 1 106.3020 33.7778 47.4477 0.0000 0.0000 0.0000
# 2 33.7778 57.0067 37.4264 0.0000 0.0000 0.0000
# 3 47.4477 37.4264 102.6791 0.0000 0.0000 0.0000
# 4 0.0000 0.0000 0.0000 24.2471 0.0000 0.0000
# 5 0.0000 0.0000 0.0000 0.0000 -0.6842 0.0000
# 6 0.0000 0.0000 0.0000 0.0000 0.0000 28.7890
#
#
#
# Elastic Compliance Matrix: (Units=1/GPa)
#
#
# Indices 1 2 3 4 5 6 
#
# 1 0.012802 -0.004866 -0.004142 0.000000 0.000000 0.000000
# 2 -0.004866 0.024910 -0.006831 0.000000 0.000000 0.000000
# 3 -0.004142 -0.006831 0.014143 0.000000 0.000000 0.000000
# 4 0.000000 0.000000 0.000000 0.041242 0.000000 0.000000
# 5 0.000000 0.000000 0.000000 0.000000 -1.461471 0.000000
# 6 0.000000 0.000000 0.000000 0.000000 0.000000 0.034736
#
#
# Mechanical properties :
#
#
# Convention : Reuss Voigt Hill
#
# Bulk Modulus (GPa) = 49.56258 55.92129 52.74194
# Shear Modulus (GPa) = -3.86031 20.29276 8.21623
#
# Velocity S-wave (km/s) = -1.53917 3.52896 2.24550
# Velocity P-wave (km/s) = 5.22088 7.13607 6.25224
#
# Compressibility (1/GPa) = 0.02017651
#
# Stress axis : x y z
#
# Youngs Moduli (GPa) = 78.11126 40.14478 70.70616
#
# Poissons Ratio (x) = 0.19535 0.29288
# Poissons Ratio (y) = 0.38010 0.48299
# Poissons Ratio (z) = 0.32355 0.27423
#
# Static dielectric constant tensor:
#      x y z
#    x 3.109800 0.000000 0.000000 
#    y 0.000000 3.163620 0.000000 
#    z 0.000000 0.000000 3.396450 
# 
# 
# High freq. dielectric constant tensor:
#      x y z
#    x 1.609010 0.000000 0.000000 
#    y 0.000000 1.641390 0.000000 
#    z 0.000000 0.000000 1.623650 
# 
# From -- ./inp_files/17982.got.cif
#   From: 2010.03.12/outbox.cif.g09.slc.cpg/sg39_9_cif.got.tgz:17982.got - 2010.04.14 02:53:20.
