data_PCOD8180705
_publ_section_title
;
Structure prediction by ZEFSAII (Michael W. Deem and Ramdas Pophale) SiO2 
 PCOD8180705
Probable space group: A B M 2
;
_chemical_formula_sum "Si O2"
_cell_formula_units_Z 64
_cell_length_a 18.507400
_cell_length_b 9.105975
_cell_length_c 25.545849
_cell_angle_alpha 90.000000
_cell_angle_beta 90.000000
_cell_angle_gamma 90.000000
_cell_volume 4305.188840
_symmetry_space_group_name_H-M "A B M 2"
_symmetry_group_IT_number 39
_symmetry_cell_setting 'orthorhombic'
loop_
_space_group_symop_operation_xyz
x,y,z
-x,-y,z
-x,1/2+y,z
x,1/2-y,z
x,1/2+y,1/2+z
-x,1/2-y,1/2+z
-x,y,1/2+z
x,-y,1/2+z
loop_
_atom_site_type_symbol
_atom_site_label
_atom_site_fract_x
_atom_site_fract_y
_atom_site_fract_z
Si Si1 0.426572 0.922133 0.837710
Si Si2 0.803409 0.922810 0.091104
Si Si3 0.324396 0.422147 0.548592
Si Si4 0.787005 0.414910 0.188966
Si Si5 0.926949 0.583223 0.639504
Si Si6 0.576374 0.921428 0.645790
Si Si7 0.342112 0.418148 0.752933
Si Si8 0.427731 0.579355 0.956534
O O1 0.436924 0.750000 0.830368
O O2 0.406938 0.965210 0.897218
O O3 0.500000 0.000000 0.819374
O O4 0.362419 0.977526 0.800774
O O5 0.813746 0.750000 0.084421
O O6 0.751395 0.988532 0.046408
O O7 0.762405 0.966331 0.145389
O O8 0.882781 0.001850 0.092294
O O9 0.306954 0.250000 0.551384
O O10 0.374630 0.472431 0.596938
O O11 0.362794 0.466220 0.494379
O O12 0.763579 0.250000 0.169568
O O13 0.875180 0.420379 0.191850
O O14 0.744179 0.445838 0.242724
O O15 0.944458 0.750000 0.622690
O O16 0.000000 0.500000 0.653281
O O17 0.561067 0.750000 0.641925
O O18 0.615540 0.961948 0.700214
O O19 0.500000 0.000000 0.642995
O O20 0.357522 0.250000 0.768751
O O21 0.500000 0.500000 0.975374
O O22 0.444665 0.750000 0.960726
#
# Coordination Sequence:
#
# PCOD8180705 Si02
#       8
#     8   8   8   8   8   8   8   8
#     4  10  20  33  46  64  83 110 149 192 233 274
#     4  10  18  27  42  65  89 116 146 176 211 256
#     4  10  18  32  46  58  83 117 144 180 225 268
#     4   8  16  30  44  59  87 119 145 173 211 256
#     4   9  16  28  44  64  92 125 152 178 206 250
#     4  10  19  28  39  57  80 105 139 174 215 264
#     4  10  18  31  46  61  82 115 146 177 222 267
#     4   9  19  33  49  63  82 111 149 191 236 274
#
# _framework density 14.865781
#
# number of rings (size 3 to 8) (size 9 to 14) (size 15 to 20)
#    0.750    1.750    1.250    2.250    0.000    3.500 
#    0.000    0.000    0.000    0.000    0.000    0.000 
#    0.000    1.000    0.000    6.750    0.000    3.500 
#
# Total GULP energy -396466.945812 kJ/mol
# GULP energy per Si atom -12389.592057 kJ/mol
# Density = 1.483195 g / cm^3
# Si number density = 14.865781 Si / 1000 Ang^3
#
#
#
# Elastic Constant Matrix: (Units=GPa)
#
#
# Indices 1 2 3 4 5 6 
#
# 1 105.5510 46.3845 36.6933 0.0000 0.0000 0.0000
# 2 46.3845 74.6881 27.8411 0.0000 0.0000 0.0000
# 3 36.6933 27.8411 60.6234 0.0000 0.0000 0.0000
# 4 0.0000 0.0000 0.0000 16.5224 0.0000 0.0000
# 5 0.0000 0.0000 0.0000 0.0000 15.9616 0.0000
# 6 0.0000 0.0000 0.0000 0.0000 0.0000 27.2506
#
#
#
# Elastic Compliance Matrix: (Units=1/GPa)
#
#
# Indices 1 2 3 4 5 6 
#
# 1 0.014440 -0.006889 -0.005576 0.000000 0.000000 0.000000
# 2 -0.006889 0.019441 -0.004759 0.000000 0.000000 0.000000
# 3 -0.005576 -0.004759 0.022056 0.000000 0.000000 0.000000
# 4 0.000000 0.000000 0.000000 0.060524 0.000000 0.000000
# 5 0.000000 0.000000 0.000000 0.000000 0.062651 0.000000
# 6 0.000000 0.000000 0.000000 0.000000 0.000000 0.036696
#
#
# Mechanical properties :
#
#
# Convention : Reuss Voigt Hill
#
# Bulk Modulus (GPa) = 46.53523 51.41115 48.97319
# Shear Modulus (GPa) = 19.42359 20.60982 20.01671
#
# Velocity S-wave (km/s) = 3.61861 3.72747 3.67344
# Velocity P-wave (km/s) = 6.98789 7.29274 7.14194
#
# Compressibility (1/GPa) = 0.02148910
#
# Stress axis : x y z
#
# Youngs Moduli (GPa) = 69.25162 51.43675 45.33972
#
# Poissons Ratio (x) = 0.35436 0.25282
# Poissons Ratio (y) = 0.47709 0.21575
# Poissons Ratio (z) = 0.38616 0.24476
#
# Static dielectric constant tensor:
#      x y z
#    x 2.836380 0.000000 0.000000 
#    y 0.000000 2.850920 0.000000 
#    z 0.000000 0.000000 2.722220 
# 
# 
# High freq. dielectric constant tensor:
#      x y z
#    x 1.557690 0.000000 0.000000 
#    y 0.000000 1.574620 0.000000 
#    z 0.000000 0.000000 1.533240 
# 
# From -- ./inp_files/16374.got.cif
#   From: 2010.03.12/outbox.cif.g09.slc.cpg/sg39_9_cif.got.tgz:16374.got - 2010.04.14 02:53:20.
