data_PCOD8180325
_publ_section_title
;
Structure prediction by ZEFSAII (Michael W. Deem and Ramdas Pophale) SiO2 
 PCOD8180325
Probable space group: A M M 2
;
_chemical_formula_sum "Si O2"
_cell_formula_units_Z 48
_cell_length_a 8.694694
_cell_length_b 14.441371
_cell_length_c 20.384122
_cell_angle_alpha 90.000000
_cell_angle_beta 90.000000
_cell_angle_gamma 90.000000
_cell_volume 2559.497662
_symmetry_space_group_name_H-M "A M M 2"
_symmetry_group_IT_number 38
_symmetry_cell_setting 'orthorhombic'
loop_
_space_group_symop_operation_xyz
x,y,z
-x,-y,z
-x,y,z
x,-y,z
x,1/2+y,1/2+z
-x,1/2-y,1/2+z
-x,1/2+y,1/2+z
x,1/2-y,1/2+z
loop_
_atom_site_type_symbol
_atom_site_label
_atom_site_fract_x
_atom_site_fract_y
_atom_site_fract_z
Si Si1 0.182815 0.805100 0.244280
Si Si2 0.181426 0.000000 0.041427
Si Si3 0.817834 0.000000 0.435569
Si Si4 0.318398 0.313563 0.882261
Si Si5 0.182175 0.000000 0.189043
Si Si6 0.182263 0.000000 0.585667
Si Si7 0.319459 0.688437 0.504417
Si Si8 0.317533 0.309593 0.127373
O O1 0.245517 0.776485 0.315170
O O2 0.255195 0.733635 0.193807
O O3 0.000000 0.797723 0.241943
O O4 0.240566 0.908926 0.226967
O O5 0.250496 0.000000 0.115286
O O6 0.237408 0.089791 0.002552
O O7 0.000000 0.000000 0.043754
O O8 0.753243 0.088057 0.398478
O O9 0.760401 0.000000 0.510481
O O10 0.000000 0.000000 0.430047
O O11 0.500000 0.323794 0.875518
O O12 0.272332 0.241006 0.938343
O O13 0.000000 0.000000 0.185388
O O14 0.248145 0.088714 0.622282
O O15 0.000000 0.000000 0.589831
O O16 0.500000 0.672343 0.509409
O O17 0.259614 0.748062 0.566159
O O18 0.500000 0.316274 0.128700
#
# Coordination Sequence:
#
# PCOD8180325 Si02
#       8
#     8   4   4   8   4   4   8   8
#     4  11  22  39  60  88 125 160 199 247 300 358
#     4  11  21  36  61  90 118 150 196 244 291 346
#     4  11  22  36  59  91 125 158 195 248 307 361
#     4  11  23  40  60  87 122 161 202 246 299 360
#     4   9  19  34  55  85 121 153 184 237 296 344
#     4  11  23  38  61  92 122 155 199 251 302 355
#     4  10  22  39  60  86 120 156 196 243 293 349
#     4  11  22  39  62  88 119 159 202 246 297 357
#
# _framework density 18.753679999999999
#
# number of rings (size 3 to 8) (size 9 to 14) (size 15 to 20)
#    0.000    1.333    3.333    2.750    0.000    3.333 
#    0.000    2.083    0.000    3.000    0.000    0.000 
#    0.000    0.000    0.000    0.000    0.000    0.000 
#
# Total GULP energy -297745.255372 kJ/mol
# GULP energy per Si atom -12406.052307 kJ/mol
# Density = 1.871100 g / cm^3
# Si number density = 18.753680 Si / 1000 Ang^3
#
#
#
# Elastic Constant Matrix: (Units=GPa)
#
#
# Indices 1 2 3 4 5 6 
#
# 1 54.2772 41.5030 26.5451 0.0000 0.0000 0.0000
# 2 41.5030 148.8975 70.6909 0.0000 0.0000 0.0000
# 3 26.5451 70.6909 120.4325 0.0000 0.0000 0.0000
# 4 0.0000 0.0000 0.0000 27.9794 0.0000 0.0000
# 5 0.0000 0.0000 0.0000 0.0000 32.4207 0.0000
# 6 0.0000 0.0000 0.0000 0.0000 0.0000 20.0993
#
#
#
# Elastic Compliance Matrix: (Units=1/GPa)
#
#
# Indices 1 2 3 4 5 6 
#
# 1 0.023713 -0.005723 -0.001867 0.000000 0.000000 0.000000
# 2 -0.005723 0.010692 -0.005014 0.000000 0.000000 0.000000
# 3 -0.001867 -0.005014 0.011658 0.000000 0.000000 0.000000
# 4 0.000000 0.000000 0.000000 0.035741 0.000000 0.000000
# 5 0.000000 0.000000 0.000000 0.000000 0.030845 0.000000
# 6 0.000000 0.000000 0.000000 0.000000 0.000000 0.049753
#
#
# Mechanical properties :
#
#
# Convention : Reuss Voigt Hill
#
# Bulk Modulus (GPa) = 47.95315 66.78724 57.37020
# Shear Modulus (GPa) = 25.69859 28.42443 27.06151
#
# Velocity S-wave (km/s) = 3.70580 3.89739 3.80280
# Velocity P-wave (km/s) = 6.62843 7.47951 7.06679
#
# Compressibility (1/GPa) = 0.02085369
#
# Stress axis : x y z
#
# Youngs Moduli (GPa) = 42.17012 93.52833 85.77536
#
# Poissons Ratio (x) = 0.53528 0.16018
# Poissons Ratio (y) = 0.24135 0.43011
# Poissons Ratio (z) = 0.07875 0.46899
#
# Static dielectric constant tensor:
#      x y z
#    x 3.413640 0.000000 0.000000 
#    y 0.000000 3.458400 0.000000 
#    z 0.000000 0.000000 3.564050 
# 
# 
# High freq. dielectric constant tensor:
#      x y z
#    x 1.731860 0.000000 0.000000 
#    y 0.000000 1.731810 0.000000 
#    z 0.000000 0.000000 1.732180 
# 
# From -- ./inp_files/16727.got.cif
#   From: 2010.03.12/outbox.cif.g09.slc.cpg/sg38_9_cif.got.tgz:16727.got - 2010.04.14 02:38:36.
