data_PCOD8180904
_publ_section_title
;
Structure prediction by ZEFSAII (Michael W. Deem and Ramdas Pophale) SiO2 
 PCOD8180904
Probable space group: A B M 2
;
_chemical_formula_sum "Si O2"
_cell_formula_units_Z 64
_cell_length_a 19.295659
_cell_length_b 8.972849
_cell_length_c 19.943470
_cell_angle_alpha 90.000000
_cell_angle_beta 90.000000
_cell_angle_gamma 90.000000
_cell_volume 3452.953255
_symmetry_space_group_name_H-M "A B M 2"
_symmetry_group_IT_number 39
_symmetry_cell_setting 'orthorhombic'
loop_
_space_group_symop_operation_xyz
x,y,z
-x,-y,z
-x,1/2+y,z
x,1/2-y,z
x,1/2+y,1/2+z
-x,1/2-y,1/2+z
-x,y,1/2+z
x,-y,1/2+z
loop_
_atom_site_type_symbol
_atom_site_label
_atom_site_fract_x
_atom_site_fract_y
_atom_site_fract_z
Si Si1 0.425413 0.573595 0.883360
Si Si2 0.572848 0.923017 0.623584
Si Si3 0.784935 0.073942 0.191339
Si Si4 0.795933 0.079392 0.551874
Si Si5 0.647953 0.078127 0.507162
Si Si6 0.067412 0.082689 0.542077
Si Si7 0.934545 0.914401 0.702085
Si Si8 0.354342 0.920408 0.262826
O O1 0.500000 0.500000 0.874348
O O2 0.434390 0.750000 0.887115
O O3 0.377534 0.531609 0.820670
O O4 0.389084 0.516109 0.950106
O O5 0.569176 0.750000 0.602800
O O6 0.594564 0.940935 0.700427
O O7 0.500000 0.000000 0.611152
O O8 0.628349 0.008239 0.578484
O O9 0.786763 0.250000 0.174799
O O10 0.858845 0.022621 0.223814
O O11 0.723932 0.035213 0.242857
O O12 0.772077 0.990900 0.121915
O O13 0.816621 0.250000 0.565024
O O14 0.731356 0.066669 0.500538
O O15 0.862055 0.998225 0.518786
O O16 0.623749 0.250000 0.503113
O O17 0.068213 0.250000 0.513817
O O18 0.063690 0.081171 0.622019
O O19 0.000000 0.000000 0.512020
O O20 0.943166 0.750000 0.730586
O O21 0.000000 0.000000 0.733401
O O22 0.357066 0.750000 0.288882
#
# Coordination Sequence:
#
# PCOD8180904 Si02
#       8
#     8   8   8   8   8   8   8   8
#     4  12  26  43  62  81 107 141 181 227 277 333
#     4  11  22  36  57  82 109 139 175 219 272 329
#     4   9  17  31  50  74 106 143 179 219 267 318
#     4  10  19  30  49  77 108 141 178 223 270 320
#     4  11  23  39  58  81 110 143 182 226 273 327
#     4   9  16  26  42  66 102 143 181 220 264 318
#     4   8  14  23  38  63  98 138 175 210 252 302
#     4  10  21  38  59  82 109 142 180 224 275 329
#
# _framework density 18.534859000000001
#
# number of rings (size 3 to 8) (size 9 to 14) (size 15 to 20)
#    0.000    2.000    1.250    4.125    0.000    7.000 
#    0.000    0.000    0.000    0.000    0.000    0.875 
#    0.000    2.000    0.000    0.000    0.000    0.000 
#
# Total GULP energy -396753.401143 kJ/mol
# GULP energy per Si atom -12398.543786 kJ/mol
# Density = 1.849267 g / cm^3
# Si number density = 18.534859 Si / 1000 Ang^3
#
#
#
# Elastic Constant Matrix: (Units=GPa)
#
#
# Indices 1 2 3 4 5 6 
#
# 1 130.1838 46.5352 7.5884 0.0000 0.0000 0.0000
# 2 46.5352 113.8374 16.3884 0.0000 0.0000 0.0000
# 3 7.5884 16.3884 27.3165 0.0000 0.0000 0.0000
# 4 0.0000 0.0000 0.0000 25.0654 0.0000 0.0000
# 5 0.0000 0.0000 0.0000 0.0000 17.9606 0.0000
# 6 0.0000 0.0000 0.0000 0.0000 0.0000 34.7824
#
#
#
# Elastic Compliance Matrix: (Units=1/GPa)
#
#
# Indices 1 2 3 4 5 6 
#
# 1 0.008999 -0.003632 -0.000321 0.000000 0.000000 0.000000
# 2 -0.003632 0.011081 -0.005639 0.000000 0.000000 0.000000
# 3 -0.000321 -0.005639 0.040080 0.000000 0.000000 0.000000
# 4 0.000000 0.000000 0.000000 0.039896 0.000000 0.000000
# 5 0.000000 0.000000 0.000000 0.000000 0.055677 0.000000
# 6 0.000000 0.000000 0.000000 0.000000 0.000000 0.028750
#
#
# Mechanical properties :
#
#
# Convention : Reuss Voigt Hill
#
# Bulk Modulus (GPa) = 24.40462 45.81798 35.11130
# Shear Modulus (GPa) = 23.00698 28.95006 25.97852
#
# Velocity S-wave (km/s) = 3.52700 3.95641 3.74786
# Velocity P-wave (km/s) = 5.45727 6.75607 6.14110
#
# Compressibility (1/GPa) = 0.04097584
#
# Stress axis : x y z
#
# Youngs Moduli (GPa) = 111.12913 90.24355 24.95010
#
# Poissons Ratio (x) = 0.32779 0.00800
# Poissons Ratio (y) = 0.40366 0.14069
# Poissons Ratio (z) = 0.03562 0.50888
#
# Static dielectric constant tensor:
#      x y z
#    x 3.793990 0.000000 0.000000 
#    y 0.000000 3.567750 0.000000 
#    z 0.000000 0.000000 2.930830 
# 
# 
# High freq. dielectric constant tensor:
#      x y z
#    x 1.743410 0.000000 0.000000 
#    y 0.000000 1.728560 0.000000 
#    z 0.000000 0.000000 1.662820 
# 
# From -- ./inp_files/13241.got.cif
#   From: 2010.03.12/outbox.cif.g09.slc.cpg/sg39_7_cif.got.tgz:13241.got - 2010.04.14 02:53:20.
