data_PCOD8180015
_publ_section_title
;
Structure prediction by ZEFSAII (Michael W. Deem and Ramdas Pophale) SiO2 
 PCOD8180015
Probable space group: A M M 2
;
_chemical_formula_sum "Si O2"
_cell_formula_units_Z 56
_cell_length_a 21.448170
_cell_length_b 8.430143
_cell_length_c 15.278831
_cell_angle_alpha 90.000000
_cell_angle_beta 90.000000
_cell_angle_gamma 90.000000
_cell_volume 2762.582854
_symmetry_space_group_name_H-M "A M M 2"
_symmetry_group_IT_number 38
_symmetry_cell_setting 'orthorhombic'
loop_
_space_group_symop_operation_xyz
x,y,z
-x,-y,z
-x,y,z
x,-y,z
x,1/2+y,1/2+z
-x,1/2-y,1/2+z
-x,1/2+y,1/2+z
x,1/2-y,1/2+z
loop_
_atom_site_type_symbol
_atom_site_label
_atom_site_fract_x
_atom_site_fract_y
_atom_site_fract_z
Si Si1 0.846085 0.185087 0.491760
Si Si2 0.368796 0.683979 0.635345
Si Si3 0.500000 0.185212 0.586914
Si Si4 0.706600 0.814201 0.477104
Si Si5 0.927965 0.815243 0.841223
Si Si6 0.069123 0.811348 0.644584
Si Si7 0.500000 0.815059 0.380926
Si Si8 0.370269 0.184481 0.818132
O O1 0.776589 0.255267 0.485383
O O2 0.884003 0.214475 0.403547
O O3 0.882376 0.262231 0.574680
O O4 0.840185 0.000000 0.508473
O O5 0.359809 0.500000 0.613304
O O6 0.440795 0.731880 0.629873
O O7 0.329067 0.786867 0.567591
O O8 0.345251 0.721303 0.733306
O O9 0.500000 0.214999 0.483901
O O10 0.500000 0.000000 0.609987
O O11 0.674167 0.720332 0.399207
O O12 0.705073 0.000000 0.454703
O O13 0.910984 0.762341 0.742511
O O14 0.000000 0.776312 0.861493
O O15 0.914371 0.000000 0.855627
O O16 0.000000 0.744232 0.623509
O O17 0.066874 0.000000 0.638054
O O18 0.440201 0.734474 0.339471
O O19 0.500000 0.000000 0.358042
O O20 0.368450 0.000000 0.796349
#
# Coordination Sequence:
#
# PCOD8180015 Si02
#       8
#     8   8   4   8   8   8   4   8
#     4  10  21  36  58  84 113 151 194 241 290 347
#     4  12  25  42  65  91 121 157 199 246 302 360
#     4  11  22  39  66  94 125 157 191 243 300 354
#     4  11  24  42  59  85 122 158 203 253 300 353
#     4   9  18  33  55  84 117 151 191 239 287 342
#     4   8  15  31  55  82 112 148 188 229 280 342
#     4  11  22  39  66  94 125 155 189 247 304 352
#     4  12  25  42  65  90 119 158 203 246 299 360
#
# _framework density 20.270883999999999
#
# number of rings (size 3 to 8) (size 9 to 14) (size 15 to 20)
#    0.000    1.571    1.429    5.143    0.000    3.714 
#    0.000    2.143    0.000    0.857    0.000    0.000 
#    0.000    0.000    0.000    0.000    0.000    0.000 
#
# Total GULP energy -347294.189272 kJ/mol
# GULP energy per Si atom -12403.363903 kJ/mol
# Density = 2.022475 g / cm^3
# Si number density = 20.270884 Si / 1000 Ang^3
#
#
#
# Elastic Constant Matrix: (Units=GPa)
#
#
# Indices 1 2 3 4 5 6 
#
# 1 128.7200 6.7277 60.5297 0.0000 0.0000 0.0000
# 2 6.7277 51.7821 5.9318 0.0000 0.0000 0.0000
# 3 60.5297 5.9318 122.5200 0.0000 0.0000 0.0000
# 4 0.0000 0.0000 0.0000 32.7112 0.0000 0.0000
# 5 0.0000 0.0000 0.0000 0.0000 -30.9989 0.0000
# 6 0.0000 0.0000 0.0000 0.0000 0.0000 2.1073
#
#
#
# Elastic Compliance Matrix: (Units=1/GPa)
#
#
# Indices 1 2 3 4 5 6 
#
# 1 0.010149 -0.000748 -0.004978 0.000000 0.000000 0.000000
# 2 -0.000748 0.019475 -0.000573 0.000000 0.000000 0.000000
# 3 -0.004978 -0.000573 0.010649 0.000000 0.000000 0.000000
# 4 0.000000 0.000000 0.000000 0.030571 0.000000 0.000000
# 5 0.000000 0.000000 0.000000 0.000000 -0.032259 0.000000
# 6 0.000000 0.000000 0.000000 0.000000 0.000000 0.474544
#
#
# Mechanical properties :
#
#
# Convention : Reuss Voigt Hill
#
# Bulk Modulus (GPa) = 36.13521 49.93337 43.03429
# Shear Modulus (GPa) = 9.34667 16.08610 12.71639
#
# Velocity S-wave (km/s) = 2.14963 2.82007 2.50736
# Velocity P-wave (km/s) = 4.90164 5.94056 5.44593
#
# Compressibility (1/GPa) = 0.02767384
#
# Stress axis : x y z
#
# Youngs Moduli (GPa) = 98.53595 51.34902 93.90732
#
# Poissons Ratio (x) = 0.03843 0.46743
# Poissons Ratio (y) = 0.07374 0.05382
# Poissons Ratio (z) = 0.49047 0.02943
#
# Static dielectric constant tensor:
#      x y z
#    x 3.957440 0.000000 0.000000 
#    y 0.000000 3.452740 0.000000 
#    z 0.000000 0.000000 3.865870 
# 
# 
# High freq. dielectric constant tensor:
#      x y z
#    x 1.790560 0.000000 0.000000 
#    y 0.000000 1.776930 0.000000 
#    z 0.000000 0.000000 1.808190 
# 
# From -- ./inp_files/15590.got.cif
#   From: 2010.03.12/outbox.cif.g09.slc.cpg/sg38_8_cif.got.tgz:15590.got - 2010.04.14 02:38:36.
