data_PCOD8180018
_publ_section_title
;
Structure prediction by ZEFSAII (Michael W. Deem and Ramdas Pophale) SiO2 
 PCOD8180018
Probable space group: A M M 2
;
_chemical_formula_sum "Si O2"
_cell_formula_units_Z 48
_cell_length_a 8.726047
_cell_length_b 10.104796
_cell_length_c 27.876904
_cell_angle_alpha 90.000000
_cell_angle_beta 90.000000
_cell_angle_gamma 90.000000
_cell_volume 2458.043914
_symmetry_space_group_name_H-M "A M M 2"
_symmetry_group_IT_number 38
_symmetry_cell_setting 'orthorhombic'
loop_
_space_group_symop_operation_xyz
x,y,z
-x,-y,z
-x,y,z
x,-y,z
x,1/2+y,1/2+z
-x,1/2-y,1/2+z
-x,1/2+y,1/2+z
x,1/2-y,1/2+z
loop_
_atom_site_type_symbol
_atom_site_label
_atom_site_fract_x
_atom_site_fract_y
_atom_site_fract_z
Si Si1 0.180874 0.652417 0.626290
Si Si2 0.318850 0.000000 0.472573
Si Si3 0.681764 0.152625 0.704484
Si Si4 0.682609 0.246170 0.807810
Si Si5 0.683122 0.000000 0.362753
Si Si6 0.820001 0.754477 0.020785
Si Si7 0.327125 0.000000 0.973471
Si Si8 0.328684 0.500000 0.361183
O O1 0.239767 0.500000 0.632433
O O2 0.256146 0.753201 0.663149
O O3 0.229061 0.707576 0.574505
O O4 0.000000 0.655461 0.633064
O O5 0.253987 0.000000 0.417772
O O6 0.265107 0.875001 0.502864
O O7 0.500000 0.000000 0.470385
O O8 0.500000 0.151378 0.702178
O O9 0.740039 0.219922 0.753770
O O10 0.741823 0.000000 0.699871
O O11 0.500000 0.254113 0.809223
O O12 0.749457 0.377747 0.832155
O O13 0.752687 0.130112 0.840804
O O14 0.500000 0.000000 0.364813
O O15 0.000000 0.731660 0.016523
O O16 0.768561 0.872866 0.987297
O O17 0.500000 0.000000 0.995179
O O18 0.336120 0.000000 0.917204
O O19 0.500000 0.500000 0.339096
#
# Coordination Sequence:
#
# PCOD8180018 Si02
#       8
#     8   4   8   8   4   8   4   4
#     4  10  23  43  62  81 110 155 201 237 287 359
#     4  11  23  39  60  93 124 152 201 257 294 335
#     4  10  21  36  58  92 122 146 187 245 296 339
#     4   9  16  30  51  80 117 152 184 228 289 353
#     4   9  18  31  52  83 118 152 191 237 288 343
#     4  11  23  42  62  83 118 164 201 236 297 371
#     4  11  21  35  62  95 118 148 197 253 298 337
#     4   9  16  29  52  81 114 148 183 229 290 351
#
# _framework density 19.527722000000001
#
# number of rings (size 3 to 8) (size 9 to 14) (size 15 to 20)
#    0.000    2.000    1.667    2.000    2.333    4.667 
#    0.000    0.000    0.000    6.000    0.000    0.000 
#    0.000    0.000    0.000    0.000    0.000    0.000 
#
# Total GULP energy -297487.940416 kJ/mol
# GULP energy per Si atom -12395.330851 kJ/mol
# Density = 1.948328 g / cm^3
# Si number density = 19.527722 Si / 1000 Ang^3
#
#
#
# Elastic Constant Matrix: (Units=GPa)
#
#
# Indices 1 2 3 4 5 6 
#
# 1 27.2208 27.0779 30.7173 0.0000 0.0000 0.0000
# 2 27.0779 201.8043 86.6047 0.0000 0.0000 0.0000
# 3 30.7173 86.6047 127.6471 0.0000 0.0000 0.0000
# 4 0.0000 0.0000 0.0000 44.2915 0.0000 0.0000
# 5 0.0000 0.0000 0.0000 0.0000 -18.8134 0.0000
# 6 0.0000 0.0000 0.0000 0.0000 0.0000 28.7089
#
#
#
# Elastic Compliance Matrix: (Units=1/GPa)
#
#
# Indices 1 2 3 4 5 6 
#
# 1 0.051133 -0.002230 -0.010792 0.000000 0.000000 0.000000
# 2 -0.002230 0.007088 -0.004272 0.000000 0.000000 0.000000
# 3 -0.010792 -0.004272 0.013330 0.000000 0.000000 0.000000
# 4 0.000000 0.000000 0.000000 0.022578 0.000000 0.000000
# 5 0.000000 0.000000 0.000000 0.000000 -0.053154 0.000000
# 6 0.000000 0.000000 0.000000 0.000000 0.000000 0.034832
#
#
# Mechanical properties :
#
#
# Convention : Reuss Voigt Hill
#
# Bulk Modulus (GPa) = 27.05440 71.71910 49.38675
# Shear Modulus (GPa) = 40.74442 24.98887 32.86664
#
# Velocity S-wave (km/s) = 4.57277 3.58112 4.10698
# Velocity P-wave (km/s) = 6.46256 7.34205 6.91630
#
# Compressibility (1/GPa) = 0.03696257
#
# Stress axis : x y z
#
# Youngs Moduli (GPa) = 19.55692 141.08368 75.01946
#
# Poissons Ratio (x) = 0.31455 0.80961
# Poissons Ratio (y) = 0.04360 0.32052
# Poissons Ratio (z) = 0.21106 0.60278
#
# Static dielectric constant tensor:
#      x y z
#    x 3.249400 0.000000 0.000000 
#    y 0.000000 3.971320 0.000000 
#    z 0.000000 0.000000 3.750850 
# 
# 
# High freq. dielectric constant tensor:
#      x y z
#    x 1.720280 0.000000 0.000000 
#    y 0.000000 1.783320 0.000000 
#    z 0.000000 0.000000 1.775250 
# 
# From -- ./inp_files/24501.got.cif
#   From: 2010.03.12/outbox.cif.g09.slc.cpg/sg38_13_cif.got.tgz:24501.got - 2010.04.14 02:38:36.
