data_PCOD8180148
_publ_section_title
;
Structure prediction by ZEFSAII (Michael W. Deem and Ramdas Pophale) SiO2 
 PCOD8180148
Probable space group: A M M 2
;
_chemical_formula_sum "Si O2"
_cell_formula_units_Z 40
_cell_length_a 8.858840
_cell_length_b 7.770096
_cell_length_c 29.624045
_cell_angle_alpha 90.000000
_cell_angle_beta 90.000000
_cell_angle_gamma 90.000000
_cell_volume 2039.142617
_symmetry_space_group_name_H-M "A M M 2"
_symmetry_group_IT_number 38
_symmetry_cell_setting 'orthorhombic'
loop_
_space_group_symop_operation_xyz
x,y,z
-x,-y,z
-x,y,z
x,-y,z
x,1/2+y,1/2+z
-x,1/2-y,1/2+z
-x,1/2+y,1/2+z
x,1/2-y,1/2+z
loop_
_atom_site_type_symbol
_atom_site_label
_atom_site_fract_x
_atom_site_fract_y
_atom_site_fract_z
Si Si1 0.832087 0.295981 0.313990
Si Si2 0.820082 0.500000 0.564528
Si Si3 0.179809 0.691523 0.411163
Si Si4 0.179248 0.812801 0.505823
Si Si5 0.323135 0.199306 0.723338
Si Si6 0.820958 0.000000 0.167082
O O1 0.840707 0.500000 0.318609
O O2 0.770899 0.225717 0.362637
O O3 0.720389 0.241168 0.273935
O O4 0.000000 0.223376 0.303173
O O5 0.753875 0.332158 0.538993
O O6 0.762674 0.500000 0.615686
O O7 0.000000 0.500000 0.563112
O O8 0.245991 0.500000 0.416455
O O9 0.240480 0.796749 0.454356
O O10 0.000000 0.685503 0.411006
O O11 0.000000 0.794046 0.504844
O O12 0.228532 0.000000 0.524338
O O13 0.500000 0.223041 0.717091
O O14 0.239299 0.324191 0.688820
O O15 0.274450 0.000000 0.714644
O O16 0.000000 0.000000 0.170570
#
# Coordination Sequence:
#
# PCOD8180148 Si02
#       6
#     8   4   8   8   8   4
#     4   8  14  26  47  75 106 141 177 216 264 313
#     4   9  18  31  45  67 101 137 173 217 274 323
#     4   8  12  21  39  63  97 137 170 206 254 309
#     4   9  15  24  40  63  96 135 169 206 258 320
#     4  10  21  38  58  79 108 146 186 229 279 336
#     4  11  23  37  57  83 109 143 187 239 288 329
#
# _framework density 19.616088000000001
#
# number of rings (size 3 to 8) (size 9 to 14) (size 15 to 20)
#    0.000    3.000    1.000    2.100    0.000    2.000 
#    1.800    2.000    0.000    0.000    0.000    2.800 
#    0.000    3.200    0.000    0.000    0.000    0.000 
#
# Total GULP energy -247803.295137 kJ/mol
# GULP energy per Si atom -12390.164757 kJ/mol
# Density = 1.957144 g / cm^3
# Si number density = 19.616088 Si / 1000 Ang^3
#
#
#
# Elastic Constant Matrix: (Units=GPa)
#
#
# Indices 1 2 3 4 5 6 
#
# 1 41.3016 24.7081 32.5464 0.0000 0.0000 0.0000
# 2 24.7081 123.4568 83.4402 0.0000 0.0000 0.0000
# 3 32.5464 83.4402 184.1799 0.0000 0.0000 0.0000
# 4 0.0000 0.0000 0.0000 15.9077 0.0000 0.0000
# 5 0.0000 0.0000 0.0000 0.0000 0.4769 0.0000
# 6 0.0000 0.0000 0.0000 0.0000 0.0000 15.6609
#
#
#
# Elastic Compliance Matrix: (Units=1/GPa)
#
#
# Indices 1 2 3 4 5 6 
#
# 1 0.029077 -0.003382 -0.003606 0.000000 0.000000 0.000000
# 2 -0.003382 0.012068 -0.004870 0.000000 0.000000 0.000000
# 3 -0.003606 -0.004870 0.008273 0.000000 0.000000 0.000000
# 4 0.000000 0.000000 0.000000 0.062863 0.000000 0.000000
# 5 0.000000 0.000000 0.000000 0.000000 2.096864 0.000000
# 6 0.000000 0.000000 0.000000 0.000000 0.000000 0.063853
#
#
# Mechanical properties :
#
#
# Convention : Reuss Voigt Hill
#
# Bulk Modulus (GPa) = 38.90689 70.03640 54.47164
# Shear Modulus (GPa) = 2.16893 20.29201 11.23047
#
# Velocity S-wave (km/s) = 1.05266 3.21979 2.39532
# Velocity P-wave (km/s) = 4.62111 7.04299 5.95644
#
# Compressibility (1/GPa) = 0.02570239
#
# Stress axis : x y z
#
# Youngs Moduli (GPa) = 34.39140 82.86299 120.87819
#
# Poissons Ratio (x) = 0.28026 0.43588
# Poissons Ratio (y) = 0.11632 0.58863
# Poissons Ratio (z) = 0.12401 0.40351
#
# Static dielectric constant tensor:
#      x y z
#    x 2.973720 0.000000 0.000000 
#    y 0.000000 3.558320 0.000000 
#    z 0.000000 0.000000 3.941250 
# 
# 
# High freq. dielectric constant tensor:
#      x y z
#    x 1.696450 0.000000 0.000000 
#    y 0.000000 1.757950 0.000000 
#    z 0.000000 0.000000 1.774500 
# 
# From -- ./inp_files/23210.got.cif
#   From: 2010.03.12/outbox.cif.g09.slc.cpg/sg38_12_cif.got.tgz:23210.got - 2010.04.14 02:38:36.
