data_PCOD8180010
_publ_section_title
;
Structure prediction by ZEFSAII (Michael W. Deem and Ramdas Pophale) SiO2 
 PCOD8180010
Probable space group: A M M 2
;
_chemical_formula_sum "Si O2"
_cell_formula_units_Z 64
_cell_length_a 24.066930
_cell_length_b 8.666581
_cell_length_c 15.565376
_cell_angle_alpha 90.000000
_cell_angle_beta 90.000000
_cell_angle_gamma 90.000000
_cell_volume 3246.594968
_symmetry_space_group_name_H-M "A M M 2"
_symmetry_group_IT_number 38
_symmetry_cell_setting 'orthorhombic'
loop_
_space_group_symop_operation_xyz
x,y,z
-x,-y,z
-x,y,z
x,-y,z
x,1/2+y,1/2+z
-x,1/2-y,1/2+z
-x,1/2+y,1/2+z
x,1/2-y,1/2+z
loop_
_atom_site_type_symbol
_atom_site_label
_atom_site_fract_x
_atom_site_fract_y
_atom_site_fract_z
Si Si1 0.439787 0.683073 0.286280
Si Si2 0.323793 0.683255 0.350755
Si Si3 0.323881 0.316710 0.028485
Si Si4 0.935557 0.679804 0.338313
Si Si5 0.740305 0.683369 0.689640
Si Si6 0.439793 0.183062 0.593165
Si Si7 0.938144 0.183586 0.030655
Si Si8 0.866319 0.818078 0.186832
O O1 0.500000 0.740003 0.323227
O O2 0.438831 0.500000 0.283413
O O3 0.387865 0.742180 0.342300
O O4 0.432429 0.747310 0.189727
O O5 0.319116 0.500000 0.348915
O O6 0.299984 0.748929 0.439889
O O7 0.287914 0.750981 0.274278
O O8 0.319396 0.500000 0.029032
O O9 0.288300 0.250397 0.105660
O O10 0.387962 0.257838 0.037000
O O11 0.923390 0.500000 0.325801
O O12 0.919305 0.733769 0.434901
O O13 0.897809 0.773747 0.273290
O O14 0.000000 0.716891 0.320479
O O15 0.735906 0.500000 0.689178
O O16 0.803577 0.743344 0.689630
O O17 0.500000 0.239919 0.556212
O O18 0.438804 0.000000 0.596240
O O19 0.896713 0.252888 0.102497
O O20 0.000000 0.247611 0.049904
O O21 0.939583 0.000000 0.034237
O O22 0.866559 0.000000 0.178879
#
# Coordination Sequence:
#
# PCOD8180010 Si02
#       8
#     8   8   8   8   8   8   8   8
#     4   8  14  28  53  82 109 139 179 227 280 343
#     4  11  22  38  60  84 110 149 191 233 290 347
#     4  11  22  38  60  85 112 148 188 233 290 348
#     4   9  18  33  55  85 118 149 182 221 268 327
#     4  11  24  41  57  80 114 150 196 249 288 333
#     4   8  14  28  53  82 110 141 178 223 279 345
#     4   8  15  31  55  81 110 143 176 212 261 323
#     4  10  21  36  57  82 108 144 190 234 278 325
#
# _framework density 19.712961
#
# number of rings (size 3 to 8) (size 9 to 14) (size 15 to 20)
#    0.000    2.500    1.250    3.000    0.000    3.250 
#    0.000    1.875    0.000    3.750    0.000    0.000 
#    0.000    0.000    0.000    0.000    0.000    0.000 
#
# Total GULP energy -396633.652967 kJ/mol
# GULP energy per Si atom -12394.801655 kJ/mol
# Density = 1.966809 g / cm^3
# Si number density = 19.712961 Si / 1000 Ang^3
#
#
#
# Elastic Constant Matrix: (Units=GPa)
#
#
# Indices 1 2 3 4 5 6 
#
# 1 136.3314 27.4093 81.8812 0.0000 0.0000 0.0000
# 2 27.4093 37.8572 26.7722 0.0000 0.0000 0.0000
# 3 81.8812 26.7722 159.3571 0.0000 0.0000 0.0000
# 4 0.0000 0.0000 0.0000 28.7793 0.0000 0.0000
# 5 0.0000 0.0000 0.0000 0.0000 -7.5059 0.0000
# 6 0.0000 0.0000 0.0000 0.0000 0.0000 21.1453
#
#
#
# Elastic Compliance Matrix: (Units=1/GPa)
#
#
# Indices 1 2 3 4 5 6 
#
# 1 0.011278 -0.004616 -0.005019 0.000000 0.000000 0.000000
# 2 -0.004616 0.031866 -0.002982 0.000000 0.000000 0.000000
# 3 -0.005019 -0.002982 0.009355 0.000000 0.000000 0.000000
# 4 0.000000 0.000000 0.000000 0.034747 0.000000 0.000000
# 5 0.000000 0.000000 0.000000 0.000000 -0.133228 0.000000
# 6 0.000000 0.000000 0.000000 0.000000 0.000000 0.047292
#
#
# Mechanical properties :
#
#
# Convention : Reuss Voigt Hill
#
# Bulk Modulus (GPa) = 36.67721 67.29680 51.98700
# Shear Modulus (GPa) = 140.32794 21.64926 80.98860
#
# Velocity S-wave (km/s) = 8.44631 3.31754 6.41663
# Velocity P-wave (km/s) = 10.66613 6.99194 9.01813
#
# Compressibility (1/GPa) = 0.02726489
#
# Stress axis : x y z
#
# Youngs Moduli (GPa) = 88.67109 31.38183 106.89264
#
# Poissons Ratio (x) = 0.14485 0.53652
# Poissons Ratio (y) = 0.40927 0.31874
# Poissons Ratio (z) = 0.44506 0.09358
#
# Static dielectric constant tensor:
#      x y z
#    x 4.025900 0.000000 0.000000 
#    y 0.000000 3.173460 0.000000 
#    z 0.000000 0.000000 3.693020 
# 
# 
# High freq. dielectric constant tensor:
#      x y z
#    x 1.773910 0.000000 0.000000 
#    y 0.000000 1.731070 0.000000 
#    z 0.000000 0.000000 1.774780 
# 
# From -- ./inp_files/15838.got.cif
#   From: 2010.03.12/outbox.cif.g09.slc.cpg/sg38_8_cif.got.tgz:15838.got - 2010.04.14 02:38:36.
