data_PCOD8180029
_publ_section_title
;
Structure prediction by ZEFSAII (Michael W. Deem and Ramdas Pophale) SiO2 
 PCOD8180029
Probable space group: A M M 2
;
_chemical_formula_sum "Si O2"
_cell_formula_units_Z 40
_cell_length_a 12.671616
_cell_length_b 8.728859
_cell_length_c 19.951274
_cell_angle_alpha 90.000000
_cell_angle_beta 90.000000
_cell_angle_gamma 90.000000
_cell_volume 2206.785465
_symmetry_space_group_name_H-M "A M M 2"
_symmetry_group_IT_number 38
_symmetry_cell_setting 'orthorhombic'
loop_
_space_group_symop_operation_xyz
x,y,z
-x,-y,z
-x,y,z
x,-y,z
x,1/2+y,1/2+z
-x,1/2-y,1/2+z
-x,1/2+y,1/2+z
x,1/2-y,1/2+z
loop_
_atom_site_type_symbol
_atom_site_label
_atom_site_fract_x
_atom_site_fract_y
_atom_site_fract_z
Si Si1 0.500000 0.332991 0.657730
Si Si2 0.878697 0.676615 0.765424
Si Si3 0.500000 0.330919 0.499055
Si Si4 0.122644 0.322454 0.404697
Si Si5 0.275323 0.683171 0.649210
Si Si6 0.717138 0.820183 0.505583
O O1 0.500000 0.500000 0.691993
O O2 0.500000 0.347617 0.578100
O O3 0.610810 0.251095 0.676635
O O4 0.853259 0.500000 0.782174
O O5 0.847123 0.778563 0.828873
O O6 0.812794 0.735289 0.701681
O O7 0.000000 0.699258 0.745724
O O8 0.500000 0.500000 0.465765
O O9 0.393858 0.243115 0.476785
O O10 0.148457 0.500000 0.416534
O O11 0.190238 0.219860 0.454468
O O12 0.000000 0.285728 0.417981
O O13 0.281706 0.500000 0.641413
O O14 0.248790 0.751378 0.576994
O O15 0.705933 0.000000 0.513228
#
# Coordination Sequence:
#
# PCOD8180029 Si02
#       6
#     4   8   4   8   8   8
#     4   7  12  25  46  69  94 127 163 197 237 289
#     4   9  18  33  52  73  99 132 170 213 260 309
#     4   9  17  33  54  75 104 139 173 209 255 311
#     4  10  21  37  55  73  99 139 181 218 262 315
#     4   9  17  31  51  74 101 135 171 207 252 306
#     4  11  21  33  53  81 109 136 172 217 261 306
#
# _framework density 18.125910999999999
#
# number of rings (size 3 to 8) (size 9 to 14) (size 15 to 20)
#    0.000    2.600    0.000    3.900    0.000    2.800 
#    0.000    3.000    0.000    2.400    0.000    0.000 
#    0.000    0.000    0.000    0.000    0.000    0.000 
#
# Total GULP energy -247909.358273 kJ/mol
# GULP energy per Si atom -12395.467914 kJ/mol
# Density = 1.808466 g / cm^3
# Si number density = 18.125911 Si / 1000 Ang^3
#
#
#
# Elastic Constant Matrix: (Units=GPa)
#
#
# Indices 1 2 3 4 5 6 
#
# 1 112.5473 36.6781 67.5403 0.0000 0.0000 0.0000
# 2 36.6781 73.6078 30.4057 0.0000 0.0000 0.0000
# 3 67.5403 30.4057 84.9641 0.0000 0.0000 0.0000
# 4 0.0000 0.0000 0.0000 27.5065 0.0000 0.0000
# 5 0.0000 0.0000 0.0000 0.0000 4.0962 0.0000
# 6 0.0000 0.0000 0.0000 0.0000 0.0000 24.0543
#
#
#
# Elastic Compliance Matrix: (Units=1/GPa)
#
#
# Indices 1 2 3 4 5 6 
#
# 1 0.017742 -0.003538 -0.012837 0.000000 0.000000 0.000000
# 2 -0.003538 0.016648 -0.003145 0.000000 0.000000 0.000000
# 3 -0.012837 -0.003145 0.023100 0.000000 0.000000 0.000000
# 4 0.000000 0.000000 0.000000 0.036355 0.000000 0.000000
# 5 0.000000 0.000000 0.000000 0.000000 0.244130 0.000000
# 6 0.000000 0.000000 0.000000 0.000000 0.000000 0.041573
#
#
# Mechanical properties :
#
#
# Convention : Reuss Voigt Hill
#
# Bulk Modulus (GPa) = 54.20496 60.04083 57.12289
# Shear Modulus (GPa) = 11.77197 20.23108 16.00153
#
# Velocity S-wave (km/s) = 2.55121 3.34449 2.97442
# Velocity P-wave (km/s) = 6.21674 6.93617 6.58628
#
# Compressibility (1/GPa) = 0.01844850
#
# Stress axis : x y z
#
# Youngs Moduli (GPa) = 56.36364 60.06868 43.28976
#
# Poissons Ratio (x) = 0.21251 0.55573
# Poissons Ratio (y) = 0.19940 0.13616
# Poissons Ratio (z) = 0.72357 0.18894
#
# Static dielectric constant tensor:
#      x y z
#    x 3.730460 0.000000 0.000000 
#    y 0.000000 3.264250 0.000000 
#    z 0.000000 0.000000 3.089750 
# 
# 
# High freq. dielectric constant tensor:
#      x y z
#    x 1.716190 0.000000 0.000000 
#    y 0.000000 1.692900 0.000000 
#    z 0.000000 0.000000 1.676520 
# 
# From -- ./inp_files/20501.got.cif
#   From: 2010.03.12/outbox.cif.g09.slc.cpg/sg38_11_cif.got.tgz:20501.got - 2010.04.14 02:38:36.
