data_PCOD8180609
_publ_section_title
;
Structure prediction by ZEFSAII (Michael W. Deem and Ramdas Pophale) SiO2 
 PCOD8180609
Probable space group: A B M 2
;
_chemical_formula_sum "Si O2"
_cell_formula_units_Z 36
_cell_length_a 11.725855
_cell_length_b 30.924403
_cell_length_c 5.334490
_cell_angle_alpha 90.000000
_cell_angle_beta 90.000000
_cell_angle_gamma 90.000000
_cell_volume 1934.366441
_symmetry_space_group_name_H-M "A B M 2"
_symmetry_group_IT_number 39
_symmetry_cell_setting 'orthorhombic'
loop_
_space_group_symop_operation_xyz
x,y,z
-x,-y,z
-x,1/2+y,z
x,1/2-y,z
x,1/2+y,1/2+z
-x,1/2-y,1/2+z
-x,y,1/2+z
x,-y,1/2+z
loop_
_atom_site_type_symbol
_atom_site_label
_atom_site_fract_x
_atom_site_fract_y
_atom_site_fract_z
Si Si1 0.309227 0.472586 0.300030
Si Si2 0.633604 0.344179 0.304804
Si Si3 0.573015 0.250000 0.323046
Si Si4 0.952073 0.451764 0.789798
Si Si5 0.378481 0.380013 0.304782
O O1 0.332141 0.500638 0.547674
O O2 0.183563 0.452395 0.303348
O O3 0.394788 0.431853 0.303154
O O4 0.651164 0.292575 0.301400
O O5 0.500045 0.356543 0.308006
O O6 0.690169 0.364506 0.555789
O O7 0.690011 0.364889 0.054878
O O8 0.516136 0.250000 0.596033
O O9 0.000000 0.500000 0.771905
O O10 0.995433 0.427968 0.535403
#
# Coordination Sequence:
#
# PCOD8180609 Si02
#       5
#     8   8   4   8   8
#     4  12  21  32  47  67  87 128 168 189 233 267
#     4  10  19  35  47  69  94 124 148 189 237 264
#     4  12  16  30  58  72  84 120 160 178 230 306
#     4  10  16  30  48  64  85 105 154 201 235 272
#     4  10  20  32  46  64  97 121 155 199 229 255
#
# _framework density 18.610745999999999
#
# number of rings (size 3 to 8) (size 9 to 14) (size 15 to 20)
#    0.000    1.333    8.889    1.333    0.000    0.000 
#    0.000   13.333    0.000    0.000    0.000    0.000 
#    0.000    0.000    0.000   34.000    0.000    0.000 
#
# Total GULP energy -223055.423833 kJ/mol
# GULP energy per Si atom -12391.967991 kJ/mol
# Density = 1.856839 g / cm^3
# Si number density = 18.610746 Si / 1000 Ang^3
#
#
#
# Elastic Constant Matrix: (Units=GPa)
#
#
# Indices 1 2 3 4 5 6 
#
# 1 14.4782 6.3506 -3.9500 0.0000 0.0000 0.0000
# 2 6.3506 131.5947 61.9136 0.0000 0.0000 0.0000
# 3 -3.9500 61.9136 211.2278 0.0000 0.0000 0.0000
# 4 0.0000 0.0000 0.0000 26.5233 0.0000 0.0000
# 5 0.0000 0.0000 0.0000 0.0000 9.0916 0.0000
# 6 0.0000 0.0000 0.0000 0.0000 0.0000 1.1951
#
#
#
# Elastic Compliance Matrix: (Units=1/GPa)
#
#
# Indices 1 2 3 4 5 6 
#
# 1 0.071904 -0.004759 0.002740 0.000000 0.000000 0.000000
# 2 -0.004759 0.009130 -0.002765 0.000000 0.000000 0.000000
# 3 0.002740 -0.002765 0.005596 0.000000 0.000000 0.000000
# 4 0.000000 0.000000 0.000000 0.037703 0.000000 0.000000
# 5 0.000000 0.000000 0.000000 0.000000 0.109992 0.000000
# 6 0.000000 0.000000 0.000000 0.000000 0.000000 0.836745
#
#
# Mechanical properties :
#
#
# Convention : Reuss Voigt Hill
#
# Bulk Modulus (GPa) = 12.97671 53.99211 33.48441
# Shear Modulus (GPa) = 4.51947 26.89443 15.70695
#
# Velocity S-wave (km/s) = 1.56003 3.80557 2.90827
# Velocity P-wave (km/s) = 3.19887 6.95587 5.41373
#
# Compressibility (1/GPa) = 0.07706114
#
# Stress axis : x y z
#
# Youngs Moduli (GPa) = 13.90735 109.53313 178.70171
#
# Poissons Ratio (x) = 0.52126 -0.48956
# Poissons Ratio (y) = 0.06618 0.49411
# Poissons Ratio (z) = -0.03810 0.30286
#
# Static dielectric constant tensor:
#      x y z
#    x 2.887750 0.000000 0.000000 
#    y 0.000000 3.127920 0.000000 
#    z 0.000000 0.000000 7.774350 
# 
# 
# High freq. dielectric constant tensor:
#      x y z
#    x 1.641210 0.000000 0.000000 
#    y 0.000000 1.697160 0.000000 
#    z 0.000000 0.000000 1.774380 
# 
# From -- ./inp_files/338.got.cif
#   From: 2010.03.12/outbox.cif.g09.slc.cpg/sg39_1_cif.got.tgz:338.got - 2010.04.14 02:53:20.
