data_PCOD8180028
_publ_section_title
;
Structure prediction by ZEFSAII (Michael W. Deem and Ramdas Pophale) SiO2 
 PCOD8180028
Probable space group: A M M 2
;
_chemical_formula_sum "Si O2"
_cell_formula_units_Z 56
_cell_length_a 23.505993
_cell_length_b 8.659854
_cell_length_c 14.377623
_cell_angle_alpha 90.000000
_cell_angle_beta 90.000000
_cell_angle_gamma 90.000000
_cell_volume 2926.686904
_symmetry_space_group_name_H-M "A M M 2"
_symmetry_group_IT_number 38
_symmetry_cell_setting 'orthorhombic'
loop_
_space_group_symop_operation_xyz
x,y,z
-x,-y,z
-x,y,z
x,-y,z
x,1/2+y,1/2+z
-x,1/2-y,1/2+z
-x,1/2+y,1/2+z
x,1/2-y,1/2+z
loop_
_atom_site_type_symbol
_atom_site_label
_atom_site_fract_x
_atom_site_fract_y
_atom_site_fract_z
Si Si1 0.740339 0.819403 0.932910
Si Si2 0.355416 0.180489 0.079668
Si Si3 0.563471 0.182005 0.436390
Si Si4 0.934953 0.677178 0.589097
Si Si5 0.063995 0.824132 0.782133
Si Si6 0.137804 0.178281 0.437596
Si Si7 0.342792 0.683025 0.790978
O O1 0.796705 0.721378 0.947616
O O2 0.711024 0.768182 0.836630
O O3 0.754577 0.000000 0.928709
O O4 0.700637 0.778075 0.020757
O O5 0.348323 0.241450 0.184972
O O6 0.367178 0.000000 0.080161
O O7 0.410079 0.258489 0.032808
O O8 0.500000 0.250704 0.424620
O O9 0.600714 0.233939 0.347342
O O10 0.561270 0.000000 0.442224
O O11 0.919159 0.500000 0.567738
O O12 0.925446 0.708766 0.697407
O O13 0.893396 0.790811 0.534620
O O14 0.000000 0.712323 0.560708
O O15 0.108953 0.785486 0.860937
O O16 0.000000 0.802034 0.821636
O O17 0.073210 0.000000 0.749096
O O18 0.131607 0.000000 0.410181
O O19 0.332678 0.500000 0.796142
#
# Coordination Sequence:
#
# PCOD8180028 Si02
#       7
#     8   8   8   8   8   8   8
#     4  10  21  37  54  76 106 137 177 227 275 321
#     4   9  19  35  56  78 102 138 178 219 265 313
#     4   9  18  32  51  78 111 142 173 213 259 311
#     4  10  21  38  59  83 112 145 181 223 272 328
#     4  10  21  38  59  83 111 142 178 223 276 332
#     4  12  24  37  56  81 110 146 186 227 275 327
#     4   9  18  35  56  77 104 139 179 218 264 320
#
# _framework density 19.134264999999999
#
# number of rings (size 3 to 8) (size 9 to 14) (size 15 to 20)
#    0.000    2.143    0.000    3.000    0.000    6.571 
#    0.000    5.714    0.000    0.000    0.000    0.000 
#    0.000    0.000    0.000    0.000    0.000    0.000 
#
# Total GULP energy -347286.247606 kJ/mol
# GULP energy per Si atom -12403.080272 kJ/mol
# Density = 1.909071 g / cm^3
# Si number density = 19.134265 Si / 1000 Ang^3
#
#
#
# Elastic Constant Matrix: (Units=GPa)
#
#
# Indices 1 2 3 4 5 6 
#
# 1 120.0609 32.7949 51.6511 0.0000 0.0000 0.0000
# 2 32.7949 52.3458 21.3384 0.0000 0.0000 0.0000
# 3 51.6511 21.3384 123.2820 0.0000 0.0000 0.0000
# 4 0.0000 0.0000 0.0000 30.1074 0.0000 0.0000
# 5 0.0000 0.0000 0.0000 0.0000 24.9643 0.0000
# 6 0.0000 0.0000 0.0000 0.0000 0.0000 30.3733
#
#
#
# Elastic Compliance Matrix: (Units=1/GPa)
#
#
# Indices 1 2 3 4 5 6 
#
# 1 0.011531 -0.005654 -0.003852 0.000000 0.000000 0.000000
# 2 -0.005654 0.023326 -0.001669 0.000000 0.000000 0.000000
# 3 -0.003852 -0.001669 0.010014 0.000000 0.000000 0.000000
# 4 0.000000 0.000000 0.000000 0.033214 0.000000 0.000000
# 5 0.000000 0.000000 0.000000 0.000000 0.040057 0.000000
# 6 0.000000 0.000000 0.000000 0.000000 0.000000 0.032924
#
#
# Mechanical properties :
#
#
# Convention : Reuss Voigt Hill
#
# Bulk Modulus (GPa) = 44.40199 56.36196 50.38197
# Shear Modulus (GPa) = 27.63602 29.74928 28.69265
#
# Velocity S-wave (km/s) = 3.80455 3.94733 3.87659
# Velocity P-wave (km/s) = 6.52344 7.09191 6.81361
#
# Compressibility (1/GPa) = 0.02252151
#
# Stress axis : x y z
#
# Youngs Moduli (GPa) = 86.72442 42.87055 99.85663
#
# Poissons Ratio (x) = 0.24238 0.38469
# Poissons Ratio (y) = 0.49031 0.16663
# Poissons Ratio (z) = 0.33410 0.07154
#
# Static dielectric constant tensor:
#      x y z
#    x 3.610450 0.000000 0.000000 
#    y 0.000000 3.464900 0.000000 
#    z 0.000000 0.000000 3.532720 
# 
# 
# High freq. dielectric constant tensor:
#      x y z
#    x 1.743810 0.000000 0.000000 
#    y 0.000000 1.744090 0.000000 
#    z 0.000000 0.000000 1.745690 
# 
# From -- ./inp_files/15423.got.cif
#   From: 2010.03.12/outbox.cif.g09.slc.cpg/sg38_8_cif.got.tgz:15423.got - 2010.04.14 02:38:36.
