data_PCOD8180892
_publ_section_title
;
Structure prediction by ZEFSAII (Michael W. Deem and Ramdas Pophale) SiO2 
 PCOD8180892
Probable space group: A B M 2
;
_chemical_formula_sum "Si O2"
_cell_formula_units_Z 56
_cell_length_a 15.208490
_cell_length_b 8.982362
_cell_length_c 20.019177
_cell_angle_alpha 90.000000
_cell_angle_beta 90.000000
_cell_angle_gamma 90.000000
_cell_volume 2734.782988
_symmetry_space_group_name_H-M "A B M 2"
_symmetry_group_IT_number 39
_symmetry_cell_setting 'orthorhombic'
loop_
_space_group_symop_operation_xyz
x,y,z
-x,-y,z
-x,1/2+y,z
x,1/2-y,z
x,1/2+y,1/2+z
-x,1/2-y,1/2+z
-x,y,1/2+z
x,-y,1/2+z
loop_
_atom_site_type_symbol
_atom_site_label
_atom_site_fract_x
_atom_site_fract_y
_atom_site_fract_z
Si Si1 0.278028 0.576910 0.065940
Si Si2 0.276677 0.077627 0.715875
Si Si3 0.913237 0.422532 0.026907
Si Si4 0.128772 0.080972 0.376828
Si Si5 0.410303 0.073163 0.966497
Si Si6 0.670321 0.079397 0.844404
Si Si7 0.916038 0.922948 0.748227
O O1 0.285972 0.750000 0.043582
O O2 0.314031 0.554058 0.141332
O O3 0.175887 0.526327 0.064111
O O4 0.333029 0.475287 0.016219
O O5 0.280298 0.250000 0.737594
O O6 0.175271 0.022016 0.715998
O O7 0.333524 0.983552 0.768721
O O8 0.927152 0.250000 0.038852
O O9 0.000000 0.500000 0.057175
O O10 0.904585 0.464223 0.949366
O O11 0.102692 0.250000 0.357483
O O12 0.233533 0.063513 0.375729
O O13 0.083818 0.966439 0.326323
O O14 0.418249 0.250000 0.966336
O O15 0.500000 0.000000 0.993404
O O16 0.394036 0.015456 0.891293
O O17 0.638420 0.250000 0.842961
O O18 0.928639 0.750000 0.738840
O O19 0.000000 0.000000 0.712676
#
# Coordination Sequence:
#
# PCOD8180892 Si02
#       7
#     8   8   8   8   8   8   8
#     4  10  21  42  63  85 125 168 205 252 307 359
#     4   9  20  37  59  84 116 161 204 246 302 362
#     4  10  20  33  51  79 116 160 207 251 301 353
#     4   9  17  31  51  76 108 150 194 245 303 352
#     4  12  25  42  68  98 125 155 198 246 302 367
#     4  10  19  37  63  90 121 153 192 245 303 358
#     4  10  19  30  46  74 109 151 202 251 300 351
#
# _framework density 20.476945000000001
#
# number of rings (size 3 to 8) (size 9 to 14) (size 15 to 20)
#    0.000    2.000    1.429    2.571    0.000    4.571 
#    0.000    0.714    0.000    3.429    0.000    0.000 
#    0.000    0.000    0.000    0.000    0.000    0.000 
#
# Total GULP energy -347214.310182 kJ/mol
# GULP energy per Si atom -12400.511078 kJ/mol
# Density = 2.043034 g / cm^3
# Si number density = 20.476945 Si / 1000 Ang^3
#
#
#
# Elastic Constant Matrix: (Units=GPa)
#
#
# Indices 1 2 3 4 5 6 
#
# 1 68.1382 38.0251 34.5411 0.0000 0.0000 0.0000
# 2 38.0251 101.2284 47.1430 0.0000 0.0000 0.0000
# 3 34.5411 47.1430 91.7854 0.0000 0.0000 0.0000
# 4 0.0000 0.0000 0.0000 23.3572 0.0000 0.0000
# 5 0.0000 0.0000 0.0000 0.0000 0.7256 0.0000
# 6 0.0000 0.0000 0.0000 0.0000 0.0000 33.3564
#
#
#
# Elastic Compliance Matrix: (Units=1/GPa)
#
#
# Indices 1 2 3 4 5 6 
#
# 1 0.020081 -0.005289 -0.004841 0.000000 0.000000 0.000000
# 2 -0.005289 0.014378 -0.005394 0.000000 0.000000 0.000000
# 3 -0.004841 -0.005394 0.015487 0.000000 0.000000 0.000000
# 4 0.000000 0.000000 0.000000 0.042813 0.000000 0.000000
# 5 0.000000 0.000000 0.000000 0.000000 1.378194 0.000000
# 6 0.000000 0.000000 0.000000 0.000000 0.000000 0.029979
#
#
# Mechanical properties :
#
#
# Convention : Reuss Voigt Hill
#
# Bulk Modulus (GPa) = 52.91418 55.61892 54.26655
# Shear Modulus (GPa) = 3.25038 20.91736 12.08387
#
# Velocity S-wave (km/s) = 1.26126 3.19957 2.43188
# Velocity P-wave (km/s) = 5.29320 6.39299 5.86892
#
# Compressibility (1/GPa) = 0.01889852
#
# Stress axis : x y z
#
# Youngs Moduli (GPa) = 49.79718 69.55292 64.56938
#
# Poissons Ratio (x) = 0.36787 0.31255
# Poissons Ratio (y) = 0.26338 0.34830
# Poissons Ratio (z) = 0.24105 0.37518
#
# Static dielectric constant tensor:
#      x y z
#    x 3.660680 0.000000 0.000000 
#    y 0.000000 3.589730 0.000000 
#    z 0.000000 0.000000 3.635200 
# 
# 
# High freq. dielectric constant tensor:
#      x y z
#    x 1.789370 0.000000 0.000000 
#    y 0.000000 1.792050 0.000000 
#    z 0.000000 0.000000 1.797100 
# 
# From -- ./inp_files/14756.got.cif
#   From: 2010.03.12/outbox.cif.g09.slc.cpg/sg39_8_cif.got.tgz:14756.got - 2010.04.14 02:53:20.
