data_PCOD8180269
_publ_section_title
;
Structure prediction by ZEFSAII (Michael W. Deem and Ramdas Pophale) SiO2 
 PCOD8180269
Probable space group: A M M 2
;
_chemical_formula_sum "Si O2"
_cell_formula_units_Z 64
_cell_length_a 8.882031
_cell_length_b 30.398057
_cell_length_c 11.887848
_cell_angle_alpha 90.000000
_cell_angle_beta 90.000000
_cell_angle_gamma 90.000000
_cell_volume 3209.677170
_symmetry_space_group_name_H-M "A M M 2"
_symmetry_group_IT_number 38
_symmetry_cell_setting 'orthorhombic'
loop_
_space_group_symop_operation_xyz
x,y,z
-x,-y,z
-x,y,z
x,-y,z
x,1/2+y,1/2+z
-x,1/2-y,1/2+z
-x,1/2+y,1/2+z
x,1/2-y,1/2+z
loop_
_atom_site_type_symbol
_atom_site_label
_atom_site_fract_x
_atom_site_fract_y
_atom_site_fract_z
Si Si1 0.828907 0.705786 0.242320
Si Si2 0.322907 0.624616 0.840592
Si Si3 0.676172 0.293566 0.687928
Si Si4 0.172574 0.665923 0.486038
Si Si5 0.824138 0.625884 0.081004
Si Si6 0.828557 0.951130 0.200446
Si Si7 0.322838 0.425885 0.480311
Si Si8 0.827056 0.949984 0.749234
O O1 0.715344 0.746393 0.239524
O O2 0.808318 0.683296 0.361562
O O3 0.785387 0.670017 0.148890
O O4 0.000000 0.722273 0.225454
O O5 0.500000 0.619247 0.838844
O O6 0.272843 0.668457 0.774420
O O7 0.254434 0.581807 0.783366
O O8 0.268900 0.628027 0.967632
O O9 0.500000 0.296144 0.661728
O O10 0.770407 0.297417 0.572996
O O11 0.279038 0.624311 0.502192
O O12 0.000000 0.653236 0.511079
O O13 0.772035 0.583118 0.152005
O O14 0.000000 0.622603 0.052434
O O15 0.000000 0.935351 0.186830
O O16 0.820306 0.000000 0.253535
O O17 0.753115 0.954182 0.078034
O O18 0.500000 0.431257 0.489186
O O19 0.270687 0.443240 0.359983
O O20 0.000000 0.939192 0.780469
O O21 0.808407 0.000000 0.705578
#
# Coordination Sequence:
#
# PCOD8180269 Si02
#       8
#     8   8   8   8   8   8   8   8
#     4  10  23  42  65  93 123 161 209 257 306 361
#     4  11  25  43  62  91 127 165 204 254 315 370
#     4  11  25  42  62  93 129 163 204 253 311 372
#     4  11  22  41  68  94 124 162 209 257 305 363
#     4  10  22  42  64  90 123 163 213 261 304 363
#     4  11  24  42  66  93 121 162 211 255 304 365
#     4  12  23  37  61  95 132 164 199 251 317 371
#     4  10  21  40  65  91 122 163 210 258 307 365
#
# _framework density 19.939699999999998
#
# number of rings (size 3 to 8) (size 9 to 14) (size 15 to 20)
#    0.000    1.250    2.500    3.000    1.750    6.750 
#    0.000    1.250    0.000    0.000    0.000    0.000 
#    0.000    0.000    0.000    0.000    0.000    0.000 
#
# Total GULP energy -396970.825484 kJ/mol
# GULP energy per Si atom -12405.338296 kJ/mol
# Density = 1.989432 g / cm^3
# Si number density = 19.939700 Si / 1000 Ang^3
#
#
#
# Elastic Constant Matrix: (Units=GPa)
#
#
# Indices 1 2 3 4 5 6 
#
# 1 92.8367 43.3296 62.2492 0.0000 0.0000 0.0000
# 2 43.3296 108.6613 34.5635 0.0000 0.0000 0.0000
# 3 62.2492 34.5635 112.7181 0.0000 0.0000 0.0000
# 4 0.0000 0.0000 0.0000 26.2471 0.0000 0.0000
# 5 0.0000 0.0000 0.0000 0.0000 24.1202 0.0000
# 6 0.0000 0.0000 0.0000 0.0000 0.0000 2256.5816
#
#
#
# Elastic Compliance Matrix: (Units=1/GPa)
#
#
# Indices 1 2 3 4 5 6 
#
# 1 0.019060 -0.004712 -0.009081 0.000000 0.000000 0.000000
# 2 -0.004712 0.011362 -0.000882 0.000000 0.000000 0.000000
# 3 -0.009081 -0.000882 0.014157 0.000000 0.000000 0.000000
# 4 0.000000 0.000000 0.000000 0.038099 0.000000 0.000000
# 5 0.000000 0.000000 0.000000 0.000000 0.041459 0.000000
# 6 0.000000 0.000000 0.000000 0.000000 0.000000 0.000443
#
#
# Mechanical properties :
#
#
# Convention : Reuss Voigt Hill
#
# Bulk Modulus (GPa) = 65.66130 66.05563 65.85847
# Shear Modulus (GPa) = 31.44513 472.99469 252.21991
#
# Velocity S-wave (km/s) = 3.97547 15.41841 11.25904
# Velocity P-wave (km/s) = 7.35349 18.71282 14.21695
#
# Compressibility (1/GPa) = 0.01522967
#
# Stress axis : x y z
#
# Youngs Moduli (GPa) = 52.46658 88.01037 70.63532
#
# Poissons Ratio (x) = 0.41468 0.64144
# Poissons Ratio (y) = 0.24721 0.06230
# Poissons Ratio (z) = 0.47645 0.07763
#
# Static dielectric constant tensor:
#      x y z
#    x 3.621670 0.000000 0.000000 
#    y 0.000000 3.684140 0.000000 
#    z 0.000000 0.000000 3.667740 
# 
# 
# High freq. dielectric constant tensor:
#      x y z
#    x 1.779890 0.000000 0.000000 
#    y 0.000000 1.790490 0.000000 
#    z 0.000000 0.000000 1.781430 
# 
# From -- ./inp_files/8644.got.cif
#   From: 2010.03.12/outbox.cif.g09.slc.cpg/sg38_5_cif.got.tgz:8644.got - 2010.04.14 02:38:36.
