data_PCOD8180230
_publ_section_title
;
Structure prediction by ZEFSAII (Michael W. Deem and Ramdas Pophale) SiO2 
 PCOD8180230
Probable space group: A M M 2
;
_chemical_formula_sum "Si O2"
_cell_formula_units_Z 48
_cell_length_a 7.647138
_cell_length_b 9.445515
_cell_length_c 34.382309
_cell_angle_alpha 90.000000
_cell_angle_beta 90.000000
_cell_angle_gamma 90.000000
_cell_volume 2483.473949
_symmetry_space_group_name_H-M "A M M 2"
_symmetry_group_IT_number 38
_symmetry_cell_setting 'orthorhombic'
loop_
_space_group_symop_operation_xyz
x,y,z
-x,-y,z
-x,y,z
x,-y,z
x,1/2+y,1/2+z
-x,1/2-y,1/2+z
-x,1/2+y,1/2+z
x,1/2-y,1/2+z
loop_
_atom_site_type_symbol
_atom_site_label
_atom_site_fract_x
_atom_site_fract_y
_atom_site_fract_z
Si Si1 0.203946 0.838592 0.783080
Si Si2 0.295206 0.157601 0.128568
Si Si3 0.000000 0.830028 0.410269
Si Si4 0.000000 0.667074 0.998401
Si Si5 0.204888 0.157371 0.212480
Si Si6 0.701230 0.833749 0.555506
Si Si7 0.302500 0.163382 0.868436
O O1 0.286039 0.748489 0.747606
O O2 0.300889 0.797846 0.822836
O O3 0.000000 0.807740 0.789618
O O4 0.238252 0.000000 0.771702
O O5 0.500000 0.146524 0.124402
O O6 0.246756 0.225612 0.170379
O O7 0.225596 0.257479 0.094199
O O8 0.211054 0.000000 0.125004
O O9 0.174526 0.768419 0.390974
O O10 0.000000 0.775244 0.454648
O O11 0.000000 0.000000 0.406340
O O12 0.000000 0.500000 0.997162
O O13 0.176350 0.719061 0.020139
O O14 0.000000 0.151947 0.218751
O O15 0.287360 0.000000 0.214072
O O16 0.500000 0.793635 0.545717
O O17 0.720802 0.000000 0.562880
O O18 0.500000 0.185681 0.883991
O O19 0.242011 0.000000 0.874189
#
# Coordination Sequence:
#
# PCOD8180230 Si02
#       7
#     8   8   4   4   8   8   8
#     4   9  17  32  52  74 104 142 183 228 273 317
#     4   9  18  32  48  69 102 140 174 215 266 313
#     4  11  23  39  61  88 119 146 181 234 285 341
#     4   9  20  37  57  82 107 138 173 212 271 331
#     4   9  18  30  45  69 102 140 178 217 265 317
#     4   9  18  34  55  77 103 136 175 218 261 312
#     4  10  21  39  62  85 114 153 191 230 282 340
#
# _framework density 19.327764999999999
#
# number of rings (size 3 to 8) (size 9 to 14) (size 15 to 20)
#    0.000    2.667    0.833    0.250    1.167    3.000 
#    0.000    3.333    0.000    2.000    0.000    0.000 
#    0.000    0.000    0.000    0.000    0.000    0.000 
#
# Total GULP energy -297522.210411 kJ/mol
# GULP energy per Si atom -12396.758767 kJ/mol
# Density = 1.928377 g / cm^3
# Si number density = 19.327765 Si / 1000 Ang^3
#
#
#
# Elastic Constant Matrix: (Units=GPa)
#
#
# Indices 1 2 3 4 5 6 
#
# 1 78.5020 37.9598 54.8764 0.0000 0.0000 0.0000
# 2 37.9598 72.7264 65.0810 0.0000 0.0000 0.0000
# 3 54.8764 65.0810 146.4657 0.0000 0.0000 0.0000
# 4 0.0000 0.0000 0.0000 29.4944 0.0000 0.0000
# 5 0.0000 0.0000 0.0000 0.0000 3.9783 0.0000
# 6 0.0000 0.0000 0.0000 0.0000 0.0000 14.1978
#
#
#
# Elastic Compliance Matrix: (Units=1/GPa)
#
#
# Indices 1 2 3 4 5 6 
#
# 1 0.018610 -0.005767 -0.004410 0.000000 0.000000 0.000000
# 2 -0.005767 0.024614 -0.008776 0.000000 0.000000 0.000000
# 3 -0.004410 -0.008776 0.012380 0.000000 0.000000 0.000000
# 4 0.000000 0.000000 0.000000 0.033905 0.000000 0.000000
# 5 0.000000 0.000000 0.000000 0.000000 0.251367 0.000000
# 6 0.000000 0.000000 0.000000 0.000000 0.000000 0.070434
#
#
# Mechanical properties :
#
#
# Convention : Reuss Voigt Hill
#
# Bulk Modulus (GPa) = 56.50786 68.16983 62.33884
# Shear Modulus (GPa) = 10.98625 18.85254 14.91939
#
# Velocity S-wave (km/s) = 2.38674 3.12655 2.78135
# Velocity P-wave (km/s) = 6.07416 6.95562 6.52978
#
# Compressibility (1/GPa) = 0.01769665
#
# Stress axis : x y z
#
# Youngs Moduli (GPa) = 53.73430 40.62722 80.77845
#
# Poissons Ratio (x) = 0.23430 0.35624
# Poissons Ratio (y) = 0.30989 0.70893
# Poissons Ratio (z) = 0.23697 0.35656
#
# Static dielectric constant tensor:
#      x y z
#    x 3.468700 0.000000 0.000000 
#    y 0.000000 3.606420 0.000000 
#    z 0.000000 0.000000 3.740370 
# 
# 
# High freq. dielectric constant tensor:
#      x y z
#    x 1.751310 0.000000 0.000000 
#    y 0.000000 1.732630 0.000000 
#    z 0.000000 0.000000 1.751940 
# 
# From -- ./inp_files/24408.got.cif
#   From: 2010.03.12/outbox.cif.g09.slc.cpg/sg38_13_cif.got.tgz:24408.got - 2010.04.14 02:38:36.
