data_PCOD8180012
_publ_section_title
;
Structure prediction by ZEFSAII (Michael W. Deem and Ramdas Pophale) SiO2 
 PCOD8180012
Probable space group: A M M 2
;
_chemical_formula_sum "Si O2"
_cell_formula_units_Z 64
_cell_length_a 13.862358
_cell_length_b 9.253910
_cell_length_c 25.618525
_cell_angle_alpha 90.000000
_cell_angle_beta 90.000000
_cell_angle_gamma 90.000000
_cell_volume 3286.370347
_symmetry_space_group_name_H-M "A M M 2"
_symmetry_group_IT_number 38
_symmetry_cell_setting 'orthorhombic'
loop_
_space_group_symop_operation_xyz
x,y,z
-x,-y,z
-x,y,z
x,-y,z
x,1/2+y,1/2+z
-x,1/2-y,1/2+z
-x,1/2+y,1/2+z
x,1/2-y,1/2+z
loop_
_atom_site_type_symbol
_atom_site_label
_atom_site_fract_x
_atom_site_fract_y
_atom_site_fract_z
Si Si1 0.288896 0.172184 0.537020
Si Si2 0.114498 0.341306 0.685514
Si Si3 0.706095 0.832118 0.838021
Si Si4 0.613131 0.167419 0.943703
Si Si5 0.107124 0.332255 0.283865
Si Si6 0.386165 0.660696 0.745945
Si Si7 0.613428 0.834213 0.129049
Si Si8 0.110522 0.670527 0.568611
O O1 0.355970 0.233296 0.491460
O O2 0.333826 0.222255 0.591566
O O3 0.180853 0.238415 0.530896
O O4 0.284642 0.000000 0.534001
O O5 0.157958 0.500000 0.696128
O O6 0.152034 0.238570 0.731621
O O7 0.143773 0.289146 0.627663
O O8 0.000000 0.347646 0.686994
O O9 0.668353 0.769722 0.892776
O O10 0.820877 0.799998 0.832043
O O11 0.651150 0.770925 0.788431
O O12 0.682780 0.000000 0.837550
O O13 0.500000 0.185074 0.933934
O O14 0.639801 0.000000 0.955045
O O15 0.101753 0.500000 0.271373
O O16 0.000000 0.272581 0.297946
O O17 0.500000 0.672864 0.742417
O O18 0.355116 0.500000 0.763203
O O19 0.345674 0.693706 0.687632
O O20 0.500000 0.804670 0.126136
O O21 0.635366 0.000000 0.112151
O O22 0.122679 0.500000 0.558623
O O23 0.000000 0.716993 0.557862
#
# Coordination Sequence:
#
# PCOD8180012 Si02
#       8
#     8   8   8   8   8   8   8   8
#     4  12  25  37  56  86 117 147 186 240 297 344
#     4   8  15  29  50  76 106 144 189 229 262 308
#     4  10  21  36  57  84 112 145 191 238 284 336
#     4  10  22  42  64  82 106 146 194 243 293 349
#     4   9  18  32  50  77 116 153 183 222 274 330
#     4   9  19  35  55  81 112 145 181 226 284 346
#     4   9  19  37  58  80 111 151 191 231 281 348
#     4   9  19  37  59  82 112 153 198 236 274 333
#
# _framework density 19.474373
#
# number of rings (size 3 to 8) (size 9 to 14) (size 15 to 20)
#    0.000    2.500    0.000    3.375    1.750    5.000 
#    0.000    3.125    0.000    2.250    0.000    0.000 
#    0.000    0.000    0.000    0.000    0.000    0.000 
#
# Total GULP energy -396706.708069 kJ/mol
# GULP energy per Si atom -12397.084627 kJ/mol
# Density = 1.943005 g / cm^3
# Si number density = 19.474373 Si / 1000 Ang^3
#
#
#
# Elastic Constant Matrix: (Units=GPa)
#
#
# Indices 1 2 3 4 5 6 
#
# 1 67.0683 39.0457 42.8012 0.0000 0.0000 0.0000
# 2 39.0457 67.1913 36.7401 0.0000 0.0000 0.0000
# 3 42.8012 36.7401 89.4602 0.0000 0.0000 0.0000
# 4 0.0000 0.0000 0.0000 29.3912 0.0000 0.0000
# 5 0.0000 0.0000 0.0000 0.0000 34.1476 0.0000
# 6 0.0000 0.0000 0.0000 0.0000 0.0000 24.7033
#
#
#
# Elastic Compliance Matrix: (Units=1/GPa)
#
#
# Indices 1 2 3 4 5 6 
#
# 1 0.026493 -0.010916 -0.008192 0.000000 0.000000 0.000000
# 2 -0.010916 0.023691 -0.004507 0.000000 0.000000 0.000000
# 3 -0.008192 -0.004507 0.016949 0.000000 0.000000 0.000000
# 4 0.000000 0.000000 0.000000 0.034024 0.000000 0.000000
# 5 0.000000 0.000000 0.000000 0.000000 0.029285 0.000000
# 6 0.000000 0.000000 0.000000 0.000000 0.000000 0.040480
#
#
# Mechanical properties :
#
#
# Convention : Reuss Voigt Hill
#
# Bulk Modulus (GPa) = 50.24569 51.21041 50.72805
# Shear Modulus (GPa) = 22.24338 24.65726 23.45032
#
# Velocity S-wave (km/s) = 3.38329 3.56214 3.47387
# Velocity P-wave (km/s) = 6.41242 6.57814 6.49581
#
# Compressibility (1/GPa) = 0.01990220
#
# Stress axis : x y z
#
# Youngs Moduli (GPa) = 37.74521 42.21084 59.00201
#
# Poissons Ratio (x) = 0.46078 0.48337
# Poissons Ratio (y) = 0.41203 0.26591
# Poissons Ratio (z) = 0.30922 0.19023
#
# Static dielectric constant tensor:
#      x y z
#    x 3.778410 0.000000 0.000000 
#    y 0.000000 3.480520 0.000000 
#    z 0.000000 0.000000 3.566410 
# 
# 
# High freq. dielectric constant tensor:
#      x y z
#    x 1.776490 0.000000 0.000000 
#    y 0.000000 1.738410 0.000000 
#    z 0.000000 0.000000 1.741620 
# 
# From -- ./inp_files/22949.got.cif
#   From: 2010.03.12/outbox.cif.g09.slc.cpg/sg38_12_cif.got.tgz:22949.got - 2010.04.14 02:38:36.
