data_PCOD8180287
_publ_section_title
;
Structure prediction by ZEFSAII (Michael W. Deem and Ramdas Pophale) SiO2 
 PCOD8180287
Probable space group: A M M 2
;
_chemical_formula_sum "Si O2"
_cell_formula_units_Z 56
_cell_length_a 21.748448
_cell_length_b 8.783545
_cell_length_c 15.315638
_cell_angle_alpha 90.000000
_cell_angle_beta 90.000000
_cell_angle_gamma 90.000000
_cell_volume 2925.722920
_symmetry_space_group_name_H-M "A M M 2"
_symmetry_group_IT_number 38
_symmetry_cell_setting 'orthorhombic'
loop_
_space_group_symop_operation_xyz
x,y,z
-x,-y,z
-x,y,z
x,-y,z
x,1/2+y,1/2+z
-x,1/2-y,1/2+z
-x,1/2+y,1/2+z
x,1/2-y,1/2+z
loop_
_atom_site_type_symbol
_atom_site_label
_atom_site_fract_x
_atom_site_fract_y
_atom_site_fract_z
Si Si1 0.150421 0.321054 0.517600
Si Si2 0.367682 0.681649 0.854034
Si Si3 0.283578 0.819238 0.509297
Si Si4 0.634571 0.824839 0.666369
Si Si5 0.500000 0.328297 0.185216
Si Si6 0.932040 0.319705 0.674485
Si Si7 0.500000 0.674108 0.860342
Si Si8 0.927898 0.824808 0.370672
O O1 0.161162 0.500000 0.524052
O O2 0.214900 0.238943 0.510983
O O3 0.115954 0.255972 0.603626
O O4 0.109702 0.285228 0.433342
O O5 0.370069 0.500000 0.848684
O O6 0.315678 0.739833 0.920469
O O7 0.352942 0.741909 0.757704
O O8 0.434272 0.744554 0.890892
O O9 0.321043 0.754438 0.592531
O O10 0.284271 0.000000 0.510782
O O11 0.563630 0.807870 0.631389
O O12 0.651046 0.000000 0.681712
O O13 0.500000 0.500000 0.226811
O O14 0.500000 0.195486 0.256236
O O15 0.936476 0.500000 0.666941
O O16 0.910555 0.275580 0.771947
O O17 0.000000 0.250983 0.655545
O O18 0.500000 0.500000 0.887817
O O19 0.000000 0.801223 0.387215
O O20 0.909304 0.000000 0.387688
#
# Coordination Sequence:
#
# PCOD8180287 Si02
#       8
#     8   8   8   8   4   8   4   8
#     4  11  22  35  53  77 106 139 174 213 251 292
#     4   9  18  33  53  74  99 131 167 211 260 310
#     4  10  22  37  50  70 102 140 177 209 249 304
#     4   9  18  33  53  75 101 131 166 213 262 308
#     4   8  14  27  49  75  98 124 160 205 263 315
#     4   8  16  33  56  79 102 130 164 201 246 299
#     4   8  14  27  49  75  96 120 162 211 257 305
#     4   9  18  35  59  83 106 134 167 204 250 303
#
# _framework density 19.14057
#
# number of rings (size 3 to 8) (size 9 to 14) (size 15 to 20)
#    0.000    2.857    0.000    1.714    0.000    3.714 
#    0.000    8.571    0.000    1.714    0.000   11.000 
#    0.000    0.000    0.000    0.000    0.000    0.000 
#
# Total GULP energy -346948.302103 kJ/mol
# GULP energy per Si atom -12391.010789 kJ/mol
# Density = 1.909700 g / cm^3
# Si number density = 19.140570 Si / 1000 Ang^3
#
#
#
# Elastic Constant Matrix: (Units=GPa)
#
#
# Indices 1 2 3 4 5 6 
#
# 1 116.2160 11.0433 73.6441 0.0000 0.0000 0.0000
# 2 11.0433 15.5560 17.7875 0.0000 0.0000 0.0000
# 3 73.6441 17.7875 130.0035 0.0000 0.0000 0.0000
# 4 0.0000 0.0000 0.0000 25.2585 0.0000 0.0000
# 5 0.0000 0.0000 0.0000 0.0000 5.4284 0.0000
# 6 0.0000 0.0000 0.0000 0.0000 0.0000 22.9829
#
#
#
# Elastic Compliance Matrix: (Units=1/GPa)
#
#
# Indices 1 2 3 4 5 6 
#
# 1 0.013436 -0.000990 -0.007476 0.000000 0.000000 0.000000
# 2 -0.000990 0.076280 -0.009876 0.000000 0.000000 0.000000
# 3 -0.007476 -0.009876 0.013278 0.000000 0.000000 0.000000
# 4 0.000000 0.000000 0.000000 0.039591 0.000000 0.000000
# 5 0.000000 0.000000 0.000000 0.000000 0.184215 0.000000
# 6 0.000000 0.000000 0.000000 0.000000 0.000000 0.043511
#
#
# Mechanical properties :
#
#
# Convention : Reuss Voigt Hill
#
# Bulk Modulus (GPa) = 15.08065 51.85836 33.46951
# Shear Modulus (GPa) = 11.65237 21.35402 16.50320
#
# Velocity S-wave (km/s) = 2.47002 3.34375 2.93953
# Velocity P-wave (km/s) = 4.00383 6.48535 5.38936
#
# Compressibility (1/GPa) = 0.06631014
#
# Stress axis : x y z
#
# Youngs Moduli (GPa) = 74.42704 13.10967 75.31167
#
# Poissons Ratio (x) = 0.01298 0.56301
# Poissons Ratio (y) = 0.07370 0.74377
# Poissons Ratio (z) = 0.55639 0.12947
#
# Static dielectric constant tensor:
#      x y z
#    x 3.835160 0.000000 0.000000 
#    y 0.000000 3.207070 0.000000 
#    z 0.000000 0.000000 3.556580 
# 
# 
# High freq. dielectric constant tensor:
#      x y z
#    x 1.753730 0.000000 0.000000 
#    y 0.000000 1.714610 0.000000 
#    z 0.000000 0.000000 1.738480 
# 
# From -- ./inp_files/15526.got.cif
#   From: 2010.03.12/outbox.cif.g09.slc.cpg/sg38_8_cif.got.tgz:15526.got - 2010.04.14 02:38:36.
