data_PCOD8180084
_publ_section_title
;
Structure prediction by ZEFSAII (Michael W. Deem and Ramdas Pophale) SiO2 
 PCOD8180084
Probable space group: A M M 2
;
_chemical_formula_sum "Si O2"
_cell_formula_units_Z 64
_cell_length_a 9.012802
_cell_length_b 26.848251
_cell_length_c 12.924699
_cell_angle_alpha 90.000000
_cell_angle_beta 90.000000
_cell_angle_gamma 90.000000
_cell_volume 3127.492431
_symmetry_space_group_name_H-M "A M M 2"
_symmetry_group_IT_number 38
_symmetry_cell_setting 'orthorhombic'
loop_
_space_group_symop_operation_xyz
x,y,z
-x,-y,z
-x,y,z
x,-y,z
x,1/2+y,1/2+z
-x,1/2-y,1/2+z
-x,1/2+y,1/2+z
x,1/2-y,1/2+z
loop_
_atom_site_type_symbol
_atom_site_label
_atom_site_fract_x
_atom_site_fract_y
_atom_site_fract_z
Si Si1 0.676678 0.622454 0.244190
Si Si2 0.668705 0.556734 0.437275
Si Si3 0.174647 0.903963 0.133214
Si Si4 0.823918 0.614245 0.028914
Si Si5 0.671535 0.265885 0.255798
Si Si6 0.835990 0.708872 0.596629
Si Si7 0.673548 0.558663 0.840776
Si Si8 0.163316 0.716130 0.928172
O O1 0.500000 0.620145 0.227518
O O2 0.728498 0.589553 0.341755
O O3 0.754093 0.601671 0.140544
O O4 0.734905 0.678344 0.268318
O O5 0.500000 0.572103 0.464917
O O6 0.677345 0.500000 0.399975
O O7 0.767309 0.561970 0.540019
O O8 0.214848 0.847917 0.099513
O O9 0.256054 0.915674 0.240168
O O10 0.000000 0.912704 0.147881
O O11 0.779920 0.671255 0.000950
O O12 0.000000 0.606038 0.034153
O O13 0.754646 0.577757 0.943579
O O14 0.500000 0.268295 0.274086
O O15 0.713714 0.245312 0.144306
O O16 0.733290 0.222873 0.330177
O O17 0.841809 0.729422 0.480449
O O18 0.000000 0.714966 0.648139
O O19 0.500000 0.572225 0.846100
O O20 0.699017 0.500000 0.831975
O O21 0.000000 0.700972 0.888419
#
# Coordination Sequence:
#
# PCOD8180084 Si02
#       8
#     8   8   8   8   8   8   8   8
#     4  10  22  40  60  88 126 164 207 255 304 366
#     4  10  22  41  64  88 119 162 206 251 310 374
#     4  11  23  39  63  94 125 157 202 260 312 366
#     4  11  23  40  64  92 123 162 207 259 309 361
#     4  11  22  34  55  86 118 154 197 248 293 340
#     4  10  21  38  57  82 117 157 194 229 288 359
#     4  11  25  44  65  88 120 164 207 255 318 377
#     4  10  21  37  57  82 117 159 197 236 291 359
#
# _framework density 20.463678999999999
#
# number of rings (size 3 to 8) (size 9 to 14) (size 15 to 20)
#    0.000    1.500    1.250    3.375    0.000    9.750 
#    0.000    1.250    0.000    0.000    0.000    0.000 
#    0.000    0.000    0.000    0.000    0.000    0.000 
#
# Total GULP energy -396776.334991 kJ/mol
# GULP energy per Si atom -12399.260468 kJ/mol
# Density = 2.041710 g / cm^3
# Si number density = 20.463679 Si / 1000 Ang^3
#
#
#
# Elastic Constant Matrix: (Units=GPa)
#
#
# Indices 1 2 3 4 5 6 
#
# 1 66.5087 19.3148 29.8222 0.0000 0.0000 0.0000
# 2 19.3148 68.4671 1.5364 0.0000 0.0000 0.0000
# 3 29.8222 1.5364 85.1753 0.0000 0.0000 0.0000
# 4 0.0000 0.0000 0.0000 36.5775 0.0000 0.0000
# 5 0.0000 0.0000 0.0000 0.0000 36.3050 0.0000
# 6 0.0000 0.0000 0.0000 0.0000 0.0000 28.9690
#
#
#
# Elastic Compliance Matrix: (Units=1/GPa)
#
#
# Indices 1 2 3 4 5 6 
#
# 1 0.019640 -0.005388 -0.006779 0.000000 0.000000 0.000000
# 2 -0.005388 0.016090 0.001596 0.000000 0.000000 0.000000
# 3 -0.006779 0.001596 0.014085 0.000000 0.000000 0.000000
# 4 0.000000 0.000000 0.000000 0.027339 0.000000 0.000000
# 5 0.000000 0.000000 0.000000 0.000000 0.027544 0.000000
# 6 0.000000 0.000000 0.000000 0.000000 0.000000 0.034520
#
#
# Mechanical properties :
#
#
# Convention : Reuss Voigt Hill
#
# Bulk Modulus (GPa) = 34.87652 35.72198 35.29925
# Shear Modulus (GPa) = 29.42574 31.66883 30.54728
#
# Velocity S-wave (km/s) = 3.79614 3.93818 3.86781
# Velocity P-wave (km/s) = 6.02448 6.17844 6.10195
#
# Compressibility (1/GPa) = 0.02867259
#
# Stress axis : x y z
#
# Youngs Moduli (GPa) = 50.91557 62.15109 70.99575
#
# Poissons Ratio (x) = 0.33490 0.48131
# Poissons Ratio (y) = 0.27436 -0.11334
# Poissons Ratio (z) = 0.34518 -0.09922
#
# Static dielectric constant tensor:
#      x y z
#    x 3.702780 0.000000 0.000000 
#    y 0.000000 3.840390 0.000000 
#    z 0.000000 0.000000 3.641120 
# 
# 
# High freq. dielectric constant tensor:
#      x y z
#    x 1.797550 0.000000 0.000000 
#    y 0.000000 1.805140 0.000000 
#    z 0.000000 0.000000 1.804840 
# 
# From -- ./inp_files/8635.got.cif
#   From: 2010.03.12/outbox.cif.g09.slc.cpg/sg38_5_cif.got.tgz:8635.got - 2010.04.14 02:38:36.
