data_PCOD8180255
_publ_section_title
;
Structure prediction by ZEFSAII (Michael W. Deem and Ramdas Pophale) SiO2 
 PCOD8180255
Probable space group: A M M 2
;
_chemical_formula_sum "Si O2"
_cell_formula_units_Z 64
_cell_length_a 17.685612
_cell_length_b 19.808695
_cell_length_c 8.553014
_cell_angle_alpha 90.000000
_cell_angle_beta 90.000000
_cell_angle_gamma 90.000000
_cell_volume 2996.367935
_symmetry_space_group_name_H-M "A M M 2"
_symmetry_group_IT_number 38
_symmetry_cell_setting 'orthorhombic'
loop_
_space_group_symop_operation_xyz
x,y,z
-x,-y,z
-x,y,z
x,-y,z
x,1/2+y,1/2+z
-x,1/2-y,1/2+z
-x,1/2+y,1/2+z
x,1/2-y,1/2+z
loop_
_atom_site_type_symbol
_atom_site_label
_atom_site_fract_x
_atom_site_fract_y
_atom_site_fract_z
Si Si1 0.645217 0.926189 0.751580
Si Si2 0.854783 0.426189 0.751580
Si Si3 0.084135 0.195478 0.094618
Si Si4 0.584135 0.695478 0.094618
Si Si5 0.296763 0.575222 0.592267
Si Si6 0.327065 0.705470 0.788084
Si Si7 0.172935 0.705470 0.288084
Si Si8 0.203237 0.075222 0.592267
O O1 0.582864 0.872691 0.698861
O O2 0.707006 0.929035 0.613829
O O3 0.607356 0.000000 0.771751
O O4 0.685053 0.903268 0.914099
O O5 0.892644 0.500000 0.771751
O O6 0.917136 0.372691 0.698861
O O7 0.792994 0.429035 0.613829
O O8 0.814947 0.403268 0.914099
O O9 0.103127 0.256146 0.210315
O O10 0.000000 0.205230 0.024498
O O11 0.150652 0.193753 0.967119
O O12 0.500000 0.705230 0.024498
O O13 0.603127 0.756146 0.210315
O O14 0.650652 0.693753 0.967119
O O15 0.331217 0.500000 0.629387
O O16 0.326398 0.632337 0.708406
O O17 0.250000 0.750000 0.775354
O O18 0.173602 0.632337 0.208406
O O19 0.168784 0.000000 0.629387
#
# Coordination Sequence:
#
# PCOD8180255 Si02
#       8
#     8   8   8   8   8   8   8   8
#     4  10  21  39  64  96 129 166 212 262 324 384
#     4  10  21  39  64  96 129 166 212 262 324 384
#     4  12  26  42  63  94 135 173 212 267 326 380
#     4  12  26  42  63  94 135 173 212 267 326 380
#     4  10  21  39  67  99 127 161 214 274 319 374
#     4  12  24  41  67  97 125 171 222 265 317 382
#     4  12  24  41  67  97 125 171 222 265 317 382
#     4  10  21  39  67  99 127 161 214 274 319 374
#
# _framework density 21.359192
#
# number of rings (size 3 to 8) (size 9 to 14) (size 15 to 20)
#    0.000    1.000    2.500    4.500    0.000    3.500 
#    0.000    1.250    0.000    5.250    0.000    0.000 
#    0.000    0.000    0.000    0.000    0.000    0.000 
#
# Total GULP energy -396626.075007 kJ/mol
# GULP energy per Si atom -12394.564844 kJ/mol
# Density = 2.131058 g / cm^3
# Si number density = 21.359192 Si / 1000 Ang^3
#
#
#
# Elastic Constant Matrix: (Units=GPa)
#
#
# Indices 1 2 3 4 5 6 
#
# 1 86.2804 36.9406 27.4357 0.0000 0.0000 0.0000
# 2 36.9406 146.5757 46.2210 0.0000 0.0000 0.0000
# 3 27.4357 46.2210 103.6639 0.0000 0.0000 0.0000
# 4 0.0000 0.0000 0.0000 37.6430 0.0000 0.0000
# 5 0.0000 0.0000 0.0000 0.0000 26.1407 0.0000
# 6 0.0000 0.0000 0.0000 0.0000 0.0000 14.8074
#
#
#
# Elastic Compliance Matrix: (Units=1/GPa)
#
#
# Indices 1 2 3 4 5 6 
#
# 1 0.013482 -0.002644 -0.002389 0.000000 0.000000 0.000000
# 2 -0.002644 0.008457 -0.003071 0.000000 0.000000 0.000000
# 3 -0.002389 -0.003071 0.011648 0.000000 0.000000 0.000000
# 4 0.000000 0.000000 0.000000 0.026565 0.000000 0.000000
# 5 0.000000 0.000000 0.000000 0.000000 0.038255 0.000000
# 6 0.000000 0.000000 0.000000 0.000000 0.000000 0.067534
#
#
# Mechanical properties :
#
#
# Convention : Reuss Voigt Hill
#
# Bulk Modulus (GPa) = 57.54264 61.96830 59.75547
# Shear Modulus (GPa) = 26.60383 30.77974 28.69178
#
# Velocity S-wave (km/s) = 3.53306 3.80024 3.66908
# Velocity P-wave (km/s) = 6.60623 6.95207 6.78135
#
# Compressibility (1/GPa) = 0.01737842
#
# Stress axis : x y z
#
# Youngs Moduli (GPa) = 74.17297 118.24138 85.85064
#
# Poissons Ratio (x) = 0.31268 0.20510
# Poissons Ratio (y) = 0.19614 0.26365
# Poissons Ratio (z) = 0.17720 0.36312
#
# Static dielectric constant tensor:
#      x y z
#    x 3.317430 0.000000 0.000000 
#    y 0.000000 4.310860 0.000000 
#    z 0.000000 0.000000 3.856500 
# 
# 
# High freq. dielectric constant tensor:
#      x y z
#    x 1.794770 0.000000 0.000000 
#    y 0.000000 1.865080 0.000000 
#    z 0.000000 0.000000 1.845010 
# 
# From -- ./inp_files/6483.got.cif
#   From: 2010.03.12/outbox.cif.g09.slc.cpg/sg38_4_cif.got.tgz:6483.got - 2010.04.14 02:38:36.
