data_PCOD8180096
_publ_section_title
;
Structure prediction by ZEFSAII (Michael W. Deem and Ramdas Pophale) SiO2 
 PCOD8180096
Probable space group: A M M 2
;
_chemical_formula_sum "Si O2"
_cell_formula_units_Z 56
_cell_length_a 17.654864
_cell_length_b 17.050157
_cell_length_c 9.405698
_cell_angle_alpha 90.000000
_cell_angle_beta 90.000000
_cell_angle_gamma 90.000000
_cell_volume 2831.286310
_symmetry_space_group_name_H-M "A M M 2"
_symmetry_group_IT_number 38
_symmetry_cell_setting 'orthorhombic'
loop_
_space_group_symop_operation_xyz
x,y,z
-x,-y,z
-x,y,z
x,-y,z
x,1/2+y,1/2+z
-x,1/2-y,1/2+z
-x,1/2+y,1/2+z
x,1/2-y,1/2+z
loop_
_atom_site_type_symbol
_atom_site_label
_atom_site_fract_x
_atom_site_fract_y
_atom_site_fract_z
Si Si1 0.587568 0.408336 0.590130
Si Si2 0.915227 0.191910 0.216550
Si Si3 0.246528 0.412978 0.066215
Si Si4 0.911235 0.838497 0.543914
Si Si5 0.296803 0.648914 0.355911
Si Si6 0.801381 0.592238 0.592512
Si Si7 0.310918 0.669561 0.807376
O O1 0.500000 0.391458 0.562278
O O2 0.604651 0.500000 0.613886
O O3 0.631961 0.378866 0.450663
O O4 0.611869 0.361812 0.733735
O O5 0.904225 0.193088 0.384386
O O6 0.881065 0.271617 0.151410
O O7 0.886370 0.113339 0.136690
O O8 0.000000 0.192819 0.166738
O O9 0.261270 0.500000 0.009234
O O10 0.154383 0.403226 0.065222
O O11 0.283599 0.406123 0.221224
O O12 0.296812 0.354676 0.969954
O O13 0.000000 0.866453 0.572222
O O14 0.221383 0.638412 0.450373
O O15 0.308796 0.736838 0.300963
O O16 0.787734 0.500000 0.576353
O O17 0.756750 0.629724 0.723058
#
# Coordination Sequence:
#
# PCOD8180096 Si02
#       7
#     8   8   8   8   8   8   8
#     4  10  22  43  67  90 122 161 194 234 296 363
#     4  10  21  37  58  83 115 158 206 255 306 361
#     4  12  23  36  58  90 121 153 197 254 303 345
#     4  10  22  38  57  84 119 161 204 250 307 360
#     4  11  23  40  61  88 121 160 198 240 289 355
#     4  11  22  38  58  85 119 157 200 248 299 357
#     4  11  21  38  63  88 117 152 199 244 288 349
#
# _framework density 19.778995999999999
#
# number of rings (size 3 to 8) (size 9 to 14) (size 15 to 20)
#    0.000    1.286    1.429    6.857    2.000    1.143 
#    0.000    2.143    0.000    4.286    0.000    0.000 
#    0.000    0.000    0.000    0.000    0.000    0.000 
#
# Total GULP energy -346983.659491 kJ/mol
# GULP energy per Si atom -12392.273553 kJ/mol
# Density = 1.973398 g / cm^3
# Si number density = 19.778996 Si / 1000 Ang^3
#
#
#
# Elastic Constant Matrix: (Units=GPa)
#
#
# Indices 1 2 3 4 5 6 
#
# 1 57.2465 27.9526 25.3130 0.0000 0.0000 0.0000
# 2 27.9526 106.1793 11.0419 0.0000 0.0000 0.0000
# 3 25.3130 11.0419 91.3948 0.0000 0.0000 0.0000
# 4 0.0000 0.0000 0.0000 31.0208 0.0000 0.0000
# 5 0.0000 0.0000 0.0000 0.0000 24.4815 0.0000
# 6 0.0000 0.0000 0.0000 0.0000 0.0000 28.4107
#
#
#
# Elastic Compliance Matrix: (Units=1/GPa)
#
#
# Indices 1 2 3 4 5 6 
#
# 1 0.022561 -0.005357 -0.005601 0.000000 0.000000 0.000000
# 2 -0.005357 0.010810 0.000178 0.000000 0.000000 0.000000
# 3 -0.005601 0.000178 0.012471 0.000000 0.000000 0.000000
# 4 0.000000 0.000000 0.000000 0.032236 0.000000 0.000000
# 5 0.000000 0.000000 0.000000 0.000000 0.040847 0.000000
# 6 0.000000 0.000000 0.000000 0.000000 0.000000 0.035198
#
#
# Mechanical properties :
#
#
# Convention : Reuss Voigt Hill
#
# Bulk Modulus (GPa) = 41.18444 42.60396 41.89420
# Shear Modulus (GPa) = 27.20672 29.48347 28.34509
#
# Velocity S-wave (km/s) = 3.71285 3.86508 3.78973
# Velocity P-wave (km/s) = 6.26481 6.44245 6.35425
#
# Compressibility (1/GPa) = 0.02428101
#
# Stress axis : x y z
#
# Youngs Moduli (GPa) = 44.32488 92.50884 80.18325
#
# Poissons Ratio (x) = 0.49555 0.44913
# Poissons Ratio (y) = 0.23744 -0.01424
# Poissons Ratio (z) = 0.24828 -0.01643
#
# Static dielectric constant tensor:
#      x y z
#    x 3.822580 0.000000 0.000000 
#    y 0.000000 3.814020 0.000000 
#    z 0.000000 0.000000 3.773540 
# 
# 
# High freq. dielectric constant tensor:
#      x y z
#    x 1.762740 0.000000 0.000000 
#    y 0.000000 1.770730 0.000000 
#    z 0.000000 0.000000 1.782940 
# 
# From -- ./inp_files/6735.got.cif
#   From: 2010.03.12/outbox.cif.g09.slc.cpg/sg38_4_cif.got.tgz:6735.got - 2010.04.14 02:38:36.
