data_PCOD8180151
_publ_section_title
;
Structure prediction by ZEFSAII (Michael W. Deem and Ramdas Pophale) SiO2 
 PCOD8180151
Probable space group: A M M 2
;
_chemical_formula_sum "Si O2"
_cell_formula_units_Z 40
_cell_length_a 8.842170
_cell_length_b 29.764019
_cell_length_c 7.649499
_cell_angle_alpha 90.000000
_cell_angle_beta 90.000000
_cell_angle_gamma 90.000000
_cell_volume 2013.183794
_symmetry_space_group_name_H-M "A M M 2"
_symmetry_group_IT_number 38
_symmetry_cell_setting 'orthorhombic'
loop_
_space_group_symop_operation_xyz
x,y,z
-x,-y,z
-x,y,z
x,-y,z
x,1/2+y,1/2+z
-x,1/2-y,1/2+z
-x,1/2+y,1/2+z
x,1/2-y,1/2+z
loop_
_atom_site_type_symbol
_atom_site_label
_atom_site_fract_x
_atom_site_fract_y
_atom_site_fract_z
Si Si1 0.322302 0.387810 0.177280
Si Si2 0.675459 0.052003 0.002670
Si Si3 0.180495 0.107353 0.302354
Si Si4 0.832110 0.297781 0.188635
Si Si5 0.165648 0.203549 0.280795
O O1 0.500000 0.386232 0.145155
O O2 0.275144 0.423880 0.323584
O O3 0.268675 0.339433 0.252502
O O4 0.245555 0.402289 0.995233
O O5 0.500000 0.060715 0.042137
O O6 0.712932 0.000000 0.977368
O O7 0.768731 0.069074 0.169391
O O8 0.240675 0.155904 0.224129
O O9 0.000000 0.108687 0.317855
O O10 0.747853 0.250044 0.233719
O O11 0.000000 0.300059 0.277309
O O12 0.850863 0.301795 0.985030
O O13 0.000000 0.208140 0.191920
#
# Coordination Sequence:
#
# PCOD8180151 Si02
#       5
#     8   8   8   8   8
#     4  10  21  38  58  83 118 156 194 237 287 349
#     4  10  23  42  62  84 113 154 198 239 294 355
#     4  10  21  38  61  88 117 150 192 245 294 343
#     4   9  17  31  51  77 109 149 194 234 279 340
#     4   8  16  29  49  77 108 145 187 228 280 340
#
# _framework density 19.869025000000001
#
# number of rings (size 3 to 8) (size 9 to 14) (size 15 to 20)
#    0.000    2.600    0.000    2.400    2.800    2.800 
#    0.000    7.000    0.000    0.000    0.000    0.000 
#    0.000    0.000    0.000    0.000    0.000    0.000 
#
# Total GULP energy -247807.885300 kJ/mol
# GULP energy per Si atom -12390.394265 kJ/mol
# Density = 1.982380 g / cm^3
# Si number density = 19.869025 Si / 1000 Ang^3
#
#
#
# Elastic Constant Matrix: (Units=GPa)
#
#
# Indices 1 2 3 4 5 6 
#
# 1 51.7459 26.2391 30.5524 0.0000 0.0000 0.0000
# 2 26.2391 135.4017 52.2643 0.0000 0.0000 0.0000
# 3 30.5524 52.2643 83.9511 0.0000 0.0000 0.0000
# 4 0.0000 0.0000 0.0000 37.2238 0.0000 0.0000
# 5 0.0000 0.0000 0.0000 0.0000 24.1352 0.0000
# 6 0.0000 0.0000 0.0000 0.0000 0.0000 61.3939
#
#
#
# Elastic Compliance Matrix: (Units=1/GPa)
#
#
# Indices 1 2 3 4 5 6 
#
# 1 0.024925 -0.001749 -0.007982 0.000000 0.000000 0.000000
# 2 -0.001749 0.009844 -0.005492 0.000000 0.000000 0.000000
# 3 -0.007982 -0.005492 0.018236 0.000000 0.000000 0.000000
# 4 0.000000 0.000000 0.000000 0.026865 0.000000 0.000000
# 5 0.000000 0.000000 0.000000 0.000000 0.041433 0.000000
# 6 0.000000 0.000000 0.000000 0.000000 0.000000 0.016288
#
#
# Mechanical properties :
#
#
# Convention : Reuss Voigt Hill
#
# Bulk Modulus (GPa) = 44.32909 54.35668 49.34289
# Shear Modulus (GPa) = 28.48077 35.35343 31.91710
#
# Velocity S-wave (km/s) = 3.79017 4.22278 4.01231
# Velocity P-wave (km/s) = 6.44305 7.15491 6.80829
#
# Compressibility (1/GPa) = 0.02255855
#
# Stress axis : x y z
#
# Youngs Moduli (GPa) = 40.12041 101.58170 54.83744
#
# Poissons Ratio (x) = 0.17768 0.43771
# Poissons Ratio (y) = 0.07017 0.30117
# Poissons Ratio (z) = 0.32024 0.55789
#
# Static dielectric constant tensor:
#      x y z
#    x 3.486650 0.000000 0.000000 
#    y 0.000000 4.091850 0.000000 
#    z 0.000000 0.000000 3.449070 
# 
# 
# High freq. dielectric constant tensor:
#      x y z
#    x 1.742030 0.000000 0.000000 
#    y 0.000000 1.789090 0.000000 
#    z 0.000000 0.000000 1.772050 
# 
# From -- ./inp_files/3449.got.cif
#   From: 2010.03.12/outbox.cif.g09.slc.cpg/sg38_2_cif.got.tgz:3449.got - 2010.04.14 02:38:36.
