data_PCOD8180082
_publ_section_title
;
Structure prediction by ZEFSAII (Michael W. Deem and Ramdas Pophale) SiO2 
 PCOD8180082
Probable space group: A M M 2
;
_chemical_formula_sum "Si O2"
_cell_formula_units_Z 56
_cell_length_a 19.308903
_cell_length_b 8.882439
_cell_length_c 15.928627
_cell_angle_alpha 90.000000
_cell_angle_beta 90.000000
_cell_angle_gamma 90.000000
_cell_volume 2731.921255
_symmetry_space_group_name_H-M "A M M 2"
_symmetry_group_IT_number 38
_symmetry_cell_setting 'orthorhombic'
loop_
_space_group_symop_operation_xyz
x,y,z
-x,-y,z
-x,y,z
x,-y,z
x,1/2+y,1/2+z
-x,1/2-y,1/2+z
-x,1/2+y,1/2+z
x,1/2-y,1/2+z
loop_
_atom_site_type_symbol
_atom_site_label
_atom_site_fract_x
_atom_site_fract_y
_atom_site_fract_z
Si Si1 0.165356 0.674826 0.744160
Si Si2 0.078786 0.177699 0.082710
Si Si3 0.421852 0.325630 0.930664
Si Si4 0.286158 0.325673 0.165767
Si Si5 0.290132 0.676293 0.495632
Si Si6 0.576885 0.170600 0.758134
Si Si7 0.838779 0.174628 0.431342
O O1 0.184757 0.500000 0.733073
O O2 0.113588 0.729548 0.670494
O O3 0.235432 0.774323 0.740412
O O4 0.131743 0.700659 0.836665
O O5 0.000000 0.234356 0.085747
O O6 0.083710 0.000000 0.073387
O O7 0.113749 0.246387 0.000280
O O8 0.500000 0.287690 0.960176
O O9 0.404714 0.500000 0.943976
O O10 0.369158 0.228797 0.985521
O O11 0.412625 0.286407 0.833343
O O12 0.274602 0.500000 0.143507
O O13 0.366244 0.294157 0.187977
O O14 0.264640 0.221373 0.088037
O O15 0.284087 0.500000 0.481939
O O16 0.239049 0.758486 0.430772
O O17 0.500000 0.189513 0.718451
O O18 0.587061 0.000000 0.792466
O O19 0.835438 0.000000 0.454090
#
# Coordination Sequence:
#
# PCOD8180082 Si02
#       7
#     8   8   8   8   8   8   8
#     4  10  22  40  63  91 125 165 205 251 308 369
#     4  10  22  42  66  93 128 168 206 248 304 368
#     4  10  21  37  57  82 114 153 201 256 309 364
#     4  11  22  36  58  87 118 155 203 257 308 362
#     4  12  24  38  58  84 119 161 205 254 312 370
#     4   9  19  36  56  80 113 153 197 247 307 370
#     4  11  23  40  65  96 127 163 211 259 306 363
#
# _framework density 20.498394000000001
#
# number of rings (size 3 to 8) (size 9 to 14) (size 15 to 20)
#    0.000    1.571    1.429    3.429    0.000    6.857 
#    0.000    2.857    0.000    0.000    0.000    0.000 
#    0.000    0.000    0.000    0.000    0.000    0.000 
#
# Total GULP energy -347229.816817 kJ/mol
# GULP energy per Si atom -12401.064886 kJ/mol
# Density = 2.045174 g / cm^3
# Si number density = 20.498394 Si / 1000 Ang^3
#
#
#
# Elastic Constant Matrix: (Units=GPa)
#
#
# Indices 1 2 3 4 5 6 
#
# 1 123.8170 35.8838 51.6123 0.0000 0.0000 0.0000
# 2 35.8838 39.4579 25.1076 0.0000 0.0000 0.0000
# 3 51.6123 25.1076 115.7791 0.0000 0.0000 0.0000
# 4 0.0000 0.0000 0.0000 32.3722 0.0000 0.0000
# 5 0.0000 0.0000 0.0000 0.0000 27.4695 0.0000
# 6 0.0000 0.0000 0.0000 0.0000 0.0000 29.7663
#
#
#
# Elastic Compliance Matrix: (Units=1/GPa)
#
#
# Indices 1 2 3 4 5 6 
#
# 1 0.012065 -0.008758 -0.003479 0.000000 0.000000 0.000000
# 2 -0.008758 0.035758 -0.003850 0.000000 0.000000 0.000000
# 3 -0.003479 -0.003850 0.011023 0.000000 0.000000 0.000000
# 4 0.000000 0.000000 0.000000 0.030891 0.000000 0.000000
# 5 0.000000 0.000000 0.000000 0.000000 0.036404 0.000000
# 6 0.000000 0.000000 0.000000 0.000000 0.000000 0.033595
#
#
# Mechanical properties :
#
#
# Convention : Reuss Voigt Hill
#
# Bulk Modulus (GPa) = 37.49361 56.02906 46.76134
# Shear Modulus (GPa) = 24.90022 29.01829 26.95925
#
# Velocity S-wave (km/s) = 3.48909 3.76658 3.63049
# Velocity P-wave (km/s) = 5.87898 6.80506 6.35890
#
# Compressibility (1/GPa) = 0.02667121
#
# Stress axis : x y z
#
# Youngs Moduli (GPa) = 82.88486 27.96548 90.71971
#
# Poissons Ratio (x) = 0.24493 0.31562
# Poissons Ratio (y) = 0.72593 0.34929
# Poissons Ratio (z) = 0.28836 0.10767
#
# Static dielectric constant tensor:
#      x y z
#    x 3.870810 0.000000 0.000000 
#    y 0.000000 3.669090 0.000000 
#    z 0.000000 0.000000 3.637590 
# 
# 
# High freq. dielectric constant tensor:
#      x y z
#    x 1.802970 0.000000 0.000000 
#    y 0.000000 1.800710 0.000000 
#    z 0.000000 0.000000 1.799400 
# 
# From -- ./inp_files/15475.got.cif
#   From: 2010.03.12/outbox.cif.g09.slc.cpg/sg38_8_cif.got.tgz:15475.got - 2010.04.14 02:38:36.
