data_PCOD8180423
_publ_section_title
;
Structure prediction by ZEFSAII (Michael W. Deem and Ramdas Pophale) SiO2 
 PCOD8180423
Probable space group: A M M 2
;
_chemical_formula_sum "Si O2"
_cell_formula_units_Z 64
_cell_length_a 14.180970
_cell_length_b 27.545871
_cell_length_c 9.789464
_cell_angle_alpha 90.000000
_cell_angle_beta 90.000000
_cell_angle_gamma 90.000000
_cell_volume 3824.030621
_symmetry_space_group_name_H-M "A M M 2"
_symmetry_group_IT_number 38
_symmetry_cell_setting 'orthorhombic'
loop_
_space_group_symop_operation_xyz
x,y,z
-x,-y,z
-x,y,z
x,-y,z
x,1/2+y,1/2+z
-x,1/2-y,1/2+z
-x,1/2+y,1/2+z
x,1/2-y,1/2+z
loop_
_atom_site_type_symbol
_atom_site_label
_atom_site_fract_x
_atom_site_fract_y
_atom_site_fract_z
Si Si1 0.199101 0.557007 0.818500
Si Si2 0.602505 0.057660 0.707510
Si Si3 0.398010 0.442614 0.901087
Si Si4 0.111707 0.708399 0.145004
Si Si5 0.889428 0.898411 0.064180
Si Si6 0.795853 0.556075 0.321721
Si Si7 0.111716 0.793658 0.953762
Si Si8 0.890798 0.898145 0.575424
O O1 0.182090 0.500000 0.789204
O O2 0.309963 0.571861 0.804482
O O3 0.137153 0.590855 0.720452
O O4 0.168883 0.569085 0.972478
O O5 0.500000 0.075677 0.764249
O O6 0.616415 0.078202 0.553993
O O7 0.689295 0.076714 0.800139
O O8 0.603080 0.000000 0.706457
O O9 0.500000 0.424524 0.841831
O O10 0.399339 0.500000 0.913693
O O11 0.153505 0.710681 0.299795
O O12 0.138737 0.658345 0.069451
O O13 0.000000 0.712975 0.157319
O O14 0.153745 0.751444 0.051124
O O15 0.000000 0.907160 0.042040
O O16 0.828119 0.936301 0.976772
O O17 0.858918 0.844387 0.022338
O O18 0.799382 0.500000 0.283018
O O19 0.871004 0.584056 0.228554
O O20 0.000000 0.788935 0.947838
O O21 0.000000 0.905057 0.541113
#
# Coordination Sequence:
#
# PCOD8180423 Si02
#       8
#     8   8   8   8   8   8   8   8
#     4  11  22  34  47  70 101 138 177 204 235 284
#     4   8  14  27  48  71  92 118 159 212 259 288
#     4   8  14  28  49  69  91 121 160 210 258 288
#     4   9  18  32  50  70  91 120 161 210 258 293
#     4  11  23  36  47  66 103 142 171 201 240 289
#     4  11  20  32  49  69  97 136 171 200 238 289
#     4   9  18  33  51  69  90 121 162 208 257 295
#     4  11  21  32  47  70  99 130 171 211 235 280
#
# _framework density 16.736267000000002
#
# number of rings (size 3 to 8) (size 9 to 14) (size 15 to 20)
#    0.000    2.250    2.500    2.250    1.750    3.000 
#    0.000    0.625    0.000    3.000    0.000    0.000 
#    0.000    6.000    0.000    0.000    0.000    0.000 
#
# Total GULP energy -396618.365350 kJ/mol
# GULP energy per Si atom -12394.323917 kJ/mol
# Density = 1.669817 g / cm^3
# Si number density = 16.736267 Si / 1000 Ang^3
#
#
#
# Elastic Constant Matrix: (Units=GPa)
#
#
# Indices 1 2 3 4 5 6 
#
# 1 80.4430 34.7373 24.1548 0.0000 0.0000 0.0000
# 2 34.7373 62.5330 22.4093 0.0000 0.0000 0.0000
# 3 24.1548 22.4093 61.9518 0.0000 0.0000 0.0000
# 4 0.0000 0.0000 0.0000 26.7510 0.0000 0.0000
# 5 0.0000 0.0000 0.0000 0.0000 21.7663 0.0000
# 6 0.0000 0.0000 0.0000 0.0000 0.0000 1.5175
#
#
#
# Elastic Compliance Matrix: (Units=1/GPa)
#
#
# Indices 1 2 3 4 5 6 
#
# 1 0.017063 -0.008151 -0.003705 0.000000 0.000000 0.000000
# 2 -0.008151 0.022267 -0.004876 0.000000 0.000000 0.000000
# 3 -0.003705 -0.004876 0.019350 0.000000 0.000000 0.000000
# 4 0.000000 0.000000 0.000000 0.037382 0.000000 0.000000
# 5 0.000000 0.000000 0.000000 0.000000 0.045943 0.000000
# 6 0.000000 0.000000 0.000000 0.000000 0.000000 0.658968
#
#
# Mechanical properties :
#
#
# Convention : Reuss Voigt Hill
#
# Bulk Modulus (GPa) = 39.65708 40.83674 40.24691
# Shear Modulus (GPa) = 5.93231 18.24871 12.09051
#
# Velocity S-wave (km/s) = 1.88475 3.30566 2.69069
# Velocity P-wave (km/s) = 5.33696 6.24683 5.80974
#
# Compressibility (1/GPa) = 0.02521618
#
# Stress axis : x y z
#
# Youngs Moduli (GPa) = 58.60476 44.90928 51.68007
#
# Poissons Ratio (x) = 0.36607 0.19145
# Poissons Ratio (y) = 0.47770 0.25201
# Poissons Ratio (z) = 0.21710 0.21899
#
# Static dielectric constant tensor:
#      x y z
#    x 3.299270 0.000000 0.000000 
#    y 0.000000 2.964210 0.000000 
#    z 0.000000 0.000000 3.091520 
# 
# 
# High freq. dielectric constant tensor:
#      x y z
#    x 1.624170 0.000000 0.000000 
#    y 0.000000 1.616660 0.000000 
#    z 0.000000 0.000000 1.640920 
# 
# From -- ./inp_files/6000.got.cif
#   From: 2010.03.12/outbox.cif.g09.slc.cpg/sg38_3_cif.got.tgz:6000.got - 2010.04.14 02:38:36.
