data_PCOD8180690
_publ_section_title
;
Structure prediction by ZEFSAII (Michael W. Deem and Ramdas Pophale) SiO2 
 PCOD8180690
Probable space group: A B M 2
;
_chemical_formula_sum "Si O2"
_cell_formula_units_Z 64
_cell_length_a 24.526424
_cell_length_b 8.626884
_cell_length_c 15.012504
_cell_angle_alpha 90.000000
_cell_angle_beta 90.000000
_cell_angle_gamma 90.000000
_cell_volume 3176.444901
_symmetry_space_group_name_H-M "A B M 2"
_symmetry_group_IT_number 39
_symmetry_cell_setting 'orthorhombic'
loop_
_space_group_symop_operation_xyz
x,y,z
-x,-y,z
-x,1/2+y,z
x,1/2-y,z
x,1/2+y,1/2+z
-x,1/2-y,1/2+z
-x,y,1/2+z
x,-y,1/2+z
loop_
_atom_site_type_symbol
_atom_site_label
_atom_site_fract_x
_atom_site_fract_y
_atom_site_fract_z
Si Si1 0.941695 0.565984 0.510380
Si Si2 0.255953 0.066590 0.371287
Si Si3 0.667363 0.433573 0.514404
Si Si4 0.137177 0.933192 0.366531
Si Si5 0.448316 0.429913 0.203184
Si Si6 0.555090 0.069039 0.009936
Si Si7 0.670864 0.570877 0.214342
Si Si8 0.056814 0.568725 0.213452
O O1 0.940294 0.750000 0.496040
O O2 0.895152 0.482843 0.454259
O O3 0.930060 0.517541 0.612589
O O4 0.000000 0.500000 0.479609
O O5 0.263696 0.250000 0.378921
O O6 0.286914 0.996319 0.284313
O O7 0.280765 0.988103 0.458710
O O8 0.193260 0.024460 0.364169
O O9 0.663123 0.250000 0.516331
O O10 0.611204 0.497547 0.470873
O O11 0.675793 0.500630 0.615028
O O12 0.147564 0.750000 0.367872
O O13 0.104681 0.987990 0.278532
O O14 0.500000 0.500000 0.259064
O O15 0.457328 0.250000 0.179226
O O16 0.446170 0.530774 0.113998
O O17 0.390724 0.452603 0.253336
O O18 0.556039 0.250000 0.990683
O O19 0.500000 0.000000 0.964309
O O20 0.685393 0.750000 0.206183
O O21 0.049984 0.750000 0.219759
O O22 0.000000 0.500000 0.247616
#
# Coordination Sequence:
#
# PCOD8180690 Si02
#       8
#     8   8   8   8   8   8   8   8
#     4  10  20  37  60  89 120 152 186 227 274 328
#     4  11  23  40  58  80 108 146 192 237 278 328
#     4  10  20  38  59  81 109 145 183 228 281 336
#     4  11  23  39  57  82 114 151 189 232 277 325
#     4   9  15  27  48  76 106 138 175 222 276 336
#     4  10  17  28  49  79 109 141 179 224 276 335
#     4   8  18  36  57  77 106 144 182 224 278 334
#     4   9  20  37  59  86 118 149 183 224 273 326
#
# _framework density 20.148312000000001
#
# number of rings (size 3 to 8) (size 9 to 14) (size 15 to 20)
#    0.000    2.250    0.000    4.875    0.000    3.500 
#    0.000   10.625    0.000    1.500    0.000    0.000 
#    0.000    0.000    0.000    0.000    0.000    0.000 
#
# Total GULP energy -396680.439201 kJ/mol
# GULP energy per Si atom -12396.263725 kJ/mol
# Density = 2.010245 g / cm^3
# Si number density = 20.148312 Si / 1000 Ang^3
#
#
#
# Elastic Constant Matrix: (Units=GPa)
#
#
# Indices 1 2 3 4 5 6 
#
# 1 152.0098 28.5125 61.7183 0.0000 0.0000 0.0000
# 2 28.5125 70.1349 23.4309 0.0000 0.0000 0.0000
# 3 61.7183 23.4309 88.8411 0.0000 0.0000 0.0000
# 4 0.0000 0.0000 0.0000 19.7430 0.0000 0.0000
# 5 0.0000 0.0000 0.0000 0.0000 -13.2914 0.0000
# 6 0.0000 0.0000 0.0000 0.0000 0.0000 38.4475
#
#
#
# Elastic Compliance Matrix: (Units=1/GPa)
#
#
# Indices 1 2 3 4 5 6 
#
# 1 0.009364 -0.001791 -0.006033 0.000000 0.000000 0.000000
# 2 -0.001791 0.015979 -0.002970 0.000000 0.000000 0.000000
# 3 -0.006033 -0.002970 0.016230 0.000000 0.000000 0.000000
# 4 0.000000 0.000000 0.000000 0.050651 0.000000 0.000000
# 5 0.000000 0.000000 0.000000 0.000000 -0.075237 0.000000
# 6 0.000000 0.000000 0.000000 0.000000 0.000000 0.026010
#
#
# Mechanical properties :
#
#
# Convention : Reuss Voigt Hill
#
# Bulk Modulus (GPa) = 50.03704 59.81214 54.92459
# Shear Modulus (GPa) = 70.17977 22.13476 46.15726
#
# Velocity S-wave (km/s) = 5.90823 3.31810 4.79150
# Velocity P-wave (km/s) = 8.45170 6.66559 7.61122
#
# Compressibility (1/GPa) = 0.01998520
#
# Stress axis : x y z
#
# Youngs Moduli (GPa) = 106.79319 62.58359 61.61344
#
# Poissons Ratio (x) = 0.11211 0.37169
# Poissons Ratio (y) = 0.19131 0.18297
# Poissons Ratio (z) = 0.64425 0.18586
#
# Static dielectric constant tensor:
#      x y z
#    x 4.044980 0.000000 0.000000 
#    y 0.000000 3.550610 0.000000 
#    z 0.000000 0.000000 3.719300 
# 
# 
# High freq. dielectric constant tensor:
#      x y z
#    x 1.794930 0.000000 0.000000 
#    y 0.000000 1.781520 0.000000 
#    z 0.000000 0.000000 1.772730 
# 
# From -- ./inp_files/10619.got.cif
#   From: 2010.03.12/outbox.cif.g09.slc.cpg/sg39_6_cif.got.tgz:10619.got - 2010.04.14 02:53:20.
