data_PCOD8180063
_publ_section_title
;
Structure prediction by ZEFSAII (Michael W. Deem and Ramdas Pophale) SiO2 
 PCOD8180063
Probable space group: A M M 2
;
_chemical_formula_sum "Si O2"
_cell_formula_units_Z 64
_cell_length_a 20.156143
_cell_length_b 8.888964
_cell_length_c 18.619375
_cell_angle_alpha 90.000000
_cell_angle_beta 90.000000
_cell_angle_gamma 90.000000
_cell_volume 3335.981834
_symmetry_space_group_name_H-M "A M M 2"
_symmetry_group_IT_number 38
_symmetry_cell_setting 'orthorhombic'
loop_
_space_group_symop_operation_xyz
x,y,z
-x,-y,z
-x,y,z
x,-y,z
x,1/2+y,1/2+z
-x,1/2-y,1/2+z
-x,1/2+y,1/2+z
x,1/2-y,1/2+z
loop_
_atom_site_type_symbol
_atom_site_label
_atom_site_fract_x
_atom_site_fract_y
_atom_site_fract_z
Si Si1 0.927054 0.821003 0.022030
Si Si2 0.806867 0.178619 0.114684
Si Si3 0.423340 0.174543 0.621640
Si Si4 0.923246 0.173631 0.859464
Si Si5 0.423341 0.176597 0.269429
Si Si6 0.808215 0.822247 0.277715
Si Si7 0.312996 0.176192 0.860396
Si Si8 0.319847 0.175966 0.026697
O O1 0.872459 0.753511 0.076250
O O2 0.000000 0.759406 0.044063
O O3 0.928007 0.000000 0.024665
O O4 0.909966 0.771948 0.940830
O O5 0.803379 0.236268 0.196028
O O6 0.742661 0.236153 0.071988
O O7 0.810564 0.000000 0.111375
O O8 0.500000 0.207117 0.606058
O O9 0.399182 0.261845 0.692614
O O10 0.384367 0.234693 0.552707
O O11 0.409042 0.000000 0.633995
O O12 0.879999 0.276944 0.807357
O O13 0.000000 0.195962 0.838763
O O14 0.902040 0.000000 0.850264
O O15 0.500000 0.218269 0.283264
O O16 0.380872 0.251896 0.331980
O O17 0.410780 0.000000 0.270129
O O18 0.750721 0.744698 0.322520
O O19 0.798935 0.000000 0.282051
O O20 0.314907 0.000000 0.845410
O O21 0.307006 0.213674 0.944092
O O22 0.332058 0.000000 0.039084
#
# Coordination Sequence:
#
# PCOD8180063 Si02
#       8
#     8   8   8   8   8   8   8   8
#     4   8  14  28  52  77 100 132 175 218 259 310
#     4   9  18  32  50  75 105 135 173 221 269 319
#     4  10  21  37  58  84 113 144 180 224 273 328
#     4   9  18  34  56  79 105 141 182 223 271 330
#     4  10  21  38  60  84 113 149 185 224 273 328
#     4  11  22  34  53  81 111 143 179 225 282 338
#     4  11  23  38  58  82 109 145 189 234 279 332
#     4  10  21  37  57  79 106 143 185 230 278 329
#
# _framework density 19.184757000000001
#
# number of rings (size 3 to 8) (size 9 to 14) (size 15 to 20)
#    0.000    2.250    0.000    3.750    0.000    6.750 
#    0.000    4.375    0.000    1.500    0.000    0.000 
#    0.000    0.000    0.000    0.000    0.000    0.000 
#
# Total GULP energy -396887.523896 kJ/mol
# GULP energy per Si atom -12402.735122 kJ/mol
# Density = 1.914109 g / cm^3
# Si number density = 19.184757 Si / 1000 Ang^3
#
#
#
# Elastic Constant Matrix: (Units=GPa)
#
#
# Indices 1 2 3 4 5 6 
#
# 1 121.5702 45.6028 83.9643 0.0000 0.0000 0.0000
# 2 45.6028 63.0872 52.5182 0.0000 0.0000 0.0000
# 3 83.9643 52.5182 144.9348 0.0000 0.0000 0.0000
# 4 0.0000 0.0000 0.0000 29.2234 0.0000 0.0000
# 5 0.0000 0.0000 0.0000 0.0000 41.3735 0.0000
# 6 0.0000 0.0000 0.0000 0.0000 0.0000 28.0137
#
#
#
# Elastic Compliance Matrix: (Units=1/GPa)
#
#
# Indices 1 2 3 4 5 6 
#
# 1 0.014771 -0.005089 -0.006713 0.000000 0.000000 0.000000
# 2 -0.005089 0.024451 -0.005912 0.000000 0.000000 0.000000
# 3 -0.006713 -0.005912 0.012931 0.000000 0.000000 0.000000
# 4 0.000000 0.000000 0.000000 0.034219 0.000000 0.000000
# 5 0.000000 0.000000 0.000000 0.000000 0.024170 0.000000
# 6 0.000000 0.000000 0.000000 0.000000 0.000000 0.035697
#
#
# Mechanical properties :
#
#
# Convention : Reuss Voigt Hill
#
# Bulk Modulus (GPa) = 59.79009 77.08476 68.43743
# Shear Modulus (GPa) = 26.70327 29.55590 28.12958
#
# Velocity S-wave (km/s) = 3.73487 3.92930 3.83331
# Velocity P-wave (km/s) = 7.05918 7.80085 7.43926
#
# Compressibility (1/GPa) = 0.01672518
#
# Stress axis : x y z
#
# Youngs Moduli (GPa) = 67.69889 40.89802 77.33255
#
# Poissons Ratio (x) = 0.20812 0.51917
# Poissons Ratio (y) = 0.34450 0.45719
# Poissons Ratio (z) = 0.45449 0.24179
#
# Static dielectric constant tensor:
#      x y z
#    x 3.705950 0.000000 0.000000 
#    y 0.000000 3.267860 0.000000 
#    z 0.000000 0.000000 3.597720 
# 
# 
# High freq. dielectric constant tensor:
#      x y z
#    x 1.760290 0.000000 0.000000 
#    y 0.000000 1.723460 0.000000 
#    z 0.000000 0.000000 1.749890 
# 
# From -- ./inp_files/18975.got.cif
#   From: 2010.03.12/outbox.cif.g09.slc.cpg/sg38_10_cif.got.tgz:18975.got - 2010.04.14 02:38:36.
