data_PCOD8180539
_publ_section_title
;
Structure prediction by ZEFSAII (Michael W. Deem and Ramdas Pophale) SiO2 
 PCOD8180539
Probable space group: A M M 2
;
_chemical_formula_sum "Si O2"
_cell_formula_units_Z 64
_cell_length_a 9.330125
_cell_length_b 21.402468
_cell_length_c 21.877911
_cell_angle_alpha 90.000000
_cell_angle_beta 90.000000
_cell_angle_gamma 90.000000
_cell_volume 4368.749767
_symmetry_space_group_name_H-M "A M M 2"
_symmetry_group_IT_number 38
_symmetry_cell_setting 'orthorhombic'
loop_
_space_group_symop_operation_xyz
x,y,z
-x,-y,z
-x,y,z
x,-y,z
x,1/2+y,1/2+z
-x,1/2-y,1/2+z
-x,1/2+y,1/2+z
x,1/2-y,1/2+z
loop_
_atom_site_type_symbol
_atom_site_label
_atom_site_fract_x
_atom_site_fract_y
_atom_site_fract_z
Si Si1 0.832316 0.172798 0.407690
Si Si2 0.336683 0.831503 0.094275
Si Si3 0.662426 0.151339 0.595093
Si Si4 0.166807 0.571784 0.006645
Si Si5 0.833776 0.762488 0.672681
Si Si6 0.665019 0.930197 0.186858
Si Si7 0.167140 0.334450 0.769969
Si Si8 0.342446 0.746022 0.489374
O O1 0.786467 0.112313 0.447404
O O2 0.773925 0.165643 0.339141
O O3 0.768725 0.236278 0.436804
O O4 0.000000 0.182564 0.407116
O O5 0.500000 0.807674 0.110072
O O6 0.214670 0.792888 0.128452
O O7 0.320013 0.902678 0.117625
O O8 0.312483 0.822163 0.020786
O O9 0.500000 0.131940 0.611201
O O10 0.744388 0.091759 0.566661
O O11 0.741558 0.175149 0.657308
O O12 0.668943 0.206406 0.545955
O O13 0.200853 0.500000 0.991176
O O14 0.000000 0.582483 0.021153
O O15 0.807492 0.734895 0.741010
O O16 0.000000 0.778068 0.661208
O O17 0.500000 0.930572 0.207258
O O18 0.749048 0.888564 0.235234
O O19 0.728866 0.000000 0.186393
O O20 0.000000 0.351893 0.767355
O O21 0.500000 0.748476 0.459609
#
# Coordination Sequence:
#
# PCOD8180539 Si02
#       8
#     8   8   8   8   8   8   8   8
#     4   9  17  28  40  55  77 105 135 164 193 227
#     4   8  14  25  39  55  76  98 122 157 199 237
#     4   9  16  26  40  57  76  98 125 160 203 241
#     4   9  17  28  41  57  78 106 138 167 193 225
#     4   9  15  24  39  57  75  96 125 160 197 236
#     4   9  17  28  41  57  78 106 137 164 190 224
#     4   9  18  29  40  56  79 107 135 163 196 229
#     4   8  14  24  38  55  73  95 123 158 199 236
#
# _framework density 14.6495
#
# number of rings (size 3 to 8) (size 9 to 14) (size 15 to 20)
#    0.000    3.250    0.000    1.500    0.000    5.000 
#    0.000    1.250    0.000    0.000    0.000    0.000 
#    0.000    1.000    0.000    6.750    0.000    3.000 
#
# Total GULP energy -396445.977640 kJ/mol
# GULP energy per Si atom -12388.936801 kJ/mol
# Density = 1.461616 g / cm^3
# Si number density = 14.649500 Si / 1000 Ang^3
#
#
#
# Elastic Constant Matrix: (Units=GPa)
#
#
# Indices 1 2 3 4 5 6 
#
# 1 58.0749 33.7125 40.1189 0.0000 0.0000 0.0000
# 2 33.7125 57.9117 65.1729 0.0000 0.0000 0.0000
# 3 40.1189 65.1729 81.6743 0.0000 0.0000 0.0000
# 4 0.0000 0.0000 0.0000 17.2771 0.0000 0.0000
# 5 0.0000 0.0000 0.0000 0.0000 17.8248 0.0000
# 6 0.0000 0.0000 0.0000 0.0000 0.0000 18.1681
#
#
#
# Elastic Compliance Matrix: (Units=1/GPa)
#
#
# Indices 1 2 3 4 5 6 
#
# 1 0.026400 -0.007595 -0.006907 0.000000 0.000000 0.000000
# 2 -0.007595 0.171495 -0.133116 0.000000 0.000000 0.000000
# 3 -0.006907 -0.133116 0.121858 0.000000 0.000000 0.000000
# 4 0.000000 0.000000 0.000000 0.057880 0.000000 0.000000
# 5 0.000000 0.000000 0.000000 0.000000 0.056102 0.000000
# 6 0.000000 0.000000 0.000000 0.000000 0.000000 0.055042
#
#
# Mechanical properties :
#
#
# Convention : Reuss Voigt Hill
#
# Bulk Modulus (GPa) = 40.78832 52.85218 46.82025
# Shear Modulus (GPa) = 6.31166 14.56441 10.43804
#
# Velocity S-wave (km/s) = 2.07793 3.15650 2.67220
# Velocity P-wave (km/s) = 5.80175 7.03141 6.44597
#
# Compressibility (1/GPa) = 0.02451682
#
# Stress axis : x y z
#
# Youngs Moduli (GPa) = 37.87939 5.83107 8.20630
#
# Poissons Ratio (x) = 0.04429 0.05668
# Poissons Ratio (y) = 0.28769 1.09239
# Poissons Ratio (z) = 0.26164 0.77621
#
# Static dielectric constant tensor:
#      x y z
#    x 2.914890 0.000000 0.000000 
#    y 0.000000 2.824320 0.000000 
#    z 0.000000 0.000000 2.906440 
# 
# 
# High freq. dielectric constant tensor:
#      x y z
#    x 1.568140 0.000000 0.000000 
#    y 0.000000 1.530530 0.000000 
#    z 0.000000 0.000000 1.534770 
# 
# From -- ./inp_files/20210.got.cif
#   From: 2010.03.12/outbox.cif.g09.slc.cpg/sg38_11_cif.got.tgz:20210.got - 2010.04.14 02:38:36.
