data_PCOD8180518
_publ_section_title
;
Structure prediction by ZEFSAII (Michael W. Deem and Ramdas Pophale) SiO2 
 PCOD8180518
Probable space group: A M M 2
;
_chemical_formula_sum "Si O2"
_cell_formula_units_Z 64
_cell_length_a 24.254143
_cell_length_b 19.649827
_cell_length_c 7.676725
_cell_angle_alpha 90.000000
_cell_angle_beta 90.000000
_cell_angle_gamma 90.000000
_cell_volume 3658.648172
_symmetry_space_group_name_H-M "A M M 2"
_symmetry_group_IT_number 38
_symmetry_cell_setting 'orthorhombic'
loop_
_space_group_symop_operation_xyz
x,y,z
-x,-y,z
-x,y,z
x,-y,z
x,1/2+y,1/2+z
-x,1/2-y,1/2+z
-x,1/2+y,1/2+z
x,1/2-y,1/2+z
loop_
_atom_site_type_symbol
_atom_site_label
_atom_site_fract_x
_atom_site_fract_y
_atom_site_fract_z
Si Si1 0.060843 0.675197 0.308490
Si Si2 0.438405 0.419080 0.705734
Si Si3 0.842345 0.420465 0.310870
Si Si4 0.438405 0.919080 0.818815
Si Si5 0.637544 0.581488 0.012274
Si Si6 0.939157 0.175197 0.216060
Si Si7 0.239362 0.080276 0.512275
Si Si8 0.842345 0.579535 0.713679
O O1 0.103795 0.619099 0.240418
O O2 0.083491 0.750000 0.262275
O O3 0.055345 0.666781 0.512275
O O4 0.000000 0.664120 0.222908
O O5 0.500000 0.393422 0.754046
O O6 0.437947 0.500000 0.711422
O O7 0.422006 0.393669 0.512274
O O8 0.394221 0.389959 0.842541
O O9 0.854940 0.500000 0.288352
O O10 0.791882 0.396659 0.188581
O O11 0.828024 0.402724 0.512275
O O12 0.500000 0.893422 0.770503
O O13 0.394221 0.889959 0.682008
O O14 0.437947 0.000000 0.813127
O O15 0.638228 0.500000 0.012274
O O16 0.699338 0.612008 0.012275
O O17 0.896205 0.119099 0.284132
O O18 0.000000 0.164120 0.301642
O O19 0.208119 0.103340 0.335968
O O20 0.244666 0.000000 0.512276
O O21 0.854940 0.500000 0.736197
#
# Coordination Sequence:
#
# PCOD8180518 Si02
#       8
#     8   8   8   8   8   8   8   8
#     4   9  18  31  48  70  91 112 140 179 226 270
#     4   8  13  20  30  46  69  98 134 176 218 254
#     4   9  18  32  47  63  87 117 147 182 221 264
#     4   8  13  20  30  46  69  98 134 176 218 254
#     4   9  15  22  33  49  70  99 139 182 215 247
#     4   9  18  31  48  70  91 112 140 179 226 270
#     4   9  18  29  41  59  81 112 152 185 217 257
#     4   9  18  32  47  63  87 117 147 182 221 264
#
# _framework density 17.492799999999999
#
# number of rings (size 3 to 8) (size 9 to 14) (size 15 to 20)
#    0.000    3.250    0.000    1.125    1.750    3.000 
#    0.000    7.500    0.000    2.250    0.000    0.000 
#    0.000    0.000    0.000    0.000    0.000    5.000 
#
# Total GULP energy -396568.312748 kJ/mol
# GULP energy per Si atom -12392.759773 kJ/mol
# Density = 1.745299 g / cm^3
# Si number density = 17.492800 Si / 1000 Ang^3
#
#
#
# Elastic Constant Matrix: (Units=GPa)
#
#
# Indices 1 2 3 4 5 6 
#
# 1 163.7489 40.1658 83.6315 0.0000 0.0000 0.0000
# 2 40.1658 31.9757 22.6789 0.0000 0.0000 0.0000
# 3 83.6315 22.6789 106.3754 0.0000 0.0000 0.0000
# 4 0.0000 0.0000 0.0000 12.3567 0.0000 0.0000
# 5 0.0000 0.0000 0.0000 0.0000 22.6254 0.0000
# 6 0.0000 0.0000 0.0000 0.0000 0.0000 3.3757
#
#
#
# Elastic Compliance Matrix: (Units=1/GPa)
#
#
# Indices 1 2 3 4 5 6 
#
# 1 0.012560 -0.010337 -0.007671 0.000000 0.000000 0.000000
# 2 -0.010337 0.045352 -0.001542 0.000000 0.000000 0.000000
# 3 -0.007671 -0.001542 0.015760 0.000000 0.000000 0.000000
# 4 0.000000 0.000000 0.000000 0.080928 0.000000 0.000000
# 5 0.000000 0.000000 0.000000 0.000000 0.044198 0.000000
# 6 0.000000 0.000000 0.000000 0.000000 0.000000 0.296236
#
#
# Mechanical properties :
#
#
# Convention : Reuss Voigt Hill
#
# Bulk Modulus (GPa) = 28.92467 66.11694 47.52080
# Shear Modulus (GPa) = 9.16324 18.04648 13.60486
#
# Velocity S-wave (km/s) = 2.29121 3.21542 2.79183
# Velocity P-wave (km/s) = 4.85496 7.18776 6.13329
#
# Compressibility (1/GPa) = 0.03457256
#
# Stress axis : x y z
#
# Youngs Moduli (GPa) = 79.61690 22.04981 63.45048
#
# Poissons Ratio (x) = 0.22792 0.48673
# Poissons Ratio (y) = 0.82297 0.09786
# Poissons Ratio (z) = 0.61074 0.03401
#
# Static dielectric constant tensor:
#      x y z
#    x 3.662530 0.000000 0.000000 
#    y 0.000000 3.036110 0.000000 
#    z 0.000000 0.000000 3.460360 
# 
# 
# High freq. dielectric constant tensor:
#      x y z
#    x 1.675780 0.000000 0.000000 
#    y 0.000000 1.606110 0.000000 
#    z 0.000000 0.000000 1.687280 
# 
# From -- ./inp_files/6865.got.cif
#   From: 2010.03.12/outbox.cif.g09.slc.cpg/sg38_4_cif.got.tgz:6865.got - 2010.04.14 02:38:36.
