data_PCOD8180643
_publ_section_title
;
Structure prediction by ZEFSAII (Michael W. Deem and Ramdas Pophale) SiO2 
 PCOD8180643
Probable space group: A B M 2
;
_chemical_formula_sum "Si O2"
_cell_formula_units_Z 64
_cell_length_a 21.099059
_cell_length_b 8.716139
_cell_length_c 18.552380
_cell_angle_alpha 90.000000
_cell_angle_beta 90.000000
_cell_angle_gamma 90.000000
_cell_volume 3411.825928
_symmetry_space_group_name_H-M "A B M 2"
_symmetry_group_IT_number 39
_symmetry_cell_setting 'orthorhombic'
loop_
_space_group_symop_operation_xyz
x,y,z
-x,-y,z
-x,1/2+y,z
x,1/2-y,z
x,1/2+y,1/2+z
-x,1/2-y,1/2+z
-x,y,1/2+z
x,-y,1/2+z
loop_
_atom_site_type_symbol
_atom_site_label
_atom_site_fract_x
_atom_site_fract_y
_atom_site_fract_z
Si Si1 0.192767 0.930260 0.039510
Si Si2 0.321599 0.068826 0.380050
Si Si3 0.320943 0.431419 0.037921
Si Si4 0.195915 0.067421 0.882912
Si Si5 0.566054 0.073794 0.124190
Si Si6 0.935993 0.075683 0.540942
Si Si7 0.061412 0.920347 0.368883
Si Si8 0.434254 0.073887 0.794415
O O1 0.195766 0.750000 0.052466
O O2 0.255273 0.008359 0.074472
O O3 0.126639 0.992683 0.072732
O O4 0.196032 0.970987 0.955895
O O5 0.311806 0.250000 0.381852
O O6 0.332924 0.007165 0.460330
O O7 0.259645 0.987433 0.342753
O O8 0.380230 0.026571 0.330629
O O9 0.317354 0.250000 0.028327
O O10 0.377926 0.476309 0.089771
O O11 0.196297 0.250000 0.899295
O O12 0.130723 0.022939 0.840122
O O13 0.568728 0.250000 0.098194
O O14 0.573742 0.061327 0.209339
O O15 0.500000 0.000000 0.098630
O O16 0.934192 0.250000 0.566788
O O17 0.936587 0.062037 0.454816
O O18 0.000000 0.000000 0.572509
O O19 0.051274 0.750000 0.343172
O O20 0.000000 0.000000 0.334545
O O21 0.430966 0.250000 0.820458
O O22 0.500000 0.000000 0.819883
#
# Coordination Sequence:
#
# PCOD8180643 Si02
#       8
#     8   8   8   8   8   8   8   8
#     4  10  17  26  40  60  88 122 159 199 244 291
#     4  11  21  33  51  75 102 132 168 206 247 295
#     4  11  21  34  52  74 102 134 168 206 249 295
#     4   9  16  27  40  58  87 122 159 198 243 289
#     4  10  21  38  58  79 102 129 162 200 245 295
#     4   9  15  23  34  52  79 115 157 197 239 287
#     4   8  14  21  32  50  76 112 152 192 232 280
#     4  10  21  38  58  78 102 130 161 200 245 294
#
# _framework density 18.758285000000001
#
# number of rings (size 3 to 8) (size 9 to 14) (size 15 to 20)
#    0.000    2.250    0.000    7.125    0.000    5.500 
#    0.000    2.500    0.000    0.000    0.000    0.000 
#    0.000    1.000    0.000    5.250    0.000   13.250 
#
# Total GULP energy -396570.717257 kJ/mol
# GULP energy per Si atom -12392.834914 kJ/mol
# Density = 1.871559 g / cm^3
# Si number density = 18.758285 Si / 1000 Ang^3
#
#
#
# Elastic Constant Matrix: (Units=GPa)
#
#
# Indices 1 2 3 4 5 6 
#
# 1 200.5067 66.1452 25.2747 0.0000 0.0000 0.0000
# 2 66.1452 131.1163 15.0105 0.0000 0.0000 0.0000
# 3 25.2747 15.0105 11.4796 0.0000 0.0000 0.0000
# 4 0.0000 0.0000 0.0000 16.4417 0.0000 0.0000
# 5 0.0000 0.0000 0.0000 0.0000 -5.6565 0.0000
# 6 0.0000 0.0000 0.0000 0.0000 0.0000 41.4509
#
#
#
# Elastic Compliance Matrix: (Units=1/GPa)
#
#
# Indices 1 2 3 4 5 6 
#
# 1 0.007406 -0.002198 -0.013430 0.000000 0.000000 0.000000
# 2 -0.002198 0.009622 -0.007742 0.000000 0.000000 0.000000
# 3 -0.013430 -0.007742 0.126804 0.000000 0.000000 0.000000
# 4 0.000000 0.000000 0.000000 0.060821 0.000000 0.000000
# 5 0.000000 0.000000 0.000000 0.000000 -0.176788 0.000000
# 6 0.000000 0.000000 0.000000 0.000000 0.000000 0.024125
#
#
# Mechanical properties :
#
#
# Convention : Reuss Voigt Hill
#
# Bulk Modulus (GPa) = 10.29962 61.77371 36.03667
# Shear Modulus (GPa) = 38.14084 26.22535 32.18309
#
# Velocity S-wave (km/s) = 4.51408 3.74313 4.14656
# Velocity P-wave (km/s) = 5.71593 7.18918 6.49447
#
# Compressibility (1/GPa) = 0.09709094
#
# Stress axis : x y z
#
# Youngs Moduli (GPa) = 135.03411 103.92711 7.88621
#
# Poissons Ratio (x) = 0.22847 0.10591
# Poissons Ratio (y) = 0.29686 0.06105
# Poissons Ratio (z) = 1.81355 0.80455
#
# Static dielectric constant tensor:
#      x y z
#    x 4.251190 0.000000 0.000000 
#    y 0.000000 3.582990 0.000000 
#    z 0.000000 0.000000 2.745240 
# 
# 
# High freq. dielectric constant tensor:
#      x y z
#    x 1.763260 0.000000 0.000000 
#    y 0.000000 1.745200 0.000000 
#    z 0.000000 0.000000 1.646680 
# 
# From -- ./inp_files/15079.got.cif
#   From: 2010.03.12/outbox.cif.g09.slc.cpg/sg39_8_cif.got.tgz:15079.got - 2010.04.14 02:53:20.
