data_PCOD8180328
_publ_section_title
;
Structure prediction by ZEFSAII (Michael W. Deem and Ramdas Pophale) SiO2 
 PCOD8180328
Probable space group: A M M 2
;
_chemical_formula_sum "Si O2"
_cell_formula_units_Z 32
_cell_length_a 15.862186
_cell_length_b 7.915063
_cell_length_c 13.770646
_cell_angle_alpha 90.000000
_cell_angle_beta 90.000000
_cell_angle_gamma 90.000000
_cell_volume 1728.907380
_symmetry_space_group_name_H-M "A M M 2"
_symmetry_group_IT_number 38
_symmetry_cell_setting 'orthorhombic'
loop_
_space_group_symop_operation_xyz
x,y,z
-x,-y,z
-x,y,z
x,-y,z
x,1/2+y,1/2+z
-x,1/2-y,1/2+z
-x,1/2+y,1/2+z
x,1/2-y,1/2+z
loop_
_atom_site_type_symbol
_atom_site_label
_atom_site_fract_x
_atom_site_fract_y
_atom_site_fract_z
Si Si1 0.674989 0.682911 0.789350
Si Si2 0.599864 0.000000 0.677101
Si Si3 0.599804 0.500000 0.954556
Si Si4 0.000000 0.309033 0.443911
Si Si5 0.859924 0.695928 0.307688
Si Si6 0.000000 0.808941 0.652348
O O1 0.658356 0.500000 0.736961
O O2 0.634015 0.832801 0.728814
O O3 0.634493 0.668014 0.898220
O O4 0.774718 0.700945 0.799855
O O5 0.631650 0.000000 0.565814
O O6 0.500000 0.000000 0.683859
O O7 0.500000 0.500000 0.951030
O O8 0.085964 0.230751 0.399138
O O9 0.000000 0.309887 0.559052
O O10 0.000000 0.500000 0.402448
O O11 0.835882 0.500000 0.320014
O O12 0.915689 0.728162 0.212160
O O13 0.000000 0.000000 0.613931
#
# Coordination Sequence:
#
# PCOD8180328 Si02
#       6
#     8   4   4   4   8   4
#     4  10  22  39  63  91 122 160 202 251 299 365
#     4  11  22  42  67  88 125 164 191 254 314 353
#     4   9  22  42  61  92 123 150 205 248 292 375
#     4   9  19  33  54  78 114 157 195 241 293 350
#     4   9  18  37  54  78 119 156 193 245 298 347
#     4   9  19  33  54  78 112 155 195 243 293 346
#
# _framework density 18.508799
#
# number of rings (size 3 to 8) (size 9 to 14) (size 15 to 20)
#    0.750    1.750    1.250    2.250    0.000    4.000 
#    2.250    5.000    0.000    0.000    0.000    0.000 
#    0.000    0.000    0.000    0.000    0.000    0.000 
#
# Total GULP energy -198254.441706 kJ/mol
# GULP energy per Si atom -12390.902607 kJ/mol
# Density = 1.846667 g / cm^3
# Si number density = 18.508799 Si / 1000 Ang^3
#
#
#
# Elastic Constant Matrix: (Units=GPa)
#
#
# Indices 1 2 3 4 5 6 
#
# 1 115.6802 44.6402 54.8544 0.0000 0.0000 0.0000
# 2 44.6402 106.5364 54.8111 0.0000 0.0000 0.0000
# 3 54.8544 54.8111 142.5639 0.0000 0.0000 0.0000
# 4 0.0000 0.0000 0.0000 30.1831 0.0000 0.0000
# 5 0.0000 0.0000 0.0000 0.0000 13.9680 0.0000
# 6 0.0000 0.0000 0.0000 0.0000 0.0000 23.1950
#
#
#
# Elastic Compliance Matrix: (Units=1/GPa)
#
#
# Indices 1 2 3 4 5 6 
#
# 1 0.011353 -0.003128 -0.003165 0.000000 0.000000 0.000000
# 2 -0.003128 0.012563 -0.003626 0.000000 0.000000 0.000000
# 3 -0.003165 -0.003626 0.009627 0.000000 0.000000 0.000000
# 4 0.000000 0.000000 0.000000 0.033131 0.000000 0.000000
# 5 0.000000 0.000000 0.000000 0.000000 0.071592 0.000000
# 6 0.000000 0.000000 0.000000 0.000000 0.000000 0.043113
#
#
# Mechanical properties :
#
#
# Convention : Reuss Voigt Hill
#
# Bulk Modulus (GPa) = 72.98219 74.82132 73.90176
# Shear Modulus (GPa) = 24.29709 27.50089 25.89899
#
# Velocity S-wave (km/s) = 3.62709 3.85883 3.74475
# Velocity P-wave (km/s) = 7.55366 7.76959 7.66239
#
# Compressibility (1/GPa) = 0.01370197
#
# Stress axis : x y z
#
# Youngs Moduli (GPa) = 88.08419 79.59890 103.87910
#
# Poissons Ratio (x) = 0.24902 0.32882
# Poissons Ratio (y) = 0.27556 0.37670
# Poissons Ratio (z) = 0.27883 0.28865
#
# Static dielectric constant tensor:
#      x y z
#    x 3.489380 0.000000 0.000000 
#    y 0.000000 3.279620 0.000000 
#    z 0.000000 0.000000 3.304230 
# 
# 
# High freq. dielectric constant tensor:
#      x y z
#    x 1.729590 0.000000 0.000000 
#    y 0.000000 1.709070 0.000000 
#    z 0.000000 0.000000 1.707310 
# 
# From -- ./inp_files/9818.got.cif
#   From: 2010.03.12/outbox.cif.g09.slc.cpg/sg38_5_cif.got.tgz:9818.got - 2010.04.14 02:38:36.
