data_PCOD8180348
_publ_section_title
;
Structure prediction by ZEFSAII (Michael W. Deem and Ramdas Pophale) SiO2 
 PCOD8180348
Probable space group: A M M 2
;
_chemical_formula_sum "Si O2"
_cell_formula_units_Z 48
_cell_length_a 7.643872
_cell_length_b 29.240994
_cell_length_c 9.716129
_cell_angle_alpha 90.000000
_cell_angle_beta 90.000000
_cell_angle_gamma 90.000000
_cell_volume 2171.694892
_symmetry_space_group_name_H-M "A M M 2"
_symmetry_group_IT_number 38
_symmetry_cell_setting 'orthorhombic'
loop_
_space_group_symop_operation_xyz
x,y,z
-x,-y,z
-x,y,z
x,-y,z
x,1/2+y,1/2+z
-x,1/2-y,1/2+z
-x,1/2+y,1/2+z
x,1/2-y,1/2+z
loop_
_atom_site_type_symbol
_atom_site_label
_atom_site_fract_x
_atom_site_fract_y
_atom_site_fract_z
Si Si1 0.790786 0.214311 0.556850
Si Si2 0.793861 0.203672 0.246382
Si Si3 0.500000 0.053682 0.416367
Si Si4 0.800970 0.448290 0.113243
Si Si5 0.799735 0.359759 0.262539
Si Si6 0.794381 0.378431 0.558443
Si Si7 0.500000 0.054481 0.110279
O O1 0.714774 0.211000 0.400317
O O2 0.721826 0.259377 0.636466
O O3 0.709581 0.172190 0.647152
O O4 0.000000 0.213647 0.547122
O O5 0.745503 0.153261 0.188851
O O6 0.000000 0.209473 0.254104
O O7 0.322786 0.069353 0.491331
O O8 0.500000 0.073126 0.265158
O O9 0.500000 0.000000 0.406560
O O10 0.755263 0.500000 0.161683
O O11 0.000000 0.445165 0.058877
O O12 0.766487 0.413947 0.239046
O O13 0.745728 0.349605 0.419887
O O14 0.000000 0.347050 0.245057
O O15 0.678887 0.424436 0.550150
O O16 0.000000 0.392252 0.558413
O O17 0.500000 0.000000 0.088674
#
# Coordination Sequence:
#
# PCOD8180348 Si02
#       7
#     8   8   4   8   8   8   4
#     4   9  16  28  52  88 125 159 204 251 297 360
#     4   9  17  30  54  87 122 162 203 248 301 358
#     4   9  20  37  55  80 112 147 189 239 296 352
#     4   9  18  33  55  82 114 152 196 247 298 351
#     4   9  18  32  54  87 121 156 202 250 298 357
#     4  10  22  40  62  88 122 162 203 250 304 360
#     4  11  26  43  61  88 122 159 203 253 303 364
#
# _framework density 22.102554999999999
#
# number of rings (size 3 to 8) (size 9 to 14) (size 15 to 20)
#    0.000    2.667    0.000    1.000    2.333    6.333 
#    0.000    4.167    0.000    5.000    0.000    0.000 
#    0.000    0.000    0.000    0.000    0.000    0.000 
#
# Total GULP energy -297335.368650 kJ/mol
# GULP energy per Si atom -12388.973694 kJ/mol
# Density = 2.205225 g / cm^3
# Si number density = 22.102555 Si / 1000 Ang^3
#
#
#
# Elastic Constant Matrix: (Units=GPa)
#
#
# Indices 1 2 3 4 5 6 
#
# 1 66.0076 36.1042 24.3274 0.0000 0.0000 0.0000
# 2 36.1042 126.3223 63.5455 0.0000 0.0000 0.0000
# 3 24.3274 63.5455 157.3830 0.0000 0.0000 0.0000
# 4 0.0000 0.0000 0.0000 29.6417 0.0000 0.0000
# 5 0.0000 0.0000 0.0000 0.0000 21.8453 0.0000
# 6 0.0000 0.0000 0.0000 0.0000 0.0000 12.4499
#
#
#
# Elastic Compliance Matrix: (Units=1/GPa)
#
#
# Indices 1 2 3 4 5 6 
#
# 1 0.018055 -0.004714 -0.000888 0.000000 0.000000 0.000000
# 2 -0.004714 0.011165 -0.003779 0.000000 0.000000 0.000000
# 3 -0.000888 -0.003779 0.008017 0.000000 0.000000 0.000000
# 4 0.000000 0.000000 0.000000 0.033736 0.000000 0.000000
# 5 0.000000 0.000000 0.000000 0.000000 0.045776 0.000000
# 6 0.000000 0.000000 0.000000 0.000000 0.000000 0.080322
#
#
# Mechanical properties :
#
#
# Convention : Reuss Voigt Hill
#
# Bulk Modulus (GPa) = 54.12563 66.40747 60.26655
# Shear Modulus (GPa) = 22.52337 27.83643 25.17990
#
# Velocity S-wave (km/s) = 3.19570 3.55268 3.37891
# Velocity P-wave (km/s) = 6.17724 6.85121 6.52294
#
# Compressibility (1/GPa) = 0.01847554
#
# Stress axis : x y z
#
# Youngs Moduli (GPa) = 55.38554 89.56840 124.73428
#
# Poissons Ratio (x) = 0.42221 0.11071
# Poissons Ratio (y) = 0.26108 0.47140
# Poissons Ratio (z) = 0.04916 0.33850
#
# Static dielectric constant tensor:
#      x y z
#    x 2.918700 0.000000 0.000000 
#    y 0.000000 3.871800 0.000000 
#    z 0.000000 0.000000 4.347060 
# 
# 
# High freq. dielectric constant tensor:
#      x y z
#    x 1.836950 0.000000 0.000000 
#    y 0.000000 1.865450 0.000000 
#    z 0.000000 0.000000 1.874240 
# 
# From -- ./inp_files/3835.got.cif
#   From: 2010.03.12/outbox.cif.g09.slc.cpg/sg38_2_cif.got.tgz:3835.got - 2010.04.14 02:38:36.
