data_PCOD8180910
_publ_section_title
;
Structure prediction by ZEFSAII (Michael W. Deem and Ramdas Pophale) SiO2 
 PCOD8180910
Probable space group: A B M 2
;
_chemical_formula_sum "Si O2"
_cell_formula_units_Z 64
_cell_length_a 14.344709
_cell_length_b 8.852323
_cell_length_c 31.323484
_cell_angle_alpha 90.000000
_cell_angle_beta 90.000000
_cell_angle_gamma 90.000000
_cell_volume 3977.581211
_symmetry_space_group_name_H-M "A B M 2"
_symmetry_group_IT_number 39
_symmetry_cell_setting 'orthorhombic'
loop_
_space_group_symop_operation_xyz
x,y,z
-x,-y,z
-x,1/2+y,z
x,1/2-y,z
x,1/2+y,1/2+z
-x,1/2-y,1/2+z
-x,y,1/2+z
x,-y,1/2+z
loop_
_atom_site_type_symbol
_atom_site_label
_atom_site_fract_x
_atom_site_fract_y
_atom_site_fract_z
Si Si1 0.901756 0.575320 0.998100
Si Si2 0.408664 0.925238 0.700314
Si Si3 0.100679 0.572453 0.589952
Si Si4 0.206597 0.429341 0.328334
Si Si5 0.899398 0.929320 0.749413
Si Si6 0.897337 0.429043 0.405251
Si Si7 0.406381 0.427444 0.296937
Si Si8 0.208919 0.427523 0.172460
O O1 0.922525 0.750000 0.999625
O O2 0.853020 0.536778 0.952725
O O3 0.000000 0.500000 0.997279
O O4 0.853359 0.528096 0.043360
O O5 0.428360 0.750000 0.702058
O O6 0.392483 0.986360 0.748455
O O7 0.318894 0.963431 0.671752
O O8 0.500000 0.000000 0.679301
O O9 0.086468 0.750000 0.593820
O O10 0.169980 0.516913 0.626928
O O11 0.000000 0.500000 0.596794
O O12 0.193507 0.250000 0.324826
O O13 0.144126 0.506797 0.292537
O O14 0.174131 0.490036 0.373882
O O15 0.314823 0.476437 0.323241
O O16 0.907260 0.750000 0.752683
O O17 0.837061 0.974730 0.709362
O O18 0.000000 0.000000 0.742340
O O19 0.903545 0.250000 0.396037
O O20 0.000000 0.500000 0.399911
O O21 0.500000 0.500000 0.317132
O O22 0.419170 0.250000 0.298464
O O23 0.190731 0.250000 0.181481
#
# Coordination Sequence:
#
# PCOD8180910 Si02
#       8
#     8   8   8   8   8   8   8   8
#     4   8  15  28  45  66  91 119 154 192 231 271
#     4   9  17  31  48  67  90 118 151 192 236 274
#     4   9  17  29  47  68  93 125 156 190 229 272
#     4  11  21  35  50  68  94 123 156 192 232 277
#     4  12  24  35  47  64  92 129 163 191 225 268
#     4  10  19  31  47  69  96 125 158 195 232 276
#     4   9  18  32  50  68  90 117 149 191 235 275
#     4  10  19  33  49  68  95 124 157 193 232 275
#
# _framework density 16.090181000000001
#
# number of rings (size 3 to 8) (size 9 to 14) (size 15 to 20)
#    0.000    2.250    1.250    2.625    0.000    3.500 
#    0.000    0.000    0.000    0.000    0.000    0.875 
#    0.000    4.000    0.000    0.000    0.000    0.000 
#
# Total GULP energy -396540.720916 kJ/mol
# GULP energy per Si atom -12391.897529 kJ/mol
# Density = 1.605356 g / cm^3
# Si number density = 16.090181 Si / 1000 Ang^3
#
#
#
# Elastic Constant Matrix: (Units=GPa)
#
#
# Indices 1 2 3 4 5 6 
#
# 1 95.0714 28.7580 45.7459 0.0000 0.0000 0.0000
# 2 28.7580 51.9554 30.0798 0.0000 0.0000 0.0000
# 3 45.7459 30.0798 116.2614 0.0000 0.0000 0.0000
# 4 0.0000 0.0000 0.0000 29.5315 0.0000 0.0000
# 5 0.0000 0.0000 0.0000 0.0000 10.3750 0.0000
# 6 0.0000 0.0000 0.0000 0.0000 0.0000 25.5641
#
#
#
# Elastic Compliance Matrix: (Units=1/GPa)
#
#
# Indices 1 2 3 4 5 6 
#
# 1 0.014167 -0.005427 -0.004170 0.000000 0.000000 0.000000
# 2 -0.005427 0.024717 -0.004260 0.000000 0.000000 0.000000
# 3 -0.004170 -0.004260 0.011344 0.000000 0.000000 0.000000
# 4 0.000000 0.000000 0.000000 0.033862 0.000000 0.000000
# 5 0.000000 0.000000 0.000000 0.000000 0.096385 0.000000
# 6 0.000000 0.000000 0.000000 0.000000 0.000000 0.039117
#
#
# Mechanical properties :
#
#
# Convention : Reuss Voigt Hill
#
# Bulk Modulus (GPa) = 44.41562 52.49508 48.45535
# Shear Modulus (GPa) = 19.62237 23.67442 21.64839
#
# Velocity S-wave (km/s) = 3.49596 3.83999 3.67201
# Velocity P-wave (km/s) = 6.63021 7.23582 6.93963
#
# Compressibility (1/GPa) = 0.02251460
#
# Stress axis : x y z
#
# Youngs Moduli (GPa) = 70.58874 40.45740 88.15096
#
# Poissons Ratio (x) = 0.21957 0.36759
# Poissons Ratio (y) = 0.38309 0.37549
# Poissons Ratio (z) = 0.29436 0.17233
#
# Static dielectric constant tensor:
#      x y z
#    x 2.961710 0.000000 0.000000 
#    y 0.000000 3.018020 0.000000 
#    z 0.000000 0.000000 3.573610 
# 
# 
# High freq. dielectric constant tensor:
#      x y z
#    x 1.597030 0.000000 0.000000 
#    y 0.000000 1.624350 0.000000 
#    z 0.000000 0.000000 1.614250 
# 
# From -- ./inp_files/17953.got.cif
#   From: 2010.03.12/outbox.cif.g09.slc.cpg/sg39_9_cif.got.tgz:17953.got - 2010.04.14 02:53:20.
