data_PCOD8180932
_publ_section_title
;
Structure prediction by ZEFSAII (Michael W. Deem and Ramdas Pophale) SiO2 
 PCOD8180932
Probable space group: A B M 2
;
_chemical_formula_sum "Si O2"
_cell_formula_units_Z 64
_cell_length_a 18.746283
_cell_length_b 19.903872
_cell_length_c 9.882432
_cell_angle_alpha 90.000000
_cell_angle_beta 90.000000
_cell_angle_gamma 90.000000
_cell_volume 3687.368776
_symmetry_space_group_name_H-M "A B M 2"
_symmetry_group_IT_number 39
_symmetry_cell_setting 'orthorhombic'
loop_
_space_group_symop_operation_xyz
x,y,z
-x,-y,z
-x,1/2+y,z
x,1/2-y,z
x,1/2+y,1/2+z
-x,1/2-y,1/2+z
-x,y,1/2+z
x,-y,1/2+z
loop_
_atom_site_type_symbol
_atom_site_label
_atom_site_fract_x
_atom_site_fract_y
_atom_site_fract_z
Si Si1 0.680582 0.055937 0.099760
Si Si2 0.608625 0.991870 0.347161
Si Si3 0.509949 0.889338 0.884068
Si Si4 0.155543 0.455640 0.597855
Si Si5 0.574061 0.172499 0.127015
Si Si6 0.034422 0.175849 0.835579
Si Si7 0.078818 0.032478 0.869954
Si Si8 0.917589 0.676828 0.545896
O O1 0.762480 0.046612 0.140297
O O2 0.648377 0.131214 0.113232
O O3 0.636684 0.008622 0.199451
O O4 0.672120 0.030122 0.946728
O O5 0.556219 0.929760 0.321338
O O6 0.570823 0.055929 0.417779
O O7 0.539318 0.836348 0.774877
O O8 0.485186 0.851158 0.018822
O O9 0.106331 0.482640 0.719367
O O10 0.136594 0.503468 0.473095
O O11 0.142241 0.378940 0.555221
O O12 0.593384 0.250000 0.103672
O O13 0.067270 0.250000 0.873062
O O14 0.080212 0.113363 0.892576
O O15 0.027061 0.169179 0.672613
O O16 0.957026 0.169207 0.902750
O O17 0.000000 0.000000 0.890313
O O18 0.880424 0.750000 0.553357
#
# Coordination Sequence:
#
# PCOD8180932 Si02
#       8
#     8   8   8   8   8   8   8   8
#     4  10  20  33  48  70 101 135 166 194 245 299
#     4   9  17  32  51  72  97 128 167 210 240 283
#     4   9  17  30  52  76  98 126 167 210 246 275
#     4  11  22  33  50  74 101 133 162 205 253 304
#     4  10  19  31  49  75 105 133 164 201 242 292
#     4   9  18  32  50  71  93 119 151 196 251 296
#     4  11  21  34  53  75 100 121 164 214 258 294
#     4   9  18  32  49  68  92 122 157 194 241 296
#
# _framework density 17.356549000000001
#
# number of rings (size 3 to 8) (size 9 to 14) (size 15 to 20)
#    0.000    2.250    1.250    2.250    1.750    3.500 
#    0.000    0.000    0.000    0.000    0.000    4.375 
#    0.000    0.000    0.000    0.000    0.000    0.000 
#
# Total GULP energy -396580.904220 kJ/mol
# GULP energy per Si atom -12393.153257 kJ/mol
# Density = 1.731704 g / cm^3
# Si number density = 17.356549 Si / 1000 Ang^3
#
#
#
# Elastic Constant Matrix: (Units=GPa)
#
#
# Indices 1 2 3 4 5 6 
#
# 1 69.1639 22.9076 9.9080 0.0000 0.0000 0.0000
# 2 22.9076 100.1264 26.1110 0.0000 0.0000 0.0000
# 3 9.9080 26.1110 46.1837 0.0000 0.0000 0.0000
# 4 0.0000 0.0000 0.0000 23.2829 0.0000 0.0000
# 5 0.0000 0.0000 0.0000 0.0000 20.1869 0.0000
# 6 0.0000 0.0000 0.0000 0.0000 0.0000 14.6420
#
#
#
# Elastic Compliance Matrix: (Units=1/GPa)
#
#
# Indices 1 2 3 4 5 6 
#
# 1 0.015741 -0.003191 -0.001573 0.000000 0.000000 0.000000
# 2 -0.003191 0.012361 -0.006304 0.000000 0.000000 0.000000
# 3 -0.001573 -0.006304 0.025554 0.000000 0.000000 0.000000
# 4 0.000000 0.000000 0.000000 0.042950 0.000000 0.000000
# 5 0.000000 0.000000 0.000000 0.000000 0.049537 0.000000
# 6 0.000000 0.000000 0.000000 0.000000 0.000000 0.068297
#
#
# Mechanical properties :
#
#
# Convention : Reuss Voigt Hill
#
# Bulk Modulus (GPa) = 31.72565 37.03635 34.38100
# Shear Modulus (GPa) = 20.23611 22.05886 21.14748
#
# Velocity S-wave (km/s) = 3.41824 3.56887 3.49437
# Velocity P-wave (km/s) = 5.82217 6.19414 6.01103
#
# Compressibility (1/GPa) = 0.03152024
#
# Stress axis : x y z
#
# Youngs Moduli (GPa) = 63.52986 80.89643 39.13236
#
# Poissons Ratio (x) = 0.25815 0.06154
# Poissons Ratio (y) = 0.20273 0.24670
# Poissons Ratio (z) = 0.09992 0.50999
#
# Static dielectric constant tensor:
#      x y z
#    x 2.939880 0.000000 0.000000 
#    y 0.000000 3.423370 0.000000 
#    z 0.000000 0.000000 3.272380 
# 
# 
# High freq. dielectric constant tensor:
#      x y z
#    x 1.637710 0.000000 0.000000 
#    y 0.000000 1.678680 0.000000 
#    z 0.000000 0.000000 1.677820 
# 
# From -- ./inp_files/3843.got.cif
#   From: 2010.03.12/outbox.cif.g09.slc.cpg/sg39_2_cif.got.tgz:3843.got - 2010.04.14 02:53:20.
