data_PCOD8180345
_publ_section_title
;
Structure prediction by ZEFSAII (Michael W. Deem and Ramdas Pophale) SiO2 
 PCOD8180345
Probable space group: A M M 2
;
_chemical_formula_sum "Si O2"
_cell_formula_units_Z 56
_cell_length_a 19.635633
_cell_length_b 8.746153
_cell_length_c 15.975104
_cell_angle_alpha 90.000000
_cell_angle_beta 90.000000
_cell_angle_gamma 90.000000
_cell_volume 2743.504462
_symmetry_space_group_name_H-M "A M M 2"
_symmetry_group_IT_number 38
_symmetry_cell_setting 'orthorhombic'
loop_
_space_group_symop_operation_xyz
x,y,z
-x,-y,z
-x,y,z
x,-y,z
x,1/2+y,1/2+z
-x,1/2-y,1/2+z
-x,1/2+y,1/2+z
x,1/2-y,1/2+z
loop_
_atom_site_type_symbol
_atom_site_label
_atom_site_fract_x
_atom_site_fract_y
_atom_site_fract_z
Si Si1 0.284989 0.180684 0.073060
Si Si2 0.923054 0.181055 0.985341
Si Si3 0.573942 0.181301 0.326572
Si Si4 0.286818 0.819454 0.400402
Si Si5 0.843202 0.177357 0.639109
Si Si6 0.836869 0.178247 0.825982
Si Si7 0.573627 0.181679 0.138527
O O1 0.233805 0.258328 0.138328
O O2 0.362073 0.244187 0.086292
O O3 0.280518 0.000000 0.084216
O O4 0.260389 0.230553 0.981718
O O5 0.886327 0.238280 0.900088
O O6 0.000000 0.243330 0.982007
O O7 0.921084 0.000000 0.988550
O O8 0.889407 0.239619 0.070746
O O9 0.500000 0.232306 0.364340
O O10 0.637374 0.244237 0.379770
O O11 0.580311 0.245150 0.232604
O O12 0.578607 0.000000 0.323595
O O13 0.233551 0.774181 0.328310
O O14 0.286960 0.000000 0.415325
O O15 0.870591 0.205440 0.734124
O O16 0.842646 0.000000 0.616251
O O17 0.819867 0.000000 0.837912
O O18 0.500000 0.236256 0.101036
O O19 0.575853 0.000000 0.139540
#
# Coordination Sequence:
#
# PCOD8180345 Si02
#       7
#     8   8   8   8   8   8   8
#     4  11  21  34  54  80 114 154 196 245 299 348
#     4  10  22  42  66  91 122 160 196 232 284 350
#     4   8  15  29  48  72 104 142 187 240 295 347
#     4  11  21  33  54  83 113 149 197 246 292 347
#     4  11  23  39  62  92 122 156 200 245 290 345
#     4  10  22  40  62  88 121 159 195 237 292 349
#     4   8  15  29  49  73 102 142 193 243 292 349
#
# _framework density 20.411849
#
# number of rings (size 3 to 8) (size 9 to 14) (size 15 to 20)
#    0.000    2.143    1.429    3.000    0.000    3.714 
#    0.000    1.429    0.000    2.571    0.000   10.000 
#    0.000    0.000    0.000    0.000    0.000    0.000 
#
# Total GULP energy -347048.199102 kJ/mol
# GULP energy per Si atom -12394.578539 kJ/mol
# Density = 2.036539 g / cm^3
# Si number density = 20.411849 Si / 1000 Ang^3
#
#
#
# Elastic Constant Matrix: (Units=GPa)
#
#
# Indices 1 2 3 4 5 6 
#
# 1 142.4182 15.0220 51.1392 0.0000 0.0000 0.0000
# 2 15.0220 8.3811 9.6558 0.0000 0.0000 0.0000
# 3 51.1392 9.6558 111.3642 0.0000 0.0000 0.0000
# 4 0.0000 0.0000 0.0000 23.1971 0.0000 0.0000
# 5 0.0000 0.0000 0.0000 0.0000 29.1997 0.0000
# 6 0.0000 0.0000 0.0000 0.0000 0.0000 21.8461
#
#
#
# Elastic Compliance Matrix: (Units=1/GPa)
#
#
# Indices 1 2 3 4 5 6 
#
# 1 0.009609 -0.013486 -0.003243 0.000000 0.000000 0.000000
# 2 -0.013486 0.151484 -0.006942 0.000000 0.000000 0.000000
# 3 -0.003243 -0.006942 0.011071 0.000000 0.000000 0.000000
# 4 0.000000 0.000000 0.000000 0.043109 0.000000 0.000000
# 5 0.000000 0.000000 0.000000 0.000000 0.034247 0.000000
# 6 0.000000 0.000000 0.000000 0.000000 0.000000 0.045775
#
#
# Mechanical properties :
#
#
# Convention : Reuss Voigt Hill
#
# Bulk Modulus (GPa) = 8.01139 45.97749 26.99444
# Shear Modulus (GPa) = 13.01266 27.27168 20.14217
#
# Velocity S-wave (km/s) = 2.52763 3.65920 3.14473
# Velocity P-wave (km/s) = 3.52873 6.35820 5.14192
#
# Compressibility (1/GPa) = 0.12482225
#
# Stress axis : x y z
#
# Youngs Moduli (GPa) = 104.07448 6.60138 90.32910
#
# Poissons Ratio (x) = 0.08902 0.29294
# Poissons Ratio (y) = 1.40351 0.62703
# Poissons Ratio (z) = 0.33752 0.04582
#
# Static dielectric constant tensor:
#      x y z
#    x 4.087670 0.000000 0.000000 
#    y 0.000000 3.307140 0.000000 
#    z 0.000000 0.000000 3.730130 
# 
# 
# High freq. dielectric constant tensor:
#      x y z
#    x 1.806340 0.000000 0.000000 
#    y 0.000000 1.763700 0.000000 
#    z 0.000000 0.000000 1.797970 
# 
# From -- ./inp_files/15424.got.cif
#   From: 2010.03.12/outbox.cif.g09.slc.cpg/sg38_8_cif.got.tgz:15424.got - 2010.04.14 02:38:36.
