data_PCOD8180239
_publ_section_title
;
Structure prediction by ZEFSAII (Michael W. Deem and Ramdas Pophale) SiO2 
 PCOD8180239
Probable space group: A M M 2
;
_chemical_formula_sum "Si O2"
_cell_formula_units_Z 48
_cell_length_a 7.424882
_cell_length_b 9.111312
_cell_length_c 34.736368
_cell_angle_alpha 90.000000
_cell_angle_beta 90.000000
_cell_angle_gamma 90.000000
_cell_volume 2349.929762
_symmetry_space_group_name_H-M "A M M 2"
_symmetry_group_IT_number 38
_symmetry_cell_setting 'orthorhombic'
loop_
_space_group_symop_operation_xyz
x,y,z
-x,-y,z
-x,y,z
x,-y,z
x,1/2+y,1/2+z
-x,1/2-y,1/2+z
-x,1/2+y,1/2+z
x,1/2-y,1/2+z
loop_
_atom_site_type_symbol
_atom_site_label
_atom_site_fract_x
_atom_site_fract_y
_atom_site_fract_z
Si Si1 0.713608 0.335198 0.212830
Si Si2 0.289022 0.328141 0.979171
Si Si3 0.000000 0.324739 0.428053
Si Si4 0.703231 0.671057 0.786699
Si Si5 0.286422 0.663965 0.555703
Si Si6 0.285720 0.165500 0.628571
Si Si7 0.000000 0.828350 0.347804
O O1 0.500000 0.328789 0.213681
O O2 0.783518 0.500000 0.218619
O O3 0.790036 0.240253 0.248080
O O4 0.779411 0.277624 0.170765
O O5 0.500000 0.299832 0.971816
O O6 0.242536 0.500000 0.977599
O O7 0.179984 0.242006 0.946683
O O8 0.225855 0.265977 0.020366
O O9 0.000000 0.278495 0.383828
O O10 0.000000 0.500000 0.432066
O O11 0.500000 0.728138 0.794672
O O12 0.705044 0.500000 0.779012
O O13 0.822827 0.711625 0.823402
O O14 0.500000 0.659254 0.558112
O O15 0.208535 0.500000 0.549960
O O16 0.205404 0.730853 0.595165
O O17 0.500000 0.166383 0.626651
O O18 0.215960 0.000000 0.621795
O O19 0.000000 0.000000 0.360025
#
# Coordination Sequence:
#
# PCOD8180239 Si02
#       7
#     8   8   4   8   8   8   4
#     4   8  14  25  43  69 102 139 178 221 267 316
#     4  10  21  39  63  87 114 152 193 231 277 338
#     4  12  26  42  62  89 118 145 180 232 289 342
#     4   9  18  33  54  78 104 137 176 219 268 321
#     4   9  16  26  44  74 110 145 183 229 277 322
#     4   8  13  22  38  64 100 141 183 223 264 316
#     4  10  22  40  58  79 108 139 176 220 269 334
#
# _framework density 20.426143
#
# number of rings (size 3 to 8) (size 9 to 14) (size 15 to 20)
#    0.000    2.833    0.000    2.750    0.000    5.000 
#    0.000    5.000    0.000    1.000    0.000    2.333 
#    0.000    0.000    0.000    0.000    0.000    0.000 
#
# Total GULP energy -297484.553239 kJ/mol
# GULP energy per Si atom -12395.189718 kJ/mol
# Density = 2.037965 g / cm^3
# Si number density = 20.426143 Si / 1000 Ang^3
#
#
#
# Elastic Constant Matrix: (Units=GPa)
#
#
# Indices 1 2 3 4 5 6 
#
# 1 66.6108 35.7832 45.2454 0.0000 0.0000 0.0000
# 2 35.7832 128.8493 90.4141 0.0000 0.0000 0.0000
# 3 45.2454 90.4141 180.2291 0.0000 0.0000 0.0000
# 4 0.0000 0.0000 0.0000 43.0781 0.0000 0.0000
# 5 0.0000 0.0000 0.0000 0.0000 -98.2328 0.0000
# 6 0.0000 0.0000 0.0000 0.0000 0.0000 10.7339
#
#
#
# Elastic Compliance Matrix: (Units=1/GPa)
#
#
# Indices 1 2 3 4 5 6 
#
# 1 0.018796 -0.002946 -0.003241 0.000000 0.000000 0.000000
# 2 -0.002946 0.012439 -0.005501 0.000000 0.000000 0.000000
# 3 -0.003241 -0.005501 0.009122 0.000000 0.000000 0.000000
# 4 0.000000 0.000000 0.000000 0.023214 0.000000 0.000000
# 5 0.000000 0.000000 0.000000 0.000000 -0.010180 0.000000
# 6 0.000000 0.000000 0.000000 0.000000 0.000000 0.093163
#
#
# Mechanical properties :
#
#
# Convention : Reuss Voigt Hill
#
# Bulk Modulus (GPa) = 58.88524 79.84163 69.36343
# Shear Modulus (GPa) = 28.47555 4.73225 16.60390
#
# Velocity S-wave (km/s) = 3.73778 1.52374 2.85419
# Velocity P-wave (km/s) = 6.89340 6.50143 6.70028
#
# Compressibility (1/GPa) = 0.01698219
#
# Stress axis : x y z
#
# Youngs Moduli (GPa) = 53.20144 80.39300 109.63063
#
# Poissons Ratio (x) = 0.23683 0.35530
# Poissons Ratio (y) = 0.15672 0.60303
# Poissons Ratio (z) = 0.17242 0.44221
#
# Static dielectric constant tensor:
#      x y z
#    x 3.655520 0.000000 0.000000 
#    y 0.000000 3.775360 0.000000 
#    z 0.000000 0.000000 3.926220 
# 
# 
# High freq. dielectric constant tensor:
#      x y z
#    x 1.781580 0.000000 0.000000 
#    y 0.000000 1.789960 0.000000 
#    z 0.000000 0.000000 1.802540 
# 
# From -- ./inp_files/24398.got.cif
#   From: 2010.03.12/outbox.cif.g09.slc.cpg/sg38_13_cif.got.tgz:24398.got - 2010.04.14 02:38:36.
