data_PCOD8180891
_publ_section_title
;
Structure prediction by ZEFSAII (Michael W. Deem and Ramdas Pophale) SiO2 
 PCOD8180891
Probable space group: A B M 2
;
_chemical_formula_sum "Si O2"
_cell_formula_units_Z 48
_cell_length_a 15.479937
_cell_length_b 9.167000
_cell_length_c 19.454192
_cell_angle_alpha 90.000000
_cell_angle_beta 90.000000
_cell_angle_gamma 90.000000
_cell_volume 2760.638993
_symmetry_space_group_name_H-M "A B M 2"
_symmetry_group_IT_number 39
_symmetry_cell_setting 'orthorhombic'
loop_
_space_group_symop_operation_xyz
x,y,z
-x,-y,z
-x,1/2+y,z
x,1/2-y,z
x,1/2+y,1/2+z
-x,1/2-y,1/2+z
-x,y,1/2+z
x,-y,1/2+z
loop_
_atom_site_type_symbol
_atom_site_label
_atom_site_fract_x
_atom_site_fract_y
_atom_site_fract_z
Si Si1 0.266641 0.923487 0.973280
Si Si2 0.078505 0.909483 0.961965
Si Si3 0.414389 0.419977 0.212832
Si Si4 0.917489 0.414541 0.124972
Si Si5 0.743055 0.576741 0.115192
Si Si6 0.414895 0.920478 0.869406
O O1 0.266136 0.750000 0.989310
O O2 0.173083 0.972650 0.943348
O O3 0.335556 0.970103 0.916504
O O4 0.286701 0.010881 0.042572
O O5 0.068564 0.750000 0.929787
O O6 0.071099 0.904931 0.043716
O O7 0.000000 0.000000 0.929075
O O8 0.500000 0.500000 0.184953
O O9 0.433505 0.250000 0.206951
O O10 0.331882 0.464949 0.168426
O O11 0.394612 0.466847 0.291252
O O12 0.912622 0.250000 0.155491
O O13 0.830777 0.503428 0.143175
O O14 0.000000 0.500000 0.156760
O O15 0.757162 0.750000 0.108622
O O16 0.431414 0.750000 0.875900
O O17 0.500000 0.000000 0.897236
#
# Coordination Sequence:
#
# PCOD8180891 Si02
#       6
#     8   8   8   8   8   8
#     4   9  18  31  47  68  94 123 153 189 236 280
#     4   8  14  24  39  61  87 115 145 177 216 261
#     4   9  19  34  51  69  90 122 160 196 236 283
#     4   9  16  27  44  67  95 126 158 191 230 275
#     4  10  19  30  46  71  99 124 155 194 235 279
#     4   9  18  34  52  68  89 120 158 195 234 282
#
# _framework density 17.387278999999999
#
# number of rings (size 3 to 8) (size 9 to 14) (size 15 to 20)
#    0.000    3.000    0.000    2.000    0.000    6.667 
#    0.000    3.333    0.000    1.000    0.000    2.333 
#    0.000    0.000    0.000    0.000    0.000    0.000 
#
# Total GULP energy -297511.846243 kJ/mol
# GULP energy per Si atom -12396.326927 kJ/mol
# Density = 1.734770 g / cm^3
# Si number density = 17.387279 Si / 1000 Ang^3
#
#
#
# Elastic Constant Matrix: (Units=GPa)
#
#
# Indices 1 2 3 4 5 6 
#
# 1 182.9322 71.2493 69.2657 0.0000 0.0000 0.0000
# 2 71.2493 77.6181 35.8762 0.0000 0.0000 0.0000
# 3 69.2657 35.8762 53.7456 0.0000 0.0000 0.0000
# 4 0.0000 0.0000 0.0000 15.4211 0.0000 0.0000
# 5 0.0000 0.0000 0.0000 0.0000 3.3785 0.0000
# 6 0.0000 0.0000 0.0000 0.0000 0.0000 35.5664
#
#
#
# Elastic Compliance Matrix: (Units=1/GPa)
#
#
# Indices 1 2 3 4 5 6 
#
# 1 0.012194 -0.005683 -0.011922 0.000000 0.000000 0.000000
# 2 -0.005683 0.021281 -0.006881 0.000000 0.000000 0.000000
# 3 -0.011922 -0.006881 0.038564 0.000000 0.000000 0.000000
# 4 0.000000 0.000000 0.000000 0.064846 0.000000 0.000000
# 5 0.000000 0.000000 0.000000 0.000000 0.295986 0.000000
# 6 0.000000 0.000000 0.000000 0.000000 0.000000 0.028116
#
#
# Mechanical properties :
#
#
# Convention : Reuss Voigt Hill
#
# Bulk Modulus (GPa) = 43.35242 74.11982 58.73612
# Shear Modulus (GPa) = 9.65905 20.06685 14.86295
#
# Velocity S-wave (km/s) = 2.35951 3.40091 2.92690
# Velocity P-wave (km/s) = 5.69303 7.62515 6.72880
#
# Compressibility (1/GPa) = 0.02306676
#
# Stress axis : x y z
#
# Youngs Moduli (GPa) = 82.00710 46.99025 25.93097
#
# Poissons Ratio (x) = 0.26705 0.30914
# Poissons Ratio (y) = 0.46606 0.17844
# Poissons Ratio (z) = 0.97767 0.32335
#
# Static dielectric constant tensor:
#      x y z
#    x 3.518340 0.000000 0.000000 
#    y 0.000000 3.350650 0.000000 
#    z 0.000000 0.000000 2.901040 
# 
# 
# High freq. dielectric constant tensor:
#      x y z
#    x 1.687750 0.000000 0.000000 
#    y 0.000000 1.674970 0.000000 
#    z 0.000000 0.000000 1.623920 
# 
# From -- ./inp_files/12643.got.cif
#   From: 2010.03.12/outbox.cif.g09.slc.cpg/sg39_7_cif.got.tgz:12643.got - 2010.04.14 02:53:20.
