data_PCOD8180856
_publ_section_title
;
Structure prediction by ZEFSAII (Michael W. Deem and Ramdas Pophale) SiO2 
 PCOD8180856
Probable space group: A B M 2
;
_chemical_formula_sum "Si O2"
_cell_formula_units_Z 64
_cell_length_a 12.082126
_cell_length_b 17.316117
_cell_length_c 15.521803
_cell_angle_alpha 90.000000
_cell_angle_beta 90.000000
_cell_angle_gamma 90.000000
_cell_volume 3247.401891
_symmetry_space_group_name_H-M "A B M 2"
_symmetry_group_IT_number 39
_symmetry_cell_setting 'orthorhombic'
loop_
_space_group_symop_operation_xyz
x,y,z
-x,-y,z
-x,1/2+y,z
x,1/2-y,z
x,1/2+y,1/2+z
-x,1/2-y,1/2+z
-x,y,1/2+z
x,-y,1/2+z
loop_
_atom_site_type_symbol
_atom_site_label
_atom_site_fract_x
_atom_site_fract_y
_atom_site_fract_z
Si Si1 0.025286 0.838294 0.837950
Si Si2 0.020896 0.588529 0.160643
Si Si3 0.237895 0.158750 0.606846
Si Si4 0.637623 0.342041 0.503825
Si Si5 0.516874 0.657719 0.349329
Si Si6 0.110882 0.341334 0.003578
Si Si7 0.256450 0.337575 0.419005
Si Si8 0.483383 0.841361 0.157995
O O1 0.989640 0.750000 0.817293
O O2 0.155633 0.842530 0.854285
O O3 0.015519 0.893284 0.756891
O O4 0.953876 0.871353 0.918409
O O5 0.150010 0.610743 0.161660
O O6 0.000000 0.500000 0.139462
O O7 0.952725 0.636609 0.090338
O O8 0.215844 0.250000 0.619346
O O9 0.219765 0.127607 0.510041
O O10 0.360254 0.134127 0.633242
O O11 0.637719 0.250000 0.506642
O O12 0.578591 0.370366 0.415438
O O13 0.763465 0.374171 0.504760
O O14 0.570905 0.374340 0.587531
O O15 0.517325 0.750000 0.344757
O O16 0.634099 0.622484 0.380721
O O17 0.501795 0.623749 0.253277
O O18 0.112374 0.250000 0.999656
O O19 0.291796 0.250000 0.439350
O O20 0.495839 0.750000 0.159245
#
# Coordination Sequence:
#
# PCOD8180856 Si02
#       8
#     8   8   8   8   8   8   8   8
#     4  10  21  37  59  86 112 148 193 238 284 336
#     4  12  26  40  56  81 115 155 193 237 289 341
#     4  10  18  35  59  82 110 147 192 237 276 331
#     4   9  17  29  47  81 120 142 169 223 285 337
#     4   9  16  26  44  79 117 144 169 215 284 338
#     4  10  21  38  61  87 116 148 187 238 288 336
#     4   9  16  30  53  81 114 143 179 230 280 332
#     4   9  17  27  48  81 116 146 174 221 283 336
#
# _framework density 19.708062999999999
#
# number of rings (size 3 to 8) (size 9 to 14) (size 15 to 20)
#    0.000    2.250    2.500    1.125    3.500    0.500 
#    0.000    0.000    0.000    0.750    0.000    1.750 
#    0.000    0.000    0.000    0.000    0.000    0.000 
#
# Total GULP energy -396655.081773 kJ/mol
# GULP energy per Si atom -12395.471305 kJ/mol
# Density = 1.966321 g / cm^3
# Si number density = 19.708063 Si / 1000 Ang^3
#
#
#
# Elastic Constant Matrix: (Units=GPa)
#
#
# Indices 1 2 3 4 5 6 
#
# 1 129.5940 15.3459 39.4250 0.0000 0.0000 0.0000
# 2 15.3459 17.6333 6.0576 0.0000 0.0000 0.0000
# 3 39.4250 6.0576 131.5573 0.0000 0.0000 0.0000
# 4 0.0000 0.0000 0.0000 7.2374 0.0000 0.0000
# 5 0.0000 0.0000 0.0000 0.0000 31.5493 0.0000
# 6 0.0000 0.0000 0.0000 0.0000 0.0000 1.6115
#
#
#
# Elastic Compliance Matrix: (Units=1/GPa)
#
#
# Indices 1 2 3 4 5 6 
#
# 1 0.009326 -0.007271 -0.002460 0.000000 0.000000 0.000000
# 2 -0.007271 0.063291 -0.000735 0.000000 0.000000 0.000000
# 3 -0.002460 -0.000735 0.008372 0.000000 0.000000 0.000000
# 4 0.000000 0.000000 0.000000 0.138171 0.000000 0.000000
# 5 0.000000 0.000000 0.000000 0.000000 0.031696 0.000000
# 6 0.000000 0.000000 0.000000 0.000000 0.000000 0.620550
#
#
# Mechanical properties :
#
#
# Convention : Reuss Voigt Hill
#
# Bulk Modulus (GPa) = 16.65088 44.49349 30.57218
# Shear Modulus (GPa) = 5.48030 22.61004 14.04517
#
# Velocity S-wave (km/s) = 1.66936 3.39078 2.67247
# Velocity P-wave (km/s) = 3.49039 6.16078 5.00689
#
# Compressibility (1/GPa) = 0.06005690
#
# Stress axis : x y z
#
# Youngs Moduli (GPa) = 107.22991 15.79998 119.44144
#
# Poissons Ratio (x) = 0.11488 0.29382
# Poissons Ratio (y) = 0.77966 0.08783
# Poissons Ratio (z) = 0.26378 0.01162
#
# Static dielectric constant tensor:
#      x y z
#    x 3.820580 0.000000 0.000000 
#    y 0.000000 2.895940 0.000000 
#    z 0.000000 0.000000 3.811740 
# 
# 
# High freq. dielectric constant tensor:
#      x y z
#    x 1.785350 0.000000 0.000000 
#    y 0.000000 1.692210 0.000000 
#    z 0.000000 0.000000 1.783570 
# 
# From -- ./inp_files/9458.got.cif
#   From: 2010.03.12/outbox.cif.g09.slc.cpg/sg39_5_cif.got.tgz:9458.got - 2010.04.14 02:53:20.
