data_PCOD8180711
_publ_section_title
;
Structure prediction by ZEFSAII (Michael W. Deem and Ramdas Pophale) SiO2 
 PCOD8180711
Probable space group: A B M 2
;
_chemical_formula_sum "Si O2"
_cell_formula_units_Z 52
_cell_length_a 11.488579
_cell_length_b 9.311673
_cell_length_c 28.840411
_cell_angle_alpha 90.000000
_cell_angle_beta 90.000000
_cell_angle_gamma 90.000000
_cell_volume 3085.286341
_symmetry_space_group_name_H-M "A B M 2"
_symmetry_group_IT_number 39
_symmetry_cell_setting 'orthorhombic'
loop_
_space_group_symop_operation_xyz
x,y,z
-x,-y,z
-x,1/2+y,z
x,1/2-y,z
x,1/2+y,1/2+z
-x,1/2-y,1/2+z
-x,y,1/2+z
x,-y,1/2+z
loop_
_atom_site_type_symbol
_atom_site_label
_atom_site_fract_x
_atom_site_fract_y
_atom_site_fract_z
Si Si1 0.877566 0.918445 0.275910
Si Si2 0.119456 0.084278 0.174192
Si Si3 0.795070 0.908480 0.961677
Si Si4 0.878766 0.918096 0.860180
Si Si5 0.000000 0.000000 0.024235
Si Si6 0.618832 0.085048 0.017090
Si Si7 0.804383 0.092503 0.092601
O O1 0.892580 0.750000 0.287995
O O2 0.819348 0.935601 0.224808
O O3 0.809093 0.002390 0.317390
O O4 0.000000 0.000000 0.272934
O O5 0.092731 0.250000 0.164495
O O6 0.200071 0.025128 0.133199
O O7 0.000000 0.000000 0.171070
O O8 0.742018 0.750000 0.968789
O O9 0.810506 0.940131 0.907547
O O10 0.916777 0.908742 0.990205
O O11 0.702105 0.025666 0.976991
O O12 0.897459 0.750000 0.849054
O O13 0.000000 0.000000 0.865635
O O14 0.084447 0.909957 0.058001
O O15 0.592412 0.250000 0.005763
O O16 0.685040 0.065050 0.065491
O O17 0.500000 0.000000 0.019608
O O18 0.803934 0.250000 0.115430
#
# Coordination Sequence:
#
# PCOD8180711 Si02
#       7
#     8   8   8   8   4   8   8
#     4   9  17  28  41  61  91 129 163 195 233 280
#     4  10  19  29  44  66  96 130 163 196 237 284
#     4  10  20  32  49  72 100 131 163 200 243 289
#     4  10  18  28  44  68  96 130 163 196 237 283
#     4  10  18  30  46  70 100 128 162 192 240 284
#     4  10  22  38  54  72  95 126 165 205 245 289
#     4  10  20  31  48  72  97 126 161 197 240 287
#
# _framework density 16.854189999999999
#
# number of rings (size 3 to 8) (size 9 to 14) (size 15 to 20)
#    0.000    2.154    1.538    3.231    0.000    6.769 
#    0.000    0.000    0.000    0.000    0.000    1.077 
#    0.000    4.923    0.000    0.000    0.000    0.000 
#
# Total GULP energy -322120.435008 kJ/mol
# GULP energy per Si atom -12389.247500 kJ/mol
# Density = 1.681583 g / cm^3
# Si number density = 16.854190 Si / 1000 Ang^3
#
#
#
# Elastic Constant Matrix: (Units=GPa)
#
#
# Indices 1 2 3 4 5 6 
#
# 1 68.7609 43.8873 30.8076 0.0000 0.0000 0.0000
# 2 43.8873 154.0525 77.8412 0.0000 0.0000 0.0000
# 3 30.8076 77.8412 129.5883 0.0000 0.0000 0.0000
# 4 0.0000 0.0000 0.0000 21.2306 0.0000 0.0000
# 5 0.0000 0.0000 0.0000 0.0000 8.6434 0.0000
# 6 0.0000 0.0000 0.0000 0.0000 0.0000 21.2615
#
#
#
# Elastic Compliance Matrix: (Units=1/GPa)
#
#
# Indices 1 2 3 4 5 6 
#
# 1 0.018040 -0.004268 -0.001725 0.000000 0.000000 0.000000
# 2 -0.004268 0.010330 -0.005190 0.000000 0.000000 0.000000
# 3 -0.001725 -0.005190 0.011245 0.000000 0.000000 0.000000
# 4 0.000000 0.000000 0.000000 0.047102 0.000000 0.000000
# 5 0.000000 0.000000 0.000000 0.000000 0.115695 0.000000
# 6 0.000000 0.000000 0.000000 0.000000 0.000000 0.047033
#
#
# Mechanical properties :
#
#
# Convention : Reuss Voigt Hill
#
# Bulk Modulus (GPa) = 57.97778 73.05265 65.51521
# Shear Modulus (GPa) = 18.01413 23.55147 20.78280
#
# Velocity S-wave (km/s) = 3.27283 3.74219 3.51535
# Velocity P-wave (km/s) = 6.98256 7.88099 7.44534
#
# Compressibility (1/GPa) = 0.01724799
#
# Stress axis : x y z
#
# Youngs Moduli (GPa) = 55.43253 96.80868 88.93146
#
# Poissons Ratio (x) = 0.41313 0.15343
# Poissons Ratio (y) = 0.23656 0.46158
# Poissons Ratio (z) = 0.09564 0.50246
#
# Static dielectric constant tensor:
#      x y z
#    x 2.690280 0.000000 0.000000 
#    y 0.000000 3.379380 0.000000 
#    z 0.000000 0.000000 4.000480 
# 
# 
# High freq. dielectric constant tensor:
#      x y z
#    x 1.584960 0.000000 0.000000 
#    y 0.000000 1.669450 0.000000 
#    z 0.000000 0.000000 1.667390 
# 
# From -- ./inp_files/17793.got.cif
#   From: 2010.03.12/outbox.cif.g09.slc.cpg/sg39_9_cif.got.tgz:17793.got - 2010.04.14 02:53:20.
