data_PCOD8180540
_publ_section_title
;
Structure prediction by ZEFSAII (Michael W. Deem and Ramdas Pophale) SiO2 
 PCOD8180540
Probable space group: A M M 2
;
_chemical_formula_sum "Si O2"
_cell_formula_units_Z 64
_cell_length_a 9.179684
_cell_length_b 21.948691
_cell_length_c 21.334864
_cell_angle_alpha 90.000000
_cell_angle_beta 90.000000
_cell_angle_gamma 90.000000
_cell_volume 4298.592084
_symmetry_space_group_name_H-M "A M M 2"
_symmetry_group_IT_number 38
_symmetry_cell_setting 'orthorhombic'
loop_
_space_group_symop_operation_xyz
x,y,z
-x,-y,z
-x,y,z
x,-y,z
x,1/2+y,1/2+z
-x,1/2-y,1/2+z
-x,1/2+y,1/2+z
x,1/2-y,1/2+z
loop_
_atom_site_type_symbol
_atom_site_label
_atom_site_fract_x
_atom_site_fract_y
_atom_site_fract_z
Si Si1 0.830598 0.665328 0.593950
Si Si2 0.829191 0.833766 0.950228
Si Si3 0.339094 0.652226 0.778367
Si Si4 0.671378 0.745359 0.363676
Si Si5 0.829728 0.432995 0.352189
Si Si6 0.171541 0.931786 0.195208
Si Si7 0.664285 0.244742 0.673051
Si Si8 0.170239 0.833319 0.760483
O O1 0.797315 0.649994 0.522129
O O2 0.777201 0.607475 0.635087
O O3 0.744722 0.726429 0.613123
O O4 0.000000 0.677889 0.606225
O O5 0.736063 0.772948 0.931810
O O6 0.770376 0.890739 0.908911
O O7 0.000000 0.820949 0.938580
O O8 0.500000 0.623298 0.777914
O O9 0.305605 0.682703 0.846592
O O10 0.228531 0.598747 0.759683
O O11 0.330074 0.707371 0.729325
O O12 0.500000 0.728735 0.357960
O O13 0.770003 0.707289 0.316511
O O14 0.755120 0.500000 0.354058
O O15 0.801557 0.402846 0.283478
O O16 0.000000 0.440192 0.363441
O O17 0.000000 0.933879 0.200224
O O18 0.235112 0.000000 0.188245
O O19 0.500000 0.227821 0.654098
O O20 0.745688 0.182922 0.695968
O O21 0.000000 0.819729 0.750681
#
# Coordination Sequence:
#
# PCOD8180540 Si02
#       8
#     8   8   8   8   8   8   8   8
#     4   9  17  28  40  56  80 108 138 169 197 230
#     4   9  17  27  40  58  79 107 140 169 197 228
#     4   8  15  26  39  55  73  97 128 161 200 241
#     4   9  16  26  40  57  77 100 128 164 204 242
#     4   8  14  24  38  57  80 106 136 166 194 228
#     4   9  17  27  39  57  80 106 135 166 198 229
#     4   9  16  26  40  57  76  99 129 165 205 243
#     4   9  15  24  40  59  77  99 128 163 203 241
#
# _framework density 14.888596
#
# number of rings (size 3 to 8) (size 9 to 14) (size 15 to 20)
#    0.000    3.250    0.000    2.625    0.000    4.750 
#    0.000    2.500    0.000    9.375    0.000    5.250 
#    0.000    1.000    0.000    9.000    0.000    6.000 
#
# Total GULP energy -396456.462065 kJ/mol
# GULP energy per Si atom -12389.264440 kJ/mol
# Density = 1.485471 g / cm^3
# Si number density = 14.888596 Si / 1000 Ang^3
#
#
#
# Elastic Constant Matrix: (Units=GPa)
#
#
# Indices 1 2 3 4 5 6 
#
# 1 55.0015 36.2404 30.1988 0.0000 0.0000 0.0000
# 2 36.2404 80.2264 61.2475 0.0000 0.0000 0.0000
# 3 30.1988 61.2475 54.3144 0.0000 0.0000 0.0000
# 4 0.0000 0.0000 0.0000 17.2617 0.0000 0.0000
# 5 0.0000 0.0000 0.0000 0.0000 17.2523 0.0000
# 6 0.0000 0.0000 0.0000 0.0000 0.0000 11.8476
#
#
#
# Elastic Compliance Matrix: (Units=1/GPa)
#
#
# Indices 1 2 3 4 5 6 
#
# 1 0.026467 -0.005186 -0.008868 0.000000 0.000000 0.000000
# 2 -0.005186 0.090615 -0.099298 0.000000 0.000000 0.000000
# 3 -0.008868 -0.099298 0.135315 0.000000 0.000000 0.000000
# 4 0.000000 0.000000 0.000000 0.057932 0.000000 0.000000
# 5 0.000000 0.000000 0.000000 0.000000 0.057963 0.000000
# 6 0.000000 0.000000 0.000000 0.000000 0.000000 0.084405
#
#
# Mechanical properties :
#
#
# Convention : Reuss Voigt Hill
#
# Bulk Modulus (GPa) = 38.92067 49.43507 44.17787
# Shear Modulus (GPa) = 7.26779 13.39602 10.33190
#
# Velocity S-wave (km/s) = 2.21180 3.00284 2.63715
# Velocity P-wave (km/s) = 5.72020 6.73039 6.24575
#
# Compressibility (1/GPa) = 0.02569329
#
# Stress axis : x y z
#
# Youngs Moduli (GPa) = 37.78248 11.03569 7.39015
#
# Poissons Ratio (x) = 0.05723 0.06553
# Poissons Ratio (y) = 0.19594 0.73383
# Poissons Ratio (z) = 0.33505 1.09583
#
# Static dielectric constant tensor:
#      x y z
#    x 2.899800 0.000000 0.000000 
#    y 0.000000 3.072130 0.000000 
#    z 0.000000 0.000000 2.878710 
# 
# 
# High freq. dielectric constant tensor:
#      x y z
#    x 1.568260 0.000000 0.000000 
#    y 0.000000 1.544660 0.000000 
#    z 0.000000 0.000000 1.540840 
# 
# From -- ./inp_files/20215.got.cif
#   From: 2010.03.12/outbox.cif.g09.slc.cpg/sg38_11_cif.got.tgz:20215.got - 2010.04.14 02:38:36.
