data_PCOD8180349
_publ_section_title
;
Structure prediction by ZEFSAII (Michael W. Deem and Ramdas Pophale) SiO2 
 PCOD8180349
Probable space group: A M M 2
;
_chemical_formula_sum "Si O2"
_cell_formula_units_Z 48
_cell_length_a 16.950612
_cell_length_b 8.693897
_cell_length_c 15.864973
_cell_angle_alpha 90.000000
_cell_angle_beta 90.000000
_cell_angle_gamma 90.000000
_cell_volume 2337.971490
_symmetry_space_group_name_H-M "A M M 2"
_symmetry_group_IT_number 38
_symmetry_cell_setting 'orthorhombic'
loop_
_space_group_symop_operation_xyz
x,y,z
-x,-y,z
-x,y,z
x,-y,z
x,1/2+y,1/2+z
-x,1/2-y,1/2+z
-x,1/2+y,1/2+z
x,1/2-y,1/2+z
loop_
_atom_site_type_symbol
_atom_site_label
_atom_site_fract_x
_atom_site_fract_y
_atom_site_fract_z
Si Si1 0.690181 0.179273 0.333690
Si Si2 0.000000 0.682949 0.145743
Si Si3 0.682102 0.677747 0.645635
Si Si4 0.166876 0.318828 0.082460
Si Si5 0.000000 0.182470 0.833508
Si Si6 0.164592 0.818918 0.906655
Si Si7 0.411482 0.817957 0.491965
O O1 0.650927 0.205384 0.241374
O O2 0.771548 0.276130 0.335728
O O3 0.632574 0.241562 0.407522
O O4 0.709853 0.000000 0.346647
O O5 0.921631 0.743670 0.099083
O O6 0.000000 0.500000 0.146735
O O7 0.000000 0.751010 0.239694
O O8 0.679148 0.500000 0.620815
O O9 0.772311 0.736234 0.644854
O O10 0.629524 0.767579 0.578463
O O11 0.173087 0.500000 0.096871
O O12 0.191889 0.274516 0.988463
O O13 0.078071 0.241344 0.880563
O O14 0.000000 0.000000 0.828158
O O15 0.164089 0.000000 0.924239
O O16 0.500000 0.750415 0.490314
O O17 0.412959 0.000000 0.490844
#
# Coordination Sequence:
#
# PCOD8180349 Si02
#       7
#     8   4   8   8   4   8   8
#     4  10  22  40  62  89 123 160 199 243 298 360
#     4   9  19  34  53  79 112 157 206 248 295 353
#     4  11  23  39  62  93 124 158 202 249 300 355
#     4  11  21  36  58  83 117 160 205 249 299 355
#     4   9  19  34  51  79 116 153 198 250 299 347
#     4  11  21  35  58  85 117 157 202 249 299 352
#     4  10  22  42  66  90 120 160 199 241 299 363
#
# _framework density 20.530618
#
# number of rings (size 3 to 8) (size 9 to 14) (size 15 to 20)
#    0.000    1.667    1.667    3.000    0.000    3.667 
#    0.000    4.167    0.000    6.000    0.000    0.000 
#    0.000    0.000    0.000    0.000    0.000    0.000 
#
# Total GULP energy -297626.118744 kJ/mol
# GULP energy per Si atom -12401.088281 kJ/mol
# Density = 2.048389 g / cm^3
# Si number density = 20.530618 Si / 1000 Ang^3
#
#
#
# Elastic Constant Matrix: (Units=GPa)
#
#
# Indices 1 2 3 4 5 6 
#
# 1 136.7842 13.0027 47.0599 0.0000 0.0000 0.0000
# 2 13.0027 14.5929 11.7324 0.0000 0.0000 0.0000
# 3 47.0599 11.7324 128.3154 0.0000 0.0000 0.0000
# 4 0.0000 0.0000 0.0000 27.0994 0.0000 0.0000
# 5 0.0000 0.0000 0.0000 0.0000 23.3510 0.0000
# 6 0.0000 0.0000 0.0000 0.0000 0.0000 22.7696
#
#
#
# Elastic Compliance Matrix: (Units=1/GPa)
#
#
# Indices 1 2 3 4 5 6 
#
# 1 0.008778 -0.005648 -0.002703 0.000000 0.000000 0.000000
# 2 -0.005648 0.077598 -0.005024 0.000000 0.000000 0.000000
# 3 -0.002703 -0.005024 0.009244 0.000000 0.000000 0.000000
# 4 0.000000 0.000000 0.000000 0.036901 0.000000 0.000000
# 5 0.000000 0.000000 0.000000 0.000000 0.042825 0.000000
# 6 0.000000 0.000000 0.000000 0.000000 0.000000 0.043918
#
#
# Mechanical properties :
#
#
# Convention : Reuss Voigt Hill
#
# Bulk Modulus (GPa) = 14.51999 47.03138 30.77569
# Shear Modulus (GPa) = 18.58946 28.50383 23.54664
#
# Velocity S-wave (km/s) = 3.01233 3.73011 3.39027
# Velocity P-wave (km/s) = 4.38025 6.44277 5.50890
#
# Compressibility (1/GPa) = 0.06887058
#
# Stress axis : x y z
#
# Youngs Moduli (GPa) = 113.92677 12.88690 108.17976
#
# Poissons Ratio (x) = 0.07279 0.29238
# Poissons Ratio (y) = 0.64347 0.54346
# Poissons Ratio (z) = 0.30792 0.06474
#
# Static dielectric constant tensor:
#      x y z
#    x 3.936420 0.000000 0.000000 
#    y 0.000000 3.427500 0.000000 
#    z 0.000000 0.000000 3.817780 
# 
# 
# High freq. dielectric constant tensor:
#      x y z
#    x 1.804170 0.000000 0.000000 
#    y 0.000000 1.781020 0.000000 
#    z 0.000000 0.000000 1.814700 
# 
# From -- ./inp_files/15012.got.cif
#   From: 2010.03.12/outbox.cif.g09.slc.cpg/sg38_8_cif.got.tgz:15012.got - 2010.04.14 02:38:36.
