data_PCOD8180227
_publ_section_title
;
Structure prediction by ZEFSAII (Michael W. Deem and Ramdas Pophale) SiO2 
 PCOD8180227
Probable space group: A M M 2
;
_chemical_formula_sum "Si O2"
_cell_formula_units_Z 48
_cell_length_a 8.579365
_cell_length_b 14.457270
_cell_length_c 20.129504
_cell_angle_alpha 90.000000
_cell_angle_beta 90.000000
_cell_angle_gamma 90.000000
_cell_volume 2496.746849
_symmetry_space_group_name_H-M "A M M 2"
_symmetry_group_IT_number 38
_symmetry_cell_setting 'orthorhombic'
loop_
_space_group_symop_operation_xyz
x,y,z
-x,-y,z
-x,y,z
x,-y,z
x,1/2+y,1/2+z
-x,1/2-y,1/2+z
-x,1/2+y,1/2+z
x,1/2-y,1/2+z
loop_
_atom_site_type_symbol
_atom_site_label
_atom_site_fract_x
_atom_site_fract_y
_atom_site_fract_z
Si Si1 0.817277 0.314581 0.801000
Si Si2 0.317047 0.000000 0.886631
Si Si3 0.183924 0.000000 0.492540
Si Si4 0.818131 0.689002 0.423267
Si Si5 0.315111 0.500000 0.237902
Si Si6 0.681784 0.000000 0.347550
Si Si7 0.680374 0.195823 0.688205
Si Si8 0.679929 0.690605 0.035924
O O1 0.757733 0.248512 0.860567
O O2 0.723917 0.410337 0.804354
O O3 0.780819 0.267445 0.730815
O O4 0.000000 0.334925 0.807525
O O5 0.264054 0.909792 0.926200
O O6 0.500000 0.000000 0.882196
O O7 0.245284 0.000000 0.812412
O O8 0.259440 0.087245 0.528077
O O9 0.217700 0.000000 0.414430
O O10 0.000000 0.000000 0.503326
O O11 0.780316 0.741156 0.491101
O O12 0.000000 0.672324 0.417227
O O13 0.500000 0.500000 0.238733
O O14 0.255289 0.408210 0.200408
O O15 0.500000 0.000000 0.365495
O O16 0.500000 0.202803 0.709897
O O17 0.702569 0.222268 0.611623
O O18 0.500000 0.694925 0.014220
#
# Coordination Sequence:
#
# PCOD8180227 Si02
#       8
#     8   4   4   8   4   4   8   8
#     4  11  23  39  61  89 123 159 199 247 301 363
#     4  11  21  36  63  91 118 153 203 249 291 352
#     4  12  23  37  59  90 127 161 198 251 309 364
#     4  11  23  39  60  87 124 160 198 248 301 359
#     4   9  17  32  58  88 120 152 185 240 295 342
#     4  12  24  39  64  91 119 156 204 256 301 354
#     4  10  21  39  61  89 123 159 202 247 297 357
#     4  11  23  39  62  90 122 162 205 249 300 363
#
# _framework density 19.225016
#
# number of rings (size 3 to 8) (size 9 to 14) (size 15 to 20)
#    0.000    1.167    3.333    3.750    0.000    4.000 
#    0.000    1.250    0.000    5.000    0.000    0.000 
#    0.000    0.000    0.000    0.000    0.000    0.000 
#
# Total GULP energy -297753.942112 kJ/mol
# GULP energy per Si atom -12406.414255 kJ/mol
# Density = 1.918126 g / cm^3
# Si number density = 19.225016 Si / 1000 Ang^3
#
#
#
# Elastic Constant Matrix: (Units=GPa)
#
#
# Indices 1 2 3 4 5 6 
#
# 1 51.6073 23.9604 18.0863 0.0000 0.0000 0.0000
# 2 23.9604 127.0711 38.2840 0.0000 0.0000 0.0000
# 3 18.0863 38.2840 93.0661 0.0000 0.0000 0.0000
# 4 0.0000 0.0000 0.0000 27.0011 0.0000 0.0000
# 5 0.0000 0.0000 0.0000 0.0000 28.6740 0.0000
# 6 0.0000 0.0000 0.0000 0.0000 0.0000 28.3263
#
#
#
# Elastic Compliance Matrix: (Units=1/GPa)
#
#
# Indices 1 2 3 4 5 6 
#
# 1 0.021910 -0.003252 -0.002920 0.000000 0.000000 0.000000
# 2 -0.003252 0.009465 -0.003262 0.000000 0.000000 0.000000
# 3 -0.002920 -0.003262 0.012654 0.000000 0.000000 0.000000
# 4 0.000000 0.000000 0.000000 0.037036 0.000000 0.000000
# 5 0.000000 0.000000 0.000000 0.000000 0.034875 0.000000
# 6 0.000000 0.000000 0.000000 0.000000 0.000000 0.035303
#
#
# Mechanical properties :
#
#
# Convention : Reuss Voigt Hill
#
# Bulk Modulus (GPa) = 39.74169 48.04510 43.89339
# Shear Modulus (GPa) = 28.01146 29.56120 28.78633
#
# Velocity S-wave (km/s) = 3.82125 3.92553 3.87374
# Velocity P-wave (km/s) = 6.33924 6.75215 6.54895
#
# Compressibility (1/GPa) = 0.02516249
#
# Stress axis : x y z
#
# Youngs Moduli (GPa) = 45.64077 105.64748 79.02388
#
# Poissons Ratio (x) = 0.34351 0.23078
# Poissons Ratio (y) = 0.14840 0.25776
# Poissons Ratio (z) = 0.13329 0.34461
#
# Static dielectric constant tensor:
#      x y z
#    x 3.449650 0.000000 0.000000 
#    y 0.000000 3.565860 0.000000 
#    z 0.000000 0.000000 3.425520 
# 
# 
# High freq. dielectric constant tensor:
#      x y z
#    x 1.748670 0.000000 0.000000 
#    y 0.000000 1.752200 0.000000 
#    z 0.000000 0.000000 1.742620 
# 
# From -- ./inp_files/16739.got.cif
#   From: 2010.03.12/outbox.cif.g09.slc.cpg/sg38_9_cif.got.tgz:16739.got - 2010.04.14 02:38:36.
