data_PCOD8180289
_publ_section_title
;
Structure prediction by ZEFSAII (Michael W. Deem and Ramdas Pophale) SiO2 
 PCOD8180289
Probable space group: A M M 2
;
_chemical_formula_sum "Si O2"
_cell_formula_units_Z 64
_cell_length_a 9.372868
_cell_length_b 33.170169
_cell_length_c 11.543356
_cell_angle_alpha 90.000000
_cell_angle_beta 90.000000
_cell_angle_gamma 90.000000
_cell_volume 3588.824943
_symmetry_space_group_name_H-M "A M M 2"
_symmetry_group_IT_number 38
_symmetry_cell_setting 'orthorhombic'
loop_
_space_group_symop_operation_xyz
x,y,z
-x,-y,z
-x,y,z
x,-y,z
x,1/2+y,1/2+z
-x,1/2-y,1/2+z
-x,1/2+y,1/2+z
x,1/2-y,1/2+z
loop_
_atom_site_type_symbol
_atom_site_label
_atom_site_fract_x
_atom_site_fract_y
_atom_site_fract_z
Si Si1 0.831761 0.852067 0.125000
Si Si2 0.333046 0.046259 0.491985
Si Si3 0.841611 0.272315 0.485121
Si Si4 0.666807 0.625137 0.855962
Si Si5 0.840765 0.819947 0.754862
Si Si6 0.832088 0.607501 0.399924
Si Si7 0.332251 0.195666 0.531379
Si Si8 0.836054 0.453820 0.218098
O O1 0.751223 0.861719 0.242596
O O2 0.000000 0.855752 0.148401
O O3 0.793838 0.807755 0.074353
O O4 0.775680 0.885391 0.030543
O O5 0.500000 0.047949 0.517894
O O6 0.292597 0.079020 0.393070
O O7 0.255777 0.060902 0.609077
O O8 0.287892 0.000000 0.456610
O O9 0.849060 0.286793 0.354019
O O10 0.729910 0.236289 0.477336
O O11 0.000000 0.257237 0.522991
O O12 0.500000 0.628043 0.827932
O O13 0.709792 0.656231 0.957241
O O14 0.772286 0.860095 0.809164
O O15 0.732137 0.806568 0.658033
O O16 0.000000 0.827049 0.703146
O O17 0.789650 0.565079 0.342105
O O18 0.000000 0.615172 0.408391
O O19 0.500000 0.200320 0.540637
O O20 0.808770 0.500000 0.239473
O O21 0.000000 0.443245 0.189842
#
# Coordination Sequence:
#
# PCOD8180289 Si02
#       8
#     8   8   8   8   8   8   8   8
#     4   9  19  36  56  74  97 135 178 215 252 303
#     4   9  18  34  54  74 103 142 177 212 256 306
#     4   9  20  37  54  73  97 130 173 214 251 300
#     4  10  22  37  51  75 107 138 174 216 262 311
#     4   9  18  34  54  72  93 126 168 208 244 293
#     4   8  15  31  52  73  99 129 163 205 252 299
#     4  11  23  34  49  75 106 132 160 209 264 311
#     4   9  16  27  49  80 108 131 160 206 261 312
#
# _framework density 17.833136
#
# number of rings (size 3 to 8) (size 9 to 14) (size 15 to 20)
#    0.000    2.750    0.000    2.625    1.750    2.500 
#    0.000    3.125    0.000    0.750    0.000    0.000 
#    0.000    0.000    0.000    0.000    0.000    0.000 
#
# Total GULP energy -396548.725242 kJ/mol
# GULP energy per Si atom -12392.147664 kJ/mol
# Density = 1.779255 g / cm^3
# Si number density = 17.833136 Si / 1000 Ang^3
#
#
#
# Elastic Constant Matrix: (Units=GPa)
#
#
# Indices 1 2 3 4 5 6 
#
# 1 56.0750 42.0600 45.4753 0.0000 0.0000 0.0000
# 2 42.0600 95.3216 55.1421 0.0000 0.0000 0.0000
# 3 45.4753 55.1421 92.9167 0.0000 0.0000 0.0000
# 4 0.0000 0.0000 0.0000 24.9989 0.0000 0.0000
# 5 0.0000 0.0000 0.0000 0.0000 -50.1846 0.0000
# 6 0.0000 0.0000 0.0000 0.0000 0.0000 22.7688
#
#
#
# Elastic Compliance Matrix: (Units=1/GPa)
#
#
# Indices 1 2 3 4 5 6 
#
# 1 0.033124 -0.007976 -0.011478 0.000000 0.000000 0.000000
# 2 -0.007976 0.017896 -0.006717 0.000000 0.000000 0.000000
# 3 -0.011478 -0.006717 0.020366 0.000000 0.000000 0.000000
# 4 0.000000 0.000000 0.000000 0.040002 0.000000 0.000000
# 5 0.000000 0.000000 0.000000 0.000000 -0.019926 0.000000
# 6 0.000000 0.000000 0.000000 0.000000 0.000000 0.043920
#
#
# Mechanical properties :
#
#
# Convention : Reuss Voigt Hill
#
# Bulk Modulus (GPa) = 52.50945 58.85200 55.68072
# Shear Modulus (GPa) = 25.76374 6.29234 16.02804
#
# Velocity S-wave (km/s) = 3.80506 1.88046 3.00122
# Velocity P-wave (km/s) = 6.98666 6.14719 6.58033
#
# Compressibility (1/GPa) = 0.01904419
#
# Stress axis : x y z
#
# Youngs Moduli (GPa) = 30.18933 55.87962 49.10094
#
# Poissons Ratio (x) = 0.44568 0.56360
# Poissons Ratio (y) = 0.24078 0.32980
# Poissons Ratio (z) = 0.34653 0.37533
#
# Static dielectric constant tensor:
#      x y z
#    x 3.316390 0.000000 0.000000 
#    y 0.000000 3.497530 0.000000 
#    z 0.000000 0.000000 3.333920 
# 
# 
# High freq. dielectric constant tensor:
#      x y z
#    x 1.672480 0.000000 0.000000 
#    y 0.000000 1.694790 0.000000 
#    z 0.000000 0.000000 1.686920 
# 
# From -- ./inp_files/8569.got.cif
#   From: 2010.03.12/outbox.cif.g09.slc.cpg/sg38_5_cif.got.tgz:8569.got - 2010.04.14 02:38:36.
