data_PCOD8180513
_publ_section_title
;
Structure prediction by ZEFSAII (Michael W. Deem and Ramdas Pophale) SiO2 
 PCOD8180513
Probable space group: A M M 2
;
_chemical_formula_sum "Si O2"
_cell_formula_units_Z 32
_cell_length_a 11.138176
_cell_length_b 18.668048
_cell_length_c 7.425548
_cell_angle_alpha 90.000000
_cell_angle_beta 90.000000
_cell_angle_gamma 90.000000
_cell_volume 1543.979376
_symmetry_space_group_name_H-M "A M M 2"
_symmetry_group_IT_number 38
_symmetry_cell_setting 'orthorhombic'
loop_
_space_group_symop_operation_xyz
x,y,z
-x,-y,z
-x,y,z
x,-y,z
x,1/2+y,1/2+z
-x,1/2-y,1/2+z
-x,1/2+y,1/2+z
x,1/2-y,1/2+z
loop_
_atom_site_type_symbol
_atom_site_label
_atom_site_fract_x
_atom_site_fract_y
_atom_site_fract_z
Si Si1 0.000000 0.854395 0.531260
Si Si2 0.362902 0.178425 0.344237
Si Si3 0.251396 0.416703 0.128685
Si Si4 0.000000 0.194885 0.123715
Si Si5 0.745451 0.823540 0.968364
O O1 0.113956 0.901579 0.581918
O O2 0.000000 0.780852 0.645368
O O3 0.000000 0.838722 0.320264
O O4 0.500000 0.203383 0.366655
O O5 0.337023 0.109962 0.467917
O O6 0.337874 0.158026 0.138070
O O7 0.274003 0.242049 0.403613
O O8 0.273311 0.500000 0.156142
O O9 0.291366 0.377471 0.311351
O O10 0.115204 0.166854 0.016017
#
# Coordination Sequence:
#
# PCOD8180513 Si02
#       5
#     4   8   8   4   8
#     4  12  21  41  68 103 141 171 222 288 346 412
#     4  12  25  44  72 103 135 180 236 286 332 404
#     4  12  27  45  67 102 143 183 221 283 358 412
#     4  12  20  39  74 109 128 173 236 288 337 392
#     4  12  23  43  73 106 136 175 233 288 337 412
#
# _framework density 20.725663999999998
#
# number of rings (size 3 to 8) (size 9 to 14) (size 15 to 20)
#    0.000    0.000    7.500    3.375    0.000    2.500 
#    0.000    0.000    0.000    0.000    0.000    0.000 
#    0.000    0.000    0.000    0.000    0.000    0.000 
#
# Total GULP energy -198557.485738 kJ/mol
# GULP energy per Si atom -12409.842859 kJ/mol
# Density = 2.067849 g / cm^3
# Si number density = 20.725664 Si / 1000 Ang^3
#
#
#
# Elastic Constant Matrix: (Units=GPa)
#
#
# Indices 1 2 3 4 5 6 
#
# 1 94.7866 6.8023 31.0291 0.0000 0.0000 0.0000
# 2 6.8023 109.7235 40.6348 0.0000 0.0000 0.0000
# 3 31.0291 40.6348 144.6153 0.0000 0.0000 0.0000
# 4 0.0000 0.0000 0.0000 28.4739 0.0000 0.0000
# 5 0.0000 0.0000 0.0000 0.0000 21.4199 0.0000
# 6 0.0000 0.0000 0.0000 0.0000 0.0000 12.4123
#
#
#
# Elastic Compliance Matrix: (Units=1/GPa)
#
#
# Indices 1 2 3 4 5 6 
#
# 1 0.011352 0.000221 -0.002498 0.000000 0.000000 0.000000
# 2 0.000221 0.010177 -0.002907 0.000000 0.000000 0.000000
# 3 -0.002498 -0.002907 0.008268 0.000000 0.000000 0.000000
# 4 0.000000 0.000000 0.000000 0.035120 0.000000 0.000000
# 5 0.000000 0.000000 0.000000 0.000000 0.046686 0.000000
# 6 0.000000 0.000000 0.000000 0.000000 0.000000 0.080565
#
#
# Mechanical properties :
#
#
# Convention : Reuss Voigt Hill
#
# Bulk Modulus (GPa) = 51.46925 56.22863 53.84894
# Shear Modulus (GPa) = 23.92228 30.50517 27.21373
#
# Velocity S-wave (km/s) = 3.40109 3.84064 3.62753
# Velocity P-wave (km/s) = 6.34907 6.84516 6.60178
#
# Compressibility (1/GPa) = 0.01942907
#
# Stress axis : x y z
#
# Youngs Moduli (GPa) = 88.09155 98.26403 120.95313
#
# Poissons Ratio (x) = -0.02175 0.30212
# Poissons Ratio (y) = -0.01949 0.35161
# Poissons Ratio (z) = 0.22004 0.28565
#
# Static dielectric constant tensor:
#      x y z
#    x 3.801650 0.000000 0.000000 
#    y 0.000000 3.428140 0.000000 
#    z 0.000000 0.000000 4.059090 
# 
# 
# High freq. dielectric constant tensor:
#      x y z
#    x 1.820120 0.000000 0.000000 
#    y 0.000000 1.778450 0.000000 
#    z 0.000000 0.000000 1.836800 
# 
# From -- ./inp_files/4251.got.cif
#   From: 2010.03.12/outbox.cif.g09.slc.cpg/sg38_3_cif.got.tgz:4251.got - 2010.04.14 02:38:36.
