data_PCOD8180331
_publ_section_title
;
Structure prediction by ZEFSAII (Michael W. Deem and Ramdas Pophale) SiO2 
 PCOD8180331
Probable space group: A M M 2
;
_chemical_formula_sum "Si O2"
_cell_formula_units_Z 40
_cell_length_a 8.840828
_cell_length_b 7.689732
_cell_length_c 29.962155
_cell_angle_alpha 90.000000
_cell_angle_beta 90.000000
_cell_angle_gamma 90.000000
_cell_volume 2036.935100
_symmetry_space_group_name_H-M "A M M 2"
_symmetry_group_IT_number 38
_symmetry_cell_setting 'orthorhombic'
loop_
_space_group_symop_operation_xyz
x,y,z
-x,-y,z
-x,y,z
x,-y,z
x,1/2+y,1/2+z
-x,1/2-y,1/2+z
-x,1/2+y,1/2+z
x,1/2-y,1/2+z
loop_
_atom_site_type_symbol
_atom_site_label
_atom_site_fract_x
_atom_site_fract_y
_atom_site_fract_z
Si Si1 0.331506 0.798086 0.452860
Si Si2 0.681209 0.305010 0.642653
Si Si3 0.822630 0.702802 0.863667
Si Si4 0.679657 0.500000 0.306197
Si Si5 0.333867 0.795969 0.046509
Si Si6 0.679760 0.000000 0.704826
O O1 0.500000 0.711461 0.450890
O O2 0.229513 0.727944 0.412350
O O3 0.248641 0.758460 0.500611
O O4 0.347700 0.000000 0.446011
O O5 0.500000 0.305264 0.640103
O O6 0.739312 0.500000 0.654285
O O7 0.743288 0.240575 0.593654
O O8 0.742330 0.172552 0.679998
O O9 0.779794 0.500000 0.855382
O O10 0.740726 0.822282 0.827429
O O11 0.000000 0.731936 0.859821
O O12 0.500000 0.500000 0.309560
O O13 0.737863 0.500000 0.255257
O O14 0.500000 0.707996 0.043162
O O15 0.350054 0.000000 0.048703
O O16 0.500000 0.000000 0.703012
#
# Coordination Sequence:
#
# PCOD8180331 Si02
#       6
#     8   8   8   4   8   4
#     4   9  17  28  46  75 105 136 175 219 267 314
#     4   8  14  25  40  62  98 138 171 206 253 315
#     4  10  22  40  58  77 107 147 188 229 278 337
#     4  11  23  37  57  85 111 141 185 239 290 331
#     4   8  14  23  38  65 100 137 172 206 253 311
#     4   9  18  29  45  71 101 137 175 213 272 327
#
# _framework density 19.637346000000001
#
# number of rings (size 3 to 8) (size 9 to 14) (size 15 to 20)
#    0.000    3.000    0.000    2.100    2.800    2.000 
#    0.000    2.000    0.000    0.000    0.000    2.800 
#    0.000    3.200    0.000    0.000    0.000    0.000 
#
# Total GULP energy -247761.538537 kJ/mol
# GULP energy per Si atom -12388.076927 kJ/mol
# Density = 1.959265 g / cm^3
# Si number density = 19.637346 Si / 1000 Ang^3
#
#
#
# Elastic Constant Matrix: (Units=GPa)
#
#
# Indices 1 2 3 4 5 6 
#
# 1 44.1513 26.7399 39.1210 0.0000 0.0000 0.0000
# 2 26.7399 95.4437 83.0070 0.0000 0.0000 0.0000
# 3 39.1210 83.0070 211.4561 0.0000 0.0000 0.0000
# 4 0.0000 0.0000 0.0000 36.2345 0.0000 0.0000
# 5 0.0000 0.0000 0.0000 0.0000 -5.6128 0.0000
# 6 0.0000 0.0000 0.0000 0.0000 0.0000 16.4603
#
#
#
# Elastic Compliance Matrix: (Units=1/GPa)
#
#
# Indices 1 2 3 4 5 6 
#
# 1 0.028692 -0.005196 -0.003269 0.000000 0.000000 0.000000
# 2 -0.005196 0.016849 -0.005653 0.000000 0.000000 0.000000
# 3 -0.003269 -0.005653 0.007553 0.000000 0.000000 0.000000
# 4 0.000000 0.000000 0.000000 0.027598 0.000000 0.000000
# 5 0.000000 0.000000 0.000000 0.000000 -0.178164 0.000000
# 6 0.000000 0.000000 0.000000 0.000000 0.000000 0.060752
#
#
# Mechanical properties :
#
#
# Convention : Reuss Voigt Hill
#
# Bulk Modulus (GPa) = 40.22550 72.08742 56.15646
# Shear Modulus (GPa) = -25317.93070 22.89528 -12647.51771
#
# Velocity S-wave (km/s) = -113.66941 3.41824 -80.34006
# Velocity P-wave (km/s) = 131.17590 7.23659 92.61412
#
# Compressibility (1/GPa) = 0.02485985
#
# Stress axis : x y z
#
# Youngs Moduli (GPa) = 34.85234 59.34920 132.39898
#
# Poissons Ratio (x) = 0.30837 0.43278
# Poissons Ratio (y) = 0.18109 0.74845
# Poissons Ratio (z) = 0.11392 0.33550
#
# Static dielectric constant tensor:
#      x y z
#    x 3.421850 0.000000 0.000000 
#    y 0.000000 3.564650 0.000000 
#    z 0.000000 0.000000 4.048880 
# 
# 
# High freq. dielectric constant tensor:
#      x y z
#    x 1.692870 0.000000 0.000000 
#    y 0.000000 1.766950 0.000000 
#    z 0.000000 0.000000 1.779740 
# 
# From -- ./inp_files/23250.got.cif
#   From: 2010.03.12/outbox.cif.g09.slc.cpg/sg38_12_cif.got.tgz:23250.got - 2010.04.14 02:38:36.
