data_PCOD8180857
_publ_section_title
;
Structure prediction by ZEFSAII (Michael W. Deem and Ramdas Pophale) SiO2 
 PCOD8180857
Probable space group: A B M 2
;
_chemical_formula_sum "Si O2"
_cell_formula_units_Z 64
_cell_length_a 10.383530
_cell_length_b 17.855198
_cell_length_c 16.067228
_cell_angle_alpha 90.000000
_cell_angle_beta 90.000000
_cell_angle_gamma 90.000000
_cell_volume 2978.863816
_symmetry_space_group_name_H-M "A B M 2"
_symmetry_group_IT_number 39
_symmetry_cell_setting 'orthorhombic'
loop_
_space_group_symop_operation_xyz
x,y,z
-x,-y,z
-x,1/2+y,z
x,1/2-y,z
x,1/2+y,1/2+z
-x,1/2-y,1/2+z
-x,y,1/2+z
x,-y,1/2+z
loop_
_atom_site_type_symbol
_atom_site_label
_atom_site_fract_x
_atom_site_fract_y
_atom_site_fract_z
Si Si1 0.751990 0.074853 0.798130
Si Si2 0.885856 0.168711 0.374553
Si Si3 0.084827 0.570259 0.954458
Si Si4 0.665052 0.667907 0.005664
Si Si5 0.732016 0.587194 0.752025
Si Si6 0.853406 0.161862 0.647735
Si Si7 0.491591 0.088459 0.874953
Si Si8 0.853222 0.839067 0.601322
O O1 0.835962 0.042918 0.874513
O O2 0.826504 0.133835 0.741082
O O3 0.628587 0.116124 0.839004
O O4 0.721248 0.002477 0.740432
O O5 0.920525 0.250000 0.335106
O O6 0.761569 0.177787 0.430382
O O7 0.862284 0.108958 0.301709
O O8 0.000493 0.142306 0.432336
O O9 0.000000 0.500000 0.987006
O O10 0.178679 0.606132 0.023718
O O11 0.611909 0.750000 0.032192
O O12 0.744406 0.629552 0.082822
O O13 0.545720 0.620046 0.967130
O O14 0.608678 0.614841 0.804028
O O15 0.745140 0.633162 0.666620
O O16 0.839336 0.250000 0.644914
O O17 0.999338 0.139443 0.625093
O O18 0.500000 0.000000 0.885224
O O19 0.836421 0.750000 0.584728
#
# Coordination Sequence:
#
# PCOD8180857 Si02
#       8
#     8   8   8   8   8   8   8   8
#     4  11  24  41  61  93 129 165 214 267 320 383
#     4  10  18  35  62  86 118 160 206 256 316 384
#     4  12  24  38  60  94 135 168 204 265 332 396
#     4   9  18  37  64  90 117 163 214 258 314 387
#     4  10  21  40  63  88 120 161 212 260 313 381
#     4  10  22  39  62  92 127 164 209 266 328 384
#     4   9  21  42  63  87 124 163 215 260 310 387
#     4  11  24  40  62  95 130 167 215 268 329 389
#
# _framework density 21.484701000000001
#
# number of rings (size 3 to 8) (size 9 to 14) (size 15 to 20)
#    0.000    1.750    2.500    1.500    1.750    3.000 
#    2.250    0.625    0.000    0.000    0.000    0.000 
#    0.000    0.000    0.000    0.000    0.000    0.000 
#
# Total GULP energy -396518.169516 kJ/mol
# GULP energy per Si atom -12391.192797 kJ/mol
# Density = 2.143580 g / cm^3
# Si number density = 21.484701 Si / 1000 Ang^3
#
#
#
# Elastic Constant Matrix: (Units=GPa)
#
#
# Indices 1 2 3 4 5 6 
#
# 1 51.9092 29.8801 13.4739 0.0000 0.0000 0.0000
# 2 29.8801 66.1414 35.7398 0.0000 0.0000 0.0000
# 3 13.4739 35.7398 92.6311 0.0000 0.0000 0.0000
# 4 0.0000 0.0000 0.0000 33.6709 0.0000 0.0000
# 5 0.0000 0.0000 0.0000 0.0000 37.6626 0.0000
# 6 0.0000 0.0000 0.0000 0.0000 0.0000 26.2694
#
#
#
# Elastic Compliance Matrix: (Units=1/GPa)
#
#
# Indices 1 2 3 4 5 6 
#
# 1 0.026101 -0.012305 0.000951 0.000000 0.000000 0.000000
# 2 -0.012305 0.024903 -0.007818 0.000000 0.000000 0.000000
# 3 0.000951 -0.007818 0.013674 0.000000 0.000000 0.000000
# 4 0.000000 0.000000 0.000000 0.029699 0.000000 0.000000
# 5 0.000000 0.000000 0.000000 0.000000 0.026552 0.000000
# 6 0.000000 0.000000 0.000000 0.000000 0.000000 0.038067
#
#
# Mechanical properties :
#
#
# Convention : Reuss Voigt Hill
#
# Bulk Modulus (GPa) = 37.97605 40.98549 39.48077
# Shear Modulus (GPa) = 24.25802 28.29310 26.27556
#
# Velocity S-wave (km/s) = 3.36383 3.63284 3.50092
# Velocity P-wave (km/s) = 5.72725 6.05927 5.89560
#
# Compressibility (1/GPa) = 0.02633239
#
# Stress axis : x y z
#
# Youngs Moduli (GPa) = 38.31321 40.15609 73.13305
#
# Poissons Ratio (x) = 0.49413 -0.06956
# Poissons Ratio (y) = 0.47145 0.57178
# Poissons Ratio (z) = -0.03644 0.31395
#
# Static dielectric constant tensor:
#      x y z
#    x 3.925160 0.000000 0.000000 
#    y 0.000000 3.954550 0.000000 
#    z 0.000000 0.000000 3.958200 
# 
# 
# High freq. dielectric constant tensor:
#      x y z
#    x 1.822560 0.000000 0.000000 
#    y 0.000000 1.838930 0.000000 
#    z 0.000000 0.000000 1.838250 
# 
# From -- ./inp_files/9490.got.cif
#   From: 2010.03.12/outbox.cif.g09.slc.cpg/sg39_5_cif.got.tgz:9490.got - 2010.04.14 02:53:20.
