data_PCOD8180840
_publ_section_title
;
Structure prediction by ZEFSAII (Michael W. Deem and Ramdas Pophale) SiO2 
 PCOD8180840
Probable space group: A B M 2
;
_chemical_formula_sum "Si O2"
_cell_formula_units_Z 40
_cell_length_a 4.959085
_cell_length_b 26.336190
_cell_length_c 17.470392
_cell_angle_alpha 90.000000
_cell_angle_beta 90.000000
_cell_angle_gamma 90.000000
_cell_volume 2281.692678
_symmetry_space_group_name_H-M "A B M 2"
_symmetry_group_IT_number 39
_symmetry_cell_setting 'orthorhombic'
loop_
_space_group_symop_operation_xyz
x,y,z
-x,-y,z
-x,1/2+y,z
x,1/2-y,z
x,1/2+y,1/2+z
-x,1/2-y,1/2+z
-x,y,1/2+z
x,-y,1/2+z
loop_
_atom_site_type_symbol
_atom_site_label
_atom_site_fract_x
_atom_site_fract_y
_atom_site_fract_z
Si Si1 0.017520 0.871086 0.461860
Si Si2 0.250000 0.032885 0.912057
Si Si3 0.530368 0.808024 0.712225
Si Si4 0.517522 0.871085 0.862255
Si Si5 0.030373 0.308024 0.111888
O O1 0.750001 0.872140 0.412057
O O2 0.123836 0.929274 0.477175
O O3 0.250000 0.842117 0.412058
O O4 0.961613 0.844070 0.541456
O O5 0.376161 0.070727 0.846940
O O6 0.500000 0.000000 0.945375
O O7 0.000000 0.000000 0.878738
O O8 0.498458 0.750000 0.740013
O O9 0.461623 0.844069 0.782659
O O10 0.328244 0.819456 0.642478
O O11 0.828244 0.819451 0.681636
O O12 0.998498 0.250000 0.084098
#
# Coordination Sequence:
#
# PCOD8180840 Si02
#       5
#     8   8   8   8   8
#     4  10  20  33  56  84 101 141 181 224 255 309
#     4  10  18  34  55  80 103 134 176 226 274 308
#     4  10  21  36  54  78 114 149 171 207 267 321
#     4  10  20  33  56  84 101 141 181 224 255 309
#     4  10  21  36  54  78 114 149 171 207 267 321
#
# _framework density 17.530844999999999
#
# number of rings (size 3 to 8) (size 9 to 14) (size 15 to 20)
#    1.200    0.800    2.000    2.400    0.000    1.600 
#    0.000    0.000    0.000    7.200    0.000    0.000 
#    0.000    0.000    0.000    0.000    0.000    0.000 
#
# Total GULP energy -247761.607890 kJ/mol
# GULP energy per Si atom -12388.080395 kJ/mol
# Density = 1.749094 g / cm^3
# Si number density = 17.530845 Si / 1000 Ang^3
#
#
#
# Elastic Constant Matrix: (Units=GPa)
#
#
# Indices 1 2 3 4 5 6 
#
# 1 118.4785 43.0554 30.0202 0.0000 0.0000 0.0000
# 2 43.0554 105.0928 62.7187 0.0000 0.0000 0.0000
# 3 30.0202 62.7187 79.7377 0.0000 0.0000 0.0000
# 4 0.0000 0.0000 0.0000 -15.1057 0.0000 0.0000
# 5 0.0000 0.0000 0.0000 0.0000 18.5623 0.0000
# 6 0.0000 0.0000 0.0000 0.0000 0.0000 15.0981
#
#
#
# Elastic Compliance Matrix: (Units=1/GPa)
#
#
# Indices 1 2 3 4 5 6 
#
# 1 0.009960 -0.003473 -0.001018 0.000000 0.000000 0.000000
# 2 -0.003473 0.019145 -0.013751 0.000000 0.000000 0.000000
# 3 -0.001018 -0.013751 0.023741 0.000000 0.000000 0.000000
# 4 0.000000 0.000000 0.000000 -0.066200 0.000000 0.000000
# 5 0.000000 0.000000 0.000000 0.000000 0.053873 0.000000
# 6 0.000000 0.000000 0.000000 0.000000 0.000000 0.066233
#
#
# Mechanical properties :
#
#
# Convention : Reuss Voigt Hill
#
# Bulk Modulus (GPa) = 61.12022 63.87752 62.49887
# Shear Modulus (GPa) = 33.62703 14.87860 24.25281
#
# Velocity S-wave (km/s) = 4.38444 2.91642 3.72349
# Velocity P-wave (km/s) = 7.78274 6.91788 7.36302
#
# Compressibility (1/GPa) = 0.01636120
#
# Stress axis : x y z
#
# Youngs Moduli (GPa) = 100.39707 52.23353 42.12203
#
# Poissons Ratio (x) = 0.18141 0.04289
# Poissons Ratio (y) = 0.34868 0.57922
# Poissons Ratio (z) = 0.10223 0.71827
#
# Static dielectric constant tensor:
#      x y z
#    x 3.537820 0.000000 0.000000 
#    y 0.000000 3.274880 0.000000 
#    z 0.000000 0.000000 2.816560 
# 
# 
# High freq. dielectric constant tensor:
#      x y z
#    x 1.710250 0.000000 0.000000 
#    y 0.000000 1.669900 0.000000 
#    z 0.000000 0.000000 1.632240 
# 
# From -- ./inp_files/4513.got.cif
#   From: 2010.03.12/outbox.cif.g09.slc.cpg/sg39_3_cif.got.tgz:4513.got - 2010.04.14 02:53:20.
