data_PCOD8180000
_publ_section_title
;
Structure prediction by ZEFSAII (Michael W. Deem and Ramdas Pophale) SiO2 
 PCOD8180000
Probable space group: A M M 2
;
_chemical_formula_sum "Si O2"
_cell_formula_units_Z 64
_cell_length_a 14.617750
_cell_length_b 9.179915
_cell_length_c 24.284112
_cell_angle_alpha 90.000000
_cell_angle_beta 90.000000
_cell_angle_gamma 90.000000
_cell_volume 3258.677765
_symmetry_space_group_name_H-M "A M M 2"
_symmetry_group_IT_number 38
_symmetry_cell_setting 'orthorhombic'
loop_
_space_group_symop_operation_xyz
x,y,z
-x,-y,z
-x,y,z
x,-y,z
x,1/2+y,1/2+z
-x,1/2-y,1/2+z
-x,1/2+y,1/2+z
x,1/2-y,1/2+z
loop_
_atom_site_type_symbol
_atom_site_label
_atom_site_fract_x
_atom_site_fract_y
_atom_site_fract_z
Si Si1 0.892383 0.669096 0.598620
Si Si2 0.754824 0.171936 0.523893
Si Si3 0.608624 0.339241 0.715528
Si Si4 0.259728 0.831755 0.396983
Si Si5 0.108710 0.664148 0.206411
Si Si6 0.607157 0.168407 0.820650
Si Si7 0.605952 0.329300 0.592836
Si Si8 0.895749 0.168503 0.313227
O O1 0.865051 0.500000 0.600245
O O2 0.843435 0.748011 0.548034
O O3 0.855902 0.742358 0.654779
O O4 0.000000 0.691122 0.590690
O O5 0.752532 0.212708 0.459944
O O6 0.662153 0.231184 0.550801
O O7 0.763310 0.000000 0.533870
O O8 0.500000 0.345025 0.715246
O O9 0.647684 0.500000 0.728721
O O10 0.645048 0.231388 0.762680
O O11 0.639649 0.288385 0.654685
O O12 0.343216 0.741376 0.372064
O O13 0.164745 0.795159 0.366428
O O14 0.285723 0.000000 0.390559
O O15 0.147240 0.500000 0.202415
O O16 0.144082 0.738605 0.262353
O O17 0.000000 0.664769 0.206537
O O18 0.500000 0.199893 0.827329
O O19 0.630520 0.000000 0.820712
O O20 0.500000 0.290385 0.584288
O O21 0.623340 0.500000 0.581777
O O22 0.000000 0.212387 0.327499
O O23 0.889878 0.000000 0.296162
#
# Coordination Sequence:
#
# PCOD8180000 Si02
#       8
#     8   8   8   8   8   8   8   8
#     4  10  21  38  60  84 111 146 185 224 271 329
#     4  11  24  39  56  81 111 145 189 236 278 323
#     4   8  15  31  56  83 109 139 176 217 266 328
#     4  10  23  40  56  77 106 145 190 228 267 321
#     4   9  17  31  54  85 116 142 173 218 272 327
#     4  10  21  36  56  83 112 142 177 222 275 323
#     4   9  19  37  60  84 112 148 186 225 274 331
#     4   9  18  35  58  81 107 141 180 222 269 324
#
# _framework density 19.639868
#
# number of rings (size 3 to 8) (size 9 to 14) (size 15 to 20)
#    0.000    2.500    0.000    2.250    0.000    7.250 
#    0.000    6.250    0.000    1.500    0.000    0.000 
#    0.000    0.000    0.000    0.000    0.000    0.000 
#
# Total GULP energy -396846.138443 kJ/mol
# GULP energy per Si atom -12401.441826 kJ/mol
# Density = 1.959517 g / cm^3
# Si number density = 19.639868 Si / 1000 Ang^3
#
#
#
# Elastic Constant Matrix: (Units=GPa)
#
#
# Indices 1 2 3 4 5 6 
#
# 1 70.4174 54.3208 61.2138 0.0000 0.0000 0.0000
# 2 54.3208 126.7364 97.4146 0.0000 0.0000 0.0000
# 3 61.2138 97.4146 182.1163 0.0000 0.0000 0.0000
# 4 0.0000 0.0000 0.0000 33.0404 0.0000 0.0000
# 5 0.0000 0.0000 0.0000 0.0000 20.6942 0.0000
# 6 0.0000 0.0000 0.0000 0.0000 0.0000 28.6854
#
#
#
# Elastic Compliance Matrix: (Units=1/GPa)
#
#
# Indices 1 2 3 4 5 6 
#
# 1 0.022934 -0.006631 -0.004162 0.000000 0.000000 0.000000
# 2 -0.006631 0.015317 -0.005964 0.000000 0.000000 0.000000
# 3 -0.004162 -0.005964 0.010080 0.000000 0.000000 0.000000
# 4 0.000000 0.000000 0.000000 0.030266 0.000000 0.000000
# 5 0.000000 0.000000 0.000000 0.000000 0.048323 0.000000
# 6 0.000000 0.000000 0.000000 0.000000 0.000000 0.034861
#
#
# Mechanical properties :
#
#
# Convention : Reuss Voigt Hill
#
# Bulk Modulus (GPa) = 67.48915 89.46315 78.47615
# Shear Modulus (GPa) = 24.97084 27.57205 26.27144
#
# Velocity S-wave (km/s) = 3.56959 3.75091 3.66137
# Velocity P-wave (km/s) = 7.17128 8.02557 7.61042
#
# Compressibility (1/GPa) = 0.01481720
#
# Stress axis : x y z
#
# Youngs Moduli (GPa) = 43.60331 65.28787 99.20480
#
# Poissons Ratio (x) = 0.43292 0.41287
# Poissons Ratio (y) = 0.28913 0.59168
# Poissons Ratio (z) = 0.18147 0.38939
#
# Static dielectric constant tensor:
#      x y z
#    x 3.462880 0.000000 0.000000 
#    y 0.000000 3.653700 0.000000 
#    z 0.000000 0.000000 3.641260 
# 
# 
# High freq. dielectric constant tensor:
#      x y z
#    x 1.762750 0.000000 0.000000 
#    y 0.000000 1.766370 0.000000 
#    z 0.000000 0.000000 1.763510 
# 
# From -- ./inp_files/22909.got.cif
#   From: 2010.03.12/outbox.cif.g09.slc.cpg/sg38_12_cif.got.tgz:22909.got - 2010.04.14 02:38:36.
