data_PCOD8180731
_publ_section_title
;
Structure prediction by ZEFSAII (Michael W. Deem and Ramdas Pophale) SiO2 
 PCOD8180731
Probable space group: A B M 2
;
_chemical_formula_sum "Si O2"
_cell_formula_units_Z 64
_cell_length_a 14.330328
_cell_length_b 8.680446
_cell_length_c 31.083298
_cell_angle_alpha 90.000000
_cell_angle_beta 90.000000
_cell_angle_gamma 90.000000
_cell_volume 3866.564531
_symmetry_space_group_name_H-M "A B M 2"
_symmetry_group_IT_number 39
_symmetry_cell_setting 'orthorhombic'
loop_
_space_group_symop_operation_xyz
x,y,z
-x,-y,z
-x,1/2+y,z
x,1/2-y,z
x,1/2+y,1/2+z
-x,1/2-y,1/2+z
-x,y,1/2+z
x,-y,1/2+z
loop_
_atom_site_type_symbol
_atom_site_label
_atom_site_fract_x
_atom_site_fract_y
_atom_site_fract_z
Si Si1 0.896654 0.567204 0.043190
Si Si2 0.898728 0.430229 0.956810
Si Si3 0.216745 0.070422 0.372315
Si Si4 0.897057 0.566962 0.630208
Si Si5 0.790118 0.566923 0.714273
Si Si6 0.899398 0.431262 0.296505
Si Si7 0.403968 0.569276 0.247977
Si Si8 0.597289 0.432045 0.347363
O O1 0.896024 0.750000 0.045348
O O2 0.849696 0.498580 0.086438
O O3 0.000000 0.500000 0.042116
O O4 0.849977 0.507561 0.998961
O O5 0.911247 0.250000 0.965238
O O6 0.830849 0.466915 0.917594
O O7 0.000000 0.500000 0.946468
O O8 0.210372 0.250000 0.361006
O O9 0.167114 0.972722 0.335648
O O10 0.323185 0.014546 0.375364
O O11 0.904180 0.750000 0.627886
O O12 0.830651 0.510045 0.668860
O O13 0.000000 0.500000 0.637758
O O14 0.789024 0.750000 0.717065
O O15 0.855970 0.502078 0.752319
O O16 0.684257 0.505192 0.720727
O O17 0.909050 0.250000 0.293923
O O18 0.000000 0.500000 0.304990
O O19 0.500000 0.500000 0.229482
O O20 0.412266 0.750000 0.243361
O O21 0.388410 0.521999 0.297508
O O22 0.500000 0.500000 0.364355
O O23 0.600619 0.250000 0.354424
#
# Coordination Sequence:
#
# PCOD8180731 Si02
#       8
#     8   8   8   8   8   8   8   8
#     4  10  18  30  48  69  94 122 157 199 242 287
#     4  10  20  33  49  70  97 128 164 202 240 289
#     4  11  22  34  49  72  98 129 167 202 242 293
#     4  10  18  30  48  68  95 128 160 197 237 283
#     4   9  18  32  48  67  95 129 163 196 239 286
#     4  11  21  34  47  65  96 134 169 202 237 282
#     4   9  17  32  49  69  92 122 159 200 243 283
#     4  10  19  33  53  72  97 127 162 207 248 290
#
# _framework density 16.552161000000002
#
# number of rings (size 3 to 8) (size 9 to 14) (size 15 to 20)
#    0.000    2.000    1.250    5.250    0.000    3.500 
#    0.000    3.125    0.000    0.000    0.000    0.875 
#    0.000    2.000    0.000    0.000    0.000    0.000 
#
# Total GULP energy -396768.269393 kJ/mol
# GULP energy per Si atom -12399.008419 kJ/mol
# Density = 1.651449 g / cm^3
# Si number density = 16.552161 Si / 1000 Ang^3
#
#
#
# Elastic Constant Matrix: (Units=GPa)
#
#
# Indices 1 2 3 4 5 6 
#
# 1 109.5570 28.4833 53.3442 0.0000 0.0000 0.0000
# 2 28.4833 69.9700 42.5058 0.0000 0.0000 0.0000
# 3 53.3442 42.5058 117.1430 0.0000 0.0000 0.0000
# 4 0.0000 0.0000 0.0000 22.9660 0.0000 0.0000
# 5 0.0000 0.0000 0.0000 0.0000 2.5119 0.0000
# 6 0.0000 0.0000 0.0000 0.0000 0.0000 25.1825
#
#
#
# Elastic Compliance Matrix: (Units=1/GPa)
#
#
# Indices 1 2 3 4 5 6 
#
# 1 0.011942 -0.001998 -0.004713 0.000000 0.000000 0.000000
# 2 -0.001998 0.018667 -0.005864 0.000000 0.000000 0.000000
# 3 -0.004713 -0.005864 0.012810 0.000000 0.000000 0.000000
# 4 0.000000 0.000000 0.000000 0.043543 0.000000 0.000000
# 5 0.000000 0.000000 0.000000 0.000000 0.398107 0.000000
# 6 0.000000 0.000000 0.000000 0.000000 0.000000 0.039710
#
#
# Mechanical properties :
#
#
# Convention : Reuss Voigt Hill
#
# Bulk Modulus (GPa) = 54.73441 60.59297 57.66369
# Shear Modulus (GPa) = 8.99249 21.62119 15.30684
#
# Velocity S-wave (km/s) = 2.33337 3.61812 3.04429
# Velocity P-wave (km/s) = 6.35603 7.35807 6.87533
#
# Compressibility (1/GPa) = 0.01827004
#
# Stress axis : x y z
#
# Youngs Moduli (GPa) = 83.73798 53.56961 78.06155
#
# Poissons Ratio (x) = 0.10704 0.36791
# Poissons Ratio (y) = 0.16733 0.45772
# Poissons Ratio (z) = 0.39466 0.31411
#
# Static dielectric constant tensor:
#      x y z
#    x 3.166790 0.000000 0.000000 
#    y 0.000000 3.106840 0.000000 
#    z 0.000000 0.000000 3.495680 
# 
# 
# High freq. dielectric constant tensor:
#      x y z
#    x 1.617750 0.000000 0.000000 
#    y 0.000000 1.643660 0.000000 
#    z 0.000000 0.000000 1.629950 
# 
# From -- ./inp_files/17985.got.cif
#   From: 2010.03.12/outbox.cif.g09.slc.cpg/sg39_9_cif.got.tgz:17985.got - 2010.04.14 02:53:20.
