data_PCOD8180496
_publ_section_title
;
Structure prediction by ZEFSAII (Michael W. Deem and Ramdas Pophale) SiO2 
 PCOD8180496
Probable space group: A M M 2
;
_chemical_formula_sum "Si O2"
_cell_formula_units_Z 40
_cell_length_a 7.496866
_cell_length_b 9.277774
_cell_length_c 29.505071
_cell_angle_alpha 90.000000
_cell_angle_beta 90.000000
_cell_angle_gamma 90.000000
_cell_volume 2052.202449
_symmetry_space_group_name_H-M "A M M 2"
_symmetry_group_IT_number 38
_symmetry_cell_setting 'orthorhombic'
loop_
_space_group_symop_operation_xyz
x,y,z
-x,-y,z
-x,y,z
x,-y,z
x,1/2+y,1/2+z
-x,1/2-y,1/2+z
-x,1/2+y,1/2+z
x,1/2-y,1/2+z
loop_
_atom_site_type_symbol
_atom_site_label
_atom_site_fract_x
_atom_site_fract_y
_atom_site_fract_z
Si Si1 0.287962 0.161020 0.251140
Si Si2 0.000000 0.327687 0.510216
Si Si3 0.704005 0.330820 0.339346
Si Si4 0.292948 0.168576 0.566049
Si Si5 0.288586 0.840685 0.667762
Si Si6 0.000000 0.170138 0.907938
O O1 0.500000 0.159404 0.248783
O O2 0.224834 0.250843 0.294633
O O3 0.209074 0.232914 0.205415
O O4 0.210496 0.000000 0.254696
O O5 0.821787 0.266611 0.532827
O O6 0.000000 0.268910 0.458682
O O7 0.000000 0.500000 0.513426
O O8 0.500000 0.290037 0.350566
O O9 0.725874 0.500000 0.330147
O O10 0.822793 0.277504 0.381559
O O11 0.500000 0.203243 0.557117
O O12 0.236793 0.211153 0.617313
O O13 0.253772 0.000000 0.557621
O O14 0.500000 0.848297 0.671589
O O15 0.209732 0.000000 0.676682
O O16 0.000000 0.000000 0.910414
#
# Coordination Sequence:
#
# PCOD8180496 Si02
#       6
#     8   4   8   8   8   4
#     4   9  16  26  44  74 109 137 163 203 255 307
#     4  11  23  37  56  83 112 139 174 229 288 333
#     4   9  17  32  54  74  96 132 174 211 248 299
#     4   9  19  37  59  81 108 145 187 226 264 316
#     4   8  14  27  49  75 102 136 177 213 247 298
#     4   9  20  37  54  75 100 129 172 219 262 313
#
# _framework density 19.491254000000001
#
# number of rings (size 3 to 8) (size 9 to 14) (size 15 to 20)
#    0.000    3.000    0.000    2.100    0.000    4.400 
#    0.000    7.500    0.000    4.800    0.000    0.000 
#    0.000    0.000    0.000    0.000    0.000    0.000 
#
# Total GULP energy -247937.019300 kJ/mol
# GULP energy per Si atom -12396.850965 kJ/mol
# Density = 1.944689 g / cm^3
# Si number density = 19.491254 Si / 1000 Ang^3
#
#
#
# Elastic Constant Matrix: (Units=GPa)
#
#
# Indices 1 2 3 4 5 6 
#
# 1 81.9981 39.2514 64.5521 0.0000 0.0000 0.0000
# 2 39.2514 93.3868 79.4461 0.0000 0.0000 0.0000
# 3 64.5521 79.4461 191.4301 0.0000 0.0000 0.0000
# 4 0.0000 0.0000 0.0000 29.5383 0.0000 0.0000
# 5 0.0000 0.0000 0.0000 0.0000 265.1419 0.0000
# 6 0.0000 0.0000 0.0000 0.0000 0.0000 17.3966
#
#
#
# Elastic Compliance Matrix: (Units=1/GPa)
#
#
# Indices 1 2 3 4 5 6 
#
# 1 0.017343 -0.003577 -0.004364 0.000000 0.000000 0.000000
# 2 -0.003577 0.017290 -0.005969 0.000000 0.000000 0.000000
# 3 -0.004364 -0.005969 0.009173 0.000000 0.000000 0.000000
# 4 0.000000 0.000000 0.000000 0.033854 0.000000 0.000000
# 5 0.000000 0.000000 0.000000 0.000000 0.003772 0.000000
# 6 0.000000 0.000000 0.000000 0.000000 0.000000 0.057483
#
#
# Mechanical properties :
#
#
# Convention : Reuss Voigt Hill
#
# Bulk Modulus (GPa) = 62.55756 81.47938 72.01847
# Shear Modulus (GPa) = 29.05918 74.65303 51.85611
#
# Velocity S-wave (km/s) = 3.86538 6.19548 5.16358
# Velocity P-wave (km/s) = 7.21710 9.64740 8.51936
#
# Compressibility (1/GPa) = 0.01598528
#
# Stress axis : x y z
#
# Youngs Moduli (GPa) = 57.66019 57.83730 109.01997
#
# Poissons Ratio (x) = 0.20690 0.47572
# Poissons Ratio (y) = 0.20626 0.65077
# Poissons Ratio (z) = 0.25161 0.34525
#
# Static dielectric constant tensor:
#      x y z
#    x 3.154670 0.000000 0.000000 
#    y 0.000000 3.557150 0.000000 
#    z 0.000000 0.000000 3.783240 
# 
# 
# High freq. dielectric constant tensor:
#      x y z
#    x 1.749250 0.000000 0.000000 
#    y 0.000000 1.742160 0.000000 
#    z 0.000000 0.000000 1.759090 
# 
# From -- ./inp_files/23213.got.cif
#   From: 2010.03.12/outbox.cif.g09.slc.cpg/sg38_12_cif.got.tgz:23213.got - 2010.04.14 02:38:36.
