data_PCOD8180521
_publ_section_title
;
Structure prediction by ZEFSAII (Michael W. Deem and Ramdas Pophale) SiO2 
 PCOD8180521
Probable space group: A M M 2
;
_chemical_formula_sum "Si O2"
_cell_formula_units_Z 64
_cell_length_a 20.747557
_cell_length_b 9.289121
_cell_length_c 19.796662
_cell_angle_alpha 90.000000
_cell_angle_beta 90.000000
_cell_angle_gamma 90.000000
_cell_volume 3815.342714
_symmetry_space_group_name_H-M "A M M 2"
_symmetry_group_IT_number 38
_symmetry_cell_setting 'orthorhombic'
loop_
_space_group_symop_operation_xyz
x,y,z
-x,-y,z
-x,y,z
x,-y,z
x,1/2+y,1/2+z
-x,1/2-y,1/2+z
-x,1/2+y,1/2+z
x,1/2-y,1/2+z
loop_
_atom_site_type_symbol
_atom_site_label
_atom_site_fract_x
_atom_site_fract_y
_atom_site_fract_z
Si Si1 0.426612 0.332533 0.909290
Si Si2 0.931363 0.164761 0.157881
Si Si3 0.796181 0.340830 0.673284
Si Si4 0.318521 0.169158 0.514697
Si Si5 0.675824 0.168546 0.668472
Si Si6 0.071140 0.668040 0.021515
Si Si7 0.573305 0.831191 0.775839
Si Si8 0.806825 0.163819 0.012435
O O1 0.500000 0.291225 0.928928
O O2 0.420647 0.500000 0.892413
O O3 0.403276 0.247191 0.843456
O O4 0.381054 0.288704 0.971339
O O5 0.867688 0.195136 0.204270
O O6 0.933298 0.278905 0.098059
O O7 0.000000 0.178457 0.198106
O O8 0.924470 0.000000 0.129383
O O9 0.773331 0.500000 0.694208
O O10 0.741883 0.232533 0.699331
O O11 0.806132 0.328104 0.593098
O O12 0.334584 0.218245 0.591309
O O13 0.256761 0.253883 0.485448
O O14 0.303274 0.000000 0.511406
O O15 0.615931 0.223360 0.712923
O O16 0.682968 0.000000 0.673637
O O17 0.089572 0.500000 0.020866
O O18 0.128435 0.757004 0.984310
O O19 0.000000 0.692516 0.987588
O O20 0.500000 0.789621 0.758365
O O21 0.581377 0.000000 0.788008
O O22 0.805800 0.000000 0.985837
#
# Coordination Sequence:
#
# PCOD8180521 Si02
#       8
#     8   8   8   8   8   8   8   8
#     4   9  18  32  49  68  89 114 143 176 217 262
#     4   8  13  21  32  47  71 105 142 175 208 250
#     4   8  14  23  35  53  78 108 139 172 210 250
#     4   9  17  29  45  65  89 115 144 180 219 260
#     4   9  17  28  43  63  86 113 143 176 214 254
#     4   9  15  21  31  49  74 106 143 179 214 253
#     4   9  18  32  48  65  86 113 144 177 213 254
#     4   9  16  25  37  54  79 111 144 177 215 259
#
# _framework density 16.774379
#
# number of rings (size 3 to 8) (size 9 to 14) (size 15 to 20)
#    0.000    3.250    0.000    1.500    0.000    5.250 
#    0.000    2.500    0.000    0.000    0.000    7.000 
#    0.000    1.000    0.000    5.500    0.000    6.250 
#
# Total GULP energy -396466.098062 kJ/mol
# GULP energy per Si atom -12389.565564 kJ/mol
# Density = 1.673620 g / cm^3
# Si number density = 16.774379 Si / 1000 Ang^3
#
#
#
# Elastic Constant Matrix: (Units=GPa)
#
#
# Indices 1 2 3 4 5 6 
#
# 1 155.4388 54.9334 54.6983 0.0000 0.0000 0.0000
# 2 54.9334 58.7866 26.4737 0.0000 0.0000 0.0000
# 3 54.6983 26.4737 46.5911 0.0000 0.0000 0.0000
# 4 0.0000 0.0000 0.0000 15.1958 0.0000 0.0000
# 5 0.0000 0.0000 0.0000 0.0000 2.9187 0.0000
# 6 0.0000 0.0000 0.0000 0.0000 0.0000 28.7437
#
#
#
# Elastic Compliance Matrix: (Units=1/GPa)
#
#
# Indices 1 2 3 4 5 6 
#
# 1 0.012785 -0.006972 -0.011048 0.000000 0.000000 0.000000
# 2 -0.006972 0.026662 -0.006965 0.000000 0.000000 0.000000
# 3 -0.011048 -0.006965 0.038392 0.000000 0.000000 0.000000
# 4 0.000000 0.000000 0.000000 0.065808 0.000000 0.000000
# 5 0.000000 0.000000 0.000000 0.000000 0.342624 0.000000
# 6 0.000000 0.000000 0.000000 0.000000 0.000000 0.034790
#
#
# Mechanical properties :
#
#
# Convention : Reuss Voigt Hill
#
# Bulk Modulus (GPa) = 35.88229 59.22525 47.55377
# Shear Modulus (GPa) = 8.61593 17.68571 13.15082
#
# Velocity S-wave (km/s) = 2.26881 3.25057 2.80301
# Velocity P-wave (km/s) = 5.31986 7.03362 6.23590
#
# Compressibility (1/GPa) = 0.02786890
#
# Stress axis : x y z
#
# Youngs Moduli (GPa) = 78.21579 37.50672 26.04717
#
# Poissons Ratio (x) = 0.26148 0.28778
# Poissons Ratio (y) = 0.54529 0.18142
# Poissons Ratio (z) = 0.86417 0.26123
#
# Static dielectric constant tensor:
#      x y z
#    x 3.731260 0.000000 0.000000 
#    y 0.000000 3.176780 0.000000 
#    z 0.000000 0.000000 2.648600 
# 
# 
# High freq. dielectric constant tensor:
#      x y z
#    x 1.671850 0.000000 0.000000 
#    y 0.000000 1.648810 0.000000 
#    z 0.000000 0.000000 1.569280 
# 
# From -- ./inp_files/21526.got.cif
#   From: 2010.03.12/outbox.cif.g09.slc.cpg/sg38_11_cif.got.tgz:21526.got - 2010.04.14 02:38:36.
