data_PCOD8180451
_publ_section_title
;
Structure prediction by ZEFSAII (Michael W. Deem and Ramdas Pophale) SiO2 
 PCOD8180451
Probable space group: A M M 2
;
_chemical_formula_sum "Si O2"
_cell_formula_units_Z 48
_cell_length_a 10.343530
_cell_length_b 8.809062
_cell_length_c 28.005567
_cell_angle_alpha 90.000000
_cell_angle_beta 90.000000
_cell_angle_gamma 90.000000
_cell_volume 2551.777565
_symmetry_space_group_name_H-M "A M M 2"
_symmetry_group_IT_number 38
_symmetry_cell_setting 'orthorhombic'
loop_
_space_group_symop_operation_xyz
x,y,z
-x,-y,z
-x,y,z
x,-y,z
x,1/2+y,1/2+z
-x,1/2-y,1/2+z
-x,1/2+y,1/2+z
x,1/2-y,1/2+z
loop_
_atom_site_type_symbol
_atom_site_label
_atom_site_fract_x
_atom_site_fract_y
_atom_site_fract_z
Si Si1 0.500000 0.820051 0.017780
Si Si2 0.244872 0.679244 0.464774
Si Si3 0.256938 0.821007 0.676613
Si Si4 0.350520 0.323564 0.766975
Si Si5 0.500000 0.179964 0.125199
Si Si6 0.000000 0.179914 0.624305
Si Si7 0.000000 0.680159 0.015669
Si Si8 0.648522 0.822824 0.375426
O O1 0.500000 0.756983 0.071389
O O2 0.500000 0.000000 0.016921
O O3 0.627400 0.759158 0.991417
O O4 0.226752 0.500000 0.469106
O O5 0.257464 0.726101 0.409369
O O6 0.124619 0.760377 0.488526
O O7 0.259343 0.775321 0.732408
O O8 0.373586 0.738985 0.650762
O O9 0.125592 0.760368 0.652436
O O10 0.271540 0.000000 0.671103
O O11 0.500000 0.280087 0.758220
O O12 0.329312 0.500000 0.755800
O O13 0.310554 0.286085 0.821192
O O14 0.500000 0.000000 0.126902
O O15 0.000000 0.242453 0.570082
O O16 0.000000 0.000000 0.623602
O O17 0.000000 0.500000 0.014863
O O18 0.500000 0.773710 0.383684
O O19 0.665849 0.000000 0.386386
#
# Coordination Sequence:
#
# PCOD8180451 Si02
#       8
#     4   8   8   8   4   4   4   8
#     4   9  20  35  54  81 112 143 180 231 288 341
#     4  11  21  37  58  85 116 148 187 237 289 340
#     4  11  21  36  57  83 111 146 190 236 285 335
#     4   9  18  34  56  83 117 150 184 228 277 334
#     4  11  21  35  54  79 112 145 182 233 284 337
#     4   9  22  41  58  79 114 151 190 237 284 335
#     4  11  23  41  60  79 110 157 198 235 282 341
#     4   9  18  34  57  85 115 151 190 228 277 338
#
# _framework density 18.810417000000001
#
# number of rings (size 3 to 8) (size 9 to 14) (size 15 to 20)
#    0.000    2.000    1.667    3.500    0.000    0.667 
#    0.000    9.167    0.000    4.000    0.000    0.000 
#    0.000    0.000    0.000    0.000    0.000    0.000 
#
# Total GULP energy -297648.746924 kJ/mol
# GULP energy per Si atom -12402.031122 kJ/mol
# Density = 1.876760 g / cm^3
# Si number density = 18.810417 Si / 1000 Ang^3
#
#
#
# Elastic Constant Matrix: (Units=GPa)
#
#
# Indices 1 2 3 4 5 6 
#
# 1 138.8605 39.7937 74.5374 0.0000 0.0000 0.0000
# 2 39.7937 63.0520 43.2500 0.0000 0.0000 0.0000
# 3 74.5374 43.2500 153.8511 0.0000 0.0000 0.0000
# 4 0.0000 0.0000 0.0000 30.3933 0.0000 0.0000
# 5 0.0000 0.0000 0.0000 0.0000 9.8459 0.0000
# 6 0.0000 0.0000 0.0000 0.0000 0.0000 -13.0235
#
#
#
# Elastic Compliance Matrix: (Units=1/GPa)
#
#
# Indices 1 2 3 4 5 6 
#
# 1 0.010441 -0.003865 -0.003972 0.000000 0.000000 0.000000
# 2 -0.003865 0.021080 -0.004053 0.000000 0.000000 0.000000
# 3 -0.003972 -0.004053 0.009564 0.000000 0.000000 0.000000
# 4 0.000000 0.000000 0.000000 0.032902 0.000000 0.000000
# 5 0.000000 0.000000 0.000000 0.000000 0.101565 0.000000
# 6 0.000000 0.000000 0.000000 0.000000 0.000000 -0.076784
#
#
# Mechanical properties :
#
#
# Convention : Reuss Voigt Hill
#
# Bulk Modulus (GPa) = 57.79133 74.54730 66.16932
# Shear Modulus (GPa) = 38.96646 18.65531 28.81088
#
# Velocity S-wave (km/s) = 4.55635 3.15263 3.91787
# Velocity P-wave (km/s) = 7.64658 7.27798 7.46456
#
# Compressibility (1/GPa) = 0.01730363
#
# Stress axis : x y z
#
# Youngs Moduli (GPa) = 95.77446 47.43924 104.56368
#
# Poissons Ratio (x) = 0.18336 0.41532
# Poissons Ratio (y) = 0.37018 0.42382
# Poissons Ratio (z) = 0.38041 0.19228
#
# Static dielectric constant tensor:
#      x y z
#    x 3.751970 0.000000 0.000000 
#    y 0.000000 3.277690 0.000000 
#    z 0.000000 0.000000 3.742760 
# 
# 
# High freq. dielectric constant tensor:
#      x y z
#    x 1.717350 0.000000 0.000000 
#    y 0.000000 1.719360 0.000000 
#    z 0.000000 0.000000 1.749360 
# 
# From -- ./inp_files/24491.got.cif
#   From: 2010.03.12/outbox.cif.g09.slc.cpg/sg38_13_cif.got.tgz:24491.got - 2010.04.14 02:38:36.
