data_PCOD8180816
_publ_section_title
;
Structure prediction by ZEFSAII (Michael W. Deem and Ramdas Pophale) SiO2 
 PCOD8180816
Probable space group: A B M 2
;
_chemical_formula_sum "Si O2"
_cell_formula_units_Z 48
_cell_length_a 9.046084
_cell_length_b 8.543198
_cell_length_c 30.822938
_cell_angle_alpha 90.000000
_cell_angle_beta 90.000000
_cell_angle_gamma 90.000000
_cell_volume 2382.073297
_symmetry_space_group_name_H-M "A B M 2"
_symmetry_group_IT_number 39
_symmetry_cell_setting 'orthorhombic'
loop_
_space_group_symop_operation_xyz
x,y,z
-x,-y,z
-x,1/2+y,z
x,1/2-y,z
x,1/2+y,1/2+z
-x,1/2-y,1/2+z
-x,y,1/2+z
x,-y,1/2+z
loop_
_atom_site_type_symbol
_atom_site_label
_atom_site_fract_x
_atom_site_fract_y
_atom_site_fract_z
Si Si1 0.660005 0.569231 0.655480
Si Si2 0.838924 0.933763 0.077475
Si Si3 0.664342 0.565089 0.908877
Si Si4 0.337425 0.066676 0.320848
Si Si5 0.158986 0.069646 0.742872
Si Si6 0.336197 0.065834 0.497712
O O1 0.500000 0.500000 0.663953
O O2 0.651913 0.750000 0.640864
O O3 0.736164 0.468289 0.618296
O O4 0.747557 0.548847 0.699702
O O5 0.846687 0.750000 0.069136
O O6 0.773897 0.016805 0.035366
O O7 0.000000 0.000000 0.087615
O O8 0.500000 0.500000 0.907088
O O9 0.667421 0.750000 0.911111
O O10 0.739337 0.505981 0.864253
O O11 0.736620 0.496867 0.952773
O O12 0.352459 0.250000 0.327381
O O13 0.500000 0.000000 0.311539
O O14 0.232299 0.029104 0.280988
O O15 0.148486 0.250000 0.757067
O O16 0.000000 0.000000 0.732762
O O17 0.349938 0.250000 0.495407
O O18 0.500000 0.000000 0.506297
#
# Coordination Sequence:
#
# PCOD8180816 Si02
#       6
#     8   8   8   8   8   8
#     4  11  24  42  65  92 120 153 195 242 291 345
#     4  12  25  42  62  87 120 157 196 240 294 352
#     4  10  18  32  55  85 118 153 196 245 295 344
#     4  11  21  36  59  87 119 156 199 246 295 347
#     4  11  24  41  61  87 120 157 196 240 294 352
#     4  11  21  37  60  88 120 156 199 245 294 346
#
# _framework density 20.150513
#
# number of rings (size 3 to 8) (size 9 to 14) (size 15 to 20)
#    0.000    1.000    0.000   10.500    0.000    5.333 
#    0.000    0.833    0.000    0.000    0.000    0.000 
#    0.000    0.000    0.000    0.000    0.000    0.000 
#
# Total GULP energy -297681.995905 kJ/mol
# GULP energy per Si atom -12403.416496 kJ/mol
# Density = 2.010465 g / cm^3
# Si number density = 20.150513 Si / 1000 Ang^3
#
#
#
# Elastic Constant Matrix: (Units=GPa)
#
#
# Indices 1 2 3 4 5 6 
#
# 1 99.3196 37.9961 34.1894 0.0000 0.0000 0.0000
# 2 37.9961 179.1700 48.9351 0.0000 0.0000 0.0000
# 3 34.1894 48.9351 116.2419 0.0000 0.0000 0.0000
# 4 0.0000 0.0000 0.0000 31.3971 0.0000 0.0000
# 5 0.0000 0.0000 0.0000 0.0000 -10.4353 0.0000
# 6 0.0000 0.0000 0.0000 0.0000 0.0000 27.4971
#
#
#
# Elastic Compliance Matrix: (Units=1/GPa)
#
#
# Indices 1 2 3 4 5 6 
#
# 1 0.011662 -0.001736 -0.002699 0.000000 0.000000 0.000000
# 2 -0.001736 0.006565 -0.002253 0.000000 0.000000 0.000000
# 3 -0.002699 -0.002253 0.010345 0.000000 0.000000 0.000000
# 4 0.000000 0.000000 0.000000 0.031850 0.000000 0.000000
# 5 0.000000 0.000000 0.000000 0.000000 -0.095829 0.000000
# 6 0.000000 0.000000 0.000000 0.000000 0.000000 0.036368
#
#
# Mechanical properties :
#
#
# Convention : Reuss Voigt Hill
#
# Bulk Modulus (GPa) = 65.80952 70.77472 68.29212
# Shear Modulus (GPa) = 257.70898 27.93252 142.82075
#
# Velocity S-wave (km/s) = 11.32120 3.72720 8.42798
# Velocity P-wave (km/s) = 14.26964 7.32953 11.34338
#
# Compressibility (1/GPa) = 0.01519537
#
# Stress axis : x y z
#
# Youngs Moduli (GPa) = 85.75037 152.32834 96.66379
#
# Poissons Ratio (x) = 0.26442 0.26092
# Poissons Ratio (y) = 0.14885 0.21779
# Poissons Ratio (z) = 0.23146 0.34320
#
# Static dielectric constant tensor:
#      x y z
#    x 3.445200 0.000000 0.000000 
#    y 0.000000 3.904820 0.000000 
#    z 0.000000 0.000000 4.381040 
# 
# 
# High freq. dielectric constant tensor:
#      x y z
#    x 1.765660 0.000000 0.000000 
#    y 0.000000 1.810940 0.000000 
#    z 0.000000 0.000000 1.811520 
# 
# From -- ./inp_files/17595.got.cif
#   From: 2010.03.12/outbox.cif.g09.slc.cpg/sg39_9_cif.got.tgz:17595.got - 2010.04.14 02:53:20.
