data_PCOD8180353
_publ_section_title
;
Structure prediction by ZEFSAII (Michael W. Deem and Ramdas Pophale) SiO2 
 PCOD8180353
Probable space group: A M M 2
;
_chemical_formula_sum "Si O2"
_cell_formula_units_Z 40
_cell_length_a 8.625391
_cell_length_b 11.473158
_cell_length_c 19.775353
_cell_angle_alpha 90.000000
_cell_angle_beta 90.000000
_cell_angle_gamma 90.000000
_cell_volume 1956.978302
_symmetry_space_group_name_H-M "A M M 2"
_symmetry_group_IT_number 38
_symmetry_cell_setting 'orthorhombic'
loop_
_space_group_symop_operation_xyz
x,y,z
-x,-y,z
-x,y,z
x,-y,z
x,1/2+y,1/2+z
-x,1/2-y,1/2+z
-x,1/2+y,1/2+z
x,1/2-y,1/2+z
loop_
_atom_site_type_symbol
_atom_site_label
_atom_site_fract_x
_atom_site_fract_y
_atom_site_fract_z
Si Si1 0.318057 0.225650 0.664210
Si Si2 0.819711 0.500000 0.232043
Si Si3 0.820486 0.135191 0.277019
Si Si4 0.677655 0.254626 0.906372
Si Si5 0.180933 0.366463 0.033753
Si Si6 0.676011 0.000000 0.871881
O O1 0.500000 0.241841 0.669325
O O2 0.237399 0.335056 0.701319
O O3 0.269645 0.218089 0.585740
O O4 0.263608 0.110795 0.701794
O O5 0.801038 0.500000 0.312284
O O6 0.000000 0.500000 0.212010
O O7 0.723876 0.211049 0.330361
O O8 0.000000 0.168777 0.283810
O O9 0.791717 0.000000 0.291451
O O10 0.500000 0.289896 0.919084
O O11 0.701984 0.115743 0.916804
O O12 0.784824 0.324532 0.958100
O O13 0.237131 0.500000 0.042667
O O14 0.000000 0.357073 0.048006
O O15 0.500000 0.000000 0.842304
#
# Coordination Sequence:
#
# PCOD8180353 Si02
#       6
#     8   4   8   8   8   4
#     4  12  24  40  65  94 125 161 207 258 310 369
#     4  12  22  36  64  96 126 159 200 253 312 366
#     4  11  24  42  64  92 127 165 208 256 310 371
#     4  11  23  40  64  92 126 164 208 257 308 369
#     4  11  24  42  64  90 124 164 208 257 310 370
#     4  10  22  40  62  92 126 163 204 253 308 364
#
# _framework density 20.439675000000001
#
# number of rings (size 3 to 8) (size 9 to 14) (size 15 to 20)
#    0.000    0.800    3.000    5.100    0.000    6.000 
#    1.800    0.000    0.000    0.000    0.000    0.000 
#    0.000    0.000    0.000    0.000    0.000    0.000 
#
# Total GULP energy -248116.388485 kJ/mol
# GULP energy per Si atom -12405.819424 kJ/mol
# Density = 2.039315 g / cm^3
# Si number density = 20.439675 Si / 1000 Ang^3
#
#
#
# Elastic Constant Matrix: (Units=GPa)
#
#
# Indices 1 2 3 4 5 6 
#
# 1 81.5460 44.9281 18.0663 0.0000 0.0000 0.0000
# 2 44.9281 85.6172 27.4781 0.0000 0.0000 0.0000
# 3 18.0663 27.4781 90.5187 0.0000 0.0000 0.0000
# 4 0.0000 0.0000 0.0000 38.7984 0.0000 0.0000
# 5 0.0000 0.0000 0.0000 0.0000 39.3101 0.0000
# 6 0.0000 0.0000 0.0000 0.0000 0.0000 53.9754
#
#
#
# Elastic Compliance Matrix: (Units=1/GPa)
#
#
# Indices 1 2 3 4 5 6 
#
# 1 0.017299 -0.008830 -0.000772 0.000000 0.000000 0.000000
# 2 -0.008830 0.017448 -0.003534 0.000000 0.000000 0.000000
# 3 -0.000772 -0.003534 0.012274 0.000000 0.000000 0.000000
# 4 0.000000 0.000000 0.000000 0.025774 0.000000 0.000000
# 5 0.000000 0.000000 0.000000 0.000000 0.025439 0.000000
# 6 0.000000 0.000000 0.000000 0.000000 0.000000 0.018527
#
#
# Mechanical properties :
#
#
# Convention : Reuss Voigt Hill
#
# Bulk Modulus (GPa) = 48.19613 48.73633 48.46623
# Shear Modulus (GPa) = 33.34452 37.56408 35.45430
#
# Velocity S-wave (km/s) = 4.04339 4.29161 4.16935
# Velocity P-wave (km/s) = 6.74015 6.96082 6.85137
#
# Compressibility (1/GPa) = 0.02074855
#
# Stress axis : x y z
#
# Youngs Moduli (GPa) = 57.80689 57.31418 81.47038
#
# Poissons Ratio (x) = 0.50608 0.06291
# Poissons Ratio (y) = 0.51043 0.28793
# Poissons Ratio (z) = 0.04464 0.20256
#
# Static dielectric constant tensor:
#      x y z
#    x 3.759950 0.000000 0.000000 
#    y 0.000000 3.425670 0.000000 
#    z 0.000000 0.000000 3.665280 
# 
# 
# High freq. dielectric constant tensor:
#      x y z
#    x 1.810970 0.000000 0.000000 
#    y 0.000000 1.799590 0.000000 
#    z 0.000000 0.000000 1.795120 
# 
# From -- ./inp_files/19517.got.cif
#   From: 2010.03.12/outbox.cif.g09.slc.cpg/sg38_10_cif.got.tgz:19517.got - 2010.04.14 02:38:36.
