data_PCOD8180412
_publ_section_title
;
Structure prediction by ZEFSAII (Michael W. Deem and Ramdas Pophale) SiO2 
 PCOD8180412
Probable space group: A M M 2
;
_chemical_formula_sum "Si O2"
_cell_formula_units_Z 56
_cell_length_a 13.194238
_cell_length_b 21.394455
_cell_length_c 8.992306
_cell_angle_alpha 90.000000
_cell_angle_beta 90.000000
_cell_angle_gamma 90.000000
_cell_volume 2538.379891
_symmetry_space_group_name_H-M "A M M 2"
_symmetry_group_IT_number 38
_symmetry_cell_setting 'orthorhombic'
loop_
_space_group_symop_operation_xyz
x,y,z
-x,-y,z
-x,y,z
x,-y,z
x,1/2+y,1/2+z
-x,1/2-y,1/2+z
-x,1/2+y,1/2+z
x,1/2-y,1/2+z
loop_
_atom_site_type_symbol
_atom_site_label
_atom_site_fract_x
_atom_site_fract_y
_atom_site_fract_z
Si Si1 0.793154 0.275203 0.937860
Si Si2 0.379854 0.183696 0.905458
Si Si3 0.620199 0.929460 0.116051
Si Si4 0.609109 0.070956 0.436161
Si Si5 0.117438 0.071781 0.923900
Si Si6 0.884489 0.821596 0.135528
Si Si7 0.254657 0.625867 0.166191
O O1 0.678944 0.246785 0.954095
O O2 0.814605 0.297241 0.769696
O O3 0.872177 0.222111 0.989334
O O4 0.807770 0.332634 0.049476
O O5 0.500000 0.195805 0.913015
O O6 0.341069 0.168797 0.740499
O O7 0.342724 0.122749 0.999228
O O8 0.500000 0.932706 0.109473
O O9 0.653272 0.902782 0.279333
O O10 0.663009 0.000000 0.078388
O O11 0.500000 0.102519 0.476703
O O12 0.686993 0.074025 0.571067
O O13 0.587782 0.000000 0.397950
O O14 0.178607 0.094172 0.780049
O O15 0.000000 0.083008 0.885929
O O16 0.142001 0.000000 0.957071
O O17 0.146593 0.109183 0.075685
O O18 0.000000 0.820967 0.190901
#
# Coordination Sequence:
#
# PCOD8180412 Si02
#       7
#     8   8   8   8   8   8   8
#     4  12  25  44  64 102 134 177 232 267 327 405
#     4  11  24  41  61  93 138 185 232 283 332 393
#     4   8  17  36  61  87 121 175 237 285 332 390
#     4   9  19  36  58  89 127 173 229 281 332 390
#     4  10  23  46  74 102 132 168 215 281 354 410
#     4  11  23  46  75 100 130 169 219 282 337 404
#     4  12  24  39  63  92 137 177 227 269 333 400
#
# _framework density 22.061316000000001
#
# number of rings (size 3 to 8) (size 9 to 14) (size 15 to 20)
#    0.000    1.571    2.857    2.143    2.000    4.571 
#    0.000    2.857    0.000    1.714    0.000    0.000 
#    0.000    0.000    0.000    0.000    0.000    0.000 
#
# Total GULP energy -347001.011203 kJ/mol
# GULP energy per Si atom -12392.893257 kJ/mol
# Density = 2.201110 g / cm^3
# Si number density = 22.061316 Si / 1000 Ang^3
#
#
#
# Elastic Constant Matrix: (Units=GPa)
#
#
# Indices 1 2 3 4 5 6 
#
# 1 93.8307 41.4190 49.3018 0.0000 0.0000 0.0000
# 2 41.4190 117.7518 62.2250 0.0000 0.0000 0.0000
# 3 49.3018 62.2250 135.2998 0.0000 0.0000 0.0000
# 4 0.0000 0.0000 0.0000 40.7966 0.0000 0.0000
# 5 0.0000 0.0000 0.0000 0.0000 34.6570 0.0000
# 6 0.0000 0.0000 0.0000 0.0000 0.0000 27.4453
#
#
#
# Elastic Compliance Matrix: (Units=1/GPa)
#
#
# Indices 1 2 3 4 5 6 
#
# 1 0.013904 -0.002924 -0.003722 0.000000 0.000000 0.000000
# 2 -0.002924 0.011834 -0.004377 0.000000 0.000000 0.000000
# 3 -0.003722 -0.004377 0.010760 0.000000 0.000000 0.000000
# 4 0.000000 0.000000 0.000000 0.024512 0.000000 0.000000
# 5 0.000000 0.000000 0.000000 0.000000 0.028854 0.000000
# 6 0.000000 0.000000 0.000000 0.000000 0.000000 0.036436
#
#
# Mechanical properties :
#
#
# Convention : Reuss Voigt Hill
#
# Bulk Modulus (GPa) = 69.19188 72.53041 70.86115
# Shear Modulus (GPa) = 32.64506 33.50887 33.07697
#
# Velocity S-wave (km/s) = 3.85091 3.90153 3.87631
# Velocity P-wave (km/s) = 7.15571 7.29685 7.22663
#
# Compressibility (1/GPa) = 0.01445256
#
# Stress axis : x y z
#
# Youngs Moduli (GPa) = 71.92364 84.50275 92.93580
#
# Poissons Ratio (x) = 0.24708 0.34587
# Poissons Ratio (y) = 0.21030 0.40678
# Poissons Ratio (z) = 0.26767 0.36987
#
# Static dielectric constant tensor:
#      x y z
#    x 3.865210 0.000000 0.000000 
#    y 0.000000 4.082100 0.000000 
#    z 0.000000 0.000000 4.041030 
# 
# 
# High freq. dielectric constant tensor:
#      x y z
#    x 1.867720 0.000000 0.000000 
#    y 0.000000 1.867700 0.000000 
#    z 0.000000 0.000000 1.871750 
# 
# From -- ./inp_files/5729.got.cif
#   From: 2010.03.12/outbox.cif.g09.slc.cpg/sg38_3_cif.got.tgz:5729.got - 2010.04.14 02:38:36.
