data_PCOD8180177
_publ_section_title
;
Structure prediction by ZEFSAII (Michael W. Deem and Ramdas Pophale) SiO2 
 PCOD8180177
Probable space group: A M M 2
;
_chemical_formula_sum "Si O2"
_cell_formula_units_Z 56
_cell_length_a 8.881050
_cell_length_b 18.316971
_cell_length_c 17.252308
_cell_angle_alpha 90.000000
_cell_angle_beta 90.000000
_cell_angle_gamma 90.000000
_cell_volume 2806.500835
_symmetry_space_group_name_H-M "A M M 2"
_symmetry_group_IT_number 38
_symmetry_cell_setting 'orthorhombic'
loop_
_space_group_symop_operation_xyz
x,y,z
-x,-y,z
-x,y,z
x,-y,z
x,1/2+y,1/2+z
-x,1/2-y,1/2+z
-x,1/2+y,1/2+z
x,1/2-y,1/2+z
loop_
_atom_site_type_symbol
_atom_site_label
_atom_site_fract_x
_atom_site_fract_y
_atom_site_fract_z
Si Si1 0.827580 0.310587 0.945620
Si Si2 0.827129 0.916568 0.312285
Si Si3 0.320840 0.082393 0.743663
Si Si4 0.323212 0.809648 0.611179
Si Si5 0.677869 0.830935 0.893020
Si Si6 0.171673 0.584042 0.527892
Si Si7 0.323788 0.350290 0.669299
O O1 0.809687 0.386384 0.899551
O O2 0.749050 0.248996 0.893204
O O3 0.000000 0.288214 0.957202
O O4 0.755183 0.319718 0.029317
O O5 0.722484 0.868290 0.256736
O O6 0.000000 0.910335 0.284577
O O7 0.771755 0.000000 0.312216
O O8 0.500000 0.080903 0.747093
O O9 0.265821 0.126092 0.667901
O O10 0.258798 0.123086 0.820251
O O11 0.255842 0.000000 0.740897
O O12 0.500000 0.814880 0.597097
O O13 0.279964 0.732923 0.650244
O O14 0.500000 0.822412 0.888312
O O15 0.720482 0.870498 0.972374
O O16 0.184028 0.500000 0.505049
O O17 0.230181 0.595235 0.614799
O O18 0.000000 0.611586 0.520659
O O19 0.500000 0.364181 0.657686
#
# Coordination Sequence:
#
# PCOD8180177 Si02
#       7
#     8   8   8   8   8   8   8
#     4  11  23  39  61  87 117 157 201 245 297 355
#     4  10  23  42  61  84 118 158 199 248 304 359
#     4   9  19  36  59  87 118 152 192 241 297 352
#     4  10  21  38  60  87 118 153 194 244 296 348
#     4  11  21  37  61  88 118 154 198 245 295 352
#     4  11  23  37  56  85 122 160 195 238 294 354
#     4  11  22  37  59  88 119 154 198 246 295 353
#
# _framework density 19.953672999999998
#
# number of rings (size 3 to 8) (size 9 to 14) (size 15 to 20)
#    0.000    1.571    1.429    3.429    0.000    7.143 
#    0.000    1.429    0.000    1.714    0.000    0.000 
#    0.000    0.000    0.000    0.000    0.000    0.000 
#
# Total GULP energy -347324.095182 kJ/mol
# GULP energy per Si atom -12404.431971 kJ/mol
# Density = 1.990826 g / cm^3
# Si number density = 19.953673 Si / 1000 Ang^3
#
#
#
# Elastic Constant Matrix: (Units=GPa)
#
#
# Indices 1 2 3 4 5 6 
#
# 1 55.5239 29.2094 37.1797 0.0000 0.0000 0.0000
# 2 29.2094 102.8315 67.0864 0.0000 0.0000 0.0000
# 3 37.1797 67.0864 126.1133 0.0000 0.0000 0.0000
# 4 0.0000 0.0000 0.0000 36.3384 0.0000 0.0000
# 5 0.0000 0.0000 0.0000 0.0000 24.1141 0.0000
# 6 0.0000 0.0000 0.0000 0.0000 0.0000 17.9169
#
#
#
# Elastic Compliance Matrix: (Units=1/GPa)
#
#
# Indices 1 2 3 4 5 6 
#
# 1 0.023128 -0.003249 -0.005090 0.000000 0.000000 0.000000
# 2 -0.003249 0.015350 -0.007207 0.000000 0.000000 0.000000
# 3 -0.005090 -0.007207 0.013264 0.000000 0.000000 0.000000
# 4 0.000000 0.000000 0.000000 0.027519 0.000000 0.000000
# 5 0.000000 0.000000 0.000000 0.000000 0.041470 0.000000
# 6 0.000000 0.000000 0.000000 0.000000 0.000000 0.055813
#
#
# Mechanical properties :
#
#
# Convention : Reuss Voigt Hill
#
# Bulk Modulus (GPa) = 48.42926 61.26884 54.84905
# Shear Modulus (GPa) = 23.30796 25.74008 24.52402
#
# Velocity S-wave (km/s) = 3.42146 3.59554 3.50958
# Velocity P-wave (km/s) = 6.31918 6.92888 6.63104
#
# Compressibility (1/GPa) = 0.02064867
#
# Stress axis : x y z
#
# Youngs Moduli (GPa) = 43.23808 65.14856 75.39158
#
# Poissons Ratio (x) = 0.21165 0.38376
# Poissons Ratio (y) = 0.14047 0.54338
# Poissons Ratio (z) = 0.22009 0.46956
#
# Static dielectric constant tensor:
#      x y z
#    x 3.501270 0.000000 0.000000 
#    y 0.000000 3.800060 0.000000 
#    z 0.000000 0.000000 3.624950 
# 
# 
# High freq. dielectric constant tensor:
#      x y z
#    x 1.766710 0.000000 0.000000 
#    y 0.000000 1.786400 0.000000 
#    z 0.000000 0.000000 1.786360 
# 
# From -- ./inp_files/12395.got.cif
#   From: 2010.03.12/outbox.cif.g09.slc.cpg/sg38_7_cif.got.tgz:12395.got - 2010.04.14 02:38:36.
