data_PCOD8180709
_publ_section_title
;
Structure prediction by ZEFSAII (Michael W. Deem and Ramdas Pophale) SiO2 
 PCOD8180709
Probable space group: A B M 2
;
_chemical_formula_sum "Si O2"
_cell_formula_units_Z 52
_cell_length_a 11.762307
_cell_length_b 25.817497
_cell_length_c 9.003339
_cell_angle_alpha 90.000000
_cell_angle_beta 90.000000
_cell_angle_gamma 90.000000
_cell_volume 2734.073896
_symmetry_space_group_name_H-M "A B M 2"
_symmetry_group_IT_number 39
_symmetry_cell_setting 'orthorhombic'
loop_
_space_group_symop_operation_xyz
x,y,z
-x,-y,z
-x,1/2+y,z
x,1/2-y,z
x,1/2+y,1/2+z
-x,1/2-y,1/2+z
-x,y,1/2+z
x,-y,1/2+z
loop_
_atom_site_type_symbol
_atom_site_label
_atom_site_fract_x
_atom_site_fract_y
_atom_site_fract_z
Si Si1 0.078295 0.929528 0.597520
Si Si2 0.242416 0.141636 0.234416
Si Si3 0.451169 0.809678 0.847714
Si Si4 0.870836 0.144724 0.037616
Si Si5 0.657462 0.691172 0.661889
Si Si6 0.000000 0.000000 0.846012
Si Si7 0.978089 0.250000 0.934648
Si Si8 0.149187 0.750000 0.654198
O O1 0.195119 0.895737 0.603597
O O2 0.079688 0.963522 0.448250
O O3 0.965059 0.893660 0.605557
O O4 0.081204 0.966270 0.741247
O O5 0.377370 0.145505 0.262271
O O6 0.175987 0.122789 0.381966
O O7 0.220890 0.200659 0.193511
O O8 0.423608 0.750000 0.798424
O O9 0.583247 0.821628 0.809040
O O10 0.427856 0.815953 0.022167
O O11 0.923273 0.200183 0.008883
O O12 0.765222 0.152296 0.152033
O O13 0.703215 0.750000 0.665263
O O14 0.965433 0.250000 0.757480
O O15 0.111058 0.250000 0.981487
#
# Coordination Sequence:
#
# PCOD8180709 Si02
#       8
#     8   8   8   8   8   4   4   4
#     4  11  20  37  56  76 102 131 172 213 274 310
#     4  10  18  31  52  76 103 144 170 202 247 313
#     4   9  17  31  48  71 107 145 176 204 238 288
#     4  10  18  31  52  76 103 144 170 202 247 313
#     4   9  17  31  48  71 107 145 176 204 238 288
#     4  10  24  38  52  76 102 126 172 230 264 318
#     4  10  18  28  43  72 110 136 167 195 240 299
#     4  10  18  28  43  72 110 136 167 195 240 299
#
# _framework density 19.019237
#
# number of rings (size 3 to 8) (size 9 to 14) (size 15 to 20)
#    0.000    2.154    4.615    0.000    0.000    0.000 
#    2.769    0.000    0.000    0.000    0.000    6.462 
#    0.000    0.000    0.000    0.000    0.000    0.000 
#
# Total GULP energy -322096.530141 kJ/mol
# GULP energy per Si atom -12388.328082 kJ/mol
# Density = 1.897595 g / cm^3
# Si number density = 19.019237 Si / 1000 Ang^3
#
#
#
# Elastic Constant Matrix: (Units=GPa)
#
#
# Indices 1 2 3 4 5 6 
#
# 1 40.4184 16.9060 -3.2366 0.0000 0.0000 0.0000
# 2 16.9060 72.9546 19.1644 0.0000 0.0000 0.0000
# 3 -3.2366 19.1644 39.2196 0.0000 0.0000 0.0000
# 4 0.0000 0.0000 0.0000 29.0769 0.0000 0.0000
# 5 0.0000 0.0000 0.0000 0.0000 27.1550 0.0000
# 6 0.0000 0.0000 0.0000 0.0000 0.0000 19.6443
#
#
#
# Elastic Compliance Matrix: (Units=1/GPa)
#
#
# Indices 1 2 3 4 5 6 
#
# 1 0.028755 -0.008360 0.006458 0.000000 0.000000 0.000000
# 2 -0.008360 0.018156 -0.009562 0.000000 0.000000 0.000000
# 3 0.006458 -0.009562 0.030703 0.000000 0.000000 0.000000
# 4 0.000000 0.000000 0.000000 0.034392 0.000000 0.000000
# 5 0.000000 0.000000 0.000000 0.000000 0.036826 0.000000
# 6 0.000000 0.000000 0.000000 0.000000 0.000000 0.050905
#
#
# Mechanical properties :
#
#
# Convention : Reuss Voigt Hill
#
# Bulk Modulus (GPa) = 18.28602 24.25112 21.26857
# Shear Modulus (GPa) = 20.75611 23.15916 21.95764
#
# Velocity S-wave (km/s) = 3.30710 3.49330 3.40147
# Velocity P-wave (km/s) = 4.92117 5.38975 5.16078
#
# Compressibility (1/GPa) = 0.05468659
#
# Stress axis : x y z
#
# Youngs Moduli (GPa) = 34.77643 55.07753 32.57039
#
# Poissons Ratio (x) = 0.46045 -0.21034
# Poissons Ratio (y) = 0.29073 0.31143
# Poissons Ratio (z) = -0.22459 0.52664
#
# Static dielectric constant tensor:
#      x y z
#    x 3.326200 0.000000 0.000000 
#    y 0.000000 3.083890 0.000000 
#    z 0.000000 0.000000 3.551010 
# 
# 
# High freq. dielectric constant tensor:
#      x y z
#    x 1.715670 0.000000 0.000000 
#    y 0.000000 1.709160 0.000000 
#    z 0.000000 0.000000 1.736960 
# 
# From -- ./inp_files/2808.got.cif
#   From: 2010.03.12/outbox.cif.g09.slc.cpg/sg39_2_cif.got.tgz:2808.got - 2010.04.14 02:53:20.
