data_PCOD8180774
_publ_section_title
;
Structure prediction by ZEFSAII (Michael W. Deem and Ramdas Pophale) SiO2 
 PCOD8180774
Probable space group: A B M 2
;
_chemical_formula_sum "Si O2"
_cell_formula_units_Z 64
_cell_length_a 24.135304
_cell_length_b 8.825960
_cell_length_c 15.420275
_cell_angle_alpha 90.000000
_cell_angle_beta 90.000000
_cell_angle_gamma 90.000000
_cell_volume 3284.784231
_symmetry_space_group_name_H-M "A B M 2"
_symmetry_group_IT_number 39
_symmetry_cell_setting 'orthorhombic'
loop_
_space_group_symop_operation_xyz
x,y,z
-x,-y,z
-x,1/2+y,z
x,1/2-y,z
x,1/2+y,1/2+z
-x,1/2-y,1/2+z
-x,y,1/2+z
x,-y,1/2+z
loop_
_atom_site_type_symbol
_atom_site_label
_atom_site_fract_x
_atom_site_fract_y
_atom_site_fract_z
Si Si1 0.133141 0.570237 0.766220
Si Si2 0.058643 0.070837 0.911615
Si Si3 0.328064 0.570789 0.595868
Si Si4 0.446294 0.926036 0.345055
Si Si5 0.325434 0.924018 0.404382
Si Si6 0.257948 0.571110 0.754253
Si Si7 0.942425 0.927558 0.108366
Si Si8 0.444462 0.570478 0.658612
O O1 0.130167 0.750000 0.778483
O O2 0.105684 0.492960 0.849247
O O3 0.195769 0.507934 0.761699
O O4 0.104162 0.519197 0.676392
O O5 0.054642 0.250000 0.901030
O O6 0.074086 0.023350 0.010492
O O7 0.000000 0.000000 0.884369
O O8 0.330066 0.750000 0.607276
O O9 0.305788 0.527668 0.500615
O O10 0.286928 0.501022 0.668318
O O11 0.390538 0.509124 0.607938
O O12 0.457657 0.750000 0.325402
O O13 0.391654 0.947768 0.402656
O O14 0.500000 0.000000 0.393066
O O15 0.437520 0.016674 0.256736
O O16 0.310443 0.750000 0.383796
O O17 0.293502 0.029324 0.337939
O O18 0.255700 0.750000 0.746520
O O19 0.951032 0.750000 0.112520
O O20 0.000000 0.000000 0.137698
O O21 0.500000 0.500000 0.616254
O O22 0.449295 0.750000 0.654766
#
# Coordination Sequence:
#
# PCOD8180774 Si02
#       8
#     8   8   8   8   8   8   8   8
#     4  10  21  36  56  81 110 145 186 226 266 318
#     4  10  20  35  57  85 116 148 181 220 268 318
#     4   9  19  36  57  77 103 142 180 217 271 332
#     4  10  19  31  51  78 107 137 170 215 269 323
#     4  10  21  37  57  80 106 138 180 226 271 322
#     4  10  21  39  58  77 106 145 185 225 270 319
#     4   9  19  35  55  82 113 146 180 217 263 317
#     4  10  18  31  53  78 105 137 173 214 267 327
#
# _framework density 19.483775000000001
#
# number of rings (size 3 to 8) (size 9 to 14) (size 15 to 20)
#    0.000    2.250    1.250    2.250    0.000    4.500 
#    0.000    4.375    0.000    0.000    0.000    0.000 
#    0.000    0.000    0.000    0.000    0.000    0.000 
#
# Total GULP energy -396746.973272 kJ/mol
# GULP energy per Si atom -12398.342915 kJ/mol
# Density = 1.943943 g / cm^3
# Si number density = 19.483775 Si / 1000 Ang^3
#
#
#
# Elastic Constant Matrix: (Units=GPa)
#
#
# Indices 1 2 3 4 5 6 
#
# 1 141.7986 29.7387 66.7951 0.0000 0.0000 0.0000
# 2 29.7387 39.9594 16.9082 0.0000 0.0000 0.0000
# 3 66.7951 16.9082 109.9921 0.0000 0.0000 0.0000
# 4 0.0000 0.0000 0.0000 19.5316 0.0000 0.0000
# 5 0.0000 0.0000 0.0000 0.0000 8.3497 0.0000
# 6 0.0000 0.0000 0.0000 0.0000 0.0000 26.5287
#
#
#
# Elastic Compliance Matrix: (Units=1/GPa)
#
#
# Indices 1 2 3 4 5 6 
#
# 1 0.010978 -0.005722 -0.005787 0.000000 0.000000 0.000000
# 2 -0.005722 0.029748 -0.001098 0.000000 0.000000 0.000000
# 3 -0.005787 -0.001098 0.012775 0.000000 0.000000 0.000000
# 4 0.000000 0.000000 0.000000 0.051199 0.000000 0.000000
# 5 0.000000 0.000000 0.000000 0.000000 0.119764 0.000000
# 6 0.000000 0.000000 0.000000 0.000000 0.000000 0.037695
#
#
# Mechanical properties :
#
#
# Convention : Reuss Voigt Hill
#
# Bulk Modulus (GPa) = 35.35197 57.62601 46.48899
# Shear Modulus (GPa) = 16.84615 22.76921 19.80768
#
# Velocity S-wave (km/s) = 2.94364 3.42222 3.19191
# Velocity P-wave (km/s) = 5.45317 6.72727 6.12344
#
# Compressibility (1/GPa) = 0.02828696
#
# Stress axis : x y z
#
# Youngs Moduli (GPa) = 91.08833 33.61537 78.27864
#
# Poissons Ratio (x) = 0.19233 0.45302
# Poissons Ratio (y) = 0.52117 0.08598
# Poissons Ratio (z) = 0.52716 0.03692
#
# Static dielectric constant tensor:
#      x y z
#    x 3.962540 0.000000 0.000000 
#    y 0.000000 3.364830 0.000000 
#    z 0.000000 0.000000 3.626510 
# 
# 
# High freq. dielectric constant tensor:
#      x y z
#    x 1.761130 0.000000 0.000000 
#    y 0.000000 1.741110 0.000000 
#    z 0.000000 0.000000 1.761350 
# 
# From -- ./inp_files/10566.got.cif
#   From: 2010.03.12/outbox.cif.g09.slc.cpg/sg39_6_cif.got.tgz:10566.got - 2010.04.14 02:53:20.
