data_PCOD8180707
_publ_section_title
;
Structure prediction by ZEFSAII (Michael W. Deem and Ramdas Pophale) SiO2 
 PCOD8180707
Probable space group: A B M 2
;
_chemical_formula_sum "Si O2"
_cell_formula_units_Z 64
_cell_length_a 14.463894
_cell_length_b 8.936114
_cell_length_c 31.314176
_cell_angle_alpha 90.000000
_cell_angle_beta 90.000000
_cell_angle_gamma 90.000000
_cell_volume 4047.388740
_symmetry_space_group_name_H-M "A B M 2"
_symmetry_group_IT_number 39
_symmetry_cell_setting 'orthorhombic'
loop_
_space_group_symop_operation_xyz
x,y,z
-x,-y,z
-x,1/2+y,z
x,1/2-y,z
x,1/2+y,1/2+z
-x,1/2-y,1/2+z
-x,y,1/2+z
x,-y,1/2+z
loop_
_atom_site_type_symbol
_atom_site_label
_atom_site_fract_x
_atom_site_fract_y
_atom_site_fract_z
Si Si1 0.787249 0.927412 0.538840
Si Si2 0.214716 0.572183 0.200664
Si Si3 0.099031 0.425190 0.873568
Si Si4 0.592869 0.574187 0.569488
Si Si5 0.407269 0.425942 0.667979
Si Si6 0.900966 0.924678 0.779675
Si Si7 0.898846 0.571665 0.456635
Si Si8 0.900728 0.427971 0.119818
O O1 0.786720 0.750000 0.541246
O O2 0.681462 0.985155 0.542753
O O3 0.832854 0.983081 0.494885
O O4 0.846820 0.988926 0.578376
O O5 0.216687 0.750000 0.199916
O O6 0.319674 0.513255 0.195053
O O7 0.171553 0.511429 0.245003
O O8 0.152798 0.513962 0.161579
O O9 0.090834 0.250000 0.884054
O O10 0.144065 0.452762 0.826808
O O11 0.149665 0.508982 0.913026
O O12 0.000000 0.500000 0.870867
O O13 0.500000 0.500000 0.550792
O O14 0.581489 0.750000 0.564760
O O15 0.608119 0.528152 0.618738
O O16 0.500000 0.500000 0.686647
O O17 0.417900 0.250000 0.672621
O O18 0.918237 0.750000 0.772347
O O19 0.000000 0.000000 0.773529
O O20 0.907953 0.750000 0.454870
O O21 0.000000 0.500000 0.463062
O O22 0.909565 0.250000 0.119299
O O23 0.000000 0.500000 0.119952
#
# Coordination Sequence:
#
# PCOD8180707 Si02
#       8
#     8   8   8   8   8   8   8   8
#     4   9  17  29  44  61  84 115 144 168 205 254
#     4   9  16  28  45  62  83 115 145 167 204 255
#     4   9  16  27  42  60  83 109 140 179 215 246
#     4   9  16  29  46  63  82 108 140 175 212 249
#     4   9  16  28  46  63  82 109 140 175 211 249
#     4   9  17  28  43  63  86 113 144 174 207 248
#     4  10  18  28  43  62  85 114 145 175 207 248
#     4  10  18  29  42  58  84 117 146 169 197 239
#
# _framework density 15.812664
#
# number of rings (size 3 to 8) (size 9 to 14) (size 15 to 20)
#    0.000    2.750    1.250    2.250    0.000    0.500 
#    0.000    3.750    0.000    0.000    0.000    0.875 
#    0.000    6.000    0.000    0.000    0.000    0.000 
#
# Total GULP energy -396574.117802 kJ/mol
# GULP energy per Si atom -12392.941181 kJ/mol
# Density = 1.577667 g / cm^3
# Si number density = 15.812664 Si / 1000 Ang^3
#
#
#
# Elastic Constant Matrix: (Units=GPa)
#
#
# Indices 1 2 3 4 5 6 
#
# 1 132.2352 26.1018 73.4299 0.0000 0.0000 0.0000
# 2 26.1018 33.9587 30.5851 0.0000 0.0000 0.0000
# 3 73.4299 30.5851 139.8995 0.0000 0.0000 0.0000
# 4 0.0000 0.0000 0.0000 15.4370 0.0000 0.0000
# 5 0.0000 0.0000 0.0000 0.0000 14.2136 0.0000
# 6 0.0000 0.0000 0.0000 0.0000 0.0000 22.2413
#
#
#
# Elastic Compliance Matrix: (Units=1/GPa)
#
#
# Indices 1 2 3 4 5 6 
#
# 1 0.011112 -0.004094 -0.004937 0.000000 0.000000 0.000000
# 2 -0.004094 0.038176 -0.006197 0.000000 0.000000 0.000000
# 3 -0.004937 -0.006197 0.011094 0.000000 0.000000 0.000000
# 4 0.000000 0.000000 0.000000 0.064779 0.000000 0.000000
# 5 0.000000 0.000000 0.000000 0.000000 0.070355 0.000000
# 6 0.000000 0.000000 0.000000 0.000000 0.000000 0.044961
#
#
# Mechanical properties :
#
#
# Convention : Reuss Voigt Hill
#
# Bulk Modulus (GPa) = 33.41701 62.92524 48.17113
# Shear Modulus (GPa) = 17.79922 22.11015 19.95469
#
# Velocity S-wave (km/s) = 3.35868 3.74338 3.55624
# Velocity P-wave (km/s) = 6.01830 7.65274 6.88420
#
# Compressibility (1/GPa) = 0.02992488
#
# Stress axis : x y z
#
# Youngs Moduli (GPa) = 89.99125 26.19447 90.13593
#
# Poissons Ratio (x) = 0.10725 0.44504
# Poissons Ratio (y) = 0.36845 0.55858
# Poissons Ratio (z) = 0.44433 0.16233
#
# Static dielectric constant tensor:
#      x y z
#    x 3.031530 0.000000 0.000000 
#    y 0.000000 2.856370 0.000000 
#    z 0.000000 0.000000 3.559730 
# 
# 
# High freq. dielectric constant tensor:
#      x y z
#    x 1.588450 0.000000 0.000000 
#    y 0.000000 1.589640 0.000000 
#    z 0.000000 0.000000 1.603280 
# 
# From -- ./inp_files/17963.got.cif
#   From: 2010.03.12/outbox.cif.g09.slc.cpg/sg39_9_cif.got.tgz:17963.got - 2010.04.14 02:53:20.
