data_PCOD8180355
_publ_section_title
;
Structure prediction by ZEFSAII (Michael W. Deem and Ramdas Pophale) SiO2 
 PCOD8180355
Probable space group: A M M 2
;
_chemical_formula_sum "Si O2"
_cell_formula_units_Z 56
_cell_length_a 8.862170
_cell_length_b 18.424127
_cell_length_c 17.053589
_cell_angle_alpha 90.000000
_cell_angle_beta 90.000000
_cell_angle_gamma 90.000000
_cell_volume 2784.471566
_symmetry_space_group_name_H-M "A M M 2"
_symmetry_group_IT_number 38
_symmetry_cell_setting 'orthorhombic'
loop_
_space_group_symop_operation_xyz
x,y,z
-x,-y,z
-x,y,z
x,-y,z
x,1/2+y,1/2+z
-x,1/2-y,1/2+z
-x,1/2+y,1/2+z
x,1/2-y,1/2+z
loop_
_atom_site_type_symbol
_atom_site_label
_atom_site_fract_x
_atom_site_fract_y
_atom_site_fract_z
Si Si1 0.825560 0.916920 0.305620
Si Si2 0.677406 0.664933 0.662834
Si Si3 0.171714 0.415185 0.522269
Si Si4 0.174849 0.797608 0.428935
Si Si5 0.822697 0.692557 0.109029
Si Si6 0.675566 0.417121 0.214324
Si Si7 0.323502 0.845681 0.877973
O O1 0.730141 0.880425 0.237333
O O2 0.797373 0.874917 0.387214
O O3 0.000000 0.913250 0.280464
O O4 0.773291 0.000000 0.317542
O O5 0.500000 0.673972 0.666800
O O6 0.722332 0.624038 0.583998
O O7 0.748694 0.744794 0.661986
O O8 0.181515 0.500000 0.537263
O O9 0.229912 0.396465 0.436299
O O10 0.000000 0.387130 0.532025
O O11 0.228780 0.802132 0.518697
O O12 0.274783 0.737842 0.384924
O O13 0.000000 0.774776 0.423669
O O14 0.768290 0.615325 0.141658
O O15 0.000000 0.699158 0.116902
O O16 0.500000 0.410875 0.194608
O O17 0.725331 0.500000 0.226197
O O18 0.717538 0.372542 0.291760
O O19 0.500000 0.854038 0.896186
#
# Coordination Sequence:
#
# PCOD8180355 Si02
#       7
#     8   8   8   8   8   8   8
#     4  10  22  41  64  90 122 161 205 255 309 361
#     4  12  24  39  61  90 124 161 203 249 304 368
#     4  11  23  38  59  88 123 161 200 247 303 363
#     4  10  22  40  63  90 122 160 204 255 307 361
#     4  11  23  40  64  92 123 161 208 256 304 362
#     4  10  23  42  62  89 127 165 203 253 310 364
#     4  11  22  38  62  90 121 159 203 250 304 366
#
# _framework density 20.111535
#
# number of rings (size 3 to 8) (size 9 to 14) (size 15 to 20)
#    0.000    1.286    1.429    4.286    0.000    9.143 
#    0.000    1.429    0.000    0.000    0.000    0.000 
#    0.000    0.000    0.000    0.000    0.000    0.000 
#
# Total GULP energy -347377.562354 kJ/mol
# GULP energy per Si atom -12406.341513 kJ/mol
# Density = 2.006576 g / cm^3
# Si number density = 20.111535 Si / 1000 Ang^3
#
#
#
# Elastic Constant Matrix: (Units=GPa)
#
#
# Indices 1 2 3 4 5 6 
#
# 1 80.8307 56.1241 43.6767 0.0000 0.0000 0.0000
# 2 56.1241 136.1814 70.5305 0.0000 0.0000 0.0000
# 3 43.6767 70.5305 89.7824 0.0000 0.0000 0.0000
# 4 0.0000 0.0000 0.0000 25.9147 0.0000 0.0000
# 5 0.0000 0.0000 0.0000 0.0000 30.0735 0.0000
# 6 0.0000 0.0000 0.0000 0.0000 0.0000 31.2591
#
#
#
# Elastic Compliance Matrix: (Units=1/GPa)
#
#
# Indices 1 2 3 4 5 6 
#
# 1 0.018625 -0.005029 -0.005109 0.000000 0.000000 0.000000
# 2 -0.005029 0.013738 -0.008346 0.000000 0.000000 0.000000
# 3 -0.005109 -0.008346 0.020180 0.000000 0.000000 0.000000
# 4 0.000000 0.000000 0.000000 0.038588 0.000000 0.000000
# 5 0.000000 0.000000 0.000000 0.000000 0.033252 0.000000
# 6 0.000000 0.000000 0.000000 0.000000 0.000000 0.031991
#
#
# Mechanical properties :
#
#
# Convention : Reuss Voigt Hill
#
# Bulk Modulus (GPa) = 64.21140 71.93966 68.07553
# Shear Modulus (GPa) = 25.18468 26.54702 25.86585
#
# Velocity S-wave (km/s) = 3.54255 3.63711 3.59014
# Velocity P-wave (km/s) = 6.98068 7.31342 7.14898
#
# Compressibility (1/GPa) = 0.01557356
#
# Stress axis : x y z
#
# Youngs Moduli (GPa) = 53.69266 72.78915 49.55469
#
# Poissons Ratio (x) = 0.36609 0.25319
# Poissons Ratio (y) = 0.27005 0.41357
# Poissons Ratio (z) = 0.27433 0.60748
#
# Static dielectric constant tensor:
#      x y z
#    x 3.663050 0.000000 0.000000 
#    y 0.000000 3.784140 0.000000 
#    z 0.000000 0.000000 3.715520 
# 
# 
# High freq. dielectric constant tensor:
#      x y z
#    x 1.785260 0.000000 0.000000 
#    y 0.000000 1.796480 0.000000 
#    z 0.000000 0.000000 1.791390 
# 
# From -- ./inp_files/12452.got.cif
#   From: 2010.03.12/outbox.cif.g09.slc.cpg/sg38_7_cif.got.tgz:12452.got - 2010.04.14 02:38:36.
