data_PCOD8180634
_publ_section_title
;
Structure prediction by ZEFSAII (Michael W. Deem and Ramdas Pophale) SiO2 
 PCOD8180634
Probable space group: A B M 2
;
_chemical_formula_sum "Si O2"
_cell_formula_units_Z 64
_cell_length_a 17.844293
_cell_length_b 9.105381
_cell_length_c 22.947507
_cell_angle_alpha 90.000000
_cell_angle_beta 90.000000
_cell_angle_gamma 90.000000
_cell_volume 3728.489973
_symmetry_space_group_name_H-M "A B M 2"
_symmetry_group_IT_number 39
_symmetry_cell_setting 'orthorhombic'
loop_
_space_group_symop_operation_xyz
x,y,z
-x,-y,z
-x,1/2+y,z
x,1/2-y,z
x,1/2+y,1/2+z
-x,1/2-y,1/2+z
-x,y,1/2+z
x,-y,1/2+z
loop_
_atom_site_type_symbol
_atom_site_label
_atom_site_fract_x
_atom_site_fract_y
_atom_site_fract_z
Si Si1 0.073223 0.417076 0.637850
Si Si2 0.719924 0.078644 0.314214
Si Si3 0.707723 0.077566 0.579047
Si Si4 0.233017 0.578328 0.183986
Si Si5 0.640970 0.412750 0.980640
Si Si6 0.575423 0.075278 0.862120
Si Si7 0.154223 0.581381 0.026685
Si Si8 0.794628 0.588392 0.409963
O O1 0.060363 0.250000 0.655415
O O2 0.148406 0.475878 0.669788
O O3 0.081069 0.437716 0.567404
O O4 0.000000 0.500000 0.660695
O O5 0.703490 0.250000 0.323160
O O6 0.748822 0.040923 0.250278
O O7 0.644751 0.987328 0.325288
O O8 0.786344 0.030250 0.358683
O O9 0.698396 0.250000 0.585326
O O10 0.706436 0.005365 0.643396
O O11 0.640468 0.017959 0.537379
O O12 0.785819 0.035556 0.549432
O O13 0.240267 0.750000 0.170188
O O14 0.619041 0.250000 0.001972
O O15 0.583501 0.466855 0.930590
O O16 0.721650 0.411118 0.950405
O O17 0.572975 0.250000 0.853102
O O18 0.500000 0.000000 0.838233
O O19 0.184272 0.750000 0.034715
O O20 0.138893 0.551805 0.957230
O O21 0.806591 0.750000 0.381845
#
# Coordination Sequence:
#
# PCOD8180634 Si02
#       8
#     8   8   8   8   8   8   8   8
#     4   9  17  30  47  67  91 120 156 197 242 292
#     4  10  19  31  49  71  94 125 165 205 241 280
#     4  10  17  24  42  70  92 112 147 193 228 261
#     4   9  19  34  48  64  94 133 164 194 241 294
#     4   8  15  28  44  63  91 123 146 172 224 283
#     4  10  20  33  50  72  98 127 157 194 240 289
#     4   8  15  28  43  60  89 123 145 171 226 289
#     4   8  14  26  44  65  89 117 147 182 226 274
#
# _framework density 17.165126000000001
#
# number of rings (size 3 to 8) (size 9 to 14) (size 15 to 20)
#    0.000    3.000    0.000    4.125    0.000    8.000 
#    0.000    0.000    0.000    1.500    0.000    8.750 
#    0.000    0.000    0.000    0.000    0.000    0.000 
#
# Total GULP energy -396450.380910 kJ/mol
# GULP energy per Si atom -12389.074403 kJ/mol
# Density = 1.712606 g / cm^3
# Si number density = 17.165126 Si / 1000 Ang^3
#
#
#
# Elastic Constant Matrix: (Units=GPa)
#
#
# Indices 1 2 3 4 5 6 
#
# 1 56.5606 31.7928 36.7376 0.0000 0.0000 0.0000
# 2 31.7928 87.4778 57.6843 0.0000 0.0000 0.0000
# 3 36.7376 57.6843 122.4942 0.0000 0.0000 0.0000
# 4 0.0000 0.0000 0.0000 27.5744 0.0000 0.0000
# 5 0.0000 0.0000 0.0000 0.0000 16.3410 0.0000
# 6 0.0000 0.0000 0.0000 0.0000 0.0000 20.2333
#
#
#
# Elastic Compliance Matrix: (Units=1/GPa)
#
#
# Indices 1 2 3 4 5 6 
#
# 1 0.023775 -0.005713 -0.004440 0.000000 0.000000 0.000000
# 2 -0.005713 0.017953 -0.006741 0.000000 0.000000 0.000000
# 3 -0.004440 -0.006741 0.012670 0.000000 0.000000 0.000000
# 4 0.000000 0.000000 0.000000 0.036265 0.000000 0.000000
# 5 0.000000 0.000000 0.000000 0.000000 0.061196 0.000000
# 6 0.000000 0.000000 0.000000 0.000000 0.000000 0.049423
#
#
# Mechanical properties :
#
#
# Convention : Reuss Voigt Hill
#
# Bulk Modulus (GPa) = 48.52043 57.66245 53.09144
# Shear Modulus (GPa) = 20.66621 22.18427 21.42524
#
# Velocity S-wave (km/s) = 3.47358 3.59890 3.53680
# Velocity P-wave (km/s) = 6.66453 7.13689 6.90475
#
# Compressibility (1/GPa) = 0.02060988
#
# Stress axis : x y z
#
# Youngs Moduli (GPa) = 42.06014 55.70157 78.92838
#
# Poissons Ratio (x) = 0.31822 0.35046
# Poissons Ratio (y) = 0.24029 0.53205
# Poissons Ratio (z) = 0.18676 0.37548
#
# Static dielectric constant tensor:
#      x y z
#    x 2.963120 0.000000 0.000000 
#    y 0.000000 3.148430 0.000000 
#    z 0.000000 0.000000 3.419210 
# 
# 
# High freq. dielectric constant tensor:
#      x y z
#    x 1.614830 0.000000 0.000000 
#    y 0.000000 1.662710 0.000000 
#    z 0.000000 0.000000 1.657300 
# 
# From -- ./inp_files/16372.got.cif
#   From: 2010.03.12/outbox.cif.g09.slc.cpg/sg39_9_cif.got.tgz:16372.got - 2010.04.14 02:53:20.
