data_PCOD8180011
_publ_section_title
;
Structure prediction by ZEFSAII (Michael W. Deem and Ramdas Pophale) SiO2 
 PCOD8180011
Probable space group: A M M 2
;
_chemical_formula_sum "Si O2"
_cell_formula_units_Z 56
_cell_length_a 19.895176
_cell_length_b 9.447361
_cell_length_c 15.371369
_cell_angle_alpha 90.000000
_cell_angle_beta 90.000000
_cell_angle_gamma 90.000000
_cell_volume 2889.155017
_symmetry_space_group_name_H-M "A M M 2"
_symmetry_group_IT_number 38
_symmetry_cell_setting 'orthorhombic'
loop_
_space_group_symop_operation_xyz
x,y,z
-x,-y,z
-x,y,z
x,-y,z
x,1/2+y,1/2+z
-x,1/2-y,1/2+z
-x,1/2+y,1/2+z
x,1/2-y,1/2+z
loop_
_atom_site_type_symbol
_atom_site_label
_atom_site_fract_x
_atom_site_fract_y
_atom_site_fract_z
Si Si1 0.336328 0.336956 0.528410
Si Si2 0.422738 0.333009 0.690545
Si Si3 0.928566 0.339494 0.096674
Si Si4 0.655031 0.336349 0.334322
Si Si5 0.786397 0.341513 0.076454
Si Si6 0.801375 0.662140 0.281589
Si Si7 0.074104 0.834683 0.269427
O O1 0.321359 0.500000 0.545172
O O2 0.386048 0.278453 0.602843
O O3 0.369420 0.313449 0.433669
O O4 0.264468 0.262686 0.530440
O O5 0.500000 0.288998 0.681852
O O6 0.414215 0.500000 0.702827
O O7 0.392016 0.257540 0.774098
O O8 0.921986 0.500000 0.136028
O O9 0.862089 0.314728 0.037433
O O10 0.929662 0.225475 0.172509
O O11 0.000000 0.327061 0.044404
O O12 0.648161 0.500000 0.305515
O O13 0.732708 0.287858 0.327883
O O14 0.761275 0.500000 0.057269
O O15 0.790411 0.313066 0.179260
O O16 0.817096 0.500000 0.304089
O O17 0.864328 0.754576 0.317994
O O18 0.000000 0.810676 0.313500
O O19 0.091571 0.000000 0.265916
#
# Coordination Sequence:
#
# PCOD8180011 Si02
#       7
#     8   8   8   8   8   8   8
#     4  10  21  36  57  83 112 145 179 221 271 321
#     4  10  22  40  60  85 116 145 174 214 269 327
#     4   8  14  25  41  64  97 138 181 223 268 317
#     4  10  21  38  59  84 111 145 188 225 263 319
#     4   9  16  28  49  75 104 140 183 227 267 318
#     4   9  17  30  49  72 101 139 183 225 265 318
#     4   9  16  24  38  66 101 135 176 225 275 324
#
# _framework density 19.382829999999998
#
# number of rings (size 3 to 8) (size 9 to 14) (size 15 to 20)
#    0.000    2.714    1.429    1.286    0.000    5.143 
#    0.000    1.429    0.000    0.857    0.000    4.000 
#    0.000    0.000    0.000    0.000    0.000    0.000 
#
# Total GULP energy -346947.202166 kJ/mol
# GULP energy per Si atom -12390.971506 kJ/mol
# Density = 1.933871 g / cm^3
# Si number density = 19.382830 Si / 1000 Ang^3
#
#
#
# Elastic Constant Matrix: (Units=GPa)
#
#
# Indices 1 2 3 4 5 6 
#
# 1 156.7809 57.7897 47.5783 0.0000 0.0000 0.0000
# 2 57.7897 65.8020 27.8431 0.0000 0.0000 0.0000
# 3 47.5783 27.8431 66.3499 0.0000 0.0000 0.0000
# 4 0.0000 0.0000 0.0000 18.4613 0.0000 0.0000
# 5 0.0000 0.0000 0.0000 0.0000 4.6488 0.0000
# 6 0.0000 0.0000 0.0000 0.0000 0.0000 34.1986
#
#
#
# Elastic Compliance Matrix: (Units=1/GPa)
#
#
# Indices 1 2 3 4 5 6 
#
# 1 0.010392 -0.007263 -0.004404 0.000000 0.000000 0.000000
# 2 -0.007263 0.023555 -0.004676 0.000000 0.000000 0.000000
# 3 -0.004404 -0.004676 0.020192 0.000000 0.000000 0.000000
# 4 0.000000 0.000000 0.000000 0.054167 0.000000 0.000000
# 5 0.000000 0.000000 0.000000 0.000000 0.215109 0.000000
# 6 0.000000 0.000000 0.000000 0.000000 0.000000 0.029241
#
#
# Mechanical properties :
#
#
# Convention : Reuss Voigt Hill
#
# Bulk Modulus (GPa) = 46.61601 61.70608 54.16105
# Shear Modulus (GPa) = 12.73907 21.84320 17.29113
#
# Velocity S-wave (km/s) = 2.56644 3.36063 2.99002
# Velocity P-wave (km/s) = 5.73450 6.85295 6.31852
#
# Compressibility (1/GPa) = 0.02145186
#
# Stress axis : x y z
#
# Youngs Moduli (GPa) = 96.22768 42.45473 49.52472
#
# Poissons Ratio (x) = 0.30836 0.21811
# Poissons Ratio (y) = 0.69892 0.23158
# Poissons Ratio (z) = 0.42379 0.19852
#
# Static dielectric constant tensor:
#      x y z
#    x 3.971120 0.000000 0.000000 
#    y 0.000000 3.458910 0.000000 
#    z 0.000000 0.000000 3.178320 
# 
# 
# High freq. dielectric constant tensor:
#      x y z
#    x 1.768740 0.000000 0.000000 
#    y 0.000000 1.748040 0.000000 
#    z 0.000000 0.000000 1.713870 
# 
# From -- ./inp_files/15477.got.cif
#   From: 2010.03.12/outbox.cif.g09.slc.cpg/sg38_8_cif.got.tgz:15477.got - 2010.04.14 02:38:36.
