data_PCOD8180150
_publ_section_title
;
Structure prediction by ZEFSAII (Michael W. Deem and Ramdas Pophale) SiO2 
 PCOD8180150
Probable space group: A M M 2
;
_chemical_formula_sum "Si O2"
_cell_formula_units_Z 64
_cell_length_a 22.026076
_cell_length_b 15.439131
_cell_length_c 10.029142
_cell_angle_alpha 90.000000
_cell_angle_beta 90.000000
_cell_angle_gamma 90.000000
_cell_volume 3410.544858
_symmetry_space_group_name_H-M "A M M 2"
_symmetry_group_IT_number 38
_symmetry_cell_setting 'orthorhombic'
loop_
_space_group_symop_operation_xyz
x,y,z
-x,-y,z
-x,y,z
x,-y,z
x,1/2+y,1/2+z
-x,1/2-y,1/2+z
-x,1/2+y,1/2+z
x,1/2-y,1/2+z
loop_
_atom_site_type_symbol
_atom_site_label
_atom_site_fract_x
_atom_site_fract_y
_atom_site_fract_z
Si Si1 0.570507 0.401196 0.017000
Si Si2 0.932798 0.328484 0.951884
Si Si3 0.066844 0.827907 0.753986
Si Si4 0.731244 0.248401 0.844079
Si Si5 0.808752 0.903975 0.760736
Si Si6 0.193029 0.096547 0.452901
Si Si7 0.429586 0.597937 0.707268
Si Si8 0.350773 0.253506 0.593553
O O1 0.500000 0.386137 0.050242
O O2 0.588993 0.500000 0.052577
O O3 0.610369 0.335271 0.104668
O O4 0.583414 0.382421 0.861964
O O5 0.921038 0.250761 0.851975
O O6 0.879492 0.397740 0.927257
O O7 0.000000 0.369996 0.927492
O O8 0.928548 0.292245 0.102747
O O9 0.118401 0.899309 0.779781
O O10 0.000000 0.869075 0.779358
O O11 0.775695 0.165781 0.854255
O O12 0.769404 0.335839 0.865303
O O13 0.703617 0.252141 0.697546
O O14 0.677025 0.237358 0.947455
O O15 0.791444 0.885964 0.607206
O O16 0.788048 0.000000 0.803900
O O17 0.213492 0.000000 0.411338
O O18 0.500000 0.610180 0.675102
O O19 0.409254 0.500000 0.673153
O O20 0.393275 0.663691 0.614777
#
# Coordination Sequence:
#
# PCOD8180150 Si02
#       8
#     8   8   8   8   8   8   8   8
#     4   9  19  38  64  91 117 149 189 229 278 342
#     4   9  17  31  56  84 109 140 182 236 294 345
#     4   9  17  31  56  83 108 141 183 236 293 346
#     4  12  24  38  57  83 116 155 198 234 274 334
#     4  10  21  38  58  81 114 150 191 243 291 337
#     4  10  21  38  59  81 112 152 194 239 287 341
#     4   9  19  38  63  90 119 149 185 231 284 339
#     4  12  23  38  61  87 118 152 192 236 275 332
#
# _framework density 18.765329999999999
#
# number of rings (size 3 to 8) (size 9 to 14) (size 15 to 20)
#    0.000    2.000    3.750    1.125    0.000    2.500 
#    0.000    2.500    0.000    1.500    0.000    3.500 
#    0.000    0.000    0.000    0.000    0.000    0.000 
#
# Total GULP energy -396746.074937 kJ/mol
# GULP energy per Si atom -12398.314842 kJ/mol
# Density = 1.872262 g / cm^3
# Si number density = 18.765330 Si / 1000 Ang^3
#
#
#
# Elastic Constant Matrix: (Units=GPa)
#
#
# Indices 1 2 3 4 5 6 
#
# 1 94.9870 70.3847 27.1057 0.0000 0.0000 0.0000
# 2 70.3847 142.0035 34.1611 0.0000 0.0000 0.0000
# 3 27.1057 34.1611 38.8831 0.0000 0.0000 0.0000
# 4 0.0000 0.0000 0.0000 28.7331 0.0000 0.0000
# 5 0.0000 0.0000 0.0000 0.0000 30.9009 0.0000
# 6 0.0000 0.0000 0.0000 0.0000 0.0000 18.3295
#
#
#
# Elastic Compliance Matrix: (Units=1/GPa)
#
#
# Indices 1 2 3 4 5 6 
#
# 1 0.017629 -0.007331 -0.005849 0.000000 0.000000 0.000000
# 2 -0.007331 0.011978 -0.005413 0.000000 0.000000 0.000000
# 3 -0.005849 -0.005413 0.034551 0.000000 0.000000 0.000000
# 4 0.000000 0.000000 0.000000 0.034803 0.000000 0.000000
# 5 0.000000 0.000000 0.000000 0.000000 0.032361 0.000000
# 6 0.000000 0.000000 0.000000 0.000000 0.000000 0.054557
#
#
# Mechanical properties :
#
#
# Convention : Reuss Voigt Hill
#
# Bulk Modulus (GPa) = 37.07444 59.90852 48.49148
# Shear Modulus (GPa) = 21.54669 25.20750 23.37710
#
# Velocity S-wave (km/s) = 3.39221 3.66908 3.53336
# Velocity P-wave (km/s) = 5.92812 7.06711 6.52252
#
# Compressibility (1/GPa) = 0.02697276
#
# Stress axis : x y z
#
# Youngs Moduli (GPa) = 56.72524 83.48789 28.94300
#
# Poissons Ratio (x) = 0.61204 0.16928
# Poissons Ratio (y) = 0.41584 0.15666
# Poissons Ratio (z) = 0.33176 0.45190
#
# Static dielectric constant tensor:
#      x y z
#    x 3.602830 0.000000 0.000000 
#    y 0.000000 3.352580 0.000000 
#    z 0.000000 0.000000 3.259310 
# 
# 
# High freq. dielectric constant tensor:
#      x y z
#    x 1.745320 0.000000 0.000000 
#    y 0.000000 1.720180 0.000000 
#    z 0.000000 0.000000 1.707720 
# 
# From -- ./inp_files/6979.got.cif
#   From: 2010.03.12/outbox.cif.g09.slc.cpg/sg38_4_cif.got.tgz:6979.got - 2010.04.14 02:38:36.
