data_PCOD8180627
_publ_section_title
;
Structure prediction by ZEFSAII (Michael W. Deem and Ramdas Pophale) SiO2 
 PCOD8180627
Probable space group: A B M 2
;
_chemical_formula_sum "Si O2"
_cell_formula_units_Z 64
_cell_length_a 13.269751
_cell_length_b 17.059608
_cell_length_c 15.865039
_cell_angle_alpha 90.000000
_cell_angle_beta 90.000000
_cell_angle_gamma 90.000000
_cell_volume 3591.475972
_symmetry_space_group_name_H-M "A B M 2"
_symmetry_group_IT_number 39
_symmetry_cell_setting 'orthorhombic'
loop_
_space_group_symop_operation_xyz
x,y,z
-x,-y,z
-x,1/2+y,z
x,1/2-y,z
x,1/2+y,1/2+z
-x,1/2-y,1/2+z
-x,y,1/2+z
x,-y,1/2+z
loop_
_atom_site_type_symbol
_atom_site_label
_atom_site_fract_x
_atom_site_fract_y
_atom_site_fract_z
Si Si1 0.603919 0.962324 0.743280
Si Si2 0.237620 0.998454 0.124279
Si Si3 0.886881 0.658233 0.377054
Si Si4 0.055232 0.920334 0.043269
Si Si5 0.942439 0.921701 0.208613
Si Si6 0.533072 0.340115 0.376465
Si Si7 0.330182 0.416853 0.372201
Si Si8 0.400865 0.540214 0.508204
O O1 0.684075 0.939291 0.671132
O O2 0.584652 0.885923 0.799222
O O3 0.500000 0.000000 0.709470
O O4 0.663464 0.032860 0.788031
O O5 0.170324 0.941386 0.066484
O O6 0.170878 0.054701 0.183338
O O7 0.310921 0.057822 0.073266
O O8 0.871937 0.750000 0.375556
O O9 0.949844 0.635894 0.461590
O O10 0.943466 0.634583 0.290102
O O11 0.779965 0.617044 0.383564
O O12 0.999154 0.883549 0.126403
O O13 0.000000 0.000000 0.016916
O O14 0.000000 0.000000 0.236257
O O15 0.566278 0.250000 0.372937
O O16 0.412088 0.346736 0.370521
O O17 0.572410 0.377997 0.463320
O O18 0.358129 0.476120 0.445161
O O19 0.500000 0.500000 0.550030
#
# Coordination Sequence:
#
# PCOD8180627 Si02
#       8
#     8   8   8   8   8   8   8   8
#     4   9  17  29  53  77 102 142 183 216 255 306
#     4  10  16  32  56  76 104 134 190 224 246 316
#     4  12  21  34  59  83 109 142 174 222 282 327
#     4   9  21  38  58  81 103 140 182 226 274 320
#     4   9  21  38  58  81 103 140 182 226 274 320
#     4   9  18  32  47  75 116 142 173 220 267 310
#     4   9  17  32  51  78 102 142 186 216 249 317
#     4   9  17  29  53  77 102 142 183 216 255 306
#
# _framework density 17.819972
#
# number of rings (size 3 to 8) (size 9 to 14) (size 15 to 20)
#    0.000    2.750    2.500    2.625    0.000    0.500 
#    0.000    1.250    0.000   10.500    0.000    0.000 
#    0.000    0.000    0.000    0.000    0.000    0.000 
#
# Total GULP energy -396449.688188 kJ/mol
# GULP energy per Si atom -12389.052756 kJ/mol
# Density = 1.777941 g / cm^3
# Si number density = 17.819972 Si / 1000 Ang^3
#
#
#
# Elastic Constant Matrix: (Units=GPa)
#
#
# Indices 1 2 3 4 5 6 
#
# 1 87.4485 15.0220 21.7881 0.0000 0.0000 0.0000
# 2 15.0220 80.9664 16.2637 0.0000 0.0000 0.0000
# 3 21.7881 16.2637 70.4068 0.0000 0.0000 0.0000
# 4 0.0000 0.0000 0.0000 17.3102 0.0000 0.0000
# 5 0.0000 0.0000 0.0000 0.0000 11.4844 0.0000
# 6 0.0000 0.0000 0.0000 0.0000 0.0000 13.0413
#
#
#
# Elastic Compliance Matrix: (Units=1/GPa)
#
#
# Indices 1 2 3 4 5 6 
#
# 1 0.012592 -0.001629 -0.003520 0.000000 0.000000 0.000000
# 2 -0.001629 0.013163 -0.002536 0.000000 0.000000 0.000000
# 3 -0.003520 -0.002536 0.015879 0.000000 0.000000 0.000000
# 4 0.000000 0.000000 0.000000 0.057769 0.000000 0.000000
# 5 0.000000 0.000000 0.000000 0.000000 0.087075 0.000000
# 6 0.000000 0.000000 0.000000 0.000000 0.000000 0.076680
#
#
# Mechanical properties :
#
#
# Convention : Reuss Voigt Hill
#
# Bulk Modulus (GPa) = 38.07867 38.32991 38.20429
# Shear Modulus (GPa) = 17.40443 20.75036 19.07740
#
# Velocity S-wave (km/s) = 3.12858 3.41610 3.27549
# Velocity P-wave (km/s) = 5.87074 6.09228 5.98254
#
# Compressibility (1/GPa) = 0.02626142
#
# Stress axis : x y z
#
# Youngs Moduli (GPa) = 79.41368 75.97317 62.97822
#
# Poissons Ratio (x) = 0.12377 0.22171
# Poissons Ratio (y) = 0.12938 0.15973
# Poissons Ratio (z) = 0.27957 0.19269
#
# Static dielectric constant tensor:
#      x y z
#    x 3.470560 0.000000 0.000000 
#    y 0.000000 2.814470 0.000000 
#    z 0.000000 0.000000 3.699370 
# 
# 
# High freq. dielectric constant tensor:
#      x y z
#    x 1.701740 0.000000 0.000000 
#    y 0.000000 1.643980 0.000000 
#    z 0.000000 0.000000 1.698830 
# 
# From -- ./inp_files/12459.got.cif
#   From: 2010.03.12/outbox.cif.g09.slc.cpg/sg39_7_cif.got.tgz:12459.got - 2010.04.14 02:53:20.
