data_PCOD8180638
_publ_section_title
;
Structure prediction by ZEFSAII (Michael W. Deem and Ramdas Pophale) SiO2 
 PCOD8180638
Probable space group: A B M 2
;
_chemical_formula_sum "Si O2"
_cell_formula_units_Z 64
_cell_length_a 19.276426
_cell_length_b 8.798752
_cell_length_c 19.914201
_cell_angle_alpha 90.000000
_cell_angle_beta 90.000000
_cell_angle_gamma 90.000000
_cell_volume 3377.617597
_symmetry_space_group_name_H-M "A B M 2"
_symmetry_group_IT_number 39
_symmetry_cell_setting 'orthorhombic'
loop_
_space_group_symop_operation_xyz
x,y,z
-x,-y,z
-x,1/2+y,z
x,1/2-y,z
x,1/2+y,1/2+z
-x,1/2-y,1/2+z
-x,y,1/2+z
x,-y,1/2+z
loop_
_atom_site_type_symbol
_atom_site_label
_atom_site_fract_x
_atom_site_fract_y
_atom_site_fract_z
Si Si1 0.934417 0.573249 0.063150
Si Si2 0.207246 0.427790 0.916330
Si Si3 0.428915 0.074339 0.475790
Si Si4 0.068579 0.571116 0.917410
Si Si5 0.574469 0.929323 0.231254
Si Si6 0.782078 0.424940 0.570229
Si Si7 0.647854 0.928961 0.853508
Si Si8 0.649579 0.923864 0.611228
O O1 0.948108 0.750000 0.048195
O O2 0.860195 0.552391 0.100127
O O3 0.000000 0.500000 0.104282
O O4 0.930482 0.481738 0.994155
O O5 0.191317 0.250000 0.915391
O O6 0.140398 0.512250 0.884376
O O7 0.273403 0.472240 0.871840
O O8 0.220619 0.480197 0.992952
O O9 0.440309 0.250000 0.457640
O O10 0.373483 0.053618 0.534686
O O11 0.500000 0.000000 0.500958
O O12 0.404103 0.986415 0.410271
O O13 0.064718 0.750000 0.910921
O O14 0.000000 0.500000 0.881615
O O15 0.567798 0.750000 0.235944
O O16 0.500000 0.000000 0.247588
O O17 0.630904 0.989264 0.283939
O O18 0.599943 0.975514 0.157496
O O19 0.758897 0.250000 0.574873
O O20 0.729563 0.522925 0.615416
O O21 0.638057 0.750000 0.845514
O O22 0.643871 0.750000 0.634953
#
# Coordination Sequence:
#
# PCOD8180638 Si02
#       8
#     8   8   8   8   8   8   8   8
#     4   9  16  26  41  66 102 143 183 221 268 321
#     4   9  18  32  51  76 108 144 180 222 272 325
#     4  11  23  37  56  83 111 140 179 223 273 331
#     4  10  17  25  41  66 102 143 182 223 267 319
#     4  12  26  44  63  82 110 144 184 231 279 333
#     4   9  17  31  50  76 109 145 182 224 276 325
#     4  11  22  39  61  83 111 145 182 226 277 331
#     4  11  23  38  58  84 111 144 185 228 276 331
#
# _framework density 18.948266
#
# number of rings (size 3 to 8) (size 9 to 14) (size 15 to 20)
#    0.000    1.750    1.250    6.000    0.000    6.000 
#    0.000    0.000    0.000    0.000    0.000    0.875 
#    0.000    2.000    0.000    0.000    0.000    0.000 
#
# Total GULP energy -396777.462897 kJ/mol
# GULP energy per Si atom -12399.295716 kJ/mol
# Density = 1.890514 g / cm^3
# Si number density = 18.948266 Si / 1000 Ang^3
#
#
#
# Elastic Constant Matrix: (Units=GPa)
#
#
# Indices 1 2 3 4 5 6 
#
# 1 142.1445 63.2943 17.2632 0.0000 0.0000 0.0000
# 2 63.2943 117.6629 21.6804 0.0000 0.0000 0.0000
# 3 17.2632 21.6804 40.4010 0.0000 0.0000 0.0000
# 4 0.0000 0.0000 0.0000 23.4833 0.0000 0.0000
# 5 0.0000 0.0000 0.0000 0.0000 18.3743 0.0000
# 6 0.0000 0.0000 0.0000 0.0000 0.0000 38.0910
#
#
#
# Elastic Compliance Matrix: (Units=1/GPa)
#
#
# Indices 1 2 3 4 5 6 
#
# 1 0.009325 -0.004752 -0.001435 0.000000 0.000000 0.000000
# 2 -0.004752 0.011853 -0.004330 0.000000 0.000000 0.000000
# 3 -0.001435 -0.004330 0.027689 0.000000 0.000000 0.000000
# 4 0.000000 0.000000 0.000000 0.042583 0.000000 0.000000
# 5 0.000000 0.000000 0.000000 0.000000 0.054424 0.000000
# 6 0.000000 0.000000 0.000000 0.000000 0.000000 0.026253
#
#
# Mechanical properties :
#
#
# Convention : Reuss Voigt Hill
#
# Bulk Modulus (GPa) = 35.92818 56.07602 46.00210
# Shear Modulus (GPa) = 24.69890 29.18777 26.94334
#
# Velocity S-wave (km/s) = 3.61431 3.92904 3.77496
# Velocity P-wave (km/s) = 6.03490 7.08814 6.58262
#
# Compressibility (1/GPa) = 0.02783330
#
# Stress axis : x y z
#
# Youngs Moduli (GPa) = 107.23503 84.36708 36.11606
#
# Poissons Ratio (x) = 0.40091 0.05181
# Poissons Ratio (y) = 0.50958 0.15639
# Poissons Ratio (z) = 0.15384 0.36532
#
# Static dielectric constant tensor:
#      x y z
#    x 4.134670 0.000000 0.000000 
#    y 0.000000 3.552530 0.000000 
#    z 0.000000 0.000000 2.974420 
# 
# 
# High freq. dielectric constant tensor:
#      x y z
#    x 1.761890 0.000000 0.000000 
#    y 0.000000 1.747940 0.000000 
#    z 0.000000 0.000000 1.676170 
# 
# From -- ./inp_files/15032.got.cif
#   From: 2010.03.12/outbox.cif.g09.slc.cpg/sg39_8_cif.got.tgz:15032.got - 2010.04.14 02:53:20.
