data_PCOD8180276
_publ_section_title
;
Structure prediction by ZEFSAII (Michael W. Deem and Ramdas Pophale) SiO2 
 PCOD8180276
Probable space group: A M M 2
;
_chemical_formula_sum "Si O2"
_cell_formula_units_Z 48
_cell_length_a 8.740663
_cell_length_b 9.963045
_cell_length_c 27.634471
_cell_angle_alpha 90.000000
_cell_angle_beta 90.000000
_cell_angle_gamma 90.000000
_cell_volume 2406.509738
_symmetry_space_group_name_H-M "A M M 2"
_symmetry_group_IT_number 38
_symmetry_cell_setting 'orthorhombic'
loop_
_space_group_symop_operation_xyz
x,y,z
-x,-y,z
-x,y,z
x,-y,z
x,1/2+y,1/2+z
-x,1/2-y,1/2+z
-x,1/2+y,1/2+z
x,1/2-y,1/2+z
loop_
_atom_site_type_symbol
_atom_site_label
_atom_site_fract_x
_atom_site_fract_y
_atom_site_fract_z
Si Si1 0.324314 0.657035 0.373350
Si Si2 0.179225 0.343708 0.951844
Si Si3 0.318747 0.250490 0.050331
Si Si4 0.173547 0.000000 0.709142
Si Si5 0.179944 0.000000 0.103254
Si Si6 0.325745 0.229882 0.763604
Si Si7 0.321396 0.500000 0.108508
Si Si8 0.676363 0.000000 0.209101
O O1 0.500000 0.666321 0.390667
O O2 0.271931 0.500000 0.373837
O O3 0.218101 0.750317 0.406267
O O4 0.305935 0.722901 0.320849
O O5 0.227217 0.500000 0.943227
O O6 0.000000 0.334239 0.962817
O O7 0.273558 0.278960 0.995437
O O8 0.500000 0.231702 0.053854
O O9 0.237875 0.123224 0.072279
O O10 0.252070 0.370208 0.082940
O O11 0.204509 0.129877 0.740810
O O12 0.287062 0.000000 0.664523
O O13 0.000000 0.000000 0.690809
O O14 0.234254 0.000000 0.158720
O O15 0.000000 0.000000 0.104681
O O16 0.500000 0.190222 0.749471
O O17 0.281868 0.374538 0.742778
O O18 0.500000 0.500000 0.099674
O O19 0.500000 0.000000 0.194244
#
# Coordination Sequence:
#
# PCOD8180276 Si02
#       8
#     8   8   8   4   4   8   4   4
#     4  10  22  41  67  95 123 162 212 262 310 368
#     4  11  25  43  64  94 131 167 202 252 320 383
#     4  11  23  43  68  93 121 161 214 263 306 365
#     4  12  24  36  59  92 125 164 202 246 311 378
#     4  12  26  42  61  92 133 172 206 254 317 378
#     4  10  21  41  65  90 123 161 210 263 309 359
#     4  10  22  40  65  92 119 157 206 260 309 359
#     4  10  22  40  65  94 123 165 214 262 309 365
#
# _framework density 19.945898
#
# number of rings (size 3 to 8) (size 9 to 14) (size 15 to 20)
#    0.000    1.333    1.667    3.500    2.333    8.000 
#    0.000    0.000    0.000    0.000    0.000    0.000 
#    0.000    0.000    0.000    0.000    0.000    0.000 
#
# Total GULP energy -297620.096132 kJ/mol
# GULP energy per Si atom -12400.837339 kJ/mol
# Density = 1.990050 g / cm^3
# Si number density = 19.945898 Si / 1000 Ang^3
#
#
#
# Elastic Constant Matrix: (Units=GPa)
#
#
# Indices 1 2 3 4 5 6 
#
# 1 70.5310 52.2275 28.3981 0.0000 0.0000 0.0000
# 2 52.2275 173.9450 63.4158 0.0000 0.0000 0.0000
# 3 28.3981 63.4158 104.8173 0.0000 0.0000 0.0000
# 4 0.0000 0.0000 0.0000 486.4798 0.0000 0.0000
# 5 0.0000 0.0000 0.0000 0.0000 10.0203 0.0000
# 6 0.0000 0.0000 0.0000 0.0000 0.0000 32.3851
#
#
#
# Elastic Compliance Matrix: (Units=1/GPa)
#
#
# Indices 1 2 3 4 5 6 
#
# 1 0.018595 -0.004807 -0.002130 0.000000 0.000000 0.000000
# 2 -0.004807 0.008618 -0.003912 0.000000 0.000000 0.000000
# 3 -0.002130 -0.003912 0.012484 0.000000 0.000000 0.000000
# 4 0.000000 0.000000 0.000000 0.002056 0.000000 0.000000
# 5 0.000000 0.000000 0.000000 0.000000 0.099798 0.000000
# 6 0.000000 0.000000 0.000000 0.000000 0.000000 0.030878
#
#
# Mechanical properties :
#
#
# Convention : Reuss Voigt Hill
#
# Bulk Modulus (GPa) = 55.55355 70.81958 63.18657
# Shear Modulus (GPa) = 24.98417 119.46048 72.22232
#
# Velocity S-wave (km/s) = 3.54304 7.74740 6.02393
# Velocity P-wave (km/s) = 6.68208 10.75233 8.95161
#
# Compressibility (1/GPa) = 0.01800065
#
# Stress axis : x y z
#
# Youngs Moduli (GPa) = 53.77774 116.03116 80.10122
#
# Poissons Ratio (x) = 0.55773 0.17060
# Poissons Ratio (y) = 0.25850 0.31335
# Poissons Ratio (z) = 0.11454 0.45391
#
# Static dielectric constant tensor:
#      x y z
#    x 3.551390 0.000000 0.000000 
#    y 0.000000 3.433080 0.000000 
#    z 0.000000 0.000000 3.641740 
# 
# 
# High freq. dielectric constant tensor:
#      x y z
#    x 1.771660 0.000000 0.000000 
#    y 0.000000 1.795990 0.000000 
#    z 0.000000 0.000000 1.789810 
# 
# From -- ./inp_files/24449.got.cif
#   From: 2010.03.12/outbox.cif.g09.slc.cpg/sg38_13_cif.got.tgz:24449.got - 2010.04.14 02:38:36.
