data_PCOD8180002
_publ_section_title
;
Structure prediction by ZEFSAII (Michael W. Deem and Ramdas Pophale) SiO2 
 PCOD8180002
Probable space group: A M M 2
;
_chemical_formula_sum "Si O2"
_cell_formula_units_Z 48
_cell_length_a 8.341239
_cell_length_b 10.112620
_cell_length_c 28.055579
_cell_angle_alpha 90.000000
_cell_angle_beta 90.000000
_cell_angle_gamma 90.000000
_cell_volume 2366.538037
_symmetry_space_group_name_H-M "A M M 2"
_symmetry_group_IT_number 38
_symmetry_cell_setting 'orthorhombic'
loop_
_space_group_symop_operation_xyz
x,y,z
-x,-y,z
-x,y,z
x,-y,z
x,1/2+y,1/2+z
-x,1/2-y,1/2+z
-x,1/2+y,1/2+z
x,1/2-y,1/2+z
loop_
_atom_site_type_symbol
_atom_site_label
_atom_site_fract_x
_atom_site_fract_y
_atom_site_fract_z
Si Si1 0.311916 0.650475 0.621730
Si Si2 0.310330 0.000000 0.467647
Si Si3 0.690999 0.151647 0.702336
Si Si4 0.308850 0.244380 0.805080
Si Si5 0.691499 0.000000 0.358575
Si Si6 0.813699 0.753703 0.022600
Si Si7 0.316911 0.000000 0.971598
Si Si8 0.318822 0.500000 0.359831
O O1 0.500000 0.638740 0.629213
O O2 0.238880 0.500000 0.624687
O O3 0.240120 0.749970 0.661621
O O4 0.277380 0.718954 0.571596
O O5 0.250983 0.874856 0.496747
O O6 0.500000 0.000000 0.466276
O O7 0.243183 0.000000 0.413233
O O8 0.500000 0.147187 0.700810
O O9 0.752292 0.216259 0.751650
O O10 0.755503 0.000000 0.696275
O O11 0.500000 0.251657 0.805953
O O12 0.239678 0.377323 0.828392
O O13 0.236251 0.129984 0.838700
O O14 0.500000 0.000000 0.360650
O O15 0.000000 0.738736 0.033659
O O16 0.780794 0.873571 0.987502
O O17 0.500000 0.000000 0.991560
O O18 0.315800 0.000000 0.915648
O O19 0.500000 0.500000 0.340181
#
# Coordination Sequence:
#
# PCOD8180002 Si02
#       8
#     8   4   8   8   4   8   4   4
#     4  10  21  36  56  83 115 152 196 243 295 354
#     4  11  23  41  62  87 120 160 203 247 294 351
#     4   9  17  29  48  78 115 152 186 231 293 351
#     4   9  15  26  44  74 116 149 177 228 292 346
#     4   9  18  29  48  79 114 150 187 231 288 343
#     4  12  25  41  60  86 119 156 199 249 304 358
#     4  11  21  37  62  89 118 156 199 243 294 353
#     4   9  16  27  48  77 110 146 183 227 284 345
#
# _framework density 20.282791
#
# number of rings (size 3 to 8) (size 9 to 14) (size 15 to 20)
#    0.000    2.000    1.667    3.000    2.333    2.667 
#    0.000    0.000    0.000    0.000    0.000    7.000 
#    0.000    0.000    0.000    0.000    0.000    0.000 
#
# Total GULP energy -297482.279557 kJ/mol
# GULP energy per Si atom -12395.094982 kJ/mol
# Density = 2.023663 g / cm^3
# Si number density = 20.282791 Si / 1000 Ang^3
#
#
#
# Elastic Constant Matrix: (Units=GPa)
#
#
# Indices 1 2 3 4 5 6 
#
# 1 19.7892 8.6351 2.2108 0.0000 0.0000 0.0000
# 2 8.6351 214.9554 101.3197 0.0000 0.0000 0.0000
# 3 2.2108 101.3197 138.1136 0.0000 0.0000 0.0000
# 4 0.0000 0.0000 0.0000 49.4163 0.0000 0.0000
# 5 0.0000 0.0000 0.0000 0.0000 -2.9271 0.0000
# 6 0.0000 0.0000 0.0000 0.0000 0.0000 38.3349
#
#
#
# Elastic Compliance Matrix: (Units=1/GPa)
#
#
# Indices 1 2 3 4 5 6 
#
# 1 0.051536 -0.002570 0.001060 0.000000 0.000000 0.000000
# 2 -0.002570 0.007239 -0.005269 0.000000 0.000000 0.000000
# 3 0.001060 -0.005269 0.011089 0.000000 0.000000 0.000000
# 4 0.000000 0.000000 0.000000 0.020236 0.000000 0.000000
# 5 0.000000 0.000000 0.000000 0.000000 -0.341631 0.000000
# 6 0.000000 0.000000 0.000000 0.000000 0.000000 0.026086
#
#
# Mechanical properties :
#
#
# Convention : Reuss Voigt Hill
#
# Bulk Modulus (GPa) = 17.76022 66.35437 42.05729
# Shear Modulus (GPa) = -25.89081 34.34432 4.22676
#
# Velocity S-wave (km/s) = -3.57668 4.11941 1.44514
# Velocity P-wave (km/s) = 2.87776 7.44390 4.85439
#
# Compressibility (1/GPa) = 0.05630562
#
# Stress axis : x y z
#
# Youngs Moduli (GPa) = 19.40408 138.13769 90.17848
#
# Poissons Ratio (x) = 0.35503 -0.09563
# Poissons Ratio (y) = 0.04987 0.47519
# Poissons Ratio (z) = -0.02058 0.72791
#
# Static dielectric constant tensor:
#      x y z
#    x 3.171380 0.000000 0.000000 
#    y 0.000000 3.901690 0.000000 
#    z 0.000000 0.000000 3.849970 
# 
# 
# High freq. dielectric constant tensor:
#      x y z
#    x 1.732830 0.000000 0.000000 
#    y 0.000000 1.814580 0.000000 
#    z 0.000000 0.000000 1.807890 
# 
# From -- ./inp_files/24500.got.cif
#   From: 2010.03.12/outbox.cif.g09.slc.cpg/sg38_13_cif.got.tgz:24500.got - 2010.04.14 02:38:36.
