data_PCOD8180107
_publ_section_title
;
Structure prediction by ZEFSAII (Michael W. Deem and Ramdas Pophale) SiO2 
 PCOD8180107
Probable space group: A M M 2
;
_chemical_formula_sum "Si O2"
_cell_formula_units_Z 64
_cell_length_a 23.027337
_cell_length_b 9.982591
_cell_length_c 13.955324
_cell_angle_alpha 90.000000
_cell_angle_beta 90.000000
_cell_angle_gamma 90.000000
_cell_volume 3207.945036
_symmetry_space_group_name_H-M "A M M 2"
_symmetry_group_IT_number 38
_symmetry_cell_setting 'orthorhombic'
loop_
_space_group_symop_operation_xyz
x,y,z
-x,-y,z
-x,y,z
x,-y,z
x,1/2+y,1/2+z
-x,1/2-y,1/2+z
-x,1/2+y,1/2+z
x,1/2-y,1/2+z
loop_
_atom_site_type_symbol
_atom_site_label
_atom_site_fract_x
_atom_site_fract_y
_atom_site_fract_z
Si Si1 0.344286 0.850752 0.841960
Si Si2 0.154310 0.252055 0.480194
Si Si3 0.063173 0.154712 0.627131
Si Si4 0.249066 0.150971 0.119213
Si Si5 0.353984 0.157429 0.620542
Si Si6 0.432584 0.652459 0.505428
Si Si7 0.937197 0.346584 0.335294
Si Si8 0.245192 0.149128 0.338299
O O1 0.362495 0.827312 0.733257
O O2 0.401828 0.827492 0.903388
O O3 0.294263 0.750179 0.875880
O O4 0.318879 0.000000 0.856680
O O5 0.113789 0.169156 0.550437
O O6 0.195659 0.343411 0.545717
O O7 0.112523 0.338775 0.414182
O O8 0.190135 0.157132 0.408359
O O9 0.080993 0.217168 0.731558
O O10 0.000000 0.216725 0.595578
O O11 0.053950 0.000000 0.640431
O O12 0.296191 0.262535 0.087631
O O13 0.227910 0.182020 0.227948
O O14 0.275446 0.000000 0.113036
O O15 0.409144 0.233778 0.576847
O O16 0.350345 0.000000 0.589580
O O17 0.500000 0.679989 0.489286
O O18 0.421978 0.500000 0.544040
O O19 0.947851 0.500000 0.316772
O O20 0.000000 0.283476 0.367759
O O21 0.271061 0.000000 0.344779
#
# Coordination Sequence:
#
# PCOD8180107 Si02
#       8
#     8   8   8   8   8   8   8   8
#     4   9  20  39  60  80 108 149 190 224 265 320
#     4  12  20  31  54  81 103 134 180 225 266 322
#     4   9  19  35  52  72 102 138 174 217 271 326
#     4  10  22  38  54  77 112 148 179 218 275 335
#     4  10  21  38  60  84 111 146 188 231 271 314
#     4  10  21  37  58  85 116 149 184 223 271 325
#     4   9  19  35  52  72 100 134 175 222 267 315
#     4  10  22  37  53  78 112 144 176 221 274 325
#
# _framework density 19.950465999999999
#
# number of rings (size 3 to 8) (size 9 to 14) (size 15 to 20)
#    0.000    2.125    0.000    3.750    0.000    5.750 
#    0.000    3.750    0.000    0.000    0.000   10.500 
#    0.000    0.000    0.000    0.000    0.000    0.000 
#
# Total GULP energy -396520.991776 kJ/mol
# GULP energy per Si atom -12391.280993 kJ/mol
# Density = 1.990506 g / cm^3
# Si number density = 19.950466 Si / 1000 Ang^3
#
#
#
# Elastic Constant Matrix: (Units=GPa)
#
#
# Indices 1 2 3 4 5 6 
#
# 1 144.2518 62.2094 75.3131 0.0000 0.0000 0.0000
# 2 62.2094 110.1455 45.3710 0.0000 0.0000 0.0000
# 3 75.3131 45.3710 107.4446 0.0000 0.0000 0.0000
# 4 0.0000 0.0000 0.0000 21.6747 0.0000 0.0000
# 5 0.0000 0.0000 0.0000 0.0000 31.9036 0.0000
# 6 0.0000 0.0000 0.0000 0.0000 0.0000 28.5171
#
#
#
# Elastic Compliance Matrix: (Units=1/GPa)
#
#
# Indices 1 2 3 4 5 6 
#
# 1 0.012300 -0.004111 -0.006886 0.000000 0.000000 0.000000
# 2 -0.004111 0.012364 -0.002340 0.000000 0.000000 0.000000
# 3 -0.006886 -0.002340 0.015122 0.000000 0.000000 0.000000
# 4 0.000000 0.000000 0.000000 0.046137 0.000000 0.000000
# 5 0.000000 0.000000 0.000000 0.000000 0.031344 0.000000
# 6 0.000000 0.000000 0.000000 0.000000 0.000000 0.035067
#
#
# Mechanical properties :
#
#
# Convention : Reuss Voigt Hill
#
# Bulk Modulus (GPa) = 76.25669 80.84765 78.55217
# Shear Modulus (GPa) = 27.26604 28.34898 27.80751
#
# Velocity S-wave (km/s) = 3.70088 3.77366 3.73745
# Velocity P-wave (km/s) = 7.52117 7.72007 7.62127
#
# Compressibility (1/GPa) = 0.01311360
#
# Stress axis : x y z
#
# Youngs Moduli (GPa) = 81.29973 80.87775 66.12932
#
# Poissons Ratio (x) = 0.33245 0.45537
# Poissons Ratio (y) = 0.33419 0.15473
# Poissons Ratio (z) = 0.55983 0.18924
#
# Static dielectric constant tensor:
#      x y z
#    x 3.564990 0.000000 0.000000 
#    y 0.000000 3.500050 0.000000 
#    z 0.000000 0.000000 3.840860 
# 
# 
# High freq. dielectric constant tensor:
#      x y z
#    x 1.772550 0.000000 0.000000 
#    y 0.000000 1.761510 0.000000 
#    z 0.000000 0.000000 1.794950 
# 
# From -- ./inp_files/15786.got.cif
#   From: 2010.03.12/outbox.cif.g09.slc.cpg/sg38_8_cif.got.tgz:15786.got - 2010.04.14 02:38:36.
