data_PCOD8180361
_publ_section_title
;
Structure prediction by ZEFSAII (Michael W. Deem and Ramdas Pophale) SiO2 
 PCOD8180361
Probable space group: A M M 2
;
_chemical_formula_sum "Si O2"
_cell_formula_units_Z 64
_cell_length_a 8.623704
_cell_length_b 30.385028
_cell_length_c 11.794237
_cell_angle_alpha 90.000000
_cell_angle_beta 90.000000
_cell_angle_gamma 90.000000
_cell_volume 3090.461465
_symmetry_space_group_name_H-M "A M M 2"
_symmetry_group_IT_number 38
_symmetry_cell_setting 'orthorhombic'
loop_
_space_group_symop_operation_xyz
x,y,z
-x,-y,z
-x,y,z
x,-y,z
x,1/2+y,1/2+z
-x,1/2-y,1/2+z
-x,1/2+y,1/2+z
x,1/2-y,1/2+z
loop_
_atom_site_type_symbol
_atom_site_label
_atom_site_fract_x
_atom_site_fract_y
_atom_site_fract_z
Si Si1 0.318991 0.296047 0.284140
Si Si2 0.675889 0.171367 0.029550
Si Si3 0.181302 0.370891 0.137171
Si Si4 0.821441 0.450604 0.294810
Si Si5 0.179059 0.702683 0.747921
Si Si6 0.824078 0.451042 0.758413
Si Si7 0.320470 0.373999 0.893523
Si Si8 0.676203 0.431185 0.532961
O O1 0.500000 0.284739 0.274177
O O2 0.274389 0.319411 0.401333
O O3 0.273621 0.328815 0.183232
O O4 0.219855 0.251998 0.281539
O O5 0.500000 0.187031 0.051447
O O6 0.787056 0.197561 0.114432
O O7 0.696118 0.120318 0.052001
O O8 0.235231 0.415480 0.201103
O O9 0.000000 0.362449 0.154297
O O10 0.216989 0.376100 0.005345
O O11 0.797022 0.500000 0.245884
O O12 0.722533 0.445380 0.407705
O O13 0.000000 0.442136 0.325848
O O14 0.281074 0.668923 0.820326
O O15 0.000000 0.693360 0.772954
O O16 0.806816 0.500000 0.810797
O O17 0.709197 0.417907 0.821261
O O18 0.783645 0.454559 0.625384
O O19 0.000000 0.433963 0.772142
O O20 0.500000 0.372059 0.927144
O O21 0.500000 0.446070 0.552363
#
# Coordination Sequence:
#
# PCOD8180361 Si02
#       8
#     8   8   8   8   8   8   8   8
#     4  11  24  44  68  94 130 170 212 260 319 378
#     4  10  22  41  66  95 129 169 211 259 319 376
#     4  11  24  43  66  93 127 167 216 266 317 377
#     4  10  22  40  63  92 128 169 210 257 315 376
#     4  12  26  43  67  97 130 166 214 264 316 378
#     4  11  24  42  65  94 128 167 212 262 319 380
#     4  12  26  45  67  92 127 168 214 264 320 382
#     4  11  21  37  63  96 131 166 209 259 313 373
#
# _framework density 20.708881999999999
#
# number of rings (size 3 to 8) (size 9 to 14) (size 15 to 20)
#    0.000    1.000    2.500    4.125    1.750    5.250 
#    0.000    1.250    0.000    0.000    0.000    0.000 
#    0.000    0.000    0.000    0.000    0.000    0.000 
#
# Total GULP energy -397000.300660 kJ/mol
# GULP energy per Si atom -12406.259396 kJ/mol
# Density = 2.066175 g / cm^3
# Si number density = 20.708882 Si / 1000 Ang^3
#
#
#
# Elastic Constant Matrix: (Units=GPa)
#
#
# Indices 1 2 3 4 5 6 
#
# 1 74.1885 31.2392 11.2802 0.0000 0.0000 0.0000
# 2 31.2392 102.5185 26.9918 0.0000 0.0000 0.0000
# 3 11.2802 26.9918 96.8201 0.0000 0.0000 0.0000
# 4 0.0000 0.0000 0.0000 17.5700 0.0000 0.0000
# 5 0.0000 0.0000 0.0000 0.0000 35.9274 0.0000
# 6 0.0000 0.0000 0.0000 0.0000 0.0000 26.3739
#
#
#
# Elastic Compliance Matrix: (Units=1/GPa)
#
#
# Indices 1 2 3 4 5 6 
#
# 1 0.015488 -0.004581 -0.000527 0.000000 0.000000 0.000000
# 2 -0.004581 0.011882 -0.002779 0.000000 0.000000 0.000000
# 3 -0.000527 -0.002779 0.011165 0.000000 0.000000 0.000000
# 4 0.000000 0.000000 0.000000 0.056915 0.000000 0.000000
# 5 0.000000 0.000000 0.000000 0.000000 0.027834 0.000000
# 6 0.000000 0.000000 0.000000 0.000000 0.000000 0.037916
#
#
# Mechanical properties :
#
#
# Convention : Reuss Voigt Hill
#
# Bulk Modulus (GPa) = 43.93527 45.83883 44.88705
# Shear Modulus (GPa) = 27.09139 29.57532 28.33335
#
# Velocity S-wave (km/s) = 3.62083 3.78318 3.70290
# Velocity P-wave (km/s) = 6.22433 6.42388 6.32489
#
# Compressibility (1/GPa) = 0.02276076
#
# Stress axis : x y z
#
# Youngs Moduli (GPa) = 64.56527 84.16269 89.56918
#
# Poissons Ratio (x) = 0.38552 0.04725
# Poissons Ratio (y) = 0.29575 0.24889
# Poissons Ratio (z) = 0.03406 0.23387
#
# Static dielectric constant tensor:
#      x y z
#    x 3.758820 0.000000 0.000000 
#    y 0.000000 3.908810 0.000000 
#    z 0.000000 0.000000 3.702110 
# 
# 
# High freq. dielectric constant tensor:
#      x y z
#    x 1.814310 0.000000 0.000000 
#    y 0.000000 1.823530 0.000000 
#    z 0.000000 0.000000 1.810390 
# 
# From -- ./inp_files/8648.got.cif
#   From: 2010.03.12/outbox.cif.g09.slc.cpg/sg38_5_cif.got.tgz:8648.got - 2010.04.14 02:38:36.
