data_PCOD8180263
_publ_section_title
;
Structure prediction by ZEFSAII (Michael W. Deem and Ramdas Pophale) SiO2 
 PCOD8180263
Probable space group: A M M 2
;
_chemical_formula_sum "Si O2"
_cell_formula_units_Z 48
_cell_length_a 8.635440
_cell_length_b 18.599838
_cell_length_c 14.922817
_cell_angle_alpha 90.000000
_cell_angle_beta 90.000000
_cell_angle_gamma 90.000000
_cell_volume 2396.869813
_symmetry_space_group_name_H-M "A M M 2"
_symmetry_group_IT_number 38
_symmetry_cell_setting 'orthorhombic'
loop_
_space_group_symop_operation_xyz
x,y,z
-x,-y,z
-x,y,z
x,-y,z
x,1/2+y,1/2+z
-x,1/2-y,1/2+z
-x,1/2+y,1/2+z
x,1/2-y,1/2+z
loop_
_atom_site_type_symbol
_atom_site_label
_atom_site_fract_x
_atom_site_fract_y
_atom_site_fract_z
Si Si1 0.676734 0.381098 0.510710
Si Si2 0.317840 0.226366 0.276832
Si Si3 0.826686 0.500000 0.188487
Si Si4 0.817137 0.345067 0.143791
Si Si5 0.677998 0.076871 0.208573
Si Si6 0.178628 0.238069 0.469335
Si Si7 0.825431 0.000000 0.899504
O O1 0.500000 0.357084 0.493054
O O2 0.692867 0.425153 0.601698
O O3 0.787009 0.312481 0.519042
O O4 0.733712 0.429433 0.428958
O O5 0.500000 0.226302 0.259070
O O6 0.250569 0.290849 0.217648
O O7 0.243106 0.148913 0.248397
O O8 0.283781 0.235035 0.381434
O O9 0.745833 0.425683 0.155511
O O10 0.828814 0.500000 0.294209
O O11 0.000000 0.500000 0.149101
O O12 0.000000 0.345411 0.161212
O O13 0.777089 0.322881 0.041821
O O14 0.500000 0.078078 0.238176
O O15 0.751209 0.000000 0.242472
O O16 0.000000 0.232983 0.440914
O O17 0.000000 0.000000 0.938897
#
# Coordination Sequence:
#
# PCOD8180263 Si02
#       7
#     8   8   4   8   8   8   4
#     4  11  20  35  59  85 117 155 198 243 293 358
#     4  11  22  38  63  89 117 154 199 246 297 361
#     4   9  20  39  59  80 111 154 194 238 294 350
#     4  10  21  40  64  85 116 157 198 246 299 356
#     4   9  18  35  58  84 115 151 189 238 295 346
#     4  11  23  38  58  87 120 156 198 246 300 359
#     4  11  21  33  55  90 125 152 190 246 308 368
#
# _framework density 20.026119000000001
#
# number of rings (size 3 to 8) (size 9 to 14) (size 15 to 20)
#    0.000    1.667    2.500    2.750    0.000    2.000 
#    1.500    1.250    0.000    0.000    0.000    0.000 
#    0.000    0.000    0.000    0.000    0.000    0.000 
#
# Total GULP energy -297485.534025 kJ/mol
# GULP energy per Si atom -12395.230584 kJ/mol
# Density = 1.998054 g / cm^3
# Si number density = 20.026119 Si / 1000 Ang^3
#
#
#
# Elastic Constant Matrix: (Units=GPa)
#
#
# Indices 1 2 3 4 5 6 
#
# 1 36.0303 25.5568 27.3619 0.0000 0.0000 0.0000
# 2 25.5568 189.0486 50.4709 0.0000 0.0000 0.0000
# 3 27.3619 50.4709 82.5932 0.0000 0.0000 0.0000
# 4 0.0000 0.0000 0.0000 22.0001 0.0000 0.0000
# 5 0.0000 0.0000 0.0000 0.0000 19.4330 0.0000
# 6 0.0000 0.0000 0.0000 0.0000 0.0000 24.2350
#
#
#
# Elastic Compliance Matrix: (Units=1/GPa)
#
#
# Indices 1 2 3 4 5 6 
#
# 1 0.037776 -0.002110 -0.011225 0.000000 0.000000 0.000000
# 2 -0.002110 0.006439 -0.003236 0.000000 0.000000 0.000000
# 3 -0.011225 -0.003236 0.017803 0.000000 0.000000 0.000000
# 4 0.000000 0.000000 0.000000 0.045454 0.000000 0.000000
# 5 0.000000 0.000000 0.000000 0.000000 0.051459 0.000000
# 6 0.000000 0.000000 0.000000 0.000000 0.000000 0.041263
#
#
# Mechanical properties :
#
#
# Convention : Reuss Voigt Hill
#
# Bulk Modulus (GPa) = 34.63033 57.16125 45.89579
# Shear Modulus (GPa) = 20.57951 26.75246 23.66599
#
# Velocity S-wave (km/s) = 3.20915 3.65893 3.44140
# Velocity P-wave (km/s) = 5.57330 6.81584 6.22565
#
# Compressibility (1/GPa) = 0.02887642
#
# Stress axis : x y z
#
# Youngs Moduli (GPa) = 26.47215 155.31121 56.16895
#
# Poissons Ratio (x) = 0.32770 0.63050
# Poissons Ratio (y) = 0.05585 0.18174
# Poissons Ratio (z) = 0.29715 0.50252
#
# Static dielectric constant tensor:
#      x y z
#    x 3.497650 0.000000 0.000000 
#    y 0.000000 4.273710 0.000000 
#    z 0.000000 0.000000 3.480390 
# 
# 
# High freq. dielectric constant tensor:
#      x y z
#    x 1.756040 0.000000 0.000000 
#    y 0.000000 1.801800 0.000000 
#    z 0.000000 0.000000 1.772830 
# 
# From -- ./inp_files/12115.got.cif
#   From: 2010.03.12/outbox.cif.g09.slc.cpg/sg38_7_cif.got.tgz:12115.got - 2010.04.14 02:38:36.
