data_PCOD8180797
_publ_section_title
;
Structure prediction by ZEFSAII (Michael W. Deem and Ramdas Pophale) SiO2 
 PCOD8180797
Probable space group: A B M 2
;
_chemical_formula_sum "Si O2"
_cell_formula_units_Z 64
_cell_length_a 19.259409
_cell_length_b 8.645909
_cell_length_c 20.680706
_cell_angle_alpha 90.000000
_cell_angle_beta 90.000000
_cell_angle_gamma 90.000000
_cell_volume 3443.649778
_symmetry_space_group_name_H-M "A B M 2"
_symmetry_group_IT_number 39
_symmetry_cell_setting 'orthorhombic'
loop_
_space_group_symop_operation_xyz
x,y,z
-x,-y,z
-x,1/2+y,z
x,1/2-y,z
x,1/2+y,1/2+z
-x,1/2-y,1/2+z
-x,y,1/2+z
x,-y,1/2+z
loop_
_atom_site_type_symbol
_atom_site_label
_atom_site_fract_x
_atom_site_fract_y
_atom_site_fract_z
Si Si1 0.930675 0.428415 0.107160
Si Si2 0.216088 0.933610 0.797531
Si Si3 0.572177 0.568105 0.615939
Si Si4 0.783704 0.072032 0.057060
Si Si5 0.573595 0.066977 0.476054
Si Si6 0.297434 0.931109 0.672331
Si Si7 0.928158 0.432734 0.747138
Si Si8 0.290599 0.932638 0.925748
O O1 0.943998 0.250000 0.123096
O O2 0.866854 0.450867 0.057854
O O3 0.914553 0.513529 0.174165
O O4 0.000000 0.500000 0.074686
O O5 0.217051 0.750000 0.797574
O O6 0.259911 0.994452 0.736407
O O7 0.136347 0.991319 0.791019
O O8 0.250022 0.997727 0.863225
O O9 0.500000 0.500000 0.641686
O O10 0.565633 0.750000 0.607467
O O11 0.592504 0.496570 0.546840
O O12 0.630542 0.523700 0.667562
O O13 0.763523 0.250000 0.072199
O O14 0.750335 0.962790 0.110567
O O15 0.756054 0.021488 0.987206
O O16 0.568260 0.250000 0.478721
O O17 0.500000 0.000000 0.451650
O O18 0.634384 0.014314 0.427754
O O19 0.313372 0.750000 0.676337
O O20 0.932948 0.250000 0.747577
O O21 0.000000 0.500000 0.775533
O O22 0.302579 0.750000 0.921504
#
# Coordination Sequence:
#
# PCOD8180797 Si02
#       8
#     8   8   8   8   8   8   8   8
#     4  10  19  31  49  78 108 140 180 228 280 330
#     4   9  20  36  56  80 110 149 186 224 274 329
#     4  11  21  35  55  83 113 145 182 226 277 327
#     4  10  20  33  54  80 107 140 182 227 276 327
#     4  11  21  35  56  84 111 143 183 226 274 325
#     4  11  20  34  56  82 111 141 181 228 274 325
#     4  10  18  32  52  78 105 140 182 226 275 328
#     4  10  20  38  58  79 110 148 187 225 272 330
#
# _framework density 18.584931999999998
#
# number of rings (size 3 to 8) (size 9 to 14) (size 15 to 20)
#    0.000    1.750    2.500    4.875    0.000    0.500 
#    0.000    3.750    0.000    0.000    0.000    0.000 
#    0.000    0.000    0.000    0.000    0.000    0.000 
#
# Total GULP energy -396839.787635 kJ/mol
# GULP energy per Si atom -12401.243364 kJ/mol
# Density = 1.854263 g / cm^3
# Si number density = 18.584932 Si / 1000 Ang^3
#
#
#
# Elastic Constant Matrix: (Units=GPa)
#
#
# Indices 1 2 3 4 5 6 
#
# 1 175.3376 48.4332 74.4615 0.0000 0.0000 0.0000
# 2 48.4332 91.9895 30.4891 0.0000 0.0000 0.0000
# 3 74.4615 30.4891 107.8607 0.0000 0.0000 0.0000
# 4 0.0000 0.0000 0.0000 16.9473 0.0000 0.0000
# 5 0.0000 0.0000 0.0000 0.0000 33.7805 0.0000
# 6 0.0000 0.0000 0.0000 0.0000 0.0000 30.5991
#
#
#
# Elastic Compliance Matrix: (Units=1/GPa)
#
#
# Indices 1 2 3 4 5 6 
#
# 1 0.008700 -0.002858 -0.005198 0.000000 0.000000 0.000000
# 2 -0.002858 0.012933 -0.001683 0.000000 0.000000 0.000000
# 3 -0.005198 -0.001683 0.013336 0.000000 0.000000 0.000000
# 4 0.000000 0.000000 0.000000 0.059006 0.000000 0.000000
# 5 0.000000 0.000000 0.000000 0.000000 0.029603 0.000000
# 6 0.000000 0.000000 0.000000 0.000000 0.000000 0.032681
#
#
# Mechanical properties :
#
#
# Convention : Reuss Voigt Hill
#
# Bulk Modulus (GPa) = 64.55433 75.77281 70.16357
# Shear Modulus (GPa) = 27.63936 31.05231 29.34583
#
# Velocity S-wave (km/s) = 3.86060 4.09202 3.97799
# Velocity P-wave (km/s) = 7.39476 7.94895 7.67685
#
# Compressibility (1/GPa) = 0.01549083
#
# Stress axis : x y z
#
# Youngs Moduli (GPa) = 114.93799 77.31988 74.98678
#
# Poissons Ratio (x) = 0.22097 0.38981
# Poissons Ratio (y) = 0.32847 0.12620
# Poissons Ratio (z) = 0.59750 0.13013
#
# Static dielectric constant tensor:
#      x y z
#    x 3.749230 0.000000 0.000000 
#    y 0.000000 3.350510 0.000000 
#    z 0.000000 0.000000 3.270770 
# 
# 
# High freq. dielectric constant tensor:
#      x y z
#    x 1.742830 0.000000 0.000000 
#    y 0.000000 1.719280 0.000000 
#    z 0.000000 0.000000 1.684800 
# 
# From -- ./inp_files/15075.got.cif
#   From: 2010.03.12/outbox.cif.g09.slc.cpg/sg39_8_cif.got.tgz:15075.got - 2010.04.14 02:53:20.
