data_PCOD8180637
_publ_section_title
;
Structure prediction by ZEFSAII (Michael W. Deem and Ramdas Pophale) SiO2 
 PCOD8180637
Probable space group: A B M 2
;
_chemical_formula_sum "Si O2"
_cell_formula_units_Z 48
_cell_length_a 9.240169
_cell_length_b 8.714091
_cell_length_c 31.821630
_cell_angle_alpha 90.000000
_cell_angle_beta 90.000000
_cell_angle_gamma 90.000000
_cell_volume 2562.267259
_symmetry_space_group_name_H-M "A B M 2"
_symmetry_group_IT_number 39
_symmetry_cell_setting 'orthorhombic'
loop_
_space_group_symop_operation_xyz
x,y,z
-x,-y,z
-x,1/2+y,z
x,1/2-y,z
x,1/2+y,1/2+z
-x,1/2-y,1/2+z
-x,y,1/2+z
x,-y,1/2+z
loop_
_atom_site_type_symbol
_atom_site_label
_atom_site_fract_x
_atom_site_fract_y
_atom_site_fract_z
Si Si1 0.341274 0.931962 0.021030
Si Si2 0.341765 0.929358 0.854200
Si Si3 0.842306 0.568932 0.600876
Si Si4 0.657881 0.070696 0.763139
Si Si5 0.660716 0.568185 0.936347
Si Si6 0.340431 0.068483 0.679960
O O1 0.353269 0.750000 0.017435
O O2 0.242340 0.986108 0.059507
O O3 0.500000 0.000000 0.028164
O O4 0.266929 0.999724 0.978549
O O5 0.354509 0.750000 0.864006
O O6 0.263898 0.957621 0.808651
O O7 0.500000 0.000000 0.850818
O O8 0.258375 0.011206 0.893395
O O9 0.854983 0.750000 0.601969
O O10 0.756838 0.507983 0.641630
O O11 0.000000 0.500000 0.600434
O O12 0.645574 0.250000 0.753607
O O13 0.500000 0.000000 0.765704
O O14 0.736141 0.989223 0.723501
O O15 0.500000 0.500000 0.934651
O O16 0.659943 0.750000 0.938586
O O17 0.351678 0.250000 0.680100
O O18 0.500000 0.000000 0.674875
#
# Coordination Sequence:
#
# PCOD8180637 Si02
#       6
#     8   8   8   8   8   8
#     4  10  19  33  51  73  99 128 163 201 242 287
#     4   9  15  23  36  58  91 126 158 192 233 280
#     4  10  23  38  53  73  97 127 163 202 245 293
#     4   9  16  25  40  64  93 127 161 194 236 282
#     4  10  17  25  40  64  93 126 160 194 237 283
#     4  10  19  32  50  74 100 128 163 201 242 287
#
# _framework density 18.733407
#
# number of rings (size 3 to 8) (size 9 to 14) (size 15 to 20)
#    0.000    2.333    0.000    7.000    0.000    4.667 
#    0.000    0.000    0.000    0.000    0.000    1.167 
#    0.000    8.000    0.000    0.000    0.000    0.000 
#
# Total GULP energy -297358.002787 kJ/mol
# GULP energy per Si atom -12389.916783 kJ/mol
# Density = 1.869077 g / cm^3
# Si number density = 18.733407 Si / 1000 Ang^3
#
#
#
# Elastic Constant Matrix: (Units=GPa)
#
#
# Indices 1 2 3 4 5 6 
#
# 1 51.4813 23.4755 55.0788 0.0000 0.0000 0.0000
# 2 23.4755 105.9476 69.9077 0.0000 0.0000 0.0000
# 3 55.0788 69.9077 234.2775 0.0000 0.0000 0.0000
# 4 0.0000 0.0000 0.0000 35.6697 0.0000 0.0000
# 5 0.0000 0.0000 0.0000 0.0000 1.8442 0.0000
# 6 0.0000 0.0000 0.0000 0.0000 0.0000 17.7153
#
#
#
# Elastic Compliance Matrix: (Units=1/GPa)
#
#
# Indices 1 2 3 4 5 6 
#
# 1 0.026351 -0.002180 -0.005544 0.000000 0.000000 0.000000
# 2 -0.002180 0.011933 -0.003048 0.000000 0.000000 0.000000
# 3 -0.005544 -0.003048 0.006482 0.000000 0.000000 0.000000
# 4 0.000000 0.000000 0.000000 0.028035 0.000000 0.000000
# 5 0.000000 0.000000 0.000000 0.000000 0.542244 0.000000
# 6 0.000000 0.000000 0.000000 0.000000 0.000000 0.056448
#
#
# Mechanical properties :
#
#
# Convention : Reuss Voigt Hill
#
# Bulk Modulus (GPa) = 43.06755 76.51449 59.79102
# Shear Modulus (GPa) = 7.13493 27.26212 17.19852
#
# Velocity S-wave (km/s) = 1.95370 3.81894 3.03325
# Velocity P-wave (km/s) = 5.30366 7.77034 6.65233
#
# Compressibility (1/GPa) = 0.02321934
#
# Stress axis : x y z
#
# Youngs Moduli (GPa) = 37.94970 83.80101 154.28456
#
# Poissons Ratio (x) = 0.18271 0.85543
# Poissons Ratio (y) = 0.08274 0.47029
# Poissons Ratio (z) = 0.21041 0.25544
#
# Static dielectric constant tensor:
#      x y z
#    x 2.766190 0.000000 0.000000 
#    y 0.000000 3.515010 0.000000 
#    z 0.000000 0.000000 5.105270 
# 
# 
# High freq. dielectric constant tensor:
#      x y z
#    x 1.641000 0.000000 0.000000 
#    y 0.000000 1.741470 0.000000 
#    z 0.000000 0.000000 1.770260 
# 
# From -- ./inp_files/17619.got.cif
#   From: 2010.03.12/outbox.cif.g09.slc.cpg/sg39_9_cif.got.tgz:17619.got - 2010.04.14 02:53:20.
