data_PCOD8180392
_publ_section_title
;
Structure prediction by ZEFSAII (Michael W. Deem and Ramdas Pophale) SiO2 
 PCOD8180392
Probable space group: A M M 2
;
_chemical_formula_sum "Si O2"
_cell_formula_units_Z 48
_cell_length_a 18.877740
_cell_length_b 8.465356
_cell_length_c 14.753776
_cell_angle_alpha 90.000000
_cell_angle_beta 90.000000
_cell_angle_gamma 90.000000
_cell_volume 2357.753577
_symmetry_space_group_name_H-M "A M M 2"
_symmetry_group_IT_number 38
_symmetry_cell_setting 'orthorhombic'
loop_
_space_group_symop_operation_xyz
x,y,z
-x,-y,z
-x,y,z
x,-y,z
x,1/2+y,1/2+z
-x,1/2-y,1/2+z
-x,1/2+y,1/2+z
x,1/2-y,1/2+z
loop_
_atom_site_type_symbol
_atom_site_label
_atom_site_fract_x
_atom_site_fract_y
_atom_site_fract_z
Si Si1 0.754070 0.317486 0.436950
Si Si2 0.500000 0.686721 0.581480
Si Si3 0.000000 0.180317 0.527676
Si Si4 0.500000 0.813771 0.786612
Si Si5 0.000000 0.683234 0.335788
Si Si6 0.601376 0.316118 0.934193
Si Si7 0.139370 0.679306 0.589627
Si Si8 0.850831 0.821299 0.291848
O O1 0.732242 0.500000 0.446580
O O2 0.684826 0.210763 0.433678
O O3 0.801549 0.257758 0.520530
O O4 0.800031 0.294723 0.346670
O O5 0.500000 0.500000 0.582670
O O6 0.500000 0.744620 0.685166
O O7 0.569146 0.745221 0.526841
O O8 0.069770 0.211903 0.586924
O O9 0.000000 0.299183 0.443663
O O10 0.000000 0.000000 0.494059
O O11 0.430989 0.760827 0.843239
O O12 0.500000 0.000000 0.777260
O O13 0.068201 0.767693 0.295052
O O14 0.000000 0.500000 0.309001
O O15 0.583845 0.500000 0.931667
O O16 0.117785 0.500000 0.564320
O O17 0.174320 0.687941 0.688288
O O18 0.844554 0.000000 0.329530
#
# Coordination Sequence:
#
# PCOD8180392 Si02
#       8
#     8   4   4   4   4   8   8   8
#     4  11  23  41  62  87 123 167 204 248 306 365
#     4  11  22  41  68  98 130 165 206 251 304 362
#     4  12  23  36  61  88 114 150 203 257 306 363
#     4  11  22  41  68  98 128 163 208 253 302 364
#     4  12  23  38  59  84 116 156 199 253 316 367
#     4  11  23  41  64  94 130 167 207 254 303 359
#     4  10  23  41  61  84 119 158 198 249 311 366
#     4  11  23  40  61  88 117 156 205 255 308 365
#
# _framework density 20.358363000000001
#
# number of rings (size 3 to 8) (size 9 to 14) (size 15 to 20)
#    0.000    1.000    1.667    7.000    0.000    5.333 
#    0.000    5.000    0.000    0.000    0.000    0.000 
#    0.000    0.000    0.000    0.000    0.000    0.000 
#
# Total GULP energy -297715.393329 kJ/mol
# GULP energy per Si atom -12404.808055 kJ/mol
# Density = 2.031203 g / cm^3
# Si number density = 20.358363 Si / 1000 Ang^3
#
#
#
# Elastic Constant Matrix: (Units=GPa)
#
#
# Indices 1 2 3 4 5 6 
#
# 1 131.4306 21.1350 45.3545 0.0000 0.0000 0.0000
# 2 21.1350 89.2647 16.8547 0.0000 0.0000 0.0000
# 3 45.3545 16.8547 126.0734 0.0000 0.0000 0.0000
# 4 0.0000 0.0000 0.0000 32.1340 0.0000 0.0000
# 5 0.0000 0.0000 0.0000 0.0000 -15.6632 0.0000
# 6 0.0000 0.0000 0.0000 0.0000 0.0000 30.7458
#
#
#
# Elastic Compliance Matrix: (Units=1/GPa)
#
#
# Indices 1 2 3 4 5 6 
#
# 1 0.008889 -0.001540 -0.002992 0.000000 0.000000 0.000000
# 2 -0.001540 0.011759 -0.001018 0.000000 0.000000 0.000000
# 3 -0.002992 -0.001018 0.009144 0.000000 0.000000 0.000000
# 4 0.000000 0.000000 0.000000 0.031120 0.000000 0.000000
# 5 0.000000 0.000000 0.000000 0.000000 -0.063844 0.000000
# 6 0.000000 0.000000 0.000000 0.000000 0.000000 0.032525
#
#
# Mechanical properties :
#
#
# Convention : Reuss Voigt Hill
#
# Bulk Modulus (GPa) = 53.49602 57.05078 55.27340
# Shear Modulus (GPa) = 106.55660 27.00494 66.78077
#
# Velocity S-wave (km/s) = 7.24252 3.64604 5.73357
# Velocity P-wave (km/s) = 9.81188 6.76823 8.42858
#
# Compressibility (1/GPa) = 0.01869298
#
# Stress axis : x y z
#
# Youngs Moduli (GPa) = 112.50388 85.03811 109.35762
#
# Poissons Ratio (x) = 0.13093 0.32718
# Poissons Ratio (y) = 0.17321 0.11135
# Poissons Ratio (z) = 0.33659 0.08659
#
# Static dielectric constant tensor:
#      x y z
#    x 3.594270 0.000000 0.000000 
#    y 0.000000 3.740740 0.000000 
#    z 0.000000 0.000000 3.911050 
# 
# 
# High freq. dielectric constant tensor:
#      x y z
#    x 1.789950 0.000000 0.000000 
#    y 0.000000 1.807210 0.000000 
#    z 0.000000 0.000000 1.803730 
# 
# From -- ./inp_files/15115.got.cif
#   From: 2010.03.12/outbox.cif.g09.slc.cpg/sg38_8_cif.got.tgz:15115.got - 2010.04.14 02:38:36.
