data_PCOD8180243
_publ_section_title
;
Structure prediction by ZEFSAII (Michael W. Deem and Ramdas Pophale) SiO2 
 PCOD8180243
Probable space group: A M M 2
;
_chemical_formula_sum "Si O2"
_cell_formula_units_Z 48
_cell_length_a 18.608827
_cell_length_b 8.540473
_cell_length_c 15.217941
_cell_angle_alpha 90.000000
_cell_angle_beta 90.000000
_cell_angle_gamma 90.000000
_cell_volume 2418.559736
_symmetry_space_group_name_H-M "A M M 2"
_symmetry_group_IT_number 38
_symmetry_cell_setting 'orthorhombic'
loop_
_space_group_symop_operation_xyz
x,y,z
-x,-y,z
-x,y,z
x,-y,z
x,1/2+y,1/2+z
-x,1/2-y,1/2+z
-x,1/2+y,1/2+z
x,1/2-y,1/2+z
loop_
_atom_site_type_symbol
_atom_site_label
_atom_site_fract_x
_atom_site_fract_y
_atom_site_fract_z
Si Si1 0.678549 0.817417 0.342460
Si Si2 0.916617 0.680851 0.002494
Si Si3 0.918268 0.319159 0.685949
Si Si4 0.416004 0.319478 0.489491
Si Si5 0.579297 0.185309 0.187111
Si Si6 0.166513 0.319745 0.344269
O O1 0.628867 0.793608 0.427119
O O2 0.636825 0.750731 0.256949
O O3 0.750019 0.717742 0.353037
O O4 0.697522 0.000000 0.333001
O O5 0.901047 0.500000 0.982701
O O6 0.893116 0.719146 0.101965
O O7 0.000000 0.722862 0.989063
O O8 0.870644 0.785259 0.936889
O O9 0.911112 0.500000 0.660477
O O10 0.867842 0.284094 0.767937
O O11 0.000000 0.276482 0.712293
O O12 0.500000 0.293170 0.471720
O O13 0.395036 0.500000 0.472554
O O14 0.396318 0.269113 0.588935
O O15 0.500000 0.256335 0.207224
O O16 0.573844 0.000000 0.195101
O O17 0.155316 0.500000 0.320267
#
# Coordination Sequence:
#
# PCOD8180243 Si02
#       6
#     8   8   8   8   8   8
#     4  11  22  36  55  80 112 147 187 234 283 338
#     4  10  21  39  63  89 115 145 187 238 288 340
#     4  10  21  39  63  89 116 148 188 233 283 341
#     4   9  18  35  58  82 109 142 182 228 280 341
#     4   8  16  33  57  81 105 139 181 223 272 332
#     4  12  25  39  56  81 117 157 195 236 286 341
#
# _framework density 19.846520999999999
#
# number of rings (size 3 to 8) (size 9 to 14) (size 15 to 20)
#    0.000    2.000    0.000    5.000    0.000    6.333 
#    0.000    6.667    0.000    2.000    0.000    0.000 
#    0.000    0.000    0.000    0.000    0.000    0.000 
#
# Total GULP energy -297689.396299 kJ/mol
# GULP energy per Si atom -12403.724846 kJ/mol
# Density = 1.980135 g / cm^3
# Si number density = 19.846521 Si / 1000 Ang^3
#
#
#
# Elastic Constant Matrix: (Units=GPa)
#
#
# Indices 1 2 3 4 5 6 
#
# 1 88.4681 20.8624 60.2178 0.0000 0.0000 0.0000
# 2 20.8624 54.7117 15.7825 0.0000 0.0000 0.0000
# 3 60.2178 15.7825 120.2518 0.0000 0.0000 0.0000
# 4 0.0000 0.0000 0.0000 33.5804 0.0000 0.0000
# 5 0.0000 0.0000 0.0000 0.0000 25.0019 0.0000
# 6 0.0000 0.0000 0.0000 0.0000 0.0000 23.5966
#
#
#
# Elastic Compliance Matrix: (Units=1/GPa)
#
#
# Indices 1 2 3 4 5 6 
#
# 1 0.018141 -0.004466 -0.008498 0.000000 0.000000 0.000000
# 2 -0.004466 0.020096 -0.000401 0.000000 0.000000 0.000000
# 3 -0.008498 -0.000401 0.012624 0.000000 0.000000 0.000000
# 4 0.000000 0.000000 0.000000 0.029779 0.000000 0.000000
# 5 0.000000 0.000000 0.000000 0.000000 0.039997 0.000000
# 6 0.000000 0.000000 0.000000 0.000000 0.000000 0.042379
#
#
# Mechanical properties :
#
#
# Convention : Reuss Voigt Hill
#
# Bulk Modulus (GPa) = 41.44089 50.79523 46.11806
# Shear Modulus (GPa) = 25.27913 27.54038 26.40975
#
# Velocity S-wave (km/s) = 3.57281 3.72918 3.65183
# Velocity P-wave (km/s) = 6.16003 6.64771 6.40851
#
# Compressibility (1/GPa) = 0.02413075
#
# Stress axis : x y z
#
# Youngs Moduli (GPa) = 55.12283 49.76035 79.21290
#
# Poissons Ratio (x) = 0.22223 0.67318
# Poissons Ratio (y) = 0.24618 0.03177
# Poissons Ratio (z) = 0.46845 0.01996
#
# Static dielectric constant tensor:
#      x y z
#    x 3.630560 0.000000 0.000000 
#    y 0.000000 3.404550 0.000000 
#    z 0.000000 0.000000 3.715720 
# 
# 
# High freq. dielectric constant tensor:
#      x y z
#    x 1.769780 0.000000 0.000000 
#    y 0.000000 1.762090 0.000000 
#    z 0.000000 0.000000 1.785470 
# 
# From -- ./inp_files/14979.got.cif
#   From: 2010.03.12/outbox.cif.g09.slc.cpg/sg38_8_cif.got.tgz:14979.got - 2010.04.14 02:38:36.
