data_PCOD8180342
_publ_section_title
;
Structure prediction by ZEFSAII (Michael W. Deem and Ramdas Pophale) SiO2 
 PCOD8180342
Probable space group: A M M 2
;
_chemical_formula_sum "Si O2"
_cell_formula_units_Z 40
_cell_length_a 8.800300
_cell_length_b 11.537234
_cell_length_c 19.795492
_cell_angle_alpha 90.000000
_cell_angle_beta 90.000000
_cell_angle_gamma 90.000000
_cell_volume 2009.858481
_symmetry_space_group_name_H-M "A M M 2"
_symmetry_group_IT_number 38
_symmetry_cell_setting 'orthorhombic'
loop_
_space_group_symop_operation_xyz
x,y,z
-x,-y,z
-x,y,z
x,-y,z
x,1/2+y,1/2+z
-x,1/2-y,1/2+z
-x,1/2+y,1/2+z
x,1/2-y,1/2+z
loop_
_atom_site_type_symbol
_atom_site_label
_atom_site_fract_x
_atom_site_fract_y
_atom_site_fract_z
Si Si1 0.324400 0.208979 0.664210
Si Si2 0.823711 0.500000 0.236356
Si Si3 0.822357 0.132858 0.264405
Si Si4 0.822482 0.237148 0.899980
Si Si5 0.327334 0.366674 0.017939
Si Si6 0.677866 0.000000 0.879987
O O1 0.500000 0.180009 0.680689
O O2 0.274195 0.329782 0.698459
O O3 0.299415 0.213202 0.583734
O O4 0.212813 0.112716 0.693547
O O5 0.721256 0.500000 0.302170
O O6 0.000000 0.500000 0.257462
O O7 0.769610 0.209993 0.328234
O O8 0.000000 0.149595 0.249366
O O9 0.783872 0.000000 0.280794
O O10 0.741706 0.115382 0.915417
O O11 0.000000 0.214938 0.898866
O O12 0.783870 0.327435 0.958756
O O13 0.500000 0.352937 0.992481
O O14 0.292425 0.500000 0.036968
O O15 0.500000 0.000000 0.889645
#
# Coordination Sequence:
#
# PCOD8180342 Si02
#       6
#     8   4   8   8   8   4
#     4  11  22  39  63  91 122 160 203 251 302 358
#     4  12  22  36  62  94 124 155 196 251 306 360
#     4  10  22  40  61  88 124 161 200 251 304 360
#     4  11  23  40  63  92 122 159 204 251 303 363
#     4  10  22  41  62  88 123 162 205 251 301 360
#     4  12  24  40  64  92 122 159 200 251 306 362
#
# _framework density 19.901897999999999
#
# number of rings (size 3 to 8) (size 9 to 14) (size 15 to 20)
#    0.000    1.200    3.000    3.600    0.000    4.000 
#    1.800    0.000    0.000    0.000    0.000    0.000 
#    0.000    0.000    0.000    0.000    0.000    0.000 
#
# Total GULP energy -248093.692070 kJ/mol
# GULP energy per Si atom -12404.684603 kJ/mol
# Density = 1.985660 g / cm^3
# Si number density = 19.901898 Si / 1000 Ang^3
#
#
#
# Elastic Constant Matrix: (Units=GPa)
#
#
# Indices 1 2 3 4 5 6 
#
# 1 83.3418 44.5458 42.6409 0.0000 0.0000 0.0000
# 2 44.5458 106.2877 37.2814 0.0000 0.0000 0.0000
# 3 42.6409 37.2814 99.7970 0.0000 0.0000 0.0000
# 4 0.0000 0.0000 0.0000 35.2479 0.0000 0.0000
# 5 0.0000 0.0000 0.0000 0.0000 32.1955 0.0000
# 6 0.0000 0.0000 0.0000 0.0000 0.0000 35.6100
#
#
#
# Elastic Compliance Matrix: (Units=1/GPa)
#
#
# Indices 1 2 3 4 5 6 
#
# 1 0.017776 -0.005508 -0.005538 0.000000 0.000000 0.000000
# 2 -0.005508 0.012534 -0.002329 0.000000 0.000000 0.000000
# 3 -0.005538 -0.002329 0.013257 0.000000 0.000000 0.000000
# 4 0.000000 0.000000 0.000000 0.028370 0.000000 0.000000
# 5 0.000000 0.000000 0.000000 0.000000 0.031060 0.000000
# 6 0.000000 0.000000 0.000000 0.000000 0.000000 0.028082
#
#
# Mechanical properties :
#
#
# Convention : Reuss Voigt Hill
#
# Bulk Modulus (GPa) = 59.46196 59.81807 59.64002
# Shear Modulus (GPa) = 30.59358 31.60791 31.10074
#
# Velocity S-wave (km/s) = 3.92499 3.98953 3.95739
# Velocity P-wave (km/s) = 7.10515 7.16544 7.13536
#
# Compressibility (1/GPa) = 0.01681747
#
# Stress axis : x y z
#
# Youngs Moduli (GPa) = 56.25604 79.78570 75.43460
#
# Poissons Ratio (x) = 0.43942 0.41774
# Poissons Ratio (y) = 0.30983 0.17568
# Poissons Ratio (z) = 0.31153 0.18582
#
# Static dielectric constant tensor:
#      x y z
#    x 3.572360 0.000000 0.000000 
#    y 0.000000 3.805710 0.000000 
#    z 0.000000 0.000000 3.522490 
# 
# 
# High freq. dielectric constant tensor:
#      x y z
#    x 1.779140 0.000000 0.000000 
#    y 0.000000 1.778670 0.000000 
#    z 0.000000 0.000000 1.769890 
# 
# From -- ./inp_files/19518.got.cif
#   From: 2010.03.12/outbox.cif.g09.slc.cpg/sg38_10_cif.got.tgz:19518.got - 2010.04.14 02:38:36.
