data_PCOD8180512
_publ_section_title
;
Structure prediction by ZEFSAII (Michael W. Deem and Ramdas Pophale) SiO2 
 PCOD8180512
Probable space group: A M M 2
;
_chemical_formula_sum "Si O2"
_cell_formula_units_Z 40
_cell_length_a 14.256381
_cell_length_b 18.170112
_cell_length_c 7.655321
_cell_angle_alpha 90.000000
_cell_angle_beta 90.000000
_cell_angle_gamma 90.000000
_cell_volume 1983.034654
_symmetry_space_group_name_H-M "A M M 2"
_symmetry_group_IT_number 38
_symmetry_cell_setting 'orthorhombic'
loop_
_space_group_symop_operation_xyz
x,y,z
-x,-y,z
-x,y,z
x,-y,z
x,1/2+y,1/2+z
-x,1/2-y,1/2+z
-x,1/2+y,1/2+z
x,1/2-y,1/2+z
loop_
_atom_site_type_symbol
_atom_site_label
_atom_site_fract_x
_atom_site_fract_y
_atom_site_fract_z
Si Si1 0.716767 0.665892 0.132620
Si Si2 0.894012 0.916203 0.533011
Si Si3 0.283233 0.334109 0.523855
Si Si4 0.609156 0.913899 0.328237
Si Si5 0.894013 0.916203 0.123463
O O1 0.676030 0.657748 0.328237
O O2 0.715663 0.750000 0.078239
O O3 0.823587 0.637279 0.133205
O O4 0.652953 0.619026 0.003254
O O5 0.873954 0.909682 0.328237
O O6 0.000000 0.891659 0.577446
O O7 0.877816 0.000000 0.594612
O O8 0.347046 0.380975 0.653219
O O9 0.176412 0.362721 0.523269
O O10 0.500000 0.895237 0.328236
O O11 0.630140 0.000000 0.328240
O O12 0.000000 0.891658 0.079029
O O13 0.877817 0.000000 0.061863
#
# Coordination Sequence:
#
# PCOD8180512 Si02
#       5
#     8   8   8   8   8
#     4  12  24  42  66  97 132 173 217 263 325 385
#     4   9  18  35  61  92 130 174 215 260 315 377
#     4  12  24  42  66  97 132 173 217 263 325 385
#     4  11  26  48  71  97 130 165 211 273 329 386
#     4   9  18  35  61  92 130 174 215 260 315 377
#
# _framework density 20.171106000000002
#
# number of rings (size 3 to 8) (size 9 to 14) (size 15 to 20)
#    0.000    1.400    4.000    2.400    0.000    6.400 
#    0.000    4.000    0.000    0.000    0.000    0.000 
#    0.000    0.000    0.000    0.000    0.000    0.000 
#
# Total GULP energy -248057.302040 kJ/mol
# GULP energy per Si atom -12402.865102 kJ/mol
# Density = 2.012520 g / cm^3
# Si number density = 20.171106 Si / 1000 Ang^3
#
#
#
# Elastic Constant Matrix: (Units=GPa)
#
#
# Indices 1 2 3 4 5 6 
#
# 1 121.9064 80.9907 66.1303 0.0000 0.0000 0.0000
# 2 80.9907 108.9551 62.6875 0.0000 0.0000 0.0000
# 3 66.1303 62.6875 161.8967 0.0000 0.0000 0.0000
# 4 0.0000 0.0000 0.0000 22.5524 0.0000 0.0000
# 5 0.0000 0.0000 0.0000 0.0000 -28.9306 0.0000
# 6 0.0000 0.0000 0.0000 0.0000 0.0000 5.5619
#
#
#
# Elastic Compliance Matrix: (Units=1/GPa)
#
#
# Indices 1 2 3 4 5 6 
#
# 1 0.017044 -0.011147 -0.002646 0.000000 0.000000 0.000000
# 2 -0.011147 0.019100 -0.002842 0.000000 0.000000 0.000000
# 3 -0.002646 -0.002842 0.008358 0.000000 0.000000 0.000000
# 4 0.000000 0.000000 0.000000 0.044341 0.000000 0.000000
# 5 0.000000 0.000000 0.000000 0.000000 -0.034565 0.000000
# 6 0.000000 0.000000 0.000000 0.000000 0.000000 0.179795
#
#
# Mechanical properties :
#
#
# Convention : Reuss Voigt Hill
#
# Bulk Modulus (GPa) = 89.03679 90.26391 89.65035
# Shear Modulus (GPa) = 18.44430 12.03338 15.23884
#
# Velocity S-wave (km/s) = 3.02717 2.44512 2.75158
# Velocity P-wave (km/s) = 7.51365 7.26758 7.39164
#
# Compressibility (1/GPa) = 0.01123131
#
# Stress axis : x y z
#
# Youngs Moduli (GPa) = 58.67092 52.35703 119.64635
#
# Poissons Ratio (x) = 0.58365 0.31655
# Poissons Ratio (y) = 0.65403 0.34005
# Poissons Ratio (z) = 0.15523 0.14880
#
# Static dielectric constant tensor:
#      x y z
#    x 3.737790 0.000000 0.000000 
#    y 0.000000 3.709700 0.000000 
#    z 0.000000 0.000000 3.772020 
# 
# 
# High freq. dielectric constant tensor:
#      x y z
#    x 1.787090 0.000000 0.000000 
#    y 0.000000 1.790500 0.000000 
#    z 0.000000 0.000000 1.793090 
# 
# From -- ./inp_files/5233.got.cif
#   From: 2010.03.12/outbox.cif.g09.slc.cpg/sg38_3_cif.got.tgz:5233.got - 2010.04.14 02:38:36.
