data_PCOD8180195
_publ_section_title
;
Structure prediction by ZEFSAII (Michael W. Deem and Ramdas Pophale) SiO2 
 PCOD8180195
Probable space group: A M M 2
;
_chemical_formula_sum "Si O2"
_cell_formula_units_Z 64
_cell_length_a 15.366394
_cell_length_b 8.857199
_cell_length_c 23.779236
_cell_angle_alpha 90.000000
_cell_angle_beta 90.000000
_cell_angle_gamma 90.000000
_cell_volume 3236.430341
_symmetry_space_group_name_H-M "A M M 2"
_symmetry_group_IT_number 38
_symmetry_cell_setting 'orthorhombic'
loop_
_space_group_symop_operation_xyz
x,y,z
-x,-y,z
-x,y,z
x,-y,z
x,1/2+y,1/2+z
-x,1/2-y,1/2+z
-x,1/2+y,1/2+z
x,1/2-y,1/2+z
loop_
_atom_site_type_symbol
_atom_site_label
_atom_site_fract_x
_atom_site_fract_y
_atom_site_fract_z
Si Si1 0.252402 0.822130 0.598840
Si Si2 0.663753 0.672177 0.792516
Si Si3 0.154372 0.321936 0.297255
Si Si4 0.598161 0.827879 0.684702
Si Si5 0.597664 0.671971 0.913586
Si Si6 0.098342 0.326920 0.908672
Si Si7 0.248871 0.177350 0.978473
Si Si8 0.903522 0.679034 0.175981
O O1 0.336965 0.779728 0.635187
O O2 0.260512 0.734245 0.541292
O O3 0.166892 0.760862 0.631400
O O4 0.246426 0.000000 0.586853
O O5 0.695689 0.500000 0.785075
O O6 0.744855 0.781636 0.801727
O O7 0.609617 0.721105 0.738201
O O8 0.602126 0.689031 0.846409
O O9 0.142372 0.500000 0.302815
O O10 0.101159 0.245009 0.347052
O O11 0.117493 0.259340 0.238215
O O12 0.500000 0.810493 0.661823
O O13 0.618182 0.000000 0.703034
O O14 0.500000 0.716262 0.932448
O O15 0.618894 0.500000 0.931437
O O16 0.665816 0.781010 0.943278
O O17 0.127961 0.500000 0.903961
O O18 0.162093 0.246385 0.951979
O O19 0.000000 0.312603 0.931885
O O20 0.237625 0.000000 0.977958
O O21 0.897460 0.500000 0.178074
O O22 0.000000 0.733258 0.157764
#
# Coordination Sequence:
#
# PCOD8180195 Si02
#       8
#     8   8   8   8   8   8   8   8
#     4  10  21  40  61  83 116 158 207 251 296 355
#     4  11  21  35  60  91 125 161 197 240 299 363
#     4  11  20  35  61  93 126 159 196 243 300 357
#     4  10  21  38  61  89 120 157 201 247 296 354
#     4  10  22  41  64  89 120 161 204 245 298 363
#     4  11  24  42  64  91 123 162 205 247 298 362
#     4  12  26  42  62  89 121 158 204 256 310 360
#     4   9  18  34  59  89 119 152 192 237 289 351
#
# _framework density 19.774872999999999
#
# number of rings (size 3 to 8) (size 9 to 14) (size 15 to 20)
#    0.000    1.500    2.500    3.000    0.000    4.500 
#    0.000    2.500    0.000    1.500    0.000    0.000 
#    0.000    0.000    0.000    0.000    0.000    0.000 
#
# Total GULP energy -396906.316411 kJ/mol
# GULP energy per Si atom -12403.322388 kJ/mol
# Density = 1.972986 g / cm^3
# Si number density = 19.774873 Si / 1000 Ang^3
#
#
#
# Elastic Constant Matrix: (Units=GPa)
#
#
# Indices 1 2 3 4 5 6 
#
# 1 137.3394 43.9893 54.0011 0.0000 0.0000 0.0000
# 2 43.9893 99.3870 57.7639 0.0000 0.0000 0.0000
# 3 54.0011 57.7639 127.9651 0.0000 0.0000 0.0000
# 4 0.0000 0.0000 0.0000 32.3064 0.0000 0.0000
# 5 0.0000 0.0000 0.0000 0.0000 8.9594 0.0000
# 6 0.0000 0.0000 0.0000 0.0000 0.0000 19.8034
#
#
#
# Elastic Compliance Matrix: (Units=1/GPa)
#
#
# Indices 1 2 3 4 5 6 
#
# 1 0.009149 -0.002448 -0.002756 0.000000 0.000000 0.000000
# 2 -0.002448 0.014295 -0.005420 0.000000 0.000000 0.000000
# 3 -0.002756 -0.005420 0.011424 0.000000 0.000000 0.000000
# 4 0.000000 0.000000 0.000000 0.030954 0.000000 0.000000
# 5 0.000000 0.000000 0.000000 0.000000 0.111615 0.000000
# 6 0.000000 0.000000 0.000000 0.000000 0.000000 0.050496
#
#
# Mechanical properties :
#
#
# Convention : Reuss Voigt Hill
#
# Bulk Modulus (GPa) = 73.41525 75.13334 74.27430
# Shear Modulus (GPa) = 19.70671 26.14297 22.92484
#
# Velocity S-wave (km/s) = 3.16025 3.63992 3.40853
# Velocity P-wave (km/s) = 7.10791 7.46607 7.28919
#
# Compressibility (1/GPa) = 0.01362115
#
# Stress axis : x y z
#
# Youngs Moduli (GPa) = 109.30400 69.95411 87.53321
#
# Poissons Ratio (x) = 0.17122 0.24124
# Poissons Ratio (y) = 0.26753 0.47443
# Poissons Ratio (z) = 0.30124 0.37915
#
# Static dielectric constant tensor:
#      x y z
#    x 3.805640 0.000000 0.000000 
#    y 0.000000 3.530980 0.000000 
#    z 0.000000 0.000000 3.605180 
# 
# 
# High freq. dielectric constant tensor:
#      x y z
#    x 1.785410 0.000000 0.000000 
#    y 0.000000 1.757370 0.000000 
#    z 0.000000 0.000000 1.768700 
# 
# From -- ./inp_files/22873.got.cif
#   From: 2010.03.12/outbox.cif.g09.slc.cpg/sg38_12_cif.got.tgz:22873.got - 2010.04.14 02:38:36.
