data_PCOD8180976
_publ_section_title
;
Structure prediction by ZEFSAII (Michael W. Deem and Ramdas Pophale) SiO2 
 PCOD8180976
Probable space group: A B M 2
;
_chemical_formula_sum "Si O2"
_cell_formula_units_Z 48
_cell_length_a 27.806182
_cell_length_b 17.780124
_cell_length_c 5.175566
_cell_angle_alpha 90.000000
_cell_angle_beta 90.000000
_cell_angle_gamma 90.000000
_cell_volume 2558.786187
_symmetry_space_group_name_H-M "A B M 2"
_symmetry_group_IT_number 39
_symmetry_cell_setting 'orthorhombic'
loop_
_space_group_symop_operation_xyz
x,y,z
-x,-y,z
-x,1/2+y,z
x,1/2-y,z
x,1/2+y,1/2+z
-x,1/2-y,1/2+z
-x,y,1/2+z
x,-y,1/2+z
loop_
_atom_site_type_symbol
_atom_site_label
_atom_site_fract_x
_atom_site_fract_y
_atom_site_fract_z
Si Si1 0.364075 0.660842 0.322720
Si Si2 0.112773 0.547752 0.830699
Si Si3 0.306429 0.839154 0.822024
Si Si4 0.776875 0.548103 0.358777
Si Si5 0.472105 0.660231 0.329902
Si Si6 0.029921 0.162067 0.381643
O O1 0.367068 0.750000 0.326943
O O2 0.334889 0.632175 0.570703
O O3 0.417988 0.627604 0.328024
O O4 0.337342 0.633124 0.066028
O O5 0.101004 0.512262 0.553216
O O6 0.167899 0.574288 0.846137
O O7 0.080887 0.621375 0.867207
O O8 0.298328 0.750000 0.821841
O O9 0.254332 0.876938 0.827706
O O10 0.764893 0.510521 0.632562
O O11 0.471046 0.750000 0.329255
O O12 0.499624 0.629590 0.581054
O O13 0.041275 0.250000 0.375019
O O14 0.996648 0.137674 0.143050
#
# Coordination Sequence:
#
# PCOD8180976 Si02
#       6
#     8   8   8   8   8   8
#     4   9  17  28  43  68 100 129 163 206 247 296
#     4  10  21  36  55  78 103 135 173 213 255 298
#     4  10  19  32  51  73  99 132 166 204 253 303
#     4  10  21  37  54  75 104 133 168 214 256 298
#     4   9  15  23  37  59  92 131 160 189 242 301
#     4  10  21  36  54  79 110 140 171 210 253 298
#
# _framework density 18.758894000000002
#
# number of rings (size 3 to 8) (size 9 to 14) (size 15 to 20)
#    0.000    2.333    0.000    3.000    0.000    6.667 
#    0.000    0.000    0.000   12.000    0.000    0.000 
#    0.000   46.667    0.000    0.000    0.000    0.000 
#
# Total GULP energy -297660.514347 kJ/mol
# GULP energy per Si atom -12402.521431 kJ/mol
# Density = 1.871620 g / cm^3
# Si number density = 18.758894 Si / 1000 Ang^3
#
#
#
# Elastic Constant Matrix: (Units=GPa)
#
#
# Indices 1 2 3 4 5 6 
#
# 1 132.4063 52.8996 44.4203 0.0000 0.0000 0.0000
# 2 52.8996 35.7301 16.3560 0.0000 0.0000 0.0000
# 3 44.4203 16.3560 129.0492 0.0000 0.0000 0.0000
# 4 0.0000 0.0000 0.0000 9.0766 0.0000 0.0000
# 5 0.0000 0.0000 0.0000 0.0000 27.5974 0.0000
# 6 0.0000 0.0000 0.0000 0.0000 0.0000 18.6552
#
#
#
# Elastic Compliance Matrix: (Units=1/GPa)
#
#
# Indices 1 2 3 4 5 6 
#
# 1 0.019713 -0.027686 -0.003276 0.000000 0.000000 0.000000
# 2 -0.027686 0.068595 0.000836 0.000000 0.000000 0.000000
# 3 -0.003276 0.000836 0.008771 0.000000 0.000000 0.000000
# 4 0.000000 0.000000 0.000000 0.110173 0.000000 0.000000
# 5 0.000000 0.000000 0.000000 0.000000 0.036235 0.000000
# 6 0.000000 0.000000 0.000000 0.000000 0.000000 0.053604
#
#
# Mechanical properties :
#
#
# Convention : Reuss Voigt Hill
#
# Bulk Modulus (GPa) = 27.15488 58.28191 42.71839
# Shear Modulus (GPa) = 13.52747 23.29983 18.41365
#
# Velocity S-wave (km/s) = 2.68829 3.52812 3.13644
# Velocity P-wave (km/s) = 4.91355 6.90893 5.99484
#
# Compressibility (1/GPa) = 0.03682580
#
# Stress axis : x y z
#
# Youngs Moduli (GPa) = 50.72845 14.57843 114.01431
#
# Poissons Ratio (x) = 0.40361 0.37356
# Poissons Ratio (y) = 1.40445 -0.09531
# Poissons Ratio (z) = 0.16621 -0.01219
#
# Static dielectric constant tensor:
#      x y z
#    x 3.549050 0.000000 0.000000 
#    y 0.000000 2.905180 0.000000 
#    z 0.000000 0.000000 3.833500 
# 
# 
# High freq. dielectric constant tensor:
#      x y z
#    x 1.739200 0.000000 0.000000 
#    y 0.000000 1.681640 0.000000 
#    z 0.000000 0.000000 1.752790 
# 
# From -- ./inp_files/1038.got.cif
#   From: 2010.03.12/outbox.cif.g09.slc.cpg/sg39_1_cif.got.tgz:1038.got - 2010.04.14 02:53:20.
