data_PCOD8180004
_publ_section_title
;
Structure prediction by ZEFSAII (Michael W. Deem and Ramdas Pophale) SiO2 
 PCOD8180004
Probable space group: A M M 2
;
_chemical_formula_sum "Si O2"
_cell_formula_units_Z 48
_cell_length_a 17.192210
_cell_length_b 9.100427
_cell_length_c 15.715181
_cell_angle_alpha 90.000000
_cell_angle_beta 90.000000
_cell_angle_gamma 90.000000
_cell_volume 2458.741463
_symmetry_space_group_name_H-M "A M M 2"
_symmetry_group_IT_number 38
_symmetry_cell_setting 'orthorhombic'
loop_
_space_group_symop_operation_xyz
x,y,z
-x,-y,z
-x,y,z
x,-y,z
x,1/2+y,1/2+z
-x,1/2-y,1/2+z
-x,1/2+y,1/2+z
x,1/2-y,1/2+z
loop_
_atom_site_type_symbol
_atom_site_label
_atom_site_fract_x
_atom_site_fract_y
_atom_site_fract_z
Si Si1 0.500000 0.172383 0.243011
Si Si2 0.500000 0.328342 0.419351
Si Si3 0.181934 0.674467 0.174363
Si Si4 0.354082 0.159690 0.680670
Si Si5 0.090419 0.172163 0.322147
Si Si6 0.812412 0.326075 0.981764
Si Si7 0.358238 0.339354 0.983207
O O1 0.500000 0.231979 0.336533
O O2 0.578740 0.224647 0.198639
O O3 0.500000 0.000000 0.240267
O O4 0.500000 0.500000 0.400551
O O5 0.577355 0.284960 0.469797
O O6 0.170170 0.500000 0.177157
O O7 0.268727 0.716034 0.208979
O O8 0.121241 0.749536 0.237434
O O9 0.168466 0.734638 0.077190
O O10 0.347969 0.133263 0.581671
O O11 0.373611 0.000000 0.723338
O O12 0.129365 0.234882 0.409256
O O13 0.000000 0.207115 0.330002
O O14 0.107681 0.000000 0.312829
O O15 0.818301 0.500000 0.987557
O O16 0.725342 0.281938 0.949910
O O17 0.380468 0.500000 0.942247
#
# Coordination Sequence:
#
# PCOD8180004 Si02
#       7
#     4   4   8   8   8   8   8
#     4  12  25  36  51  77 109 149 193 228 269 332
#     4  12  25  36  49  77 115 147 183 232 279 320
#     4   9  19  37  61  86 112 147 190 233 282 340
#     4   9  19  37  58  80 110 143 179 233 288 328
#     4  10  21  36  56  85 118 149 185 234 286 334
#     4   8  17  36  60  83 110 149 191 229 275 338
#     4   9  18  36  59  79 104 143 187 227 276 335
#
# _framework density 19.522182999999998
#
# number of rings (size 3 to 8) (size 9 to 14) (size 15 to 20)
#    0.000    2.500    0.000    4.000    2.333    4.333 
#    0.000    5.000    0.000    0.000    0.000    0.000 
#    0.000    0.000    0.000    0.000    0.000    0.000 
#
# Total GULP energy -297415.900666 kJ/mol
# GULP energy per Si atom -12392.329194 kJ/mol
# Density = 1.947775 g / cm^3
# Si number density = 19.522183 Si / 1000 Ang^3
#
#
#
# Elastic Constant Matrix: (Units=GPa)
#
#
# Indices 1 2 3 4 5 6 
#
# 1 138.9135 46.3687 55.9557 0.0000 0.0000 0.0000
# 2 46.3687 69.9013 22.6890 0.0000 0.0000 0.0000
# 3 55.9557 22.6890 84.1665 0.0000 0.0000 0.0000
# 4 0.0000 0.0000 0.0000 27.8642 0.0000 0.0000
# 5 0.0000 0.0000 0.0000 0.0000 36.0646 0.0000
# 6 0.0000 0.0000 0.0000 0.0000 0.0000 14.0260
#
#
#
# Elastic Compliance Matrix: (Units=1/GPa)
#
#
# Indices 1 2 3 4 5 6 
#
# 1 0.011578 -0.005679 -0.006167 0.000000 0.000000 0.000000
# 2 -0.005679 0.018463 -0.001202 0.000000 0.000000 0.000000
# 3 -0.006167 -0.001202 0.016305 0.000000 0.000000 0.000000
# 4 0.000000 0.000000 0.000000 0.035888 0.000000 0.000000
# 5 0.000000 0.000000 0.000000 0.000000 0.027728 0.000000
# 6 0.000000 0.000000 0.000000 0.000000 0.000000 0.071296
#
#
# Mechanical properties :
#
#
# Convention : Reuss Voigt Hill
#
# Bulk Modulus (GPa) = 49.37832 60.33421 54.85627
# Shear Modulus (GPa) = 23.35316 26.78880 25.07098
#
# Velocity S-wave (km/s) = 3.46242 3.70837 3.58750
# Velocity P-wave (km/s) = 6.42906 7.02201 6.73206
#
# Compressibility (1/GPa) = 0.02025180
#
# Stress axis : x y z
#
# Youngs Moduli (GPa) = 86.36878 54.16253 61.33135
#
# Poissons Ratio (x) = 0.30758 0.37821
# Poissons Ratio (y) = 0.49047 0.07370
# Poissons Ratio (z) = 0.53260 0.06509
#
# Static dielectric constant tensor:
#      x y z
#    x 3.457000 0.000000 0.000000 
#    y 0.000000 3.225120 0.000000 
#    z 0.000000 0.000000 3.646930 
# 
# 
# High freq. dielectric constant tensor:
#      x y z
#    x 1.767200 0.000000 0.000000 
#    y 0.000000 1.732540 0.000000 
#    z 0.000000 0.000000 1.760120 
# 
# From -- ./inp_files/15058.got.cif
#   From: 2010.03.12/outbox.cif.g09.slc.cpg/sg38_8_cif.got.tgz:15058.got - 2010.04.14 02:38:36.
