data_PCOD8180224
_publ_section_title
;
Structure prediction by ZEFSAII (Michael W. Deem and Ramdas Pophale) SiO2 
 PCOD8180224
Probable space group: A M M 2
;
_chemical_formula_sum "Si O2"
_cell_formula_units_Z 56
_cell_length_a 13.966848
_cell_length_b 8.556833
_cell_length_c 22.139043
_cell_angle_alpha 90.000000
_cell_angle_beta 90.000000
_cell_angle_gamma 90.000000
_cell_volume 2645.880994
_symmetry_space_group_name_H-M "A M M 2"
_symmetry_group_IT_number 38
_symmetry_cell_setting 'orthorhombic'
loop_
_space_group_symop_operation_xyz
x,y,z
-x,-y,z
-x,y,z
x,-y,z
x,1/2+y,1/2+z
-x,1/2-y,1/2+z
-x,1/2+y,1/2+z
x,1/2-y,1/2+z
loop_
_atom_site_type_symbol
_atom_site_label
_atom_site_fract_x
_atom_site_fract_y
_atom_site_fract_z
Si Si1 0.154037 0.826516 0.938060
Si Si2 0.396050 0.823362 0.863367
Si Si3 0.000000 0.326130 0.010215
Si Si4 0.356041 0.826037 0.994750
Si Si5 0.220456 0.181077 0.315665
Si Si6 0.197427 0.685808 0.185651
Si Si7 0.000000 0.180310 0.133359
Si Si8 0.392806 0.817345 0.620904
O O1 0.172535 0.777306 0.869436
O O2 0.107743 0.000000 0.936971
O O3 0.089299 0.694246 0.966649
O O4 0.244214 0.827219 0.981869
O O5 0.500000 0.824565 0.832979
O O6 0.334386 0.706120 0.822718
O O7 0.351323 0.000000 0.863135
O O8 0.405443 0.766387 0.932853
O O9 0.000000 0.194455 0.061348
O O10 0.000000 0.500000 0.038427
O O11 0.381835 0.713145 0.049631
O O12 0.392317 0.000000 0.011752
O O13 0.186267 0.250657 0.252859
O O14 0.193189 0.000000 0.319186
O O15 0.200271 0.500000 0.184748
O O16 0.099560 0.740252 0.153709
O O17 0.297986 0.752065 0.155842
O O18 0.000000 0.000000 0.153300
O O19 0.500000 0.754039 0.641650
O O20 0.391941 0.000000 0.632334
#
# Coordination Sequence:
#
# PCOD8180224 Si02
#       8
#     8   8   4   8   8   8   4   8
#     4  10  21  39  61  86 118 157 198 243 300 365
#     4   9  18  34  56  82 115 158 203 246 300 368
#     4  12  24  39  62  95 126 152 190 242 302 362
#     4   9  18  33  55  83 115 152 196 244 295 355
#     4  11  23  39  59  87 120 153 196 252 310 367
#     4  11  24  44  66  88 120 165 214 258 305 367
#     4  12  26  45  68  95 126 162 206 256 310 366
#     4  10  22  38  58  87 122 160 202 250 304 361
#
# _framework density 21.164974999999998
#
# number of rings (size 3 to 8) (size 9 to 14) (size 15 to 20)
#    0.000    1.714    0.000    5.571    0.000    8.571 
#    0.000    4.286    0.000    0.000    0.000    0.000 
#    0.000    0.000    0.000    0.000    0.000    0.000 
#
# Total GULP energy -346952.294679 kJ/mol
# GULP energy per Si atom -12391.153381 kJ/mol
# Density = 2.111680 g / cm^3
# Si number density = 21.164975 Si / 1000 Ang^3
#
#
#
# Elastic Constant Matrix: (Units=GPa)
#
#
# Indices 1 2 3 4 5 6 
#
# 1 133.1150 29.0798 36.7487 0.0000 0.0000 0.0000
# 2 29.0798 82.0021 20.0279 0.0000 0.0000 0.0000
# 3 36.7487 20.0279 78.8955 0.0000 0.0000 0.0000
# 4 0.0000 0.0000 0.0000 33.3504 0.0000 0.0000
# 5 0.0000 0.0000 0.0000 0.0000 -401.6223 0.0000
# 6 0.0000 0.0000 0.0000 0.0000 0.0000 25.4084
#
#
#
# Elastic Compliance Matrix: (Units=1/GPa)
#
#
# Indices 1 2 3 4 5 6 
#
# 1 0.009015 -0.002315 -0.003611 0.000000 0.000000 0.000000
# 2 -0.002315 0.013595 -0.002373 0.000000 0.000000 0.000000
# 3 -0.003611 -0.002373 0.014960 0.000000 0.000000 0.000000
# 4 0.000000 0.000000 0.000000 0.029985 0.000000 0.000000
# 5 0.000000 0.000000 0.000000 0.000000 -0.002490 0.000000
# 6 0.000000 0.000000 0.000000 0.000000 0.000000 0.039357
#
#
# Mechanical properties :
#
#
# Convention : Reuss Voigt Hill
#
# Bulk Modulus (GPa) = 47.68434 51.74728 49.71581
# Shear Modulus (GPa) = 39.05926 -54.69562 -7.81818
#
# Velocity S-wave (km/s) = 4.30055 -5.08907 -1.92404
# Velocity P-wave (km/s) = 6.87302 3.16685 4.31332
#
# Compressibility (1/GPa) = 0.02097125
#
# Stress axis : x y z
#
# Youngs Moduli (GPa) = 110.92623 73.55495 66.84693
#
# Poissons Ratio (x) = 0.17027 0.24141
# Poissons Ratio (y) = 0.25678 0.15863
# Poissons Ratio (z) = 0.40061 0.17454
#
# Static dielectric constant tensor:
#      x y z
#    x 4.575500 0.000000 0.000000 
#    y 0.000000 3.743250 0.000000 
#    z 0.000000 0.000000 3.702530 
# 
# 
# High freq. dielectric constant tensor:
#      x y z
#    x 1.844120 0.000000 0.000000 
#    y 0.000000 1.816690 0.000000 
#    z 0.000000 0.000000 1.822970 
# 
# From -- ./inp_files/21150.got.cif
#   From: 2010.03.12/outbox.cif.g09.slc.cpg/sg38_11_cif.got.tgz:21150.got - 2010.04.14 02:38:36.
