data_PCOD8180476
_publ_section_title
;
Structure prediction by ZEFSAII (Michael W. Deem and Ramdas Pophale) SiO2 
 PCOD8180476
Probable space group: A M M 2
;
_chemical_formula_sum "Si O2"
_cell_formula_units_Z 64
_cell_length_a 23.904665
_cell_length_b 8.806580
_cell_length_c 15.454542
_cell_angle_alpha 90.000000
_cell_angle_beta 90.000000
_cell_angle_gamma 90.000000
_cell_volume 3253.464600
_symmetry_space_group_name_H-M "A M M 2"
_symmetry_group_IT_number 38
_symmetry_cell_setting 'orthorhombic'
loop_
_space_group_symop_operation_xyz
x,y,z
-x,-y,z
-x,y,z
x,-y,z
x,1/2+y,1/2+z
-x,1/2-y,1/2+z
-x,1/2+y,1/2+z
x,1/2-y,1/2+z
loop_
_atom_site_type_symbol
_atom_site_label
_atom_site_fract_x
_atom_site_fract_y
_atom_site_fract_z
Si Si1 0.865035 0.821197 0.049660
Si Si2 0.324477 0.821639 0.381484
Si Si3 0.327502 0.324054 0.689341
Si Si4 0.934324 0.825344 0.698228
Si Si5 0.062065 0.180214 0.892164
Si Si6 0.560145 0.177000 0.443511
Si Si7 0.562753 0.325247 0.145791
Si Si8 0.744766 0.821081 0.542380
O O1 0.900839 0.781478 0.133753
O O2 0.804166 0.752684 0.058728
O O3 0.859395 0.000000 0.043032
O O4 0.895231 0.754293 0.963675
O O5 0.302466 0.788558 0.284868
O O6 0.386573 0.748342 0.394811
O O7 0.280891 0.756712 0.452270
O O8 0.330479 0.000000 0.398847
O O9 0.319488 0.500000 0.665231
O O10 0.393262 0.283754 0.693584
O O11 0.296061 0.219586 0.621008
O O12 0.918152 0.773855 0.795768
O O13 0.000000 0.802379 0.682851
O O14 0.917331 0.000000 0.682415
O O15 0.000000 0.246855 0.910646
O O16 0.058836 0.000000 0.898247
O O17 0.500000 0.250485 0.415071
O O18 0.569331 0.204045 0.544538
O O19 0.556874 0.000000 0.422903
O O20 0.500000 0.282729 0.176601
O O21 0.576084 0.500000 0.167932
O O22 0.752438 0.000000 0.539407
#
# Coordination Sequence:
#
# PCOD8180476 Si02
#       8
#     8   8   8   8   8   8   8   8
#     4  11  22  36  57  85 115 146 186 235 283 323
#     4   9  19  35  56  80 106 140 183 227 277 334
#     4  11  22  36  57  86 113 137 176 236 291 329
#     4   9  18  35  59  87 119 154 189 221 262 326
#     4   8  16  33  57  84 116 151 183 220 271 328
#     4   8  13  26  52  80 103 134 177 216 256 320
#     4   9  17  32  56  82 110 147 185 217 262 334
#     4  11  23  42  60  75 105 150 195 231 272 334
#
# _framework density 19.671337000000001
#
# number of rings (size 3 to 8) (size 9 to 14) (size 15 to 20)
#    0.000    2.500    1.250    3.000    0.000    2.500 
#    0.000    7.500    0.000    1.500    0.000    0.000 
#    0.000    0.000    0.000    0.000    0.000    0.000 
#
# Total GULP energy -396670.493846 kJ/mol
# GULP energy per Si atom -12395.952933 kJ/mol
# Density = 1.962656 g / cm^3
# Si number density = 19.671337 Si / 1000 Ang^3
#
#
#
# Elastic Constant Matrix: (Units=GPa)
#
#
# Indices 1 2 3 4 5 6 
#
# 1 100.6813 24.8261 54.6502 0.0000 0.0000 0.0000
# 2 24.8261 40.2878 26.0076 0.0000 0.0000 0.0000
# 3 54.6502 26.0076 111.0304 0.0000 0.0000 0.0000
# 4 0.0000 0.0000 0.0000 23.0413 0.0000 0.0000
# 5 0.0000 0.0000 0.0000 0.0000 13.2379 0.0000
# 6 0.0000 0.0000 0.0000 0.0000 0.0000 23.1129
#
#
#
# Elastic Compliance Matrix: (Units=1/GPa)
#
#
# Indices 1 2 3 4 5 6 
#
# 1 0.014377 -0.005056 -0.005892 0.000000 0.000000 0.000000
# 2 -0.005056 0.031021 -0.004778 0.000000 0.000000 0.000000
# 3 -0.005892 -0.004778 0.013026 0.000000 0.000000 0.000000
# 4 0.000000 0.000000 0.000000 0.043400 0.000000 0.000000
# 5 0.000000 0.000000 0.000000 0.000000 0.075541 0.000000
# 6 0.000000 0.000000 0.000000 0.000000 0.000000 0.043266
#
#
# Mechanical properties :
#
#
# Convention : Reuss Voigt Hill
#
# Bulk Modulus (GPa) = 37.07485 51.44079 44.25782
# Shear Modulus (GPa) = 19.15162 21.64613 20.39888
#
# Velocity S-wave (km/s) = 3.12361 3.32081 3.22372
# Velocity P-wave (km/s) = 5.64777 6.39614 6.03357
#
# Compressibility (1/GPa) = 0.02697246
#
# Stress axis : x y z
#
# Youngs Moduli (GPa) = 69.55338 32.23604 76.76943
#
# Poissons Ratio (x) = 0.16298 0.45236
# Poissons Ratio (y) = 0.35165 0.36679
# Poissons Ratio (z) = 0.40984 0.15402
#
# Static dielectric constant tensor:
#      x y z
#    x 3.788100 0.000000 0.000000 
#    y 0.000000 3.152050 0.000000 
#    z 0.000000 0.000000 3.669650 
# 
# 
# High freq. dielectric constant tensor:
#      x y z
#    x 1.770400 0.000000 0.000000 
#    y 0.000000 1.726530 0.000000 
#    z 0.000000 0.000000 1.772160 
# 
# From -- ./inp_files/15807.got.cif
#   From: 2010.03.12/outbox.cif.g09.slc.cpg/sg38_8_cif.got.tgz:15807.got - 2010.04.14 02:38:36.
