data_PCOD8180292
_publ_section_title
;
Structure prediction by ZEFSAII (Michael W. Deem and Ramdas Pophale) SiO2 
 PCOD8180292
Probable space group: A M M 2
;
_chemical_formula_sum "Si O2"
_cell_formula_units_Z 64
_cell_length_a 8.584311
_cell_length_b 30.020177
_cell_length_c 14.311112
_cell_angle_alpha 90.000000
_cell_angle_beta 90.000000
_cell_angle_gamma 90.000000
_cell_volume 3688.009850
_symmetry_space_group_name_H-M "A M M 2"
_symmetry_group_IT_number 38
_symmetry_cell_setting 'orthorhombic'
loop_
_space_group_symop_operation_xyz
x,y,z
-x,-y,z
-x,y,z
x,-y,z
x,1/2+y,1/2+z
-x,1/2-y,1/2+z
-x,1/2+y,1/2+z
x,1/2-y,1/2+z
loop_
_atom_site_type_symbol
_atom_site_label
_atom_site_fract_x
_atom_site_fract_y
_atom_site_fract_z
Si Si1 0.681895 0.304297 0.165670
Si Si2 0.682799 0.049604 0.226351
Si Si3 0.819465 0.275604 0.349622
Si Si4 0.182493 0.280980 0.561650
Si Si5 0.819066 0.135247 0.521089
Si Si6 0.319177 0.050323 0.441877
Si Si7 0.321305 0.816235 0.351086
Si Si8 0.820144 0.863707 0.186866
O O1 0.500000 0.311639 0.152179
O O2 0.723268 0.304809 0.275617
O O3 0.729257 0.257582 0.117558
O O4 0.774140 0.346599 0.123266
O O5 0.500000 0.057030 0.215096
O O6 0.733530 0.055219 0.334511
O O7 0.775058 0.085272 0.161366
O O8 0.728808 0.000000 0.192234
O O9 0.758584 0.283917 0.454818
O O10 0.792008 0.224127 0.324218
O O11 0.000000 0.287432 0.338960
O O12 0.220315 0.329457 0.604222
O O13 0.000000 0.269348 0.565337
O O14 0.778837 0.083244 0.508305
O O15 0.715967 0.165501 0.452916
O O16 0.000000 0.143119 0.500926
O O17 0.500000 0.062818 0.451175
O O18 0.288212 0.000000 0.476709
O O19 0.500000 0.800551 0.347208
O O20 0.288362 0.854475 0.276202
O O21 0.000000 0.860171 0.214685
#
# Coordination Sequence:
#
# PCOD8180292 Si02
#       8
#     8   8   8   8   8   8   8   8
#     4  12  24  36  54  77 104 139 179 220 261 311
#     4   9  18  32  50  73 104 140 174 212 260 310
#     4  11  22  38  55  73 103 140 178 220 265 308
#     4  10  22  37  54  74 104 140 175 216 263 313
#     4  12  23  35  52  76 106 142 180 219 260 312
#     4   9  18  33  52  75 106 139 172 214 262 314
#     4  12  22  32  49  75 106 140 179 218 258 307
#     4  11  21  33  51  77 105 139 178 214 259 313
#
# _framework density 17.353532999999999
#
# number of rings (size 3 to 8) (size 9 to 14) (size 15 to 20)
#    0.000    1.250    3.750    4.875    0.000    1.500 
#    0.000    1.250    0.000    0.000    0.000    0.875 
#    0.000    5.000    0.000    0.000    0.000    0.000 
#
# Total GULP energy -396839.477064 kJ/mol
# GULP energy per Si atom -12401.233658 kJ/mol
# Density = 1.731404 g / cm^3
# Si number density = 17.353533 Si / 1000 Ang^3
#
#
#
# Elastic Constant Matrix: (Units=GPa)
#
#
# Indices 1 2 3 4 5 6 
#
# 1 69.1233 33.4771 29.4001 0.0000 0.0000 0.0000
# 2 33.4771 97.2140 22.0481 0.0000 0.0000 0.0000
# 3 29.4001 22.0481 64.2951 0.0000 0.0000 0.0000
# 4 0.0000 0.0000 0.0000 25.3332 0.0000 0.0000
# 5 0.0000 0.0000 0.0000 0.0000 20.7678 0.0000
# 6 0.0000 0.0000 0.0000 0.0000 0.0000 27.5215
#
#
#
# Elastic Compliance Matrix: (Units=1/GPa)
#
#
# Indices 1 2 3 4 5 6 
#
# 1 0.020172 -0.005264 -0.007419 0.000000 0.000000 0.000000
# 2 -0.005264 0.012528 -0.001889 0.000000 0.000000 0.000000
# 3 -0.007419 -0.001889 0.019593 0.000000 0.000000 0.000000
# 4 0.000000 0.000000 0.000000 0.039474 0.000000 0.000000
# 5 0.000000 0.000000 0.000000 0.000000 0.048152 0.000000
# 6 0.000000 0.000000 0.000000 0.000000 0.000000 0.036335
#
#
# Mechanical properties :
#
#
# Convention : Reuss Voigt Hill
#
# Bulk Modulus (GPa) = 43.19746 44.49813 43.84780
# Shear Modulus (GPa) = 23.46169 24.43828 23.94999
#
# Velocity S-wave (km/s) = 3.68092 3.75675 3.71903
# Velocity P-wave (km/s) = 6.55837 6.67198 6.61542
#
# Compressibility (1/GPa) = 0.02314951
#
# Stress axis : x y z
#
# Youngs Moduli (GPa) = 49.57450 79.82311 51.03751
#
# Poissons Ratio (x) = 0.42018 0.37864
# Poissons Ratio (y) = 0.26095 0.09641
# Poissons Ratio (z) = 0.36778 0.15079
#
# Static dielectric constant tensor:
#      x y z
#    x 3.176060 0.000000 0.000000 
#    y 0.000000 3.318230 0.000000 
#    z 0.000000 0.000000 3.137350 
# 
# 
# High freq. dielectric constant tensor:
#      x y z
#    x 1.676440 0.000000 0.000000 
#    y 0.000000 1.663730 0.000000 
#    z 0.000000 0.000000 1.638930 
# 
# From -- ./inp_files/13067.got.cif
#   From: 2010.03.12/outbox.cif.g09.slc.cpg/sg38_7_cif.got.tgz:13067.got - 2010.04.14 02:38:36.
