data_PCOD8180611
_publ_section_title
;
Structure prediction by ZEFSAII (Michael W. Deem and Ramdas Pophale) SiO2 
 PCOD8180611
Probable space group: A B M 2
;
_chemical_formula_sum "Si O2"
_cell_formula_units_Z 48
_cell_length_a 28.134432
_cell_length_b 15.188424
_cell_length_c 5.262717
_cell_angle_alpha 90.000000
_cell_angle_beta 90.000000
_cell_angle_gamma 90.000000
_cell_volume 2248.852031
_symmetry_space_group_name_H-M "A B M 2"
_symmetry_group_IT_number 39
_symmetry_cell_setting 'orthorhombic'
loop_
_space_group_symop_operation_xyz
x,y,z
-x,-y,z
-x,1/2+y,z
x,1/2-y,z
x,1/2+y,1/2+z
-x,1/2-y,1/2+z
-x,y,1/2+z
x,-y,1/2+z
loop_
_atom_site_type_symbol
_atom_site_label
_atom_site_fract_x
_atom_site_fract_y
_atom_site_fract_z
Si Si1 0.775785 0.445143 0.181270
Si Si2 0.326250 0.602869 0.133926
Si Si3 0.470649 0.147165 0.138643
Si Si4 0.878885 0.556298 0.607007
Si Si5 0.633642 0.904747 0.133926
Si Si6 0.024790 0.853207 0.153931
O O1 0.772603 0.477271 0.472296
O O2 0.730665 0.382184 0.135437
O O3 0.826878 0.397579 0.138643
O O4 0.341668 0.500271 0.133369
O O5 0.349236 0.647896 0.382830
O O6 0.347877 0.648072 0.882233
O O7 0.456863 0.250000 0.138267
O O8 0.499839 0.121685 0.389173
O O9 0.423206 0.088517 0.138293
O O10 0.884041 0.518456 0.322603
O O11 0.919134 0.628994 0.647251
O O12 0.016093 0.750000 0.155973
O O13 0.001371 0.895217 0.407661
#
# Coordination Sequence:
#
# PCOD8180611 Si02
#       6
#     8   8   8   8   8   8
#     4  10  16  30  48  74 103 131 163 197 251 305
#     4  10  17  30  48  76  99 125 151 199 246 301
#     4  10  21  37  52  67  93 131 169 202 241 290
#     4  10  21  32  53  83 106 140 182 224 267 313
#     4  10  18  30  51  73  95 125 160 196 241 289
#     4  10  21  37  55  75 107 148 182 220 274 323
#
# _framework density 21.344223
#
# number of rings (size 3 to 8) (size 9 to 14) (size 15 to 20)
#    0.000    2.000    3.333    2.000    0.000    2.000 
#    0.000   10.000    0.000    2.000    0.000    0.000 
#    0.000    0.000    0.000    0.000    0.000    0.000 
#
# Total GULP energy -297426.696937 kJ/mol
# GULP energy per Si atom -12392.779039 kJ/mol
# Density = 2.129564 g / cm^3
# Si number density = 21.344223 Si / 1000 Ang^3
#
#
#
# Elastic Constant Matrix: (Units=GPa)
#
#
# Indices 1 2 3 4 5 6 
#
# 1 199.2761 10.5871 67.2515 0.0000 0.0000 0.0000
# 2 10.5871 11.9860 3.4740 0.0000 0.0000 0.0000
# 3 67.2515 3.4740 201.1153 0.0000 0.0000 0.0000
# 4 0.0000 0.0000 0.0000 -0.1366 0.0000 0.0000
# 5 0.0000 0.0000 0.0000 0.0000 39.6789 0.0000
# 6 0.0000 0.0000 0.0000 0.0000 0.0000 4.7811
#
#
#
# Elastic Compliance Matrix: (Units=1/GPa)
#
#
# Indices 1 2 3 4 5 6 
#
# 1 0.005905 -0.004667 -0.001894 0.000000 0.000000 0.000000
# 2 -0.004667 0.087539 0.000049 0.000000 0.000000 0.000000
# 3 -0.001894 0.000049 0.005605 0.000000 0.000000 0.000000
# 4 0.000000 0.000000 0.000000 -7.323117 0.000000 0.000000
# 5 0.000000 0.000000 0.000000 0.000000 0.025202 0.000000
# 6 0.000000 0.000000 0.000000 0.000000 0.000000 0.209159
#
#
# Mechanical properties :
#
#
# Convention : Reuss Voigt Hill
#
# Bulk Modulus (GPa) = 11.62468 63.88916 37.75692
# Shear Modulus (GPa) = -0.71963 30.93566 15.10802
#
# Velocity S-wave (km/s) = -0.58128 3.81119 2.66339
# Velocity P-wave (km/s) = 2.23777 7.02600 5.21403
#
# Compressibility (1/GPa) = 0.08602388
#
# Stress axis : x y z
#
# Youngs Moduli (GPa) = 169.33854 11.42347 178.41842
#
# Poissons Ratio (x) = 0.05331 0.33794
# Poissons Ratio (y) = 0.79032 -0.00866
# Poissons Ratio (z) = 0.32074 -0.00055
#
# Static dielectric constant tensor:
#      x y z
#    x 4.119330 0.000000 0.000000 
#    y 0.000000 2.985940 0.000000 
#    z 0.000000 0.000000 6.015340 
# 
# 
# High freq. dielectric constant tensor:
#      x y z
#    x 1.857560 0.000000 0.000000 
#    y 0.000000 1.754460 0.000000 
#    z 0.000000 0.000000 1.877700 
# 
# From -- ./inp_files/1250.got.cif
#   From: 2010.03.12/outbox.cif.g09.slc.cpg/sg39_1_cif.got.tgz:1250.got - 2010.04.14 02:53:20.
