data_PCOD8180909
_publ_section_title
;
Structure prediction by ZEFSAII (Michael W. Deem and Ramdas Pophale) SiO2 
 PCOD8180909
Probable space group: A B M 2
;
_chemical_formula_sum "Si O2"
_cell_formula_units_Z 64
_cell_length_a 14.245913
_cell_length_b 8.901593
_cell_length_c 31.073613
_cell_angle_alpha 90.000000
_cell_angle_beta 90.000000
_cell_angle_gamma 90.000000
_cell_volume 3940.485864
_symmetry_space_group_name_H-M "A B M 2"
_symmetry_group_IT_number 39
_symmetry_cell_setting 'orthorhombic'
loop_
_space_group_symop_operation_xyz
x,y,z
-x,-y,z
-x,1/2+y,z
x,1/2-y,z
x,1/2+y,1/2+z
-x,1/2-y,1/2+z
-x,y,1/2+z
x,-y,1/2+z
loop_
_atom_site_type_symbol
_atom_site_label
_atom_site_fract_x
_atom_site_fract_y
_atom_site_fract_z
Si Si1 0.289872 0.075293 0.076840
Si Si2 0.600744 0.924689 0.502428
Si Si3 0.092919 0.075486 0.706339
Si Si4 0.093797 0.073818 0.114988
Si Si5 0.399339 0.925256 0.907291
Si Si6 0.292713 0.077189 0.738125
Si Si7 0.600936 0.427026 0.661408
Si Si8 0.398240 0.073160 0.824109
O O1 0.309249 0.250000 0.069144
O O2 0.179690 0.041926 0.082884
O O3 0.345908 0.017653 0.118634
O O4 0.322785 0.985434 0.035309
O O5 0.584407 0.750000 0.510400
O O6 0.644309 0.954259 0.454621
O O7 0.500000 0.000000 0.509670
O O8 0.072870 0.250000 0.698301
O O9 0.180616 0.050519 0.738158
O O10 0.116544 0.999269 0.660884
O O11 0.000000 0.000000 0.727053
O O12 0.078659 0.250000 0.121935
O O13 0.000000 0.000000 0.094815
O O14 0.407458 0.750000 0.897178
O O15 0.500000 0.000000 0.908327
O O16 0.347155 0.006162 0.867185
O O17 0.316962 0.250000 0.727330
O O18 0.330769 0.030908 0.784722
O O19 0.340394 0.973237 0.702865
O O20 0.500000 0.500000 0.662842
O O21 0.589477 0.250000 0.661752
O O22 0.411068 0.250000 0.829231
O O23 0.500000 0.000000 0.816141
#
# Coordination Sequence:
#
# PCOD8180909 Si02
#       8
#     8   8   8   8   8   8   8   8
#     4  10  21  34  48  69  96 126 162 197 233 282
#     4  10  20  32  49  71  97 127 161 197 237 283
#     4  10  19  32  50  70  93 122 157 199 241 282
#     4  10  19  33  50  71  94 121 158 199 240 282
#     4   9  17  30  47  69  93 121 156 195 236 279
#     4  10  21  34  48  69  95 126 162 196 235 282
#     4  11  22  34  46  64  94 130 165 196 228 273
#     4  10  19  31  47  69  95 125 159 195 234 279
#
# _framework density 16.241651999999998
#
# number of rings (size 3 to 8) (size 9 to 14) (size 15 to 20)
#    0.000    2.000    1.250    4.500    0.000    7.000 
#    0.000    0.000    0.000    0.000    0.000    0.875 
#    0.000    2.000    0.000    0.000    0.000    0.000 
#
# Total GULP energy -396715.286892 kJ/mol
# GULP energy per Si atom -12397.352715 kJ/mol
# Density = 1.620468 g / cm^3
# Si number density = 16.241652 Si / 1000 Ang^3
#
#
#
# Elastic Constant Matrix: (Units=GPa)
#
#
# Indices 1 2 3 4 5 6 
#
# 1 101.0609 45.2003 58.6216 0.0000 0.0000 0.0000
# 2 45.2003 89.1492 55.5786 0.0000 0.0000 0.0000
# 3 58.6216 55.5786 127.7336 0.0000 0.0000 0.0000
# 4 0.0000 0.0000 0.0000 26.6571 0.0000 0.0000
# 5 0.0000 0.0000 0.0000 0.0000 8.7841 0.0000
# 6 0.0000 0.0000 0.0000 0.0000 0.0000 24.8566
#
#
#
# Elastic Compliance Matrix: (Units=1/GPa)
#
#
# Indices 1 2 3 4 5 6 
#
# 1 0.014665 -0.004446 -0.004796 0.000000 0.000000 0.000000
# 2 -0.004446 0.016740 -0.005244 0.000000 0.000000 0.000000
# 3 -0.004796 -0.005244 0.012312 0.000000 0.000000 0.000000
# 4 0.000000 0.000000 0.000000 0.037513 0.000000 0.000000
# 5 0.000000 0.000000 0.000000 0.000000 0.113842 0.000000
# 6 0.000000 0.000000 0.000000 0.000000 0.000000 0.040231
#
#
# Mechanical properties :
#
#
# Convention : Reuss Voigt Hill
#
# Bulk Modulus (GPa) = 67.81330 70.74940 69.28135
# Shear Modulus (GPa) = 18.57430 22.62911 20.60170
#
# Velocity S-wave (km/s) = 3.38542 3.73671 3.56539
# Velocity P-wave (km/s) = 7.55809 7.89129 7.72648
#
# Compressibility (1/GPa) = 0.01474637
#
# Stress axis : x y z
#
# Youngs Moduli (GPa) = 68.18767 59.73646 81.22470
#
# Poissons Ratio (x) = 0.26556 0.38957
# Poissons Ratio (y) = 0.30313 0.42592
# Poissons Ratio (z) = 0.32704 0.31324
#
# Static dielectric constant tensor:
#      x y z
#    x 3.043060 0.000000 0.000000 
#    y 0.000000 3.215640 0.000000 
#    z 0.000000 0.000000 3.428320 
# 
# 
# High freq. dielectric constant tensor:
#      x y z
#    x 1.604350 0.000000 0.000000 
#    y 0.000000 1.642390 0.000000 
#    z 0.000000 0.000000 1.615680 
# 
# From -- ./inp_files/17956.got.cif
#   From: 2010.03.12/outbox.cif.g09.slc.cpg/sg39_9_cif.got.tgz:17956.got - 2010.04.14 02:53:20.
