data_PCOD8180986
_publ_section_title
;
Structure prediction by ZEFSAII (Michael W. Deem and Ramdas Pophale) SiO2 
 PCOD8180986
Probable space group: A B M 2
;
_chemical_formula_sum "Si O2"
_cell_formula_units_Z 48
_cell_length_a 9.941036
_cell_length_b 8.784042
_cell_length_c 30.679517
_cell_angle_alpha 90.000000
_cell_angle_beta 90.000000
_cell_angle_gamma 90.000000
_cell_volume 2679.011441
_symmetry_space_group_name_H-M "A B M 2"
_symmetry_group_IT_number 39
_symmetry_cell_setting 'orthorhombic'
loop_
_space_group_symop_operation_xyz
x,y,z
-x,-y,z
-x,1/2+y,z
x,1/2-y,z
x,1/2+y,1/2+z
-x,1/2-y,1/2+z
-x,y,1/2+z
x,-y,1/2+z
loop_
_atom_site_type_symbol
_atom_site_label
_atom_site_fract_x
_atom_site_fract_y
_atom_site_fract_z
Si Si1 0.856469 0.573435 0.705940
Si Si2 0.147068 0.429248 0.611619
Si Si3 0.851771 0.569484 0.385470
Si Si4 0.640059 0.573084 0.947921
Si Si5 0.638407 0.574458 0.050026
Si Si6 0.147676 0.569936 0.298936
O O1 0.885930 0.750000 0.706995
O O2 0.786420 0.531267 0.659630
O O3 0.779814 0.531674 0.751813
O O4 0.000000 0.500000 0.705945
O O5 0.135332 0.250000 0.604543
O O6 0.238706 0.497308 0.574343
O O7 0.000000 0.500000 0.607266
O O8 0.861357 0.750000 0.385620
O O9 0.762164 0.513745 0.425367
O O10 0.781356 0.511133 0.340248
O O11 0.000000 0.500000 0.390805
O O12 0.500000 0.500000 0.932314
O O13 0.640545 0.750000 0.935121
O O14 0.660928 0.547996 0.999057
O O15 0.500000 0.500000 0.065959
O O16 0.632878 0.750000 0.062557
O O17 0.141722 0.750000 0.307753
O O18 0.000000 0.500000 0.296517
#
# Coordination Sequence:
#
# PCOD8180986 Si02
#       6
#     8   8   8   8   8   8
#     4   8  15  26  43  68  98 132 166 202 244 292
#     4  10  19  32  51  77 107 136 169 209 252 295
#     4  11  21  33  51  77 106 135 169 209 253 296
#     4  10  21  38  57  76  99 130 168 207 251 305
#     4  10  21  37  56  76  99 131 169 207 251 304
#     4   9  15  26  44  68  99 132 166 204 247 294
#
# _framework density 17.917058000000001
#
# number of rings (size 3 to 8) (size 9 to 14) (size 15 to 20)
#    0.000    2.333    0.000    4.500    0.000    4.000 
#    0.000    0.000    0.000    1.000    0.000    4.667 
#    0.000    0.000    0.000    0.000    0.000    0.000 
#
# Total GULP energy -297322.276332 kJ/mol
# GULP energy per Si atom -12388.428181 kJ/mol
# Density = 1.787628 g / cm^3
# Si number density = 17.917058 Si / 1000 Ang^3
#
#
#
# Elastic Constant Matrix: (Units=GPa)
#
#
# Indices 1 2 3 4 5 6 
#
# 1 76.8540 48.4224 53.9308 0.0000 0.0000 0.0000
# 2 48.4224 124.4224 60.0561 0.0000 0.0000 0.0000
# 3 53.9308 60.0561 89.2113 0.0000 0.0000 0.0000
# 4 0.0000 0.0000 0.0000 34.4452 0.0000 0.0000
# 5 0.0000 0.0000 0.0000 0.0000 -0.7076 0.0000
# 6 0.0000 0.0000 0.0000 0.0000 0.0000 27.6283
#
#
#
# Elastic Compliance Matrix: (Units=1/GPa)
#
#
# Indices 1 2 3 4 5 6 
#
# 1 0.023528 -0.003394 -0.011938 0.000000 0.000000 0.000000
# 2 -0.003394 0.012395 -0.006293 0.000000 0.000000 0.000000
# 3 -0.011938 -0.006293 0.022662 0.000000 0.000000 0.000000
# 4 0.000000 0.000000 0.000000 0.029032 0.000000 0.000000
# 5 0.000000 0.000000 0.000000 0.000000 -1.413207 0.000000
# 6 0.000000 0.000000 0.000000 0.000000 0.000000 0.036195
#
#
# Mechanical properties :
#
#
# Convention : Reuss Voigt Hill
#
# Bulk Modulus (GPa) = 65.20795 68.36737 66.78766
# Shear Modulus (GPa) = -4.02890 20.81172 8.39141
#
# Velocity S-wave (km/s) = -1.50117 3.41186 2.16648
# Velocity P-wave (km/s) = 5.78521 7.33223 6.60418
#
# Compressibility (1/GPa) = 0.01533555
#
# Stress axis : x y z
#
# Youngs Moduli (GPa) = 42.50326 80.67555 44.12579
#
# Poissons Ratio (x) = 0.27382 0.52679
# Poissons Ratio (y) = 0.14426 0.27767
# Poissons Ratio (z) = 0.50742 0.50766
#
# Static dielectric constant tensor:
#      x y z
#    x 2.902640 0.000000 0.000000 
#    y 0.000000 3.519780 0.000000 
#    z 0.000000 0.000000 4.161780 
# 
# 
# High freq. dielectric constant tensor:
#      x y z
#    x 1.641190 0.000000 0.000000 
#    y 0.000000 1.712720 0.000000 
#    z 0.000000 0.000000 1.718310 
# 
# From -- ./inp_files/16902.got.cif
#   From: 2010.03.12/outbox.cif.g09.slc.cpg/sg39_9_cif.got.tgz:16902.got - 2010.04.14 02:53:20.
