data_PCOD8180203
_publ_section_title
;
Structure prediction by ZEFSAII (Michael W. Deem and Ramdas Pophale) SiO2 
 PCOD8180203
Probable space group: A M M 2
;
_chemical_formula_sum "Si O2"
_cell_formula_units_Z 48
_cell_length_a 14.938067
_cell_length_b 8.933651
_cell_length_c 18.753918
_cell_angle_alpha 90.000000
_cell_angle_beta 90.000000
_cell_angle_gamma 90.000000
_cell_volume 2502.738060
_symmetry_space_group_name_H-M "A M M 2"
_symmetry_group_IT_number 38
_symmetry_cell_setting 'orthorhombic'
loop_
_space_group_symop_operation_xyz
x,y,z
-x,-y,z
-x,y,z
x,-y,z
x,1/2+y,1/2+z
-x,1/2-y,1/2+z
-x,1/2+y,1/2+z
x,1/2-y,1/2+z
loop_
_atom_site_type_symbol
_atom_site_label
_atom_site_fract_x
_atom_site_fract_y
_atom_site_fract_z
Si Si1 0.810374 0.178440 0.354520
Si Si2 0.274348 0.826405 0.724268
Si Si3 0.604965 0.171594 0.107304
Si Si4 0.000000 0.669505 0.533401
Si Si5 0.142662 0.841313 0.608679
Si Si6 0.000000 0.819667 0.875941
Si Si7 0.292772 0.163765 0.494921
O O1 0.737359 0.233128 0.296845
O O2 0.765200 0.230619 0.429412
O O3 0.907811 0.255774 0.342043
O O4 0.823212 0.000000 0.351562
O O5 0.350936 0.758436 0.673752
O O6 0.176242 0.810616 0.688329
O O7 0.297777 0.000000 0.740151
O O8 0.500000 0.190601 0.116952
O O9 0.629710 0.229992 0.027042
O O10 0.635979 0.000000 0.111708
O O11 0.084948 0.704803 0.581325
O O12 0.000000 0.500000 0.513071
O O13 0.000000 0.748784 0.456619
O O14 0.230007 0.857724 0.562098
O O15 0.088984 0.000000 0.605401
O O16 0.000000 0.000000 0.869127
O O17 0.332145 0.000000 0.473082
#
# Coordination Sequence:
#
# PCOD8180203 Si02
#       7
#     8   8   8   4   8   4   8
#     4  11  22  38  59  84 116 157 198 238 287 340
#     4  10  22  39  58  83 114 151 190 235 291 346
#     4  10  21  38  62  90 116 145 186 235 287 348
#     4  11  21  30  49  80 107 139 189 240 280 323
#     4   9  18  34  53  73 103 142 183 226 278 333
#     4  11  23  36  53  82 117 155 197 240 286 337
#     4   9  19  35  57  83 110 144 186 230 282 339
#
# _framework density 19.178996000000001
#
# number of rings (size 3 to 8) (size 9 to 14) (size 15 to 20)
#    0.000    2.000    1.667    3.000    0.000    7.333 
#    0.000    1.667    0.000    1.000    0.000    0.000 
#    0.000    0.000    0.000    0.000    0.000    0.000 
#
# Total GULP energy -297356.178437 kJ/mol
# GULP energy per Si atom -12389.840768 kJ/mol
# Density = 1.913534 g / cm^3
# Si number density = 19.178996 Si / 1000 Ang^3
#
#
#
# Elastic Constant Matrix: (Units=GPa)
#
#
# Indices 1 2 3 4 5 6 
#
# 1 78.3905 42.0612 29.7345 0.0000 0.0000 0.0000
# 2 42.0612 104.7000 35.0534 0.0000 0.0000 0.0000
# 3 29.7345 35.0534 86.2010 0.0000 0.0000 0.0000
# 4 0.0000 0.0000 0.0000 27.8230 0.0000 0.0000
# 5 0.0000 0.0000 0.0000 0.0000 22.0780 0.0000
# 6 0.0000 0.0000 0.0000 0.0000 0.0000 31.5661
#
#
#
# Elastic Compliance Matrix: (Units=1/GPa)
#
#
# Indices 1 2 3 4 5 6 
#
# 1 0.017181 -0.005693 -0.003611 0.000000 0.000000 0.000000
# 2 -0.005693 0.012943 -0.003299 0.000000 0.000000 0.000000
# 3 -0.003611 -0.003299 0.014188 0.000000 0.000000 0.000000
# 4 0.000000 0.000000 0.000000 0.035941 0.000000 0.000000
# 5 0.000000 0.000000 0.000000 0.000000 0.045294 0.000000
# 6 0.000000 0.000000 0.000000 0.000000 0.000000 0.031680
#
#
# Mechanical properties :
#
#
# Convention : Reuss Voigt Hill
#
# Bulk Modulus (GPa) = 52.34399 53.66551 53.00475
# Shear Modulus (GPa) = 26.48260 27.12292 26.80276
#
# Velocity S-wave (km/s) = 3.71996 3.76466 3.74238
# Velocity P-wave (km/s) = 6.76775 6.85121 6.80961
#
# Compressibility (1/GPa) = 0.01910439
#
# Stress axis : x y z
#
# Youngs Moduli (GPa) = 58.20310 77.26296 70.48108
#
# Poissons Ratio (x) = 0.43987 0.25454
# Poissons Ratio (y) = 0.33136 0.23254
# Poissons Ratio (z) = 0.21020 0.25492
#
# Static dielectric constant tensor:
#      x y z
#    x 3.426230 0.000000 0.000000 
#    y 0.000000 3.731800 0.000000 
#    z 0.000000 0.000000 3.506130 
# 
# 
# High freq. dielectric constant tensor:
#      x y z
#    x 1.725960 0.000000 0.000000 
#    y 0.000000 1.752750 0.000000 
#    z 0.000000 0.000000 1.744270 
# 
# From -- ./inp_files/18174.got.cif
#   From: 2010.03.12/outbox.cif.g09.slc.cpg/sg38_10_cif.got.tgz:18174.got - 2010.04.14 02:38:36.
