data_PCOD8180993
_publ_section_title
;
Structure prediction by ZEFSAII (Michael W. Deem and Ramdas Pophale) SiO2 
 PCOD8180993
Probable space group: A B M 2
;
_chemical_formula_sum "Si O2"
_cell_formula_units_Z 64
_cell_length_a 20.709552
_cell_length_b 18.534482
_cell_length_c 8.743234
_cell_angle_alpha 90.000000
_cell_angle_beta 90.000000
_cell_angle_gamma 90.000000
_cell_volume 3356.010097
_symmetry_space_group_name_H-M "A B M 2"
_symmetry_group_IT_number 39
_symmetry_cell_setting 'orthorhombic'
loop_
_space_group_symop_operation_xyz
x,y,z
-x,-y,z
-x,1/2+y,z
x,1/2-y,z
x,1/2+y,1/2+z
-x,1/2-y,1/2+z
-x,y,1/2+z
x,-y,1/2+z
loop_
_atom_site_type_symbol
_atom_site_label
_atom_site_fract_x
_atom_site_fract_y
_atom_site_fract_z
Si Si1 0.066511 0.331973 0.911070
Si Si2 0.310891 0.169227 0.911914
Si Si3 0.933490 0.668027 0.549638
Si Si4 0.432736 0.077641 0.548591
Si Si5 0.189254 0.921104 0.412158
Si Si6 0.689110 0.330773 0.048791
Si Si7 0.432736 0.922358 0.412114
Si Si8 0.810746 0.921103 0.548548
O O1 0.078760 0.250000 0.966737
O O2 0.061579 0.335387 0.730354
O O3 0.124883 0.381219 0.971341
O O4 0.000000 0.362447 0.980355
O O5 0.307869 0.250000 0.980143
O O6 0.250522 0.123546 0.974950
O O7 0.307403 0.172225 0.730353
O O8 0.377386 0.132601 0.965324
O O9 0.921241 0.750000 0.493971
O O10 0.875117 0.618781 0.489366
O O11 0.377385 0.132601 0.495381
O O12 0.500000 0.106712 0.480352
O O13 0.438073 0.071375 0.730352
O O14 0.415382 1.000000 0.480353
O O15 0.190505 0.925870 0.230353
O O16 0.191857 0.000000 0.480353
O O17 0.692131 0.250000 0.980562
O O18 0.749478 0.376454 0.985756
#
# Coordination Sequence:
#
# PCOD8180993 Si02
#       8
#     8   8   8   8   8   8   8   8
#     4   9  18  33  53  75  99 130 166 203 244 290
#     4   9  18  33  53  75  98 128 167 207 246 290
#     4   9  18  33  53  75  99 130 166 203 244 290
#     4  10  19  32  52  75 101 132 164 201 244 292
#     4  10  20  34  53  75 100 130 165 205 246 292
#     4   9  18  33  53  75  98 128 167 207 246 290
#     4  10  19  32  52  75 101 132 164 201 244 292
#     4  10  20  34  53  75 100 130 165 205 246 292
#
# _framework density 19.070264000000002
#
# number of rings (size 3 to 8) (size 9 to 14) (size 15 to 20)
#    0.000    2.500    0.000    3.000    0.000    5.000 
#    0.000    3.750    0.000    7.500    0.000    0.000 
#    0.000    0.000    0.000    0.000    0.000    0.000 
#
# Total GULP energy -396824.237145 kJ/mol
# GULP energy per Si atom -12400.757411 kJ/mol
# Density = 1.902686 g / cm^3
# Si number density = 19.070264 Si / 1000 Ang^3
#
#
#
# Elastic Constant Matrix: (Units=GPa)
#
#
# Indices 1 2 3 4 5 6 
#
# 1 203.9546 121.3453 34.1755 0.0000 0.0000 0.0000
# 2 121.3453 161.5090 25.4094 0.0000 0.0000 0.0000
# 3 34.1755 25.4094 32.9249 0.0000 0.0000 0.0000
# 4 0.0000 0.0000 0.0000 24.6720 0.0000 0.0000
# 5 0.0000 0.0000 0.0000 0.0000 22.6622 0.0000
# 6 0.0000 0.0000 0.0000 0.0000 0.0000 42.9578
#
#
#
# Elastic Compliance Matrix: (Units=1/GPa)
#
#
# Indices 1 2 3 4 5 6 
#
# 1 0.009531 -0.006379 -0.004970 0.000000 0.000000 0.000000
# 2 -0.006379 0.011317 -0.002112 0.000000 0.000000 0.000000
# 3 -0.004970 -0.002112 0.037161 0.000000 0.000000 0.000000
# 4 0.000000 0.000000 0.000000 0.040532 0.000000 0.000000
# 5 0.000000 0.000000 0.000000 0.000000 0.044126 0.000000
# 6 0.000000 0.000000 0.000000 0.000000 0.000000 0.023279
#
#
# Mechanical properties :
#
#
# Convention : Reuss Voigt Hill
#
# Bulk Modulus (GPa) = 32.16869 84.47211 58.32040
# Shear Modulus (GPa) = 24.60258 32.55561 28.57910
#
# Velocity S-wave (km/s) = 3.59570 4.13624 3.87540
# Velocity P-wave (km/s) = 5.84327 8.19772 7.11851
#
# Compressibility (1/GPa) = 0.03108613
#
# Stress axis : x y z
#
# Youngs Moduli (GPa) = 104.91883 88.36569 26.90980
#
# Poissons Ratio (x) = 0.56369 0.13375
# Poissons Ratio (y) = 0.66928 0.05684
# Poissons Ratio (z) = 0.52147 0.18664
#
# Static dielectric constant tensor:
#      x y z
#    x 3.810010 0.000000 0.000000 
#    y 0.000000 3.585400 0.000000 
#    z 0.000000 0.000000 3.183360 
# 
# 
# High freq. dielectric constant tensor:
#      x y z
#    x 1.760360 0.000000 0.000000 
#    y 0.000000 1.743520 0.000000 
#    z 0.000000 0.000000 1.710870 
# 
# From -- ./inp_files/4002.got.cif
#   From: 2010.03.12/outbox.cif.g09.slc.cpg/sg39_3_cif.got.tgz:4002.got - 2010.04.14 02:53:20.
