data_PCOD8180871
_publ_section_title
;
Structure prediction by ZEFSAII (Michael W. Deem and Ramdas Pophale) SiO2 
 PCOD8180871
Probable space group: A B M 2
;
_chemical_formula_sum "Si O2"
_cell_formula_units_Z 56
_cell_length_a 15.410725
_cell_length_b 9.408706
_cell_length_c 20.232145
_cell_angle_alpha 90.000000
_cell_angle_beta 90.000000
_cell_angle_gamma 90.000000
_cell_volume 2933.559475
_symmetry_space_group_name_H-M "A B M 2"
_symmetry_group_IT_number 39
_symmetry_cell_setting 'orthorhombic'
loop_
_space_group_symop_operation_xyz
x,y,z
-x,-y,z
-x,1/2+y,z
x,1/2-y,z
x,1/2+y,1/2+z
-x,1/2-y,1/2+z
-x,y,1/2+z
x,-y,1/2+z
loop_
_atom_site_type_symbol
_atom_site_label
_atom_site_fract_x
_atom_site_fract_y
_atom_site_fract_z
Si Si1 0.078327 0.584099 0.120960
Si Si2 0.917116 0.413794 0.348702
Si Si3 0.413264 0.081554 0.907173
Si Si4 0.729575 0.914768 0.658585
Si Si5 0.731274 0.082204 0.305847
Si Si6 0.123241 0.590667 0.499650
Si Si7 0.682478 0.911147 0.036513
O O1 0.058333 0.750000 0.121781
O O2 0.168532 0.546371 0.156029
O O3 0.000000 0.500000 0.157853
O O4 0.080350 0.528319 0.045626
O O5 0.928868 0.250000 0.327339
O O6 0.828091 0.479074 0.318458
O O7 0.913170 0.431254 0.427119
O O8 0.000000 0.500000 0.321286
O O9 0.426188 0.250000 0.898294
O O10 0.338331 0.023075 0.858128
O O11 0.500000 0.000000 0.887315
O O12 0.389489 0.042930 0.982915
O O13 0.715288 0.750000 0.643623
O O14 0.698329 0.957211 0.732006
O O15 0.674545 0.996856 0.603210
O O16 0.739124 0.250000 0.315225
O O17 0.101299 0.750000 0.525806
O O18 0.226594 0.569046 0.499142
O O19 0.668061 0.750000 0.059083
#
# Coordination Sequence:
#
# PCOD8180871 Si02
#       7
#     8   8   8   8   8   8   8
#     4  10  19  29  43  68 100 136 179 223 265 310
#     4  10  19  31  49  74 104 141 183 222 264 313
#     4  10  20  37  62  87 109 139 177 220 270 324
#     4   9  19  34  54  76 102 141 182 220 263 314
#     4   9  18  37  58  76 107 149 184 215 265 327
#     4   9  16  29  49  71  98 134 174 218 266 313
#     4   9  17  33  56  80 105 136 172 214 268 323
#
# _framework density 19.089437
#
# number of rings (size 3 to 8) (size 9 to 14) (size 15 to 20)
#    0.000    2.571    1.429    0.857    0.000    3.429 
#    0.000    2.857    0.000    3.429    0.000    0.000 
#    0.000    0.000    0.000    0.000    0.000    0.000 
#
# Total GULP energy -347119.750228 kJ/mol
# GULP energy per Si atom -12397.133937 kJ/mol
# Density = 1.904599 g / cm^3
# Si number density = 19.089437 Si / 1000 Ang^3
#
#
#
# Elastic Constant Matrix: (Units=GPa)
#
#
# Indices 1 2 3 4 5 6 
#
# 1 105.4977 37.0910 49.2099 0.0000 0.0000 0.0000
# 2 37.0910 60.5372 39.7002 0.0000 0.0000 0.0000
# 3 49.2099 39.7002 102.3763 0.0000 0.0000 0.0000
# 4 0.0000 0.0000 0.0000 20.4803 0.0000 0.0000
# 5 0.0000 0.0000 0.0000 0.0000 11.0568 0.0000
# 6 0.0000 0.0000 0.0000 0.0000 0.0000 30.0999
#
#
#
# Elastic Compliance Matrix: (Units=1/GPa)
#
#
# Indices 1 2 3 4 5 6 
#
# 1 0.013394 -0.005343 -0.004366 0.000000 0.000000 0.000000
# 2 -0.005343 0.024284 -0.006849 0.000000 0.000000 0.000000
# 3 -0.004366 -0.006849 0.014522 0.000000 0.000000 0.000000
# 4 0.000000 0.000000 0.000000 0.048827 0.000000 0.000000
# 5 0.000000 0.000000 0.000000 0.000000 0.090442 0.000000
# 6 0.000000 0.000000 0.000000 0.000000 0.000000 0.033223
#
#
# Mechanical properties :
#
#
# Convention : Reuss Voigt Hill
#
# Bulk Modulus (GPa) = 52.39898 57.82370 55.11134
# Shear Modulus (GPa) = 18.92725 21.82143 20.37434
#
# Velocity S-wave (km/s) = 3.15223 3.38467 3.27051
# Velocity P-wave (km/s) = 6.38416 6.75510 6.57225
#
# Compressibility (1/GPa) = 0.01908434
#
# Stress axis : x y z
#
# Youngs Moduli (GPa) = 74.65990 41.17971 68.85905
#
# Poissons Ratio (x) = 0.22003 0.30065
# Poissons Ratio (y) = 0.39892 0.47159
# Poissons Ratio (z) = 0.32598 0.28202
#
# Static dielectric constant tensor:
#      x y z
#    x 3.460040 0.000000 0.000000 
#    y 0.000000 3.295000 0.000000 
#    z 0.000000 0.000000 3.432200 
# 
# 
# High freq. dielectric constant tensor:
#      x y z
#    x 1.731130 0.000000 0.000000 
#    y 0.000000 1.717770 0.000000 
#    z 0.000000 0.000000 1.739700 
# 
# From -- ./inp_files/14753.got.cif
#   From: 2010.03.12/outbox.cif.g09.slc.cpg/sg39_8_cif.got.tgz:14753.got - 2010.04.14 02:53:20.
