data_PCOD8180885
_publ_section_title
;
Structure prediction by ZEFSAII (Michael W. Deem and Ramdas Pophale) SiO2 
 PCOD8180885
Probable space group: A B M 2
;
_chemical_formula_sum "Si O2"
_cell_formula_units_Z 64
_cell_length_a 14.222324
_cell_length_b 8.866458
_cell_length_c 31.511876
_cell_angle_alpha 90.000000
_cell_angle_beta 90.000000
_cell_angle_gamma 90.000000
_cell_volume 3973.699193
_symmetry_space_group_name_H-M "A B M 2"
_symmetry_group_IT_number 39
_symmetry_cell_setting 'orthorhombic'
loop_
_space_group_symop_operation_xyz
x,y,z
-x,-y,z
-x,1/2+y,z
x,1/2-y,z
x,1/2+y,1/2+z
-x,1/2-y,1/2+z
-x,y,1/2+z
x,-y,1/2+z
loop_
_atom_site_type_symbol
_atom_site_label
_atom_site_fract_x
_atom_site_fract_y
_atom_site_fract_z
Si Si1 0.398252 0.072905 0.086420
Si Si2 0.400917 0.924958 0.494919
Si Si3 0.905218 0.426704 0.789335
Si Si4 0.398753 0.927747 0.745198
Si Si5 0.723878 0.428557 0.664962
Si Si6 0.709922 0.424770 0.828480
Si Si7 0.397876 0.572554 0.402883
Si Si8 0.902558 0.929505 0.698818
O O1 0.413624 0.250000 0.091719
O O2 0.326873 0.015019 0.122158
O O3 0.500000 0.000000 0.092800
O O4 0.350930 0.033340 0.039914
O O5 0.420243 0.750000 0.493507
O O6 0.354408 0.971649 0.449698
O O7 0.500000 0.000000 0.497183
O O8 0.920719 0.250000 0.780114
O O9 0.821063 0.452685 0.822428
O O10 0.878860 0.506936 0.745390
O O11 0.000000 0.500000 0.808704
O O12 0.410397 0.750000 0.745737
O O13 0.339680 0.979607 0.704528
O O14 0.345713 0.984558 0.787329
O O15 0.500000 0.000000 0.742893
O O16 0.742796 0.250000 0.665438
O O17 0.822016 0.516911 0.666632
O O18 0.688009 0.250000 0.835994
O O19 0.677854 0.516149 0.869368
O O20 0.500000 0.500000 0.395072
O O21 0.410653 0.750000 0.397585
O O22 0.909518 0.750000 0.700131
O O23 0.000000 0.000000 0.682281
#
# Coordination Sequence:
#
# PCOD8180885 Si02
#       8
#     8   8   8   8   8   8   8   8
#     4   9  17  29  48  69  95 127 158 193 233 276
#     4   8  15  28  44  66  91 120 155 194 235 272
#     4  10  19  34  52  70  93 119 152 195 237 278
#     4  10  20  32  43  60  91 126 157 188 221 263
#     4  10  19  33  48  66  94 126 157 192 234 274
#     4  10  20  33  47  65  93 125 156 192 231 274
#     4  10  19  30  46  67  95 125 160 197 231 277
#     4  11  21  33  51  71  92 120 155 195 235 278
#
# _framework density 16.105898
#
# number of rings (size 3 to 8) (size 9 to 14) (size 15 to 20)
#    0.000    2.250    1.250    3.375    0.000    4.000 
#    0.000    0.000    0.000    0.000    0.000    0.875 
#    0.000    2.000    0.000    0.000    0.000    0.000 
#
# Total GULP energy -396583.291025 kJ/mol
# GULP energy per Si atom -12393.227845 kJ/mol
# Density = 1.606924 g / cm^3
# Si number density = 16.105898 Si / 1000 Ang^3
#
#
#
# Elastic Constant Matrix: (Units=GPa)
#
#
# Indices 1 2 3 4 5 6 
#
# 1 106.5044 42.5492 65.7786 0.0000 0.0000 0.0000
# 2 42.5492 62.3470 43.8072 0.0000 0.0000 0.0000
# 3 65.7786 43.8072 143.7867 0.0000 0.0000 0.0000
# 4 0.0000 0.0000 0.0000 26.8600 0.0000 0.0000
# 5 0.0000 0.0000 0.0000 0.0000 12.5941 0.0000
# 6 0.0000 0.0000 0.0000 0.0000 0.0000 27.9116
#
#
#
# Elastic Compliance Matrix: (Units=1/GPa)
#
#
# Indices 1 2 3 4 5 6 
#
# 1 0.015135 -0.006952 -0.004806 0.000000 0.000000 0.000000
# 2 -0.006952 0.023602 -0.004010 0.000000 0.000000 0.000000
# 3 -0.004806 -0.004010 0.010375 0.000000 0.000000 0.000000
# 4 0.000000 0.000000 0.000000 0.037230 0.000000 0.000000
# 5 0.000000 0.000000 0.000000 0.000000 0.079402 0.000000
# 6 0.000000 0.000000 0.000000 0.000000 0.000000 0.035827
#
#
# Mechanical properties :
#
#
# Convention : Reuss Voigt Hill
#
# Bulk Modulus (GPa) = 56.89830 68.54533 62.72182
# Shear Modulus (GPa) = 20.92351 24.17334 22.54843
#
# Velocity S-wave (km/s) = 3.60824 3.87835 3.74573
# Velocity P-wave (km/s) = 7.26385 7.91877 7.59837
#
# Compressibility (1/GPa) = 0.01757522
#
# Stress axis : x y z
#
# Youngs Moduli (GPa) = 66.07296 42.37003 96.38579
#
# Poissons Ratio (x) = 0.29457 0.46320
# Poissons Ratio (y) = 0.45936 0.38652
# Poissons Ratio (z) = 0.31752 0.16991
#
# Static dielectric constant tensor:
#      x y z
#    x 2.942450 0.000000 0.000000 
#    y 0.000000 2.948710 0.000000 
#    z 0.000000 0.000000 3.512410 
# 
# 
# High freq. dielectric constant tensor:
#      x y z
#    x 1.597820 0.000000 0.000000 
#    y 0.000000 1.624420 0.000000 
#    z 0.000000 0.000000 1.615890 
# 
# From -- ./inp_files/17971.got.cif
#   From: 2010.03.12/outbox.cif.g09.slc.cpg/sg39_9_cif.got.tgz:17971.got - 2010.04.14 02:53:20.
