data_PCOD8180877
_publ_section_title
;
Structure prediction by ZEFSAII (Michael W. Deem and Ramdas Pophale) SiO2 
 PCOD8180877
Probable space group: A B M 2
;
_chemical_formula_sum "Si O2"
_cell_formula_units_Z 64
_cell_length_a 14.267496
_cell_length_b 9.401157
_cell_length_c 31.109059
_cell_angle_alpha 90.000000
_cell_angle_beta 90.000000
_cell_angle_gamma 90.000000
_cell_volume 4172.688256
_symmetry_space_group_name_H-M "A B M 2"
_symmetry_group_IT_number 39
_symmetry_cell_setting 'orthorhombic'
loop_
_space_group_symop_operation_xyz
x,y,z
-x,-y,z
-x,1/2+y,z
x,1/2-y,z
x,1/2+y,1/2+z
-x,1/2-y,1/2+z
-x,y,1/2+z
x,-y,1/2+z
loop_
_atom_site_type_symbol
_atom_site_label
_atom_site_fract_x
_atom_site_fract_y
_atom_site_fract_z
Si Si1 0.787601 0.912909 0.538840
Si Si2 0.211965 0.581371 0.203692
Si Si3 0.091817 0.410824 0.877475
Si Si4 0.588071 0.586313 0.573216
Si Si5 0.409545 0.416676 0.672509
Si Si6 0.902977 0.916241 0.784529
Si Si7 0.098177 0.582834 0.470994
Si Si8 0.906354 0.414489 0.123681
O O1 0.800817 0.750000 0.523482
O O2 0.678649 0.950680 0.544867
O O3 0.838152 0.937576 0.583835
O O4 0.826823 0.020326 0.503617
O O5 0.214785 0.750000 0.199488
O O6 0.318402 0.526208 0.198278
O O7 0.171614 0.528877 0.249431
O O8 0.144830 0.522988 0.165920
O O9 0.057063 0.250000 0.877061
O O10 0.144664 0.442579 0.832051
O O11 0.143855 0.440263 0.922956
O O12 0.000000 0.500000 0.877283
O O13 0.500000 0.500000 0.554673
O O14 0.561546 0.750000 0.569245
O O15 0.608249 0.546715 0.622665
O O16 0.500000 0.500000 0.690296
O O17 0.426465 0.250000 0.679791
O O18 0.924776 0.750000 0.777009
O O19 0.000000 0.000000 0.779175
O O20 0.081315 0.750000 0.480645
O O21 0.000000 0.500000 0.476081
O O22 0.932776 0.250000 0.129769
O O23 0.000000 0.500000 0.114549
#
# Coordination Sequence:
#
# PCOD8180877 Si02
#       8
#     8   8   8   8   8   8   8   8
#     4  10  19  31  45  62  87 117 146 176 214 257
#     4   9  16  28  45  62  84 115 144 169 207 255
#     4   8  15  27  42  61  84 109 141 180 217 249
#     4   9  17  30  47  64  84 111 142 180 220 257
#     4   9  16  29  46  63  83 110 141 176 215 252
#     4   9  16  27  44  64  86 114 145 175 209 252
#     4  10  19  30  44  63  88 116 147 183 218 255
#     4  10  19  30  41  57  85 118 146 171 200 241
#
# _framework density 15.337834000000001
#
# number of rings (size 3 to 8) (size 9 to 14) (size 15 to 20)
#    0.000    2.750    1.250    1.125    0.000    2.500 
#    0.000    1.250    0.000    0.000    0.000    0.875 
#    0.000    4.000    0.000    0.000    0.000    0.000 
#
# Total GULP energy -396531.503065 kJ/mol
# GULP energy per Si atom -12391.609471 kJ/mol
# Density = 1.530292 g / cm^3
# Si number density = 15.337834 Si / 1000 Ang^3
#
#
#
# Elastic Constant Matrix: (Units=GPa)
#
#
# Indices 1 2 3 4 5 6 
#
# 1 97.6349 42.9182 46.9183 0.0000 0.0000 0.0000
# 2 42.9182 51.9702 42.1564 0.0000 0.0000 0.0000
# 3 46.9183 42.1564 106.3082 0.0000 0.0000 0.0000
# 4 0.0000 0.0000 0.0000 20.6292 0.0000 0.0000
# 5 0.0000 0.0000 0.0000 0.0000 6.9258 0.0000
# 6 0.0000 0.0000 0.0000 0.0000 0.0000 23.5234
#
#
#
# Elastic Compliance Matrix: (Units=1/GPa)
#
#
# Indices 1 2 3 4 5 6 
#
# 1 0.016622 -0.011464 -0.002790 0.000000 0.000000 0.000000
# 2 -0.011464 0.036272 -0.009324 0.000000 0.000000 0.000000
# 3 -0.002790 -0.009324 0.014336 0.000000 0.000000 0.000000
# 4 0.000000 0.000000 0.000000 0.048475 0.000000 0.000000
# 5 0.000000 0.000000 0.000000 0.000000 0.144388 0.000000
# 6 0.000000 0.000000 0.000000 0.000000 0.000000 0.042511
#
#
# Mechanical properties :
#
#
# Convention : Reuss Voigt Hill
#
# Bulk Modulus (GPa) = 49.81635 57.76656 53.79146
# Shear Modulus (GPa) = 14.02713 18.47704 16.25208
#
# Velocity S-wave (km/s) = 3.02742 3.47460 3.25869
# Velocity P-wave (km/s) = 6.69106 7.33769 7.02182
#
# Compressibility (1/GPa) = 0.02007373
#
# Stress axis : x y z
#
# Youngs Moduli (GPa) = 60.16031 27.56910 69.75638
#
# Poissons Ratio (x) = 0.31605 0.19463
# Poissons Ratio (y) = 0.68966 0.65044
# Poissons Ratio (z) = 0.16786 0.25707
#
# Static dielectric constant tensor:
#      x y z
#    x 2.870490 0.000000 0.000000 
#    y 0.000000 2.875300 0.000000 
#    z 0.000000 0.000000 3.369160 
# 
# 
# High freq. dielectric constant tensor:
#      x y z
#    x 1.564710 0.000000 0.000000 
#    y 0.000000 1.581790 0.000000 
#    z 0.000000 0.000000 1.584910 
# 
# From -- ./inp_files/17949.got.cif
#   From: 2010.03.12/outbox.cif.g09.slc.cpg/sg39_9_cif.got.tgz:17949.got - 2010.04.14 02:53:20.
