data_PCOD8180408
_publ_section_title
;
Structure prediction by ZEFSAII (Michael W. Deem and Ramdas Pophale) SiO2 
 PCOD8180408
Probable space group: A M M 2
;
_chemical_formula_sum "Si O2"
_cell_formula_units_Z 40
_cell_length_a 11.011787
_cell_length_b 19.528143
_cell_length_c 9.086180
_cell_angle_alpha 90.000000
_cell_angle_beta 90.000000
_cell_angle_gamma 90.000000
_cell_volume 1953.889887
_symmetry_space_group_name_H-M "A M M 2"
_symmetry_group_IT_number 38
_symmetry_cell_setting 'orthorhombic'
loop_
_space_group_symop_operation_xyz
x,y,z
-x,-y,z
-x,y,z
x,-y,z
x,1/2+y,1/2+z
-x,1/2-y,1/2+z
-x,1/2+y,1/2+z
x,1/2-y,1/2+z
loop_
_atom_site_type_symbol
_atom_site_label
_atom_site_fract_x
_atom_site_fract_y
_atom_site_fract_z
Si Si1 0.637454 0.803541 0.683240
Si Si2 0.000000 0.288354 0.377878
Si Si3 0.248308 0.079967 0.519775
Si Si4 0.742606 0.687409 0.495181
Si Si5 0.000000 0.655994 0.053596
Si Si6 0.361134 0.079323 0.207811
O O1 0.500000 0.781505 0.647854
O O2 0.661191 0.880938 0.630200
O O3 0.731375 0.752709 0.602474
O O4 0.657756 0.797879 0.856327
O O5 0.118210 0.323679 0.448512
O O6 0.000000 0.299058 0.202638
O O7 0.000000 0.207221 0.413867
O O8 0.286640 0.097032 0.353780
O O9 0.112955 0.105318 0.546490
O O10 0.259617 0.000000 0.555307
O O11 0.698539 0.618695 0.572769
O O12 0.500000 0.102891 0.231289
O O13 0.353504 0.000000 0.167859
#
# Coordination Sequence:
#
# PCOD8180408 Si02
#       6
#     8   4   8   8   4   8
#     4  12  24  40  66  97 131 171 218 273 329 390
#     4  12  24  44  69  95 129 170 213 276 318 388
#     4  11  24  43  67  94 131 175 219 270 325 388
#     4  12  24  43  66  98 132 172 222 271 333 385
#     4  12  25  46  65  99 130 170 223 272 331 380
#     4  10  23  44  68  97 134 174 218 270 329 395
#
# _framework density 20.471981
#
# number of rings (size 3 to 8) (size 9 to 14) (size 15 to 20)
#    0.000    0.600    4.000    3.900    2.800    2.000 
#    0.000    1.500    0.000    0.000    0.000    0.000 
#    0.000    0.000    0.000    0.000    0.000    0.000 
#
# Total GULP energy -248149.829433 kJ/mol
# GULP energy per Si atom -12407.491472 kJ/mol
# Density = 2.042539 g / cm^3
# Si number density = 20.471981 Si / 1000 Ang^3
#
#
#
# Elastic Constant Matrix: (Units=GPa)
#
#
# Indices 1 2 3 4 5 6 
#
# 1 130.9028 29.2352 34.6916 0.0000 0.0000 0.0000
# 2 29.2352 94.6926 54.1763 0.0000 0.0000 0.0000
# 3 34.6916 54.1763 119.1358 0.0000 0.0000 0.0000
# 4 0.0000 0.0000 0.0000 41.6654 0.0000 0.0000
# 5 0.0000 0.0000 0.0000 0.0000 35.6043 0.0000
# 6 0.0000 0.0000 0.0000 0.0000 0.0000 9.5832
#
#
#
# Elastic Compliance Matrix: (Units=1/GPa)
#
#
# Indices 1 2 3 4 5 6 
#
# 1 0.008459 -0.001625 -0.001724 0.000000 0.000000 0.000000
# 2 -0.001625 0.014586 -0.006160 0.000000 0.000000 0.000000
# 3 -0.001724 -0.006160 0.011697 0.000000 0.000000 0.000000
# 4 0.000000 0.000000 0.000000 0.024001 0.000000 0.000000
# 5 0.000000 0.000000 0.000000 0.000000 0.028087 0.000000
# 6 0.000000 0.000000 0.000000 0.000000 0.000000 0.104350
#
#
# Mechanical properties :
#
#
# Convention : Reuss Voigt Hill
#
# Bulk Modulus (GPa) = 63.59655 64.54860 64.07258
# Shear Modulus (GPa) = 23.20837 32.47911 27.84374
#
# Velocity S-wave (km/s) = 3.37065 3.98743 3.69194
# Velocity P-wave (km/s) = 6.80301 7.26623 7.03843
#
# Compressibility (1/GPa) = 0.01572412
#
# Stress axis : x y z
#
# Youngs Moduli (GPa) = 118.21499 68.55662 85.49186
#
# Poissons Ratio (x) = 0.11142 0.14741
# Poissons Ratio (y) = 0.19212 0.52662
# Poissons Ratio (z) = 0.20383 0.42230
#
# Static dielectric constant tensor:
#      x y z
#    x 3.897200 0.000000 0.000000 
#    y 0.000000 3.669930 0.000000 
#    z 0.000000 0.000000 3.735070 
# 
# 
# High freq. dielectric constant tensor:
#      x y z
#    x 1.818980 0.000000 0.000000 
#    y 0.000000 1.799080 0.000000 
#    z 0.000000 0.000000 1.806730 
# 
# From -- ./inp_files/4501.got.cif
#   From: 2010.03.12/outbox.cif.g09.slc.cpg/sg38_3_cif.got.tgz:4501.got - 2010.04.14 02:38:36.
