data_PCOD8180807
_publ_section_title
;
Structure prediction by ZEFSAII (Michael W. Deem and Ramdas Pophale) SiO2 
 PCOD8180807
Probable space group: A B M 2
;
_chemical_formula_sum "Si O2"
_cell_formula_units_Z 56
_cell_length_a 14.887488
_cell_length_b 20.494261
_cell_length_c 8.686510
_cell_angle_alpha 90.000000
_cell_angle_beta 90.000000
_cell_angle_gamma 90.000000
_cell_volume 2650.324255
_symmetry_space_group_name_H-M "A B M 2"
_symmetry_group_IT_number 39
_symmetry_cell_setting 'orthorhombic'
loop_
_space_group_symop_operation_xyz
x,y,z
-x,-y,z
-x,1/2+y,z
x,1/2-y,z
x,1/2+y,1/2+z
-x,1/2-y,1/2+z
-x,y,1/2+z
x,-y,1/2+z
loop_
_atom_site_type_symbol
_atom_site_label
_atom_site_fract_x
_atom_site_fract_y
_atom_site_fract_z
Si Si1 0.490120 0.250000 0.203501
Si Si2 0.560735 0.436732 0.572519
Si Si3 0.619870 0.750000 0.937902
Si Si4 0.740777 0.671475 0.583551
Si Si5 0.420599 0.870743 0.876808
Si Si6 0.919279 0.673302 0.415912
Si Si7 0.896142 0.328325 0.566144
Si Si8 0.720196 0.124592 0.422752
O O1 0.595969 0.250000 0.253446
O O2 0.438975 0.311931 0.264788
O O3 0.479994 0.250000 0.018225
O O4 0.500000 0.500000 0.540723
O O5 0.581456 0.431393 0.755358
O O6 0.498902 0.378311 0.504089
O O7 0.656960 0.436116 0.478931
O O8 0.674691 0.688519 0.995170
O O9 0.734880 0.750000 0.606387
O O10 0.673441 0.642550 0.458147
O O11 0.839453 0.650312 0.527439
O O12 0.721894 0.631519 0.739182
O O13 0.922789 0.750000 0.413396
O O14 0.903112 0.649354 0.242580
O O15 0.013601 0.648091 0.481359
O O16 0.878521 0.250000 0.545074
O O17 0.819935 0.374377 0.491395
#
# Coordination Sequence:
#
# PCOD8180807 Si02
#       8
#     4   8   4   8   8   8   8   8
#     4  12  22  36  56  87 115 148 200 256 326 372
#     4  12  27  44  59  81 116 164 215 263 312 373
#     4  12  24  34  56  85 121 152 204 252 318 374
#     4  11  22  34  57  91 126 160 205 255 323 395
#     4  12  23  39  61  83 117 157 202 260 316 378
#     4   9  19  31  49  81 127 171 204 246 311 392
#     4  10  18  32  53  82 125 169 210 254 314 386
#     4  12  22  36  59  85 120 164 209 263 316 379
#
# _framework density 21.129489
#
# number of rings (size 3 to 8) (size 9 to 14) (size 15 to 20)
#    0.000    0.857    5.000    3.000    2.000    2.286 
#    0.000    0.714    0.000    0.000    0.000    1.000 
#    0.000    6.857    0.000    0.143    0.000    0.000 
#
# Total GULP energy -346980.142982 kJ/mol
# GULP energy per Si atom -12392.147964 kJ/mol
# Density = 2.108140 g / cm^3
# Si number density = 21.129489 Si / 1000 Ang^3
#
#
#
# Elastic Constant Matrix: (Units=GPa)
#
#
# Indices 1 2 3 4 5 6 
#
# 1 165.5305 28.9992 59.1213 0.0000 0.0000 0.0000
# 2 28.9992 41.8842 23.8439 0.0000 0.0000 0.0000
# 3 59.1213 23.8439 127.8258 0.0000 0.0000 0.0000
# 4 0.0000 0.0000 0.0000 20.6664 0.0000 0.0000
# 5 0.0000 0.0000 0.0000 0.0000 47.8445 0.0000
# 6 0.0000 0.0000 0.0000 0.0000 0.0000 -2.7246
#
#
#
# Elastic Compliance Matrix: (Units=1/GPa)
#
#
# Indices 1 2 3 4 5 6 
#
# 1 0.007718 -0.003705 -0.002879 0.000000 0.000000 0.000000
# 2 -0.003705 0.028491 -0.003601 0.000000 0.000000 0.000000
# 3 -0.002879 -0.003601 0.009826 0.000000 0.000000 0.000000
# 4 0.000000 0.000000 0.000000 0.048388 0.000000 0.000000
# 5 0.000000 0.000000 0.000000 0.000000 0.020901 0.000000
# 6 0.000000 0.000000 0.000000 0.000000 0.000000 -0.367027
#
#
# Mechanical properties :
#
#
# Convention : Reuss Voigt Hill
#
# Bulk Modulus (GPa) = 38.96220 62.12992 50.54606
# Shear Modulus (GPa) = -22.44383 28.04234 2.79925
#
# Velocity S-wave (km/s) = -3.26268 3.64698 1.15225
# Velocity P-wave (km/s) = 2.07033 6.87038 5.07388
#
# Compressibility (1/GPa) = 0.02566590
#
# Stress axis : x y z
#
# Youngs Moduli (GPa) = 129.55913 35.09933 101.76792
#
# Poissons Ratio (x) = 0.13005 0.29297
# Poissons Ratio (y) = 0.48004 0.36644
# Poissons Ratio (z) = 0.37297 0.12638
#
# Static dielectric constant tensor:
#      x y z
#    x 4.152040 0.000000 0.000000 
#    y 0.000000 3.302450 0.000000 
#    z 0.000000 0.000000 4.150940 
# 
# 
# High freq. dielectric constant tensor:
#      x y z
#    x 1.836420 0.000000 0.000000 
#    y 0.000000 1.766370 0.000000 
#    z 0.000000 0.000000 1.853990 
# 
# From -- ./inp_files/3450.got.cif
#   From: 2010.03.12/outbox.cif.g09.slc.cpg/sg39_2_cif.got.tgz:3450.got - 2010.04.14 02:53:20.
