data_PCOD8180841
_publ_section_title
;
Structure prediction by ZEFSAII (Michael W. Deem and Ramdas Pophale) SiO2 
 PCOD8180841
Probable space group: A B M 2
;
_chemical_formula_sum "Si O2"
_cell_formula_units_Z 64
_cell_length_a 19.237991
_cell_length_b 9.019469
_cell_length_c 20.488509
_cell_angle_alpha 90.000000
_cell_angle_beta 90.000000
_cell_angle_gamma 90.000000
_cell_volume 3555.093623
_symmetry_space_group_name_H-M "A B M 2"
_symmetry_group_IT_number 39
_symmetry_cell_setting 'orthorhombic'
loop_
_space_group_symop_operation_xyz
x,y,z
-x,-y,z
-x,1/2+y,z
x,1/2-y,z
x,1/2+y,1/2+z
-x,1/2-y,1/2+z
-x,y,1/2+z
x,-y,1/2+z
loop_
_atom_site_type_symbol
_atom_site_label
_atom_site_fract_x
_atom_site_fract_y
_atom_site_fract_z
Si Si1 0.205197 0.424225 0.661790
Si Si2 0.213728 0.075085 0.406451
Si Si3 0.571175 0.073978 0.572558
Si Si4 0.432754 0.579628 0.721373
Si Si5 0.286316 0.077300 0.275353
Si Si6 0.708732 0.074644 0.034251
Si Si7 0.070284 0.423355 0.352113
Si Si8 0.929335 0.576380 0.200482
O O1 0.191444 0.250000 0.664833
O O2 0.245008 0.475111 0.725927
O O3 0.250228 0.469584 0.599263
O O4 0.131873 0.507723 0.657028
O O5 0.207294 0.250000 0.409955
O O6 0.265378 0.029906 0.348020
O O7 0.245289 0.014206 0.473767
O O8 0.135919 0.012758 0.393020
O O9 0.567547 0.250000 0.563253
O O10 0.583309 0.025588 0.647783
O O11 0.500000 0.000000 0.546600
O O12 0.635093 0.008528 0.531422
O O13 0.500000 0.500000 0.751248
O O14 0.451858 0.750000 0.719470
O O15 0.367990 0.545396 0.767973
O O16 0.268562 0.250000 0.260726
O O17 0.695339 0.250000 0.029565
O O18 0.060424 0.250000 0.362885
O O19 0.084995 0.459362 0.276397
O O20 0.000000 0.500000 0.377292
O O21 0.934414 0.750000 0.187167
O O22 0.000000 0.500000 0.176992
#
# Coordination Sequence:
#
# PCOD8180841 Si02
#       8
#     8   8   8   8   8   8   8   8
#     4  11  21  32  51  80 110 139 174 218 266 315
#     4   9  18  35  56  76 104 143 181 216 263 317
#     4  10  19  33  54  79 107 138 178 221 266 319
#     4   9  18  30  50  77 104 133 170 217 265 313
#     4  10  18  34  56  77 101 138 180 219 265 314
#     4  10  21  36  54  78 109 145 182 219 263 319
#     4   9  17  31  53  77 101 133 172 216 260 310
#     4  10  19  33  54  80 108 139 178 222 269 317
#
# _framework density 18.00234
#
# number of rings (size 3 to 8) (size 9 to 14) (size 15 to 20)
#    0.000    2.250    2.500    1.125    0.000    2.000 
#    0.000    2.500    0.000    3.000    0.000    0.000 
#    0.000    0.000    0.000    0.000    0.000    0.000 
#
# Total GULP energy -396830.830220 kJ/mol
# GULP energy per Si atom -12400.963444 kJ/mol
# Density = 1.796137 g / cm^3
# Si number density = 18.002340 Si / 1000 Ang^3
#
#
#
# Elastic Constant Matrix: (Units=GPa)
#
#
# Indices 1 2 3 4 5 6 
#
# 1 164.2060 52.3151 51.0925 0.0000 0.0000 0.0000
# 2 52.3151 54.5204 21.2011 0.0000 0.0000 0.0000
# 3 51.0925 21.2011 63.9483 0.0000 0.0000 0.0000
# 4 0.0000 0.0000 0.0000 16.0959 0.0000 0.0000
# 5 0.0000 0.0000 0.0000 0.0000 25.2332 0.0000
# 6 0.0000 0.0000 0.0000 0.0000 0.0000 37.6736
#
#
#
# Elastic Compliance Matrix: (Units=1/GPa)
#
#
# Indices 1 2 3 4 5 6 
#
# 1 0.010306 -0.007677 -0.005689 0.000000 0.000000 0.000000
# 2 -0.007677 0.026775 -0.002743 0.000000 0.000000 0.000000
# 3 -0.005689 -0.002743 0.021092 0.000000 0.000000 0.000000
# 4 0.000000 0.000000 0.000000 0.062128 0.000000 0.000000
# 5 0.000000 0.000000 0.000000 0.000000 0.039630 0.000000
# 6 0.000000 0.000000 0.000000 0.000000 0.000000 0.026544
#
#
# Mechanical properties :
#
#
# Convention : Reuss Voigt Hill
#
# Bulk Modulus (GPa) = 38.52811 59.09910 48.81360
# Shear Modulus (GPa) = 21.99308 26.33826 24.16567
#
# Velocity S-wave (km/s) = 3.49904 3.82913 3.66780
# Velocity P-wave (km/s) = 6.14594 7.24220 6.71647
#
# Compressibility (1/GPa) = 0.02595507
#
# Stress axis : x y z
#
# Youngs Moduli (GPa) = 97.03332 37.34862 47.41057
#
# Poissons Ratio (x) = 0.28671 0.26971
# Poissons Ratio (y) = 0.74490 0.13006
# Poissons Ratio (z) = 0.55201 0.10246
#
# Static dielectric constant tensor:
#      x y z
#    x 3.606670 0.000000 0.000000 
#    y 0.000000 3.183540 0.000000 
#    z 0.000000 0.000000 3.220100 
# 
# 
# High freq. dielectric constant tensor:
#      x y z
#    x 1.714850 0.000000 0.000000 
#    y 0.000000 1.686050 0.000000 
#    z 0.000000 0.000000 1.666000 
# 
# From -- ./inp_files/13099.got.cif
#   From: 2010.03.12/outbox.cif.g09.slc.cpg/sg39_7_cif.got.tgz:13099.got - 2010.04.14 02:53:20.
