data_PCOD8180105
_publ_section_title
;
Structure prediction by ZEFSAII (Michael W. Deem and Ramdas Pophale) SiO2 
 PCOD8180105
Probable space group: A M M 2
;
_chemical_formula_sum "Si O2"
_cell_formula_units_Z 64
_cell_length_a 21.283143
_cell_length_b 15.837815
_cell_length_c 9.720963
_cell_angle_alpha 90.000000
_cell_angle_beta 90.000000
_cell_angle_gamma 90.000000
_cell_volume 3276.727446
_symmetry_space_group_name_H-M "A M M 2"
_symmetry_group_IT_number 38
_symmetry_cell_setting 'orthorhombic'
loop_
_space_group_symop_operation_xyz
x,y,z
-x,-y,z
-x,y,z
x,-y,z
x,1/2+y,1/2+z
-x,1/2-y,1/2+z
-x,1/2+y,1/2+z
x,1/2-y,1/2+z
loop_
_atom_site_type_symbol
_atom_site_label
_atom_site_fract_x
_atom_site_fract_y
_atom_site_fract_z
Si Si1 0.169814 0.902697 0.771700
Si Si2 0.427068 0.597201 0.333519
Si Si3 0.068140 0.404948 0.776401
Si Si4 0.649026 0.756713 0.431705
Si Si5 0.266711 0.766489 0.683279
Si Si6 0.426989 0.093350 0.512414
Si Si7 0.072744 0.163062 0.563590
Si Si8 0.152651 0.822610 0.058560
O O1 0.229420 0.853680 0.708768
O O2 0.105289 0.874839 0.698672
O O3 0.183951 0.000000 0.746231
O O4 0.159959 0.887185 0.933490
O O5 0.500000 0.612094 0.371063
O O6 0.408228 0.500000 0.372217
O O7 0.384924 0.665328 0.417061
O O8 0.415149 0.613234 0.172895
O O9 0.067200 0.500000 0.725641
O O10 0.122080 0.359390 0.694712
O O11 0.000000 0.362695 0.744735
O O12 0.080201 0.402972 0.939632
O O13 0.673397 0.774319 0.585441
O O14 0.707886 0.766554 0.329230
O O15 0.601711 0.835398 0.411400
O O16 0.221676 0.700202 0.609545
O O17 0.500000 0.093127 0.480693
O O18 0.399303 0.000000 0.477408
O O19 0.109298 0.245560 0.509169
O O20 0.000000 0.182331 0.598538
#
# Coordination Sequence:
#
# PCOD8180105 Si02
#       8
#     8   8   8   8   8   8   8   8
#     4  11  24  41  61  85 118 156 202 256 300 352
#     4   9  19  37  63  94 124 159 201 244 301 366
#     4  10  21  37  58  85 114 144 183 235 295 351
#     4  12  21  41  63  89 123 162 205 251 298 362
#     4  11  25  40  59  85 119 159 205 244 296 356
#     4   9  19  37  63  94 125 159 201 247 301 364
#     4  10  21  38  61  87 116 151 191 236 296 368
#     4  11  22  40  59  83 114 152 196 244 297 349
#
# _framework density 19.531683000000001
#
# number of rings (size 3 to 8) (size 9 to 14) (size 15 to 20)
#    0.000    1.625    2.500    3.750    1.750    3.750 
#    0.000    1.875    0.000    1.500    0.000    0.000 
#    0.000    0.000    0.000    0.000    0.000    0.000 
#
# Total GULP energy -396699.693693 kJ/mol
# GULP energy per Si atom -12396.865428 kJ/mol
# Density = 1.948723 g / cm^3
# Si number density = 19.531683 Si / 1000 Ang^3
#
#
#
# Elastic Constant Matrix: (Units=GPa)
#
#
# Indices 1 2 3 4 5 6 
#
# 1 96.6148 48.1564 33.6079 0.0000 0.0000 0.0000
# 2 48.1564 107.1627 29.3769 0.0000 0.0000 0.0000
# 3 33.6079 29.3769 67.7325 0.0000 0.0000 0.0000
# 4 0.0000 0.0000 0.0000 24.5475 0.0000 0.0000
# 5 0.0000 0.0000 0.0000 0.0000 34.6516 0.0000
# 6 0.0000 0.0000 0.0000 0.0000 0.0000 19.7611
#
#
#
# Elastic Compliance Matrix: (Units=1/GPa)
#
#
# Indices 1 2 3 4 5 6 
#
# 1 0.014707 -0.005230 -0.005029 0.000000 0.000000 0.000000
# 2 -0.005230 0.012451 -0.002805 0.000000 0.000000 0.000000
# 3 -0.005029 -0.002805 0.018476 0.000000 0.000000 0.000000
# 4 0.000000 0.000000 0.000000 0.040737 0.000000 0.000000
# 5 0.000000 0.000000 0.000000 0.000000 0.028859 0.000000
# 6 0.000000 0.000000 0.000000 0.000000 0.000000 0.050604
#
#
# Mechanical properties :
#
#
# Convention : Reuss Voigt Hill
#
# Bulk Modulus (GPa) = 51.26836 54.86585 53.06710
# Shear Modulus (GPa) = 25.19354 26.48329 25.83841
#
# Velocity S-wave (km/s) = 3.59539 3.68627 3.64111
# Velocity P-wave (km/s) = 6.59860 6.80219 6.70117
#
# Compressibility (1/GPa) = 0.01950521
#
# Stress axis : x y z
#
# Youngs Moduli (GPa) = 67.99663 80.31542 54.12500
#
# Poissons Ratio (x) = 0.42007 0.27218
# Poissons Ratio (y) = 0.35564 0.15182
# Poissons Ratio (z) = 0.34194 0.22529
#
# Static dielectric constant tensor:
#      x y z
#    x 3.124380 0.000000 0.000000 
#    y 0.000000 3.663480 0.000000 
#    z 0.000000 0.000000 3.402650 
# 
# 
# High freq. dielectric constant tensor:
#      x y z
#    x 1.769280 0.000000 0.000000 
#    y 0.000000 1.759250 0.000000 
#    z 0.000000 0.000000 1.752150 
# 
# From -- ./inp_files/6821.got.cif
#   From: 2010.03.12/outbox.cif.g09.slc.cpg/sg38_4_cif.got.tgz:6821.got - 2010.04.14 02:38:36.
