data_PCOD8180446
_publ_section_title
;
Structure prediction by ZEFSAII (Michael W. Deem and Ramdas Pophale) SiO2 
 PCOD8180446
Probable space group: A M M 2
;
_chemical_formula_sum "Si O2"
_cell_formula_units_Z 40
_cell_length_a 8.977228
_cell_length_b 18.816651
_cell_length_c 13.351208
_cell_angle_alpha 90.000000
_cell_angle_beta 90.000000
_cell_angle_gamma 90.000000
_cell_volume 2255.304296
_symmetry_space_group_name_H-M "A M M 2"
_symmetry_group_IT_number 38
_symmetry_cell_setting 'orthorhombic'
loop_
_space_group_symop_operation_xyz
x,y,z
-x,-y,z
-x,y,z
x,-y,z
x,1/2+y,1/2+z
-x,1/2-y,1/2+z
-x,1/2+y,1/2+z
x,1/2-y,1/2+z
loop_
_atom_site_type_symbol
_atom_site_label
_atom_site_fract_x
_atom_site_fract_y
_atom_site_fract_z
Si Si1 0.824493 0.281719 0.875000
Si Si2 0.323057 0.000000 0.870371
Si Si3 0.329495 0.283573 0.077813
Si Si4 0.674020 0.147722 0.783805
Si Si5 0.674117 0.856400 0.197781
Si Si6 0.322913 0.500000 0.595405
O O1 0.760056 0.204178 0.851484
O O2 0.761867 0.340949 0.799624
O O3 0.000000 0.279685 0.865515
O O4 0.778004 0.303633 0.986896
O O5 0.266186 0.069612 0.811685
O O6 0.500000 0.000000 0.873252
O O7 0.257669 0.000000 0.982903
O O8 0.500000 0.289159 0.041855
O O9 0.296130 0.339401 0.166528
O O10 0.294146 0.204267 0.116004
O O11 0.500000 0.157210 0.808998
O O12 0.500000 0.859227 0.224273
O O13 0.734214 0.930411 0.153470
O O14 0.500000 0.500000 0.589971
#
# Coordination Sequence:
#
# PCOD8180446 Si02
#       6
#     8   4   8   8   8   4
#     4  11  21  32  49  72 101 136 169 203 242 286
#     4   9  16  30  54  81 102 120 153 203 256 299
#     4   9  17  31  51  73  99 131 166 204 244 288
#     4   9  18  33  54  77 100 127 162 205 248 294
#     4   9  18  33  53  76 100 127 163 205 247 293
#     4   9  16  28  52  81 102 122 153 201 254 297
#
# _framework density 17.735966999999999
#
# number of rings (size 3 to 8) (size 9 to 14) (size 15 to 20)
#    0.000    2.600    0.000    4.200    0.000    6.400 
#    0.000    2.000    0.000    4.800    0.000    0.000 
#    0.000    0.000    0.000    0.000    0.000    0.000 
#
# Total GULP energy -248027.881797 kJ/mol
# GULP energy per Si atom -12401.394090 kJ/mol
# Density = 1.769560 g / cm^3
# Si number density = 17.735967 Si / 1000 Ang^3
#
#
#
# Elastic Constant Matrix: (Units=GPa)
#
#
# Indices 1 2 3 4 5 6 
#
# 1 67.3136 33.0322 53.2506 0.0000 0.0000 0.0000
# 2 33.0322 152.4648 79.8790 0.0000 0.0000 0.0000
# 3 53.2506 79.8790 140.0143 0.0000 0.0000 0.0000
# 4 0.0000 0.0000 0.0000 22.1825 0.0000 0.0000
# 5 0.0000 0.0000 0.0000 0.0000 7.2087 0.0000
# 6 0.0000 0.0000 0.0000 0.0000 0.0000 9.0003
#
#
#
# Elastic Compliance Matrix: (Units=1/GPa)
#
#
# Indices 1 2 3 4 5 6 
#
# 1 0.021279 -0.000528 -0.007792 0.000000 0.000000 0.000000
# 2 -0.000528 0.009368 -0.005144 0.000000 0.000000 0.000000
# 3 -0.007792 -0.005144 0.013040 0.000000 0.000000 0.000000
# 4 0.000000 0.000000 0.000000 0.045081 0.000000 0.000000
# 5 0.000000 0.000000 0.000000 0.000000 0.138721 0.000000
# 6 0.000000 0.000000 0.000000 0.000000 0.000000 0.111108
#
#
# Mechanical properties :
#
#
# Convention : Reuss Voigt Hill
#
# Bulk Modulus (GPa) = 59.66515 76.90182 68.28348
# Shear Modulus (GPa) = 13.47313 20.58704 17.03008
#
# Velocity S-wave (km/s) = 2.75917 3.41068 3.10207
# Velocity P-wave (km/s) = 6.62302 7.67878 7.17036
#
# Compressibility (1/GPa) = 0.01676020
#
# Stress axis : x y z
#
# Youngs Moduli (GPa) = 46.99539 106.74393 76.68716
#
# Poissons Ratio (x) = 0.05636 0.59751
# Poissons Ratio (y) = 0.02481 0.39446
# Poissons Ratio (z) = 0.36617 0.54907
#
# Static dielectric constant tensor:
#      x y z
#    x 2.955240 0.000000 0.000000 
#    y 0.000000 3.416740 0.000000 
#    z 0.000000 0.000000 3.318250 
# 
# 
# High freq. dielectric constant tensor:
#      x y z
#    x 1.654090 0.000000 0.000000 
#    y 0.000000 1.679140 0.000000 
#    z 0.000000 0.000000 1.693240 
# 
# From -- ./inp_files/7962.got.cif
#   From: 2010.03.12/outbox.cif.g09.slc.cpg/sg38_4_cif.got.tgz:7962.got - 2010.04.14 02:38:36.
