data_PCOD8180380
_publ_section_title
;
Structure prediction by ZEFSAII (Michael W. Deem and Ramdas Pophale) SiO2 
 PCOD8180380
Probable space group: A M M 2
;
_chemical_formula_sum "Si O2"
_cell_formula_units_Z 56
_cell_length_a 13.343986
_cell_length_b 19.799396
_cell_length_c 9.549622
_cell_angle_alpha 90.000000
_cell_angle_beta 90.000000
_cell_angle_gamma 90.000000
_cell_volume 2523.037473
_symmetry_space_group_name_H-M "A M M 2"
_symmetry_group_IT_number 38
_symmetry_cell_setting 'orthorhombic'
loop_
_space_group_symop_operation_xyz
x,y,z
-x,-y,z
-x,y,z
x,-y,z
x,1/2+y,1/2+z
-x,1/2-y,1/2+z
-x,1/2+y,1/2+z
x,1/2-y,1/2+z
loop_
_atom_site_type_symbol
_atom_site_label
_atom_site_fract_x
_atom_site_fract_y
_atom_site_fract_z
Si Si1 0.119002 0.180981 0.684050
Si Si2 0.309446 0.924064 0.028462
Si Si3 0.112378 0.423821 0.676818
Si Si4 0.383837 0.694717 0.713055
Si Si5 0.619290 0.182290 0.526487
Si Si6 0.881762 0.196438 0.372308
Si Si7 0.280266 0.921763 0.716371
O O1 0.161228 0.198738 0.529050
O O2 0.159340 0.240816 0.782822
O O3 0.169831 0.110853 0.727969
O O4 0.000000 0.171460 0.688258
O O5 0.189091 0.915184 0.048335
O O6 0.370343 0.874206 0.127594
O O7 0.341397 0.000000 0.071109
O O8 0.335221 0.911122 0.866007
O O9 0.114482 0.500000 0.737085
O O10 0.148104 0.374224 0.800102
O O11 0.000000 0.404875 0.623592
O O12 0.500000 0.708094 0.735940
O O13 0.339045 0.757140 0.624451
O O14 0.333644 0.689942 0.868724
O O15 0.500000 0.182986 0.515818
O O16 0.653030 0.111938 0.595285
O O17 0.000000 0.203191 0.381027
O O18 0.267261 0.000000 0.679756
#
# Coordination Sequence:
#
# PCOD8180380 Si02
#       7
#     8   8   8   8   8   8   8
#     4  10  23  40  60  89 123 162 207 258 308 363
#     4  10  23  40  60  91 127 165 209 254 303 361
#     4   9  19  36  59  87 121 162 207 252 298 354
#     4  10  22  42  69  98 124 157 200 247 311 376
#     4  10  23  43  68  95 123 157 199 253 311 371
#     4   9  20  37  58  84 114 156 206 251 303 357
#     4  11  26  42  60  90 124 167 213 253 310 366
#
# _framework density 22.195468999999999
#
# number of rings (size 3 to 8) (size 9 to 14) (size 15 to 20)
#    0.000    2.143    0.000    0.857    6.000    4.286 
#    0.000    5.714    0.000    0.000    0.000    0.000 
#    0.000    0.000    0.000    0.000    0.000    0.000 
#
# Total GULP energy -347240.511033 kJ/mol
# GULP energy per Si atom -12401.446823 kJ/mol
# Density = 2.214495 g / cm^3
# Si number density = 22.195469 Si / 1000 Ang^3
#
#
#
# Elastic Constant Matrix: (Units=GPa)
#
#
# Indices 1 2 3 4 5 6 
#
# 1 20.5933 23.6372 21.0876 0.0000 0.0000 0.0000
# 2 23.6372 166.2260 86.6814 0.0000 0.0000 0.0000
# 3 21.0876 86.6814 158.9157 0.0000 0.0000 0.0000
# 4 0.0000 0.0000 0.0000 39.1089 0.0000 0.0000
# 5 0.0000 0.0000 0.0000 0.0000 32.9877 0.0000
# 6 0.0000 0.0000 0.0000 0.0000 0.0000 36.1329
#
#
#
# Elastic Compliance Matrix: (Units=1/GPa)
#
#
# Indices 1 2 3 4 5 6 
#
# 1 0.060397 -0.006162 -0.004654 0.000000 0.000000 0.000000
# 2 -0.006162 0.009036 -0.004111 0.000000 0.000000 0.000000
# 3 -0.004654 -0.004111 0.009153 0.000000 0.000000 0.000000
# 4 0.000000 0.000000 0.000000 0.025570 0.000000 0.000000
# 5 0.000000 0.000000 0.000000 0.000000 0.030314 0.000000
# 6 0.000000 0.000000 0.000000 0.000000 0.000000 0.027676
#
#
# Mechanical properties :
#
#
# Convention : Reuss Voigt Hill
#
# Bulk Modulus (GPa) = 20.52003 67.61638 44.06820
# Shear Modulus (GPa) = 24.01054 35.93449 29.97251
#
# Velocity S-wave (km/s) = 3.29261 4.02805 3.67875
# Velocity P-wave (km/s) = 4.87034 7.22245 6.15971
#
# Compressibility (1/GPa) = 0.04873288
#
# Stress axis : x y z
#
# Youngs Moduli (GPa) = 16.55709 110.67011 109.25943
#
# Poissons Ratio (x) = 0.68192 0.50844
# Poissons Ratio (y) = 0.10202 0.44917
# Poissons Ratio (z) = 0.07705 0.45497
#
# Static dielectric constant tensor:
#      x y z
#    x 3.877530 0.000000 0.000000 
#    y 0.000000 3.972430 0.000000 
#    z 0.000000 0.000000 4.251730 
# 
# 
# High freq. dielectric constant tensor:
#      x y z
#    x 1.881950 0.000000 0.000000 
#    y 0.000000 1.873000 0.000000 
#    z 0.000000 0.000000 1.876860 
# 
# From -- ./inp_files/5679.got.cif
#   From: 2010.03.12/outbox.cif.g09.slc.cpg/sg38_3_cif.got.tgz:5679.got - 2010.04.14 02:38:36.
