data_PCOD8180519
_publ_section_title
;
Structure prediction by ZEFSAII (Michael W. Deem and Ramdas Pophale) SiO2 
 PCOD8180519
Probable space group: A M M 2
;
_chemical_formula_sum "Si O2"
_cell_formula_units_Z 56
_cell_length_a 9.667234
_cell_length_b 13.882042
_cell_length_c 28.928656
_cell_angle_alpha 90.000000
_cell_angle_beta 90.000000
_cell_angle_gamma 90.000000
_cell_volume 3882.253071
_symmetry_space_group_name_H-M "A M M 2"
_symmetry_group_IT_number 38
_symmetry_cell_setting 'orthorhombic'
loop_
_space_group_symop_operation_xyz
x,y,z
-x,-y,z
-x,y,z
x,-y,z
x,1/2+y,1/2+z
-x,1/2-y,1/2+z
-x,1/2+y,1/2+z
x,1/2-y,1/2+z
loop_
_atom_site_type_symbol
_atom_site_label
_atom_site_fract_x
_atom_site_fract_y
_atom_site_fract_z
Si Si1 0.338130 0.611126 0.127750
Si Si2 0.347310 0.885682 0.731298
Si Si3 0.835187 0.707682 0.407501
Si Si4 0.836014 0.893992 0.456365
Si Si5 0.163847 0.605938 0.498422
Si Si6 0.162731 0.292637 0.050194
Si Si7 0.160711 0.887165 0.814269
O O1 0.500000 0.624957 0.117237
O O2 0.295407 0.500000 0.120550
O O3 0.302894 0.646067 0.179810
O O4 0.248124 0.678033 0.094875
O O5 0.500000 0.844948 0.743019
O O6 0.239482 0.846911 0.769191
O O7 0.351874 0.000000 0.732289
O O8 0.784203 0.817329 0.417777
O O9 0.777822 0.639596 0.448544
O O10 0.778752 0.670337 0.358425
O O11 0.000000 0.702850 0.407178
O O12 0.791993 0.860153 0.507480
O O13 0.000000 0.898262 0.454525
O O14 0.772347 0.000000 0.446312
O O15 0.224165 0.500000 0.510561
O O16 0.204094 0.682358 0.538088
O O17 0.000000 0.602139 0.494483
O O18 0.000000 0.302814 0.060577
O O19 0.000000 0.865775 0.806381
O O20 0.187650 0.000000 0.822590
#
# Coordination Sequence:
#
# PCOD8180519 Si02
#       7
#     8   8   8   8   8   8   8
#     4   9  17  28  40  54  75 103 129 152 185 231
#     4   8  15  27  39  51  71  99 125 146 177 226
#     4   8  13  20  32  52  76 101 126 149 178 218
#     4   8  13  21  33  52  78 102 123 150 182 215
#     4   8  13  22  36  55  80 106 128 151 183 224
#     4   9  16  24  38  60  79  98 128 161 188 215
#     4   9  15  22  35  56  77  94 117 152 186 212
#
# _framework density 14.424613000000001
#
# number of rings (size 3 to 8) (size 9 to 14) (size 15 to 20)
#    0.000    3.571    0.000    3.429    0.000    3.143 
#    0.000    1.429    0.000    3.857    0.000    1.000 
#    0.000    5.714    0.000    0.000    0.000    0.000 
#
# Total GULP energy -346947.276752 kJ/mol
# GULP energy per Si atom -12390.974170 kJ/mol
# Density = 1.439178 g / cm^3
# Si number density = 14.424613 Si / 1000 Ang^3
#
#
#
# Elastic Constant Matrix: (Units=GPa)
#
#
# Indices 1 2 3 4 5 6 
#
# 1 34.1613 26.0190 47.3801 0.0000 0.0000 0.0000
# 2 26.0190 100.0897 57.9830 0.0000 0.0000 0.0000
# 3 47.3801 57.9830 127.8645 0.0000 0.0000 0.0000
# 4 0.0000 0.0000 0.0000 22.5329 0.0000 0.0000
# 5 0.0000 0.0000 0.0000 0.0000 2.1167 0.0000
# 6 0.0000 0.0000 0.0000 0.0000 0.0000 9.0776
#
#
#
# Elastic Compliance Matrix: (Units=1/GPa)
#
#
# Indices 1 2 3 4 5 6 
#
# 1 0.061252 -0.003763 -0.020990 0.000000 0.000000 0.000000
# 2 -0.003763 0.013782 -0.004855 0.000000 0.000000 0.000000
# 3 -0.020990 -0.004855 0.017801 0.000000 0.000000 0.000000
# 4 0.000000 0.000000 0.000000 0.044380 0.000000 0.000000
# 5 0.000000 0.000000 0.000000 0.000000 0.472438 0.000000
# 6 0.000000 0.000000 0.000000 0.000000 0.000000 0.110161
#
#
# Mechanical properties :
#
#
# Convention : Reuss Voigt Hill
#
# Bulk Modulus (GPa) = 29.74697 58.31995 44.03346
# Shear Modulus (GPa) = 6.32723 15.46099 10.89411
#
# Velocity S-wave (km/s) = 2.09665 3.27746 2.75115
# Velocity P-wave (km/s) = 5.15057 7.40547 6.37845
#
# Compressibility (1/GPa) = 0.03361687
#
# Stress axis : x y z
#
# Youngs Moduli (GPa) = 16.32610 72.55826 56.17786
#
# Poissons Ratio (x) = 0.27302 1.17920
# Poissons Ratio (y) = 0.06143 0.27277
# Poissons Ratio (z) = 0.34269 0.35231
#
# Static dielectric constant tensor:
#      x y z
#    x 2.503930 0.000000 0.000000 
#    y 0.000000 3.023560 0.000000 
#    z 0.000000 0.000000 2.899110 
# 
# 
# High freq. dielectric constant tensor:
#      x y z
#    x 1.511710 0.000000 0.000000 
#    y 0.000000 1.531430 0.000000 
#    z 0.000000 0.000000 1.547640 
# 
# From -- ./inp_files/24622.got.cif
#   From: 2010.03.12/outbox.cif.g09.slc.cpg/sg38_13_cif.got.tgz:24622.got - 2010.04.14 02:38:36.
