data_PCOD8180294
_publ_section_title
;
Structure prediction by ZEFSAII (Michael W. Deem and Ramdas Pophale) SiO2 
 PCOD8180294
Probable space group: A M M 2
;
_chemical_formula_sum "Si O2"
_cell_formula_units_Z 64
_cell_length_a 8.917730
_cell_length_b 28.758520
_cell_length_c 12.702509
_cell_angle_alpha 90.000000
_cell_angle_beta 90.000000
_cell_angle_gamma 90.000000
_cell_volume 3257.694560
_symmetry_space_group_name_H-M "A M M 2"
_symmetry_group_IT_number 38
_symmetry_cell_setting 'orthorhombic'
loop_
_space_group_symop_operation_xyz
x,y,z
-x,-y,z
-x,y,z
x,-y,z
x,1/2+y,1/2+z
-x,1/2-y,1/2+z
-x,1/2+y,1/2+z
x,1/2-y,1/2+z
loop_
_atom_site_type_symbol
_atom_site_label
_atom_site_fract_x
_atom_site_fract_y
_atom_site_fract_z
Si Si1 0.676660 0.378794 0.674240
Si Si2 0.175567 0.945914 0.011350
Si Si3 0.176913 0.614683 0.120249
Si Si4 0.326044 0.252956 0.888013
Si Si5 0.834565 0.785357 0.701829
Si Si6 0.676410 0.641516 0.910959
Si Si7 0.165769 0.297620 0.557255
Si Si8 0.672530 0.554947 0.295919
O O1 0.500000 0.381554 0.655480
O O2 0.755608 0.420664 0.612645
O O3 0.715878 0.381743 0.798261
O O4 0.735296 0.329764 0.631809
O O5 0.000000 0.935712 0.004809
O O6 0.211448 0.000000 0.025967
O O7 0.249096 0.926820 0.903214
O O8 0.222063 0.663702 0.171533
O O9 0.248909 0.575086 0.192364
O O10 0.000000 0.607201 0.114883
O O11 0.240944 0.612086 0.001576
O O12 0.500000 0.250291 0.912698
O O13 0.291569 0.241190 0.767835
O O14 0.267019 0.304922 0.913119
O O15 0.244598 0.209944 0.945735
O O16 0.847304 0.754916 0.597555
O O17 0.000000 0.787285 0.756730
O O18 0.500000 0.639471 0.931639
O O19 0.000000 0.320021 0.543988
O O20 0.500000 0.570666 0.299000
O O21 0.689975 0.500000 0.288183
#
# Coordination Sequence:
#
# PCOD8180294 Si02
#       8
#     8   8   8   8   8   8   8   8
#     4  11  23  40  61  89 120 156 203 246 296 354
#     4  10  22  42  67  94 122 152 190 240 299 357
#     4  11  23  39  61  89 119 156 202 247 297 353
#     4  11  22  36  55  79 113 156 201 248 293 342
#     4  10  22  37  54  80 115 156 198 241 291 347
#     4  10  22  39  58  83 119 160 202 247 295 349
#     4  11  22  37  56  81 117 157 199 244 292 346
#     4  10  22  42  67  93 121 154 192 239 298 357
#
# _framework density 19.645793999999999
#
# number of rings (size 3 to 8) (size 9 to 14) (size 15 to 20)
#    0.000    1.500    2.500    2.250    1.750    4.500 
#    0.000    0.625    0.000    0.750    0.000    0.000 
#    0.000    0.000    0.000    0.000    0.000    0.000 
#
# Total GULP energy -396787.523161 kJ/mol
# GULP energy per Si atom -12399.610099 kJ/mol
# Density = 1.960108 g / cm^3
# Si number density = 19.645794 Si / 1000 Ang^3
#
#
#
# Elastic Constant Matrix: (Units=GPa)
#
#
# Indices 1 2 3 4 5 6 
#
# 1 103.8747 42.3010 70.8548 0.0000 0.0000 0.0000
# 2 42.3010 61.4461 47.3270 0.0000 0.0000 0.0000
# 3 70.8548 47.3270 136.2273 0.0000 0.0000 0.0000
# 4 0.0000 0.0000 0.0000 36.6183 0.0000 0.0000
# 5 0.0000 0.0000 0.0000 0.0000 37.5227 0.0000
# 6 0.0000 0.0000 0.0000 0.0000 0.0000 31.4929
#
#
#
# Elastic Compliance Matrix: (Units=1/GPa)
#
#
# Indices 1 2 3 4 5 6 
#
# 1 0.016647 -0.006542 -0.006386 0.000000 0.000000 0.000000
# 2 -0.006542 0.024791 -0.005210 0.000000 0.000000 0.000000
# 3 -0.006386 -0.005210 0.012472 0.000000 0.000000 0.000000
# 4 0.000000 0.000000 0.000000 0.027309 0.000000 0.000000
# 5 0.000000 0.000000 0.000000 0.000000 0.026651 0.000000
# 6 0.000000 0.000000 0.000000 0.000000 0.000000 0.031753
#
#
# Mechanical properties :
#
#
# Convention : Reuss Voigt Hill
#
# Bulk Modulus (GPa) = 56.70656 69.16817 62.93737
# Shear Modulus (GPa) = 27.50648 30.53113 29.01881
#
# Velocity S-wave (km/s) = 3.74588 3.94646 3.84748
# Velocity P-wave (km/s) = 6.90188 7.48666 7.20021
#
# Compressibility (1/GPa) = 0.01763464
#
# Stress axis : x y z
#
# Youngs Moduli (GPa) = 60.07182 40.33751 80.17903
#
# Poissons Ratio (x) = 0.26387 0.51200
# Poissons Ratio (y) = 0.39297 0.41775
# Poissons Ratio (z) = 0.38360 0.21017
#
# Static dielectric constant tensor:
#      x y z
#    x 3.670330 0.000000 0.000000 
#    y 0.000000 3.410690 0.000000 
#    z 0.000000 0.000000 3.587850 
# 
# 
# High freq. dielectric constant tensor:
#      x y z
#    x 1.775720 0.000000 0.000000 
#    y 0.000000 1.750730 0.000000 
#    z 0.000000 0.000000 1.770900 
# 
# From -- ./inp_files/8646.got.cif
#   From: 2010.03.12/outbox.cif.g09.slc.cpg/sg38_5_cif.got.tgz:8646.got - 2010.04.14 02:38:36.
