data_PCOD8180034
_publ_section_title
;
Structure prediction by ZEFSAII (Michael W. Deem and Ramdas Pophale) SiO2 
 PCOD8180034
Probable space group: A M M 2
;
_chemical_formula_sum "Si O2"
_cell_formula_units_Z 48
_cell_length_a 15.529422
_cell_length_b 17.792914
_cell_length_c 8.916820
_cell_angle_alpha 90.000000
_cell_angle_beta 90.000000
_cell_angle_gamma 90.000000
_cell_volume 2463.839260
_symmetry_space_group_name_H-M "A M M 2"
_symmetry_group_IT_number 38
_symmetry_cell_setting 'orthorhombic'
loop_
_space_group_symop_operation_xyz
x,y,z
-x,-y,z
-x,y,z
x,-y,z
x,1/2+y,1/2+z
-x,1/2-y,1/2+z
-x,1/2+y,1/2+z
x,1/2-y,1/2+z
loop_
_atom_site_type_symbol
_atom_site_label
_atom_site_fract_x
_atom_site_fract_y
_atom_site_fract_z
Si Si1 0.814095 0.153839 0.222680
Si Si2 0.814228 0.809373 0.881023
Si Si3 0.660460 0.086783 0.846069
Si Si4 0.000000 0.800790 0.904477
Si Si5 0.359335 0.415527 0.692211
Si Si6 0.000000 0.845640 0.238107
Si Si7 0.500000 0.682145 0.848708
Si Si8 0.500000 0.841941 0.699931
O O1 0.800278 0.223109 0.335167
O O2 0.739697 0.092451 0.245648
O O3 0.907494 0.111078 0.245873
O O4 0.804114 0.189143 0.058852
O O5 0.744760 0.864276 0.804305
O O6 0.911836 0.837465 0.838006
O O7 0.584052 0.108658 0.734386
O O8 0.685301 0.000000 0.823188
O O9 0.629782 0.101795 0.016107
O O10 0.000000 0.712561 0.873056
O O11 0.000000 0.800917 0.082943
O O12 0.389904 0.500000 0.727928
O O13 0.415471 0.357360 0.785038
O O14 0.500000 0.768564 0.802721
O O15 0.500000 0.680031 0.027048
#
# Coordination Sequence:
#
# PCOD8180034 Si02
#       8
#     8   8   8   4   8   4   4   4
#     4   9  17  30  50  75 102 135 174 215 257 301
#     4   9  17  30  50  75 102 135 174 215 257 301
#     4  10  21  37  55  77 108 142 173 210 259 310
#     4   8  14  26  45  71 101 131 169 214 255 296
#     4  10  21  37  55  77 108 142 173 210 259 310
#     4   8  14  26  45  71 101 131 169 214 255 296
#     4  12  25  40  59  81 103 131 171 216 261 310
#     4  12  25  40  59  81 103 131 171 216 261 310
#
# _framework density 19.48179
#
# number of rings (size 3 to 8) (size 9 to 14) (size 15 to 20)
#    0.000    2.333    0.000    3.000    0.000    6.667 
#    0.000    0.833    0.000    5.000    0.000    0.000 
#    0.000   16.000    0.000    0.000    0.000    0.000 
#
# Total GULP energy -297408.039188 kJ/mol
# GULP energy per Si atom -12392.001633 kJ/mol
# Density = 1.943745 g / cm^3
# Si number density = 19.481790 Si / 1000 Ang^3
#
#
#
# Elastic Constant Matrix: (Units=GPa)
#
#
# Indices 1 2 3 4 5 6 
#
# 1 114.0137 14.4469 20.6128 0.0000 0.0000 0.0000
# 2 14.4469 52.0602 12.3550 0.0000 0.0000 0.0000
# 3 20.6128 12.3550 50.1695 0.0000 0.0000 0.0000
# 4 0.0000 0.0000 0.0000 20.4548 0.0000 0.0000
# 5 0.0000 0.0000 0.0000 0.0000 18.6601 0.0000
# 6 0.0000 0.0000 0.0000 0.0000 0.0000 15.2916
#
#
#
# Elastic Compliance Matrix: (Units=1/GPa)
#
#
# Indices 1 2 3 4 5 6 
#
# 1 0.009638 -0.001843 -0.003506 0.000000 0.000000 0.000000
# 2 -0.001843 0.020753 -0.004354 0.000000 0.000000 0.000000
# 3 -0.003506 -0.004354 0.022445 0.000000 0.000000 0.000000
# 4 0.000000 0.000000 0.000000 0.048888 0.000000 0.000000
# 5 0.000000 0.000000 0.000000 0.000000 0.053590 0.000000
# 6 0.000000 0.000000 0.000000 0.000000 0.000000 0.065396
#
#
# Mechanical properties :
#
#
# Convention : Reuss Voigt Hill
#
# Bulk Modulus (GPa) = 29.91190 34.56362 32.23776
# Shear Modulus (GPa) = 19.89974 22.13653 21.01814
#
# Velocity S-wave (km/s) = 3.19949 3.37451 3.28816
# Velocity P-wave (km/s) = 5.38851 5.74135 5.56773
#
# Compressibility (1/GPa) = 0.03343151
#
# Stress axis : x y z
#
# Youngs Moduli (GPa) = 103.75330 48.18561 44.55302
#
# Poissons Ratio (x) = 0.08878 0.15621
# Poissons Ratio (y) = 0.19117 0.19397
# Poissons Ratio (z) = 0.36378 0.20979
#
# Static dielectric constant tensor:
#      x y z
#    x 4.156240 0.000000 0.000000 
#    y 0.000000 3.248460 0.000000 
#    z 0.000000 0.000000 3.441460 
# 
# 
# High freq. dielectric constant tensor:
#      x y z
#    x 1.787490 0.000000 0.000000 
#    y 0.000000 1.724920 0.000000 
#    z 0.000000 0.000000 1.745350 
# 
# From -- ./inp_files/5539.got.cif
#   From: 2010.03.12/outbox.cif.g09.slc.cpg/sg38_3_cif.got.tgz:5539.got - 2010.04.14 02:38:36.
