data_PCOD8180362
_publ_section_title
;
Structure prediction by ZEFSAII (Michael W. Deem and Ramdas Pophale) SiO2 
 PCOD8180362
Probable space group: A M M 2
;
_chemical_formula_sum "Si O2"
_cell_formula_units_Z 64
_cell_length_a 15.316338
_cell_length_b 8.614570
_cell_length_c 23.577602
_cell_angle_alpha 90.000000
_cell_angle_beta 90.000000
_cell_angle_gamma 90.000000
_cell_volume 3110.915240
_symmetry_space_group_name_H-M "A M M 2"
_symmetry_group_IT_number 38
_symmetry_cell_setting 'orthorhombic'
loop_
_space_group_symop_operation_xyz
x,y,z
-x,-y,z
-x,y,z
x,-y,z
x,1/2+y,1/2+z
-x,1/2-y,1/2+z
-x,1/2+y,1/2+z
x,1/2-y,1/2+z
loop_
_atom_site_type_symbol
_atom_site_label
_atom_site_fract_x
_atom_site_fract_y
_atom_site_fract_z
Si Si1 0.598320 0.676964 0.231040
Si Si2 0.097313 0.178680 0.232137
Si Si3 0.098484 0.822135 0.965307
Si Si4 0.163383 0.322630 0.342548
Si Si5 0.748560 0.678896 0.033724
Si Si6 0.348504 0.321035 0.846435
Si Si7 0.599113 0.678097 0.460678
Si Si8 0.742980 0.180608 0.155035
O O1 0.500000 0.696315 0.207948
O O2 0.618409 0.500000 0.248199
O O3 0.609961 0.783098 0.285961
O O4 0.662368 0.725888 0.180813
O O5 0.105551 0.282238 0.288161
O O6 0.166961 0.232633 0.185067
O O7 0.000000 0.203103 0.206979
O O8 0.113183 0.000000 0.248870
O O9 0.105242 0.795510 0.898048
O O10 0.000000 0.781076 0.984105
O O11 0.121240 0.000000 0.980658
O O12 0.164828 0.710419 0.997498
O O13 0.195816 0.500000 0.338503
O O14 0.245873 0.210101 0.344479
O O15 0.746633 0.500000 0.051633
O O16 0.750327 0.784862 0.088966
O O17 0.662874 0.714536 0.996963
O O18 0.365110 0.500000 0.860609
O O19 0.394709 0.219021 0.894457
O O20 0.500000 0.704256 0.481514
O O21 0.627793 0.500000 0.468735
O O22 0.724969 0.000000 0.164311
#
# Coordination Sequence:
#
# PCOD8180362 Si02
#       8
#     8   8   8   8   8   8   8   8
#     4  11  24  42  65  94 128 166 207 256 312 369
#     4  10  22  40  63  93 127 163 205 256 313 370
#     4  10  22  41  65  93 127 168 211 256 311 373
#     4  11  21  36  63  94 128 167 207 251 306 370
#     4  12  26  43  65  92 125 165 211 263 317 372
#     4  12  23  37  62  96 131 167 204 251 312 372
#     4  11  24  43  67  94 125 164 209 257 312 375
#     4  11  24  43  66  90 123 167 212 260 313 368
#
# _framework density 20.572724000000001
#
# number of rings (size 3 to 8) (size 9 to 14) (size 15 to 20)
#    0.000    1.000    2.500    4.500    0.000    6.500 
#    0.000    1.250    0.000    0.000    0.000    0.000 
#    0.000    0.000    0.000    0.000    0.000    0.000 
#
# Total GULP energy -397008.117539 kJ/mol
# GULP energy per Si atom -12406.503673 kJ/mol
# Density = 2.052590 g / cm^3
# Si number density = 20.572724 Si / 1000 Ang^3
#
#
#
# Elastic Constant Matrix: (Units=GPa)
#
#
# Indices 1 2 3 4 5 6 
#
# 1 135.1436 39.6950 37.3923 0.0000 0.0000 0.0000
# 2 39.6950 72.1711 12.7671 0.0000 0.0000 0.0000
# 3 37.3923 12.7671 98.8434 0.0000 0.0000 0.0000
# 4 0.0000 0.0000 0.0000 35.8074 0.0000 0.0000
# 5 0.0000 0.0000 0.0000 0.0000 21.8644 0.0000
# 6 0.0000 0.0000 0.0000 0.0000 0.0000 18.9727
#
#
#
# Elastic Compliance Matrix: (Units=1/GPa)
#
#
# Indices 1 2 3 4 5 6 
#
# 1 0.009638 -0.004765 -0.003030 0.000000 0.000000 0.000000
# 2 -0.004765 0.016536 -0.000333 0.000000 0.000000 0.000000
# 3 -0.003030 -0.000333 0.011306 0.000000 0.000000 0.000000
# 4 0.000000 0.000000 0.000000 0.027927 0.000000 0.000000
# 5 0.000000 0.000000 0.000000 0.000000 0.045736 0.000000
# 6 0.000000 0.000000 0.000000 0.000000 0.000000 0.052707
#
#
# Mechanical properties :
#
#
# Convention : Reuss Voigt Hill
#
# Bulk Modulus (GPa) = 47.11944 53.98523 50.55233
# Shear Modulus (GPa) = 26.71203 29.74914 28.23059
#
# Velocity S-wave (km/s) = 3.60727 3.80682 3.70839
# Velocity P-wave (km/s) = 6.34850 6.75430 6.55454
#
# Compressibility (1/GPa) = 0.02122266
#
# Stress axis : x y z
#
# Youngs Moduli (GPa) = 103.76118 60.47569 88.44486
#
# Poissons Ratio (x) = 0.28815 0.26803
# Poissons Ratio (y) = 0.49439 0.02948
# Poissons Ratio (z) = 0.31444 0.02016
#
# Static dielectric constant tensor:
#      x y z
#    x 3.813360 0.000000 0.000000 
#    y 0.000000 3.714420 0.000000 
#    z 0.000000 0.000000 3.586890 
# 
# 
# High freq. dielectric constant tensor:
#      x y z
#    x 1.817000 0.000000 0.000000 
#    y 0.000000 1.808310 0.000000 
#    z 0.000000 0.000000 1.797120 
# 
# From -- ./inp_files/22931.got.cif
#   From: 2010.03.12/outbox.cif.g09.slc.cpg/sg38_12_cif.got.tgz:22931.got - 2010.04.14 02:38:36.
