data_PCOD8180231
_publ_section_title
;
Structure prediction by ZEFSAII (Michael W. Deem and Ramdas Pophale) SiO2 
 PCOD8180231
Probable space group: A M M 2
;
_chemical_formula_sum "Si O2"
_cell_formula_units_Z 64
_cell_length_a 13.832380
_cell_length_b 25.819381
_cell_length_c 8.718638
_cell_angle_alpha 90.000000
_cell_angle_beta 90.000000
_cell_angle_gamma 90.000000
_cell_volume 3113.804798
_symmetry_space_group_name_H-M "A M M 2"
_symmetry_group_IT_number 38
_symmetry_cell_setting 'orthorhombic'
loop_
_space_group_symop_operation_xyz
x,y,z
-x,-y,z
-x,y,z
x,-y,z
x,1/2+y,1/2+z
-x,1/2-y,1/2+z
-x,1/2+y,1/2+z
x,1/2-y,1/2+z
loop_
_atom_site_type_symbol
_atom_site_label
_atom_site_fract_x
_atom_site_fract_y
_atom_site_fract_z
Si Si1 0.392042 0.579723 0.305330
Si Si2 0.773003 0.864180 0.275582
Si Si3 0.109733 0.691553 0.028767
Si Si4 0.210871 0.440557 0.503182
Si Si5 0.392088 0.200528 0.797680
Si Si6 0.716823 0.056058 0.508249
Si Si7 0.891030 0.909797 0.699403
Si Si8 0.720508 0.732681 0.584982
O O1 0.500000 0.560869 0.348733
O O2 0.321700 0.563962 0.444597
O O3 0.388753 0.640063 0.274898
O O4 0.361498 0.555285 0.143815
O O5 0.859182 0.838653 0.373803
O O6 0.811833 0.904510 0.149264
O O7 0.701114 0.897016 0.387486
O O8 0.716402 0.817163 0.195741
O O9 0.118597 0.651923 0.171201
O O10 0.173863 0.741681 0.069083
O O11 0.000000 0.710912 0.006373
O O12 0.189123 0.500000 0.546749
O O13 0.138201 0.421161 0.373030
O O14 0.500000 0.218955 0.843348
O O15 0.359338 0.226184 0.638856
O O16 0.310866 0.216003 0.917736
O O17 0.823369 0.059479 0.581985
O O18 0.709076 0.000000 0.424409
O O19 0.000000 0.928856 0.670603
#
# Coordination Sequence:
#
# PCOD8180231 Si02
#       8
#     8   8   8   8   8   8   8   8
#     4  10  21  39  63  90 122 159 205 255 305 363
#     4  11  23  40  61  85 128 160 199 250 310 355
#     4  10  23  42  65  91 122 165 208 248 306 374
#     4  11  22  37  61  91 123 160 203 252 312 364
#     4  11  23  39  63  93 121 161 205 249 307 369
#     4  10  21  39  62  86 116 160 208 248 299 361
#     4   9  19  37  62  90 119 153 200 251 298 361
#     4  12  22  41  63  88 125 163 198 253 306 368
#
# _framework density 20.553633999999999
#
# number of rings (size 3 to 8) (size 9 to 14) (size 15 to 20)
#    0.000    1.500    2.500    4.500    0.000    3.000 
#    0.000    1.250    0.000    3.750    0.000    0.000 
#    0.000    0.000    0.000    0.000    0.000    0.000 
#
# Total GULP energy -396750.460552 kJ/mol
# GULP energy per Si atom -12398.451892 kJ/mol
# Density = 2.050685 g / cm^3
# Si number density = 20.553634 Si / 1000 Ang^3
#
#
#
# Elastic Constant Matrix: (Units=GPa)
#
#
# Indices 1 2 3 4 5 6 
#
# 1 101.9950 42.3957 13.2470 0.0000 0.0000 0.0000
# 2 42.3957 112.5284 40.7847 0.0000 0.0000 0.0000
# 3 13.2470 40.7847 78.1139 0.0000 0.0000 0.0000
# 4 0.0000 0.0000 0.0000 32.5297 0.0000 0.0000
# 5 0.0000 0.0000 0.0000 0.0000 18.0781 0.0000
# 6 0.0000 0.0000 0.0000 0.0000 0.0000 11.0493
#
#
#
# Elastic Compliance Matrix: (Units=1/GPa)
#
#
# Indices 1 2 3 4 5 6 
#
# 1 0.011634 -0.004524 0.000389 0.000000 0.000000 0.000000
# 2 -0.004524 0.012720 -0.005874 0.000000 0.000000 0.000000
# 3 0.000389 -0.005874 0.015803 0.000000 0.000000 0.000000
# 4 0.000000 0.000000 0.000000 0.030741 0.000000 0.000000
# 5 0.000000 0.000000 0.000000 0.000000 0.055315 0.000000
# 6 0.000000 0.000000 0.000000 0.000000 0.000000 0.090503
#
#
# Mechanical properties :
#
#
# Convention : Reuss Voigt Hill
#
# Bulk Modulus (GPa) = 49.65534 53.94357 51.79945
# Shear Modulus (GPa) = 20.53814 25.41209 22.97512
#
# Velocity S-wave (km/s) = 3.16452 3.52003 3.34700
# Velocity P-wave (km/s) = 6.12891 6.54394 6.33982
#
# Compressibility (1/GPa) = 0.02013882
#
# Stress axis : x y z
#
# Youngs Moduli (GPa) = 85.95129 78.61448 63.27968
#
# Poissons Ratio (x) = 0.35569 -0.02463
# Poissons Ratio (y) = 0.38888 0.37172
# Poissons Ratio (z) = -0.03346 0.46180
#
# Static dielectric constant tensor:
#      x y z
#    x 3.750780 0.000000 0.000000 
#    y 0.000000 3.932400 0.000000 
#    z 0.000000 0.000000 3.741810 
# 
# 
# High freq. dielectric constant tensor:
#      x y z
#    x 1.788890 0.000000 0.000000 
#    y 0.000000 1.820570 0.000000 
#    z 0.000000 0.000000 1.797090 
# 
# From -- ./inp_files/5894.got.cif
#   From: 2010.03.12/outbox.cif.g09.slc.cpg/sg38_3_cif.got.tgz:5894.got - 2010.04.14 02:38:36.
