data_PCOD8180067
_publ_section_title
;
Structure prediction by ZEFSAII (Michael W. Deem and Ramdas Pophale) SiO2 
 PCOD8180067
Probable space group: A M M 2
;
_chemical_formula_sum "Si O2"
_cell_formula_units_Z 64
_cell_length_a 8.983216
_cell_length_b 14.708730
_cell_length_c 24.141945
_cell_angle_alpha 90.000000
_cell_angle_beta 90.000000
_cell_angle_gamma 90.000000
_cell_volume 3189.916202
_symmetry_space_group_name_H-M "A M M 2"
_symmetry_group_IT_number 38
_symmetry_cell_setting 'orthorhombic'
loop_
_space_group_symop_operation_xyz
x,y,z
-x,-y,z
-x,y,z
x,-y,z
x,1/2+y,1/2+z
-x,1/2-y,1/2+z
-x,1/2+y,1/2+z
x,1/2-y,1/2+z
loop_
_atom_site_type_symbol
_atom_site_label
_atom_site_fract_x
_atom_site_fract_y
_atom_site_fract_z
Si Si1 0.326890 0.764096 0.921250
Si Si2 0.332121 0.107940 0.724728
Si Si3 0.676741 0.899051 0.134811
Si Si4 0.173357 0.605444 0.864565
Si Si5 0.326709 0.252570 0.548305
Si Si6 0.335157 0.892300 0.255824
Si Si7 0.825464 0.395127 0.113649
Si Si8 0.825474 0.893945 0.835544
O O1 0.500000 0.768833 0.905898
O O2 0.265208 0.663446 0.908808
O O3 0.239414 0.840780 0.887740
O O4 0.298663 0.783388 0.985675
O O5 0.500000 0.145995 0.724413
O O6 0.249800 0.142887 0.669747
O O7 0.249232 0.144713 0.779415
O O8 0.328732 0.000000 0.725732
O O9 0.500000 0.905859 0.131718
O O10 0.737716 0.832577 0.087319
O O11 0.721624 0.858695 0.195456
O O12 0.745129 0.000000 0.125425
O O13 0.213055 0.500000 0.874225
O O14 0.220298 0.638539 0.803123
O O15 0.000000 0.624698 0.872115
O O16 0.500000 0.233788 0.559644
O O17 0.237333 0.160456 0.561475
O O18 0.500000 0.852957 0.269482
O O19 0.345335 0.000000 0.252541
O O20 0.784379 0.500000 0.103328
O O21 0.000000 0.380963 0.119386
O O22 0.000000 0.875961 0.831152
O O23 0.788989 0.000000 0.844011
#
# Coordination Sequence:
#
# PCOD8180067 Si02
#       8
#     8   8   8   8   8   8   8   8
#     4  11  24  39  56  80 110 147 192 238 282 333
#     4   9  17  32  57  87 116 145 181 226 275 332
#     4   8  15  31  56  83 109 137 169 210 263 320
#     4  10  21  37  57  80 109 145 182 226 281 336
#     4  10  22  38  56  80 108 142 188 236 276 321
#     4   8  14  28  53  82 109 137 171 213 265 328
#     4  10  21  37  57  81 112 150 187 227 280 337
#     4  10  21  38  60  85 115 149 184 228 282 338
#
# _framework density 20.063222
#
# number of rings (size 3 to 8) (size 9 to 14) (size 15 to 20)
#    0.000    2.500    0.000    2.625    0.000    6.750 
#    0.000    8.125    0.000    1.125    0.000    0.000 
#    0.000    0.000    0.000    0.000    0.000    0.000 
#
# Total GULP energy -396812.358905 kJ/mol
# GULP energy per Si atom -12400.386216 kJ/mol
# Density = 2.001756 g / cm^3
# Si number density = 20.063222 Si / 1000 Ang^3
#
#
#
# Elastic Constant Matrix: (Units=GPa)
#
#
# Indices 1 2 3 4 5 6 
#
# 1 84.4088 22.2254 30.0548 0.0000 0.0000 0.0000
# 2 22.2254 46.7632 12.1386 0.0000 0.0000 0.0000
# 3 30.0548 12.1386 79.2606 0.0000 0.0000 0.0000
# 4 0.0000 0.0000 0.0000 34.4426 0.0000 0.0000
# 5 0.0000 0.0000 0.0000 0.0000 19.1532 0.0000
# 6 0.0000 0.0000 0.0000 0.0000 0.0000 24.9463
#
#
#
# Elastic Compliance Matrix: (Units=1/GPa)
#
#
# Indices 1 2 3 4 5 6 
#
# 1 0.015129 -0.005938 -0.004828 0.000000 0.000000 0.000000
# 2 -0.005938 0.024600 -0.001516 0.000000 0.000000 0.000000
# 3 -0.004828 -0.001516 0.014679 0.000000 0.000000 0.000000
# 4 0.000000 0.000000 0.000000 0.029034 0.000000 0.000000
# 5 0.000000 0.000000 0.000000 0.000000 0.052211 0.000000
# 6 0.000000 0.000000 0.000000 0.000000 0.000000 0.040086
#
#
# Mechanical properties :
#
#
# Convention : Reuss Voigt Hill
#
# Bulk Modulus (GPa) = 33.50489 37.69671 35.60080
# Shear Modulus (GPa) = 23.78121 25.44267 24.61194
#
# Velocity S-wave (km/s) = 3.44657 3.56494 3.50625
# Velocity P-wave (km/s) = 5.70740 5.98120 5.84590
#
# Compressibility (1/GPa) = 0.02984639
#
# Stress axis : x y z
#
# Youngs Moduli (GPa) = 66.09643 40.65076 68.12288
#
# Poissons Ratio (x) = 0.24136 0.32887
# Poissons Ratio (y) = 0.39245 0.10327
# Poissons Ratio (z) = 0.31909 0.06163
#
# Static dielectric constant tensor:
#      x y z
#    x 3.546550 0.000000 0.000000 
#    y 0.000000 3.625310 0.000000 
#    z 0.000000 0.000000 3.754930 
# 
# 
# High freq. dielectric constant tensor:
#      x y z
#    x 1.770990 0.000000 0.000000 
#    y 0.000000 1.780130 0.000000 
#    z 0.000000 0.000000 1.782930 
# 
# From -- ./inp_files/22131.got.cif
#   From: 2010.03.12/outbox.cif.g09.slc.cpg/sg38_12_cif.got.tgz:22131.got - 2010.04.14 02:38:36.
