data_PCOD8180001
_publ_section_title
;
Structure prediction by ZEFSAII (Michael W. Deem and Ramdas Pophale) SiO2 
 PCOD8180001
Probable space group: A M M 2
;
_chemical_formula_sum "Si O2"
_cell_formula_units_Z 48
_cell_length_a 8.626899
_cell_length_b 30.611308
_cell_length_c 9.028104
_cell_angle_alpha 90.000000
_cell_angle_beta 90.000000
_cell_angle_gamma 90.000000
_cell_volume 2384.147684
_symmetry_space_group_name_H-M "A M M 2"
_symmetry_group_IT_number 38
_symmetry_cell_setting 'orthorhombic'
loop_
_space_group_symop_operation_xyz
x,y,z
-x,-y,z
-x,y,z
x,-y,z
x,1/2+y,1/2+z
-x,1/2-y,1/2+z
-x,1/2+y,1/2+z
x,1/2-y,1/2+z
loop_
_atom_site_type_symbol
_atom_site_label
_atom_site_fract_x
_atom_site_fract_y
_atom_site_fract_z
Si Si1 0.318034 0.284451 0.359430
Si Si2 0.322214 0.050306 0.521341
Si Si3 0.682394 0.869697 0.030917
Si Si4 0.821549 0.374490 0.846894
Si Si5 0.180148 0.792405 0.542380
Si Si6 0.315303 0.548061 0.355809
O O1 0.500000 0.276958 0.387039
O O2 0.256259 0.328459 0.437840
O O3 0.221169 0.244500 0.423967
O O4 0.286737 0.287185 0.185445
O O5 0.500000 0.065570 0.506937
O O6 0.219074 0.077940 0.408756
O O7 0.260764 0.057734 0.688157
O O8 0.305077 0.000000 0.474969
O O9 0.500000 0.872290 0.014694
O O10 0.725076 0.863875 0.200822
O O11 0.754106 0.914572 0.963189
O O12 0.000000 0.372548 0.802052
O O13 0.779594 0.339000 0.970861
O O14 0.000000 0.788968 0.585965
O O15 0.500000 0.547558 0.358195
O O16 0.254335 0.500000 0.406207
#
# Coordination Sequence:
#
# PCOD8180001 Si02
#       6
#     8   8   8   8   8   8
#     4  11  23  39  62  89 114 145 190 243 290 334
#     4   9  18  35  60  85 109 143 187 234 284 336
#     4  10  21  36  56  83 113 145 185 234 283 332
#     4  11  24  38  54  80 115 153 189 228 277 336
#     4  11  24  41  60  83 115 154 191 231 287 350
#     4   8  15  31  56  83 108 137 178 226 275 329
#
# _framework density 20.13298
#
# number of rings (size 3 to 8) (size 9 to 14) (size 15 to 20)
#    0.000    2.000    0.000    4.500    0.000    9.000 
#    0.000    2.500    0.000    1.000    0.000    0.000 
#    0.000    0.000    0.000    0.000    0.000    0.000 
#
# Total GULP energy -297672.981870 kJ/mol
# GULP energy per Si atom -12403.040911 kJ/mol
# Density = 2.008716 g / cm^3
# Si number density = 20.132980 Si / 1000 Ang^3
#
#
#
# Elastic Constant Matrix: (Units=GPa)
#
#
# Indices 1 2 3 4 5 6 
#
# 1 16.8531 27.7651 8.9879 0.0000 0.0000 0.0000
# 2 27.7651 109.8081 36.1565 0.0000 0.0000 0.0000
# 3 8.9879 36.1565 91.4131 0.0000 0.0000 0.0000
# 4 0.0000 0.0000 0.0000 37.8439 0.0000 0.0000
# 5 0.0000 0.0000 0.0000 0.0000 17.3669 0.0000
# 6 0.0000 0.0000 0.0000 0.0000 0.0000 24.3750
#
#
#
# Elastic Compliance Matrix: (Units=1/GPa)
#
#
# Indices 1 2 3 4 5 6 
#
# 1 0.101705 -0.025781 0.000197 0.000000 0.000000 0.000000
# 2 -0.025781 0.017006 -0.004191 0.000000 0.000000 0.000000
# 3 0.000197 -0.004191 0.012578 0.000000 0.000000 0.000000
# 4 0.000000 0.000000 0.000000 0.026424 0.000000 0.000000
# 5 0.000000 0.000000 0.000000 0.000000 0.057581 0.000000
# 6 0.000000 0.000000 0.000000 0.000000 0.000000 0.041026
#
#
# Mechanical properties :
#
#
# Convention : Reuss Voigt Hill
#
# Bulk Modulus (GPa) = 13.93958 40.43259 27.18608
# Shear Modulus (GPa) = 14.71528 25.59481 20.15505
#
# Velocity S-wave (km/s) = 2.70646 3.56938 3.16744
# Velocity P-wave (km/s) = 4.08722 6.09210 5.18744
#
# Compressibility (1/GPa) = 0.07173820
#
# Stress axis : x y z
#
# Youngs Moduli (GPa) = 9.83233 58.80370 79.50541
#
# Poissons Ratio (x) = 1.51604 -0.01570
# Poissons Ratio (y) = 0.25349 0.33324
# Poissons Ratio (z) = -0.00194 0.24647
#
# Static dielectric constant tensor:
#      x y z
#    x 3.349220 0.000000 0.000000 
#    y 0.000000 4.022270 0.000000 
#    z 0.000000 0.000000 3.564430 
# 
# 
# High freq. dielectric constant tensor:
#      x y z
#    x 1.761250 0.000000 0.000000 
#    y 0.000000 1.803520 0.000000 
#    z 0.000000 0.000000 1.788460 
# 
# From -- ./inp_files/3722.got.cif
#   From: 2010.03.12/outbox.cif.g09.slc.cpg/sg38_2_cif.got.tgz:3722.got - 2010.04.14 02:38:36.
