data_PCOD8180395
_publ_section_title
;
Structure prediction by ZEFSAII (Michael W. Deem and Ramdas Pophale) SiO2 
 PCOD8180395
Probable space group: A M M 2
;
_chemical_formula_sum "Si O2"
_cell_formula_units_Z 56
_cell_length_a 21.272295
_cell_length_b 8.764130
_cell_length_c 15.301220
_cell_angle_alpha 90.000000
_cell_angle_beta 90.000000
_cell_angle_gamma 90.000000
_cell_volume 2852.654778
_symmetry_space_group_name_H-M "A M M 2"
_symmetry_group_IT_number 38
_symmetry_cell_setting 'orthorhombic'
loop_
_space_group_symop_operation_xyz
x,y,z
-x,-y,z
-x,y,z
x,-y,z
x,1/2+y,1/2+z
-x,1/2-y,1/2+z
-x,1/2+y,1/2+z
x,1/2-y,1/2+z
loop_
_atom_site_type_symbol
_atom_site_label
_atom_site_fract_x
_atom_site_fract_y
_atom_site_fract_z
Si Si1 0.789185 0.179337 0.759170
Si Si2 0.426199 0.675276 0.109147
Si Si3 0.653936 0.679177 0.755730
Si Si4 0.871606 0.175104 0.405984
Si Si5 0.430533 0.319390 0.912785
Si Si6 0.000000 0.322747 0.663927
Si Si7 0.000000 0.179704 0.851360
Si Si8 0.121620 0.825057 0.602239
O O1 0.718872 0.234172 0.746054
O O2 0.818772 0.252096 0.845400
O O3 0.827803 0.229714 0.673451
O O4 0.790456 0.000000 0.771449
O O5 0.500000 0.697050 0.125222
O O6 0.406589 0.500000 0.126554
O O7 0.388734 0.787577 0.171983
O O8 0.408441 0.724411 0.010318
O O9 0.666717 0.500000 0.762845
O O10 0.618846 0.743781 0.842099
O O11 0.848386 0.192172 0.505976
O O12 0.938516 0.255497 0.397429
O O13 0.879999 0.000000 0.378669
O O14 0.500000 0.250115 0.893870
O O15 0.435302 0.500000 0.904899
O O16 0.000000 0.221119 0.750129
O O17 0.938968 0.282789 0.607393
O O18 0.000000 0.500000 0.688771
O O19 0.000000 0.000000 0.862099
O O20 0.101287 0.000000 0.619530
#
# Coordination Sequence:
#
# PCOD8180395 Si02
#       8
#     8   8   8   8   8   4   4   8
#     4  11  24  42  60  81 115 160 198 239 290 349
#     4   9  18  35  59  85 113 147 189 234 282 345
#     4  11  22  36  57  84 116 152 193 241 286 339
#     4  11  23  41  64  90 115 149 196 245 293 348
#     4   8  16  33  57  83 112 149 189 229 283 347
#     4  12  23  36  63  94 120 150 193 247 290 339
#     4  12  23  38  61  90 124 156 185 231 298 355
#     4  10  23  42  63  85 117 155 192 238 299 360
#
# _framework density 19.630837
#
# number of rings (size 3 to 8) (size 9 to 14) (size 15 to 20)
#    0.000    1.714    1.429    4.286    0.000    5.429 
#    0.000    7.143    0.000    1.714    0.000    0.000 
#    0.000    0.000    0.000    0.000    0.000    0.000 
#
# Total GULP energy -347283.297764 kJ/mol
# GULP energy per Si atom -12402.974920 kJ/mol
# Density = 1.958616 g / cm^3
# Si number density = 19.630837 Si / 1000 Ang^3
#
#
#
# Elastic Constant Matrix: (Units=GPa)
#
#
# Indices 1 2 3 4 5 6 
#
# 1 101.1552 37.2579 61.8156 0.0000 0.0000 0.0000
# 2 37.2579 81.6862 38.1627 0.0000 0.0000 0.0000
# 3 61.8156 38.1627 137.0620 0.0000 0.0000 0.0000
# 4 0.0000 0.0000 0.0000 30.7229 0.0000 0.0000
# 5 0.0000 0.0000 0.0000 0.0000 12.7442 0.0000
# 6 0.0000 0.0000 0.0000 0.0000 0.0000 57.3955
#
#
#
# Elastic Compliance Matrix: (Units=1/GPa)
#
#
# Indices 1 2 3 4 5 6 
#
# 1 0.014788 -0.004172 -0.005508 0.000000 0.000000 0.000000
# 2 -0.004172 0.015249 -0.002364 0.000000 0.000000 0.000000
# 3 -0.005508 -0.002364 0.010438 0.000000 0.000000 0.000000
# 4 0.000000 0.000000 0.000000 0.032549 0.000000 0.000000
# 5 0.000000 0.000000 0.000000 0.000000 0.078467 0.000000
# 6 0.000000 0.000000 0.000000 0.000000 0.000000 0.017423
#
#
# Mechanical properties :
#
#
# Convention : Reuss Voigt Hill
#
# Bulk Modulus (GPa) = 61.02173 66.04177 63.53175
# Shear Modulus (GPa) = 25.19320 32.35033 28.77177
#
# Velocity S-wave (km/s) = 3.58627 4.06388 3.83252
# Velocity P-wave (km/s) = 6.94986 7.46559 7.21234
#
# Compressibility (1/GPa) = 0.01638761
#
# Stress axis : x y z
#
# Youngs Moduli (GPa) = 67.62090 65.57629 95.79961
#
# Poissons Ratio (x) = 0.27357 0.52767
# Poissons Ratio (y) = 0.28210 0.22651
# Poissons Ratio (z) = 0.37246 0.15505
#
# Static dielectric constant tensor:
#      x y z
#    x 3.633560 0.000000 0.000000 
#    y 0.000000 3.457580 0.000000 
#    z 0.000000 0.000000 3.786710 
# 
# 
# High freq. dielectric constant tensor:
#      x y z
#    x 1.760610 0.000000 0.000000 
#    y 0.000000 1.755510 0.000000 
#    z 0.000000 0.000000 1.779870 
# 
# From -- ./inp_files/15543.got.cif
#   From: 2010.03.12/outbox.cif.g09.slc.cpg/sg38_8_cif.got.tgz:15543.got - 2010.04.14 02:38:36.
