data_PCOD8180506
_publ_section_title
;
Structure prediction by ZEFSAII (Michael W. Deem and Ramdas Pophale) SiO2 
 PCOD8180506
Probable space group: A M M 2
;
_chemical_formula_sum "Si O2"
_cell_formula_units_Z 48
_cell_length_a 8.543325
_cell_length_b 31.774507
_cell_length_c 8.981319
_cell_angle_alpha 90.000000
_cell_angle_beta 90.000000
_cell_angle_gamma 90.000000
_cell_volume 2438.068317
_symmetry_space_group_name_H-M "A M M 2"
_symmetry_group_IT_number 38
_symmetry_cell_setting 'orthorhombic'
loop_
_space_group_symop_operation_xyz
x,y,z
-x,-y,z
-x,y,z
x,-y,z
x,1/2+y,1/2+z
-x,1/2-y,1/2+z
-x,1/2+y,1/2+z
x,1/2-y,1/2+z
loop_
_atom_site_type_symbol
_atom_site_label
_atom_site_fract_x
_atom_site_fract_y
_atom_site_fract_z
Si Si1 0.681889 0.628825 0.770610
Si Si2 0.315626 0.864752 0.618013
Si Si3 0.317179 0.044361 0.619883
Si Si4 0.317445 0.712775 0.609381
Si Si5 0.820659 0.454585 0.800841
Si Si6 0.819531 0.288071 0.290344
O O1 0.500000 0.621341 0.746014
O O2 0.740744 0.668173 0.673811
O O3 0.768594 0.586658 0.707535
O O4 0.722343 0.637991 0.942703
O O5 0.500000 0.857012 0.645841
O O6 0.258892 0.910621 0.683826
O O7 0.213445 0.830618 0.701300
O O8 0.500000 0.042855 0.647288
O O9 0.288742 0.045094 0.444430
O O10 0.243834 0.000000 0.686011
O O11 0.500000 0.720380 0.643554
O O12 0.290311 0.713962 0.433779
O O13 0.216703 0.749006 0.684815
O O14 0.797973 0.500000 0.716239
O O15 0.000000 0.449543 0.850368
O O16 0.000000 0.286965 0.338676
#
# Coordination Sequence:
#
# PCOD8180506 Si02
#       6
#     8   8   8   8   8   8
#     4   9  19  34  55  80 104 137 181 223 261 307
#     4   9  17  32  54  80 110 143 179 220 267 316
#     4   8  14  26  46  72 102 137 178 221 259 300
#     4  11  23  41  62  81 105 140 180 220 267 322
#     4   9  16  25  42  72 108 142 173 210 260 312
#     4  12  25  39  57  83 111 139 175 220 270 321
#
# _framework density 19.687718
#
# number of rings (size 3 to 8) (size 9 to 14) (size 15 to 20)
#    0.000    2.333    0.000    4.500    0.000    6.333 
#    0.000    0.000    0.000    1.000    0.000    2.333 
#    0.000    0.000    0.000    0.000    0.000    0.000 
#
# Total GULP energy -297343.819058 kJ/mol
# GULP energy per Si atom -12389.325794 kJ/mol
# Density = 1.964291 g / cm^3
# Si number density = 19.687718 Si / 1000 Ang^3
#
#
#
# Elastic Constant Matrix: (Units=GPa)
#
#
# Indices 1 2 3 4 5 6 
#
# 1 36.7956 35.6615 10.0795 0.0000 0.0000 0.0000
# 2 35.6615 201.2174 43.3118 0.0000 0.0000 0.0000
# 3 10.0795 43.3118 53.7933 0.0000 0.0000 0.0000
# 4 0.0000 0.0000 0.0000 20.4587 0.0000 0.0000
# 5 0.0000 0.0000 0.0000 0.0000 15.1479 0.0000
# 6 0.0000 0.0000 0.0000 0.0000 0.0000 29.2191
#
#
#
# Elastic Compliance Matrix: (Units=1/GPa)
#
#
# Indices 1 2 3 4 5 6 
#
# 1 0.032954 -0.005457 -0.001781 0.000000 0.000000 0.000000
# 2 -0.005457 0.006915 -0.004545 0.000000 0.000000 0.000000
# 3 -0.001781 -0.004545 0.022583 0.000000 0.000000 0.000000
# 4 0.000000 0.000000 0.000000 0.048879 0.000000 0.000000
# 5 0.000000 0.000000 0.000000 0.000000 0.066016 0.000000
# 6 0.000000 0.000000 0.000000 0.000000 0.000000 0.034224
#
#
# Mechanical properties :
#
#
# Convention : Reuss Voigt Hill
#
# Bulk Modulus (GPa) = 25.71647 52.21241 38.96444
# Shear Modulus (GPa) = 20.15318 26.48205 23.31762
#
# Velocity S-wave (km/s) = 3.20291 3.67155 3.44521
# Velocity P-wave (km/s) = 5.17385 6.67469 5.97161
#
# Compressibility (1/GPa) = 0.03888559
#
# Stress axis : x y z
#
# Youngs Moduli (GPa) = 30.34542 144.60757 44.28093
#
# Poissons Ratio (x) = 0.78913 0.07886
# Poissons Ratio (y) = 0.16560 0.20127
# Poissons Ratio (z) = 0.05404 0.65729
#
# Static dielectric constant tensor:
#      x y z
#    x 3.406500 0.000000 0.000000 
#    y 0.000000 4.489400 0.000000 
#    z 0.000000 0.000000 3.092130 
# 
# 
# High freq. dielectric constant tensor:
#      x y z
#    x 1.757590 0.000000 0.000000 
#    y 0.000000 1.806130 0.000000 
#    z 0.000000 0.000000 1.707960 
# 
# From -- ./inp_files/3777.got.cif
#   From: 2010.03.12/outbox.cif.g09.slc.cpg/sg38_2_cif.got.tgz:3777.got - 2010.04.14 02:38:36.
