data_PCOD8180654
_publ_section_title
;
Structure prediction by ZEFSAII (Michael W. Deem and Ramdas Pophale) SiO2 
 PCOD8180654
Probable space group: A B M 2
;
_chemical_formula_sum "Si O2"
_cell_formula_units_Z 64
_cell_length_a 20.822936
_cell_length_b 8.997806
_cell_length_c 19.026760
_cell_angle_alpha 90.000000
_cell_angle_beta 90.000000
_cell_angle_gamma 90.000000
_cell_volume 3564.867804
_symmetry_space_group_name_H-M "A B M 2"
_symmetry_group_IT_number 39
_symmetry_cell_setting 'orthorhombic'
loop_
_space_group_symop_operation_xyz
x,y,z
-x,-y,z
-x,1/2+y,z
x,1/2-y,z
x,1/2+y,1/2+z
-x,1/2-y,1/2+z
-x,y,1/2+z
x,-y,1/2+z
loop_
_atom_site_type_symbol
_atom_site_label
_atom_site_fract_x
_atom_site_fract_y
_atom_site_fract_z
Si Si1 0.440489 0.923204 0.723440
Si Si2 0.298604 0.918929 0.730904
Si Si3 0.937611 0.917215 0.479265
Si Si4 0.189649 0.923971 0.476599
Si Si5 0.437416 0.426693 0.572564
Si Si6 0.809287 0.423797 0.315457
Si Si7 0.062765 0.582367 0.811812
Si Si8 0.689592 0.923467 0.067381
O O1 0.454858 0.750000 0.707687
O O2 0.371380 0.939145 0.761273
O O3 0.500000 0.000000 0.766855
O O4 0.436435 0.016136 0.652092
O O5 0.275425 0.750000 0.743204
O O6 0.296467 0.958694 0.648681
O O7 0.252847 0.030240 0.771721
O O8 0.938556 0.750000 0.507656
O O9 0.939042 0.923057 0.395505
O O10 0.873323 0.995782 0.507106
O O11 0.000000 0.000000 0.510145
O O12 0.177352 0.750000 0.483934
O O13 0.202656 0.969822 0.396127
O O14 0.249754 0.977093 0.522398
O O15 0.500000 0.500000 0.534626
O O16 0.441376 0.250000 0.567845
O O17 0.371389 0.484792 0.537656
O O18 0.820601 0.250000 0.307801
O O19 0.872602 0.503208 0.284589
O O20 0.062456 0.750000 0.783396
O O21 0.000000 0.500000 0.781052
O O22 0.674794 0.750000 0.056733
#
# Coordination Sequence:
#
# PCOD8180654 Si02
#       8
#     8   8   8   8   8   8   8   8
#     4   9  16  27  44  66  91 119 153 192 232 271
#     4   9  18  31  47  68  94 124 154 188 231 274
#     4   9  16  26  43  67  93 120 152 190 229 270
#     4   9  18  32  49  69  94 123 154 190 231 273
#     4  10  17  26  43  67  93 119 151 191 232 273
#     4  10  19  30  47  71  96 123 154 188 229 276
#     4   9  16  27  44  66  92 120 152 191 230 269
#     4   9  18  33  50  68  93 124 157 192 230 272
#
# _framework density 17.95298
#
# number of rings (size 3 to 8) (size 9 to 14) (size 15 to 20)
#    0.000    2.750    0.000    4.125    0.000    6.500 
#    0.000    0.000    0.000    1.500    0.000    5.250 
#    0.000    0.000    0.000    0.000    0.000    0.000 
#
# Total GULP energy -396653.654207 kJ/mol
# GULP energy per Si atom -12395.426694 kJ/mol
# Density = 1.791212 g / cm^3
# Si number density = 17.952980 Si / 1000 Ang^3
#
#
#
# Elastic Constant Matrix: (Units=GPa)
#
#
# Indices 1 2 3 4 5 6 
#
# 1 187.3105 85.5540 38.3885 0.0000 0.0000 0.0000
# 2 85.5540 116.7580 22.5878 0.0000 0.0000 0.0000
# 3 38.3885 22.5878 26.2797 0.0000 0.0000 0.0000
# 4 0.0000 0.0000 0.0000 13.8156 0.0000 0.0000
# 5 0.0000 0.0000 0.0000 0.0000 23.3377 0.0000
# 6 0.0000 0.0000 0.0000 0.0000 0.0000 42.6602
#
#
#
# Elastic Compliance Matrix: (Units=1/GPa)
#
#
# Indices 1 2 3 4 5 6 
#
# 1 0.009722 -0.005249 -0.009690 0.000000 0.000000 0.000000
# 2 -0.005249 0.013107 -0.003598 0.000000 0.000000 0.000000
# 3 -0.009690 -0.003598 0.055300 0.000000 0.000000 0.000000
# 4 0.000000 0.000000 0.000000 0.072382 0.000000 0.000000
# 5 0.000000 0.000000 0.000000 0.000000 0.042849 0.000000
# 6 0.000000 0.000000 0.000000 0.000000 0.000000 0.023441
#
#
# Mechanical properties :
#
#
# Convention : Reuss Voigt Hill
#
# Bulk Modulus (GPa) = 24.35778 69.26765 46.81272
# Shear Modulus (GPa) = 18.68734 28.21722 23.45228
#
# Velocity S-wave (km/s) = 3.22981 3.96880 3.61822
# Velocity P-wave (km/s) = 5.24460 7.72454 6.60206
#
# Compressibility (1/GPa) = 0.04105464
#
# Stress axis : x y z
#
# Youngs Moduli (GPa) = 102.85603 76.29404 18.08328
#
# Poissons Ratio (x) = 0.40049 0.17523
# Poissons Ratio (y) = 0.53993 0.06506
# Poissons Ratio (z) = 0.99669 0.27449
#
# Static dielectric constant tensor:
#      x y z
#    x 3.929770 0.000000 0.000000 
#    y 0.000000 3.402220 0.000000 
#    z 0.000000 0.000000 2.739670 
# 
# 
# High freq. dielectric constant tensor:
#      x y z
#    x 1.720680 0.000000 0.000000 
#    y 0.000000 1.704390 0.000000 
#    z 0.000000 0.000000 1.620530 
# 
# From -- ./inp_files/15031.got.cif
#   From: 2010.03.12/outbox.cif.g09.slc.cpg/sg39_8_cif.got.tgz:15031.got - 2010.04.14 02:53:20.
