data_PCOD8180285
_publ_section_title
;
Structure prediction by ZEFSAII (Michael W. Deem and Ramdas Pophale) SiO2 
 PCOD8180285
Probable space group: A M M 2
;
_chemical_formula_sum "Si O2"
_cell_formula_units_Z 64
_cell_length_a 14.373602
_cell_length_b 22.058275
_cell_length_c 9.482608
_cell_angle_alpha 90.000000
_cell_angle_beta 90.000000
_cell_angle_gamma 90.000000
_cell_volume 3006.525971
_symmetry_space_group_name_H-M "A M M 2"
_symmetry_group_IT_number 38
_symmetry_cell_setting 'orthorhombic'
loop_
_space_group_symop_operation_xyz
x,y,z
-x,-y,z
-x,y,z
x,-y,z
x,1/2+y,1/2+z
-x,1/2-y,1/2+z
-x,1/2+y,1/2+z
x,1/2-y,1/2+z
loop_
_atom_site_type_symbol
_atom_site_label
_atom_site_fract_x
_atom_site_fract_y
_atom_site_fract_z
Si Si1 0.106208 0.570485 0.092270
Si Si2 0.661739 0.205856 0.486320
Si Si3 0.099668 0.669933 0.650481
Si Si4 0.604153 0.156221 0.979855
Si Si5 0.799033 0.931882 0.297741
Si Si6 0.398827 0.110651 0.287345
Si Si7 0.159141 0.247282 0.882760
Si Si8 0.264599 0.145396 0.737671
O O1 0.106678 0.500000 0.127296
O O2 0.182018 0.599283 0.197884
O O3 0.000000 0.596196 0.113856
O O4 0.136510 0.582560 0.931816
O O5 0.629373 0.274065 0.515041
O O6 0.601828 0.176870 0.360554
O O7 0.771748 0.203456 0.450548
O O8 0.656766 0.160657 0.620267
O O9 0.176936 0.617651 0.676172
O O10 0.088760 0.715738 0.783516
O O11 0.115354 0.705712 0.504313
O O12 0.000000 0.637319 0.635366
O O13 0.500000 0.153788 0.917467
O O14 0.676150 0.123574 0.873273
O O15 0.610781 0.117805 0.120982
O O16 0.689547 0.928240 0.340909
O O17 0.819095 0.000000 0.242788
O O18 0.500000 0.080156 0.321222
O O19 0.218088 0.209055 0.772025
#
# Coordination Sequence:
#
# PCOD8180285 Si02
#       8
#     8   8   8   8   8   8   8   8
#     4  10  22  42  67  92 122 166 218 271 326 384
#     4  11  19  35  59  88 123 166 207 253 308 379
#     4  12  24  40  63  95 131 170 216 261 322 390
#     4  10  22  36  57  92 132 169 204 249 314 387
#     4  11  23  43  67  93 125 168 218 271 322 380
#     4  11  22  39  62  92 127 166 213 263 318 382
#     4  11  22  39  58  92 134 170 204 260 324 381
#     4  11  21  37  63  90 129 162 213 261 319 374
#
# _framework density 21.287029
#
# number of rings (size 3 to 8) (size 9 to 14) (size 15 to 20)
#    0.000    1.125    3.750    4.125    0.000    4.000 
#    0.000    2.500    0.000    1.125    0.000    0.000 
#    0.000    0.000    0.000    0.000    0.000    0.000 
#
# Total GULP energy -396556.431132 kJ/mol
# GULP energy per Si atom -12392.388473 kJ/mol
# Density = 2.123858 g / cm^3
# Si number density = 21.287029 Si / 1000 Ang^3
#
#
#
# Elastic Constant Matrix: (Units=GPa)
#
#
# Indices 1 2 3 4 5 6 
#
# 1 150.5566 25.8320 39.7773 0.0000 0.0000 0.0000
# 2 25.8320 62.2105 29.1095 0.0000 0.0000 0.0000
# 3 39.7773 29.1095 88.5125 0.0000 0.0000 0.0000
# 4 0.0000 0.0000 0.0000 11.0850 0.0000 0.0000
# 5 0.0000 0.0000 0.0000 0.0000 -260.5207 0.0000
# 6 0.0000 0.0000 0.0000 0.0000 0.0000 18.0696
#
#
#
# Elastic Compliance Matrix: (Units=1/GPa)
#
#
# Indices 1 2 3 4 5 6 
#
# 1 0.007717 -0.001869 -0.002853 0.000000 0.000000 0.000000
# 2 -0.001869 0.019451 -0.005557 0.000000 0.000000 0.000000
# 3 -0.002853 -0.005557 0.014407 0.000000 0.000000 0.000000
# 4 0.000000 0.000000 0.000000 0.090212 0.000000 0.000000
# 5 0.000000 0.000000 0.000000 0.000000 -0.003838 0.000000
# 6 0.000000 0.000000 0.000000 0.000000 0.000000 0.055342
#
#
# Mechanical properties :
#
#
# Convention : Reuss Voigt Hill
#
# Bulk Modulus (GPa) = 47.58142 54.52412 51.05277
# Shear Modulus (GPa) = 23.71317 -32.50248 -4.39465
#
# Velocity S-wave (km/s) = 3.34124 -3.91175 -1.43839
# Velocity P-wave (km/s) = 6.10623 2.29498 4.61265
#
# Compressibility (1/GPa) = 0.02101661
#
# Stress axis : x y z
#
# Youngs Moduli (GPa) = 129.59233 51.41191 69.40831
#
# Poissons Ratio (x) = 0.09610 0.19803
# Poissons Ratio (y) = 0.24223 0.38569
# Poissons Ratio (z) = 0.36973 0.28569
#
# Static dielectric constant tensor:
#      x y z
#    x 6.145470 0.000000 0.000000 
#    y 0.000000 3.513200 0.000000 
#    z 0.000000 0.000000 3.891050 
# 
# 
# High freq. dielectric constant tensor:
#      x y z
#    x 1.847780 0.000000 0.000000 
#    y 0.000000 1.802040 0.000000 
#    z 0.000000 0.000000 1.832880 
# 
# From -- ./inp_files/5884.got.cif
#   From: 2010.03.12/outbox.cif.g09.slc.cpg/sg38_3_cif.got.tgz:5884.got - 2010.04.14 02:38:36.
