data_PCOD8180784
_publ_section_title
;
Structure prediction by ZEFSAII (Michael W. Deem and Ramdas Pophale) SiO2 
 PCOD8180784
Probable space group: A B M 2
;
_chemical_formula_sum "Si O2"
_cell_formula_units_Z 64
_cell_length_a 9.876701
_cell_length_b 18.281828
_cell_length_c 19.542195
_cell_angle_alpha 90.000000
_cell_angle_beta 90.000000
_cell_angle_gamma 90.000000
_cell_volume 3528.619808
_symmetry_space_group_name_H-M "A B M 2"
_symmetry_group_IT_number 39
_symmetry_cell_setting 'orthorhombic'
loop_
_space_group_symop_operation_xyz
x,y,z
-x,-y,z
-x,1/2+y,z
x,1/2-y,z
x,1/2+y,1/2+z
-x,1/2-y,1/2+z
-x,y,1/2+z
x,-y,1/2+z
loop_
_atom_site_type_symbol
_atom_site_label
_atom_site_fract_x
_atom_site_fract_y
_atom_site_fract_z
Si Si1 0.647814 0.909405 0.862230
Si Si2 0.302583 0.835327 0.501727
Si Si3 0.906281 0.664036 0.360514
Si Si4 0.216026 0.835482 0.111819
Si Si5 0.847470 0.334131 0.266797
Si Si6 0.650556 0.073685 0.889916
Si Si7 0.552428 0.581226 0.543823
Si Si8 0.006683 0.163385 0.006512
O O1 0.682000 0.852755 0.921894
O O2 0.726062 0.883820 0.794919
O O3 0.487007 0.910577 0.847957
O O4 0.696996 0.989937 0.883939
O O5 0.315510 0.750000 0.512013
O O6 0.416951 0.871403 0.547731
O O7 0.156072 0.864586 0.527236
O O8 0.876444 0.750000 0.361704
O O9 0.762426 0.624168 0.354125
O O10 0.974039 0.635364 0.430386
O O11 0.006835 0.642693 0.298275
O O12 0.252920 0.750000 0.098492
O O13 0.150515 0.846280 0.185934
O O14 0.347756 0.886625 0.101729
O O15 0.103575 0.865999 0.059561
O O16 0.818116 0.250000 0.286125
O O17 0.625222 0.089750 0.970231
O O18 0.500000 0.500000 0.559595
O O19 0.005643 0.250000 0.006621
#
# Coordination Sequence:
#
# PCOD8180784 Si02
#       8
#     8   8   8   8   8   8   8   8
#     4  10  19  35  53  80 114 148 183 234 286 337
#     4  10  18  31  56  85 110 141 188 239 281 328
#     4  10  19  33  56  84 111 145 194 244 287 339
#     4  10  21  38  60  83 115 154 191 236 292 351
#     4  10  21  38  58  82 113 150 193 236 289 350
#     4  10  20  34  55  82 117 145 189 238 292 334
#     4  11  20  36  54  85 119 152 187 238 288 347
#     4   9  17  31  54  83 108 138 184 238 286 330
#
# _framework density 18.137402999999999
#
# number of rings (size 3 to 8) (size 9 to 14) (size 15 to 20)
#    0.000    2.000    5.000    0.750    0.000    3.000 
#    2.250    3.125    2.750    3.000    0.000    0.000 
#    0.000    0.000    0.000    0.000    0.000    0.000 
#
# Total GULP energy -396741.798069 kJ/mol
# GULP energy per Si atom -12398.181190 kJ/mol
# Density = 1.809612 g / cm^3
# Si number density = 18.137403 Si / 1000 Ang^3
#
#
#
# Elastic Constant Matrix: (Units=GPa)
#
#
# Indices 1 2 3 4 5 6 
#
# 1 145.5935 62.2282 54.0902 0.0000 0.0000 0.0000
# 2 62.2282 73.7472 28.7986 0.0000 0.0000 0.0000
# 3 54.0902 28.7986 77.9645 0.0000 0.0000 0.0000
# 4 0.0000 0.0000 0.0000 18.3567 0.0000 0.0000
# 5 0.0000 0.0000 0.0000 0.0000 28.2752 0.0000
# 6 0.0000 0.0000 0.0000 0.0000 0.0000 24.0243
#
#
#
# Elastic Compliance Matrix: (Units=1/GPa)
#
#
# Indices 1 2 3 4 5 6 
#
# 1 0.012534 -0.008391 -0.005596 0.000000 0.000000 0.000000
# 2 -0.008391 0.021463 -0.002107 0.000000 0.000000 0.000000
# 3 -0.005596 -0.002107 0.017487 0.000000 0.000000 0.000000
# 4 0.000000 0.000000 0.000000 0.054476 0.000000 0.000000
# 5 0.000000 0.000000 0.000000 0.000000 0.035367 0.000000
# 6 0.000000 0.000000 0.000000 0.000000 0.000000 0.041625
#
#
# Mechanical properties :
#
#
# Convention : Reuss Voigt Hill
#
# Bulk Modulus (GPa) = 51.82349 65.28214 58.55282
# Shear Modulus (GPa) = 22.56622 24.27712 23.42167
#
# Velocity S-wave (km/s) = 3.53112 3.66254 3.59743
# Velocity P-wave (km/s) = 6.72754 7.34553 7.04332
#
# Compressibility (1/GPa) = 0.01929627
#
# Stress axis : x y z
#
# Youngs Moduli (GPa) = 79.78398 46.59269 57.18495
#
# Poissons Ratio (x) = 0.39095 0.32003
# Poissons Ratio (y) = 0.66944 0.12046
# Poissons Ratio (z) = 0.44650 0.09815
#
# Static dielectric constant tensor:
#      x y z
#    x 3.604400 0.000000 0.000000 
#    y 0.000000 3.261830 0.000000 
#    z 0.000000 0.000000 3.105140 
# 
# 
# High freq. dielectric constant tensor:
#      x y z
#    x 1.716340 0.000000 0.000000 
#    y 0.000000 1.694250 0.000000 
#    z 0.000000 0.000000 1.671740 
# 
# From -- ./inp_files/14169.got.cif
#   From: 2010.03.12/outbox.cif.g09.slc.cpg/sg39_8_cif.got.tgz:14169.got - 2010.04.14 02:53:20.
