data_PCOD8180183
_publ_section_title
;
Structure prediction by ZEFSAII (Michael W. Deem and Ramdas Pophale) SiO2 
 PCOD8180183
Probable space group: A M M 2
;
_chemical_formula_sum "Si O2"
_cell_formula_units_Z 64
_cell_length_a 17.385714
_cell_length_b 14.035359
_cell_length_c 12.631917
_cell_angle_alpha 90.000000
_cell_angle_beta 90.000000
_cell_angle_gamma 90.000000
_cell_volume 3082.373910
_symmetry_space_group_name_H-M "A M M 2"
_symmetry_group_IT_number 38
_symmetry_cell_setting 'orthorhombic'
loop_
_space_group_symop_operation_xyz
x,y,z
-x,-y,z
-x,y,z
x,-y,z
x,1/2+y,1/2+z
-x,1/2-y,1/2+z
-x,1/2+y,1/2+z
x,1/2-y,1/2+z
loop_
_atom_site_type_symbol
_atom_site_label
_atom_site_fract_x
_atom_site_fract_y
_atom_site_fract_z
Si Si1 0.307689 0.247134 0.784910
Si Si2 0.412836 0.894004 0.911346
Si Si3 0.084389 0.106595 0.163312
Si Si4 0.587173 0.107771 0.160909
Si Si5 0.807084 0.604139 0.841707
Si Si6 0.822453 0.110805 0.723375
Si Si7 0.086105 0.643502 0.017551
Si Si8 0.914096 0.352184 0.433843
O O1 0.361727 0.186656 0.859797
O O2 0.356123 0.313110 0.706578
O O3 0.259811 0.318926 0.861131
O O4 0.254847 0.173841 0.718065
O O5 0.500000 0.879992 0.872092
O O6 0.384048 0.000000 0.878386
O O7 0.407879 0.882553 0.035978
O O8 0.142930 0.153954 0.246497
O O9 0.000000 0.159069 0.163846
O O10 0.073103 0.000000 0.205861
O O11 0.117425 0.103636 0.044108
O O12 0.500000 0.128030 0.199462
O O13 0.610917 0.000000 0.195169
O O14 0.774360 0.500000 0.806483
O O15 0.856050 0.581280 0.947283
O O16 0.882341 0.152509 0.637032
O O17 0.858062 0.117559 0.840387
O O18 0.804131 0.000000 0.698239
O O19 0.000000 0.599643 0.022415
O O20 0.084432 0.740495 0.952245
O O21 0.000000 0.390920 0.409233
#
# Coordination Sequence:
#
# PCOD8180183 Si02
#       8
#     8   8   8   8   8   8   8   8
#     4  12  23  37  62  94 131 159 198 250 314 363
#     4   9  20  41  68  96 125 161 202 240 290 367
#     4   9  18  34  57  82 109 147 202 266 322 367
#     4   9  20  41  69  97 124 159 202 244 297 370
#     4  11  23  38  58  87 122 162 208 261 319 373
#     4  12  26  41  59  89 127 169 211 258 318 379
#     4  11  24  42  61  81 115 168 223 269 311 366
#     4  10  21  38  61  84 111 152 210 272 322 372
#
# _framework density 20.763217999999998
#
# number of rings (size 3 to 8) (size 9 to 14) (size 15 to 20)
#    0.000    1.625    1.250    4.125    1.750    3.750 
#    0.000    1.250    0.000    0.000    0.000    5.250 
#    0.000    0.000    0.000    0.000    0.000    0.000 
#
# Total GULP energy -396634.996313 kJ/mol
# GULP energy per Si atom -12394.843635 kJ/mol
# Density = 2.071596 g / cm^3
# Si number density = 20.763218 Si / 1000 Ang^3
#
#
#
# Elastic Constant Matrix: (Units=GPa)
#
#
# Indices 1 2 3 4 5 6 
#
# 1 118.4982 64.0985 52.4045 0.0000 0.0000 0.0000
# 2 64.0985 112.5443 30.5718 0.0000 0.0000 0.0000
# 3 52.4045 30.5718 98.9502 0.0000 0.0000 0.0000
# 4 0.0000 0.0000 0.0000 32.5767 0.0000 0.0000
# 5 0.0000 0.0000 0.0000 0.0000 30.8980 0.0000
# 6 0.0000 0.0000 0.0000 0.0000 0.0000 -9.1709
#
#
#
# Elastic Compliance Matrix: (Units=1/GPa)
#
#
# Indices 1 2 3 4 5 6 
#
# 1 0.014602 -0.006785 -0.005637 0.000000 0.000000 0.000000
# 2 -0.006785 0.012852 -0.000377 0.000000 0.000000 0.000000
# 3 -0.005637 -0.000377 0.013208 0.000000 0.000000 0.000000
# 4 0.000000 0.000000 0.000000 0.030697 0.000000 0.000000
# 5 0.000000 0.000000 0.000000 0.000000 0.032365 0.000000
# 6 0.000000 0.000000 0.000000 0.000000 0.000000 -0.109041
#
#
# Mechanical properties :
#
#
# Convention : Reuss Voigt Hill
#
# Bulk Modulus (GPa) = 66.38635 69.34914 67.86774
# Shear Modulus (GPa) = 197.60056 23.05529 110.32792
#
# Velocity S-wave (km/s) = 9.76602 3.33587 7.29737
# Velocity P-wave (km/s) = 12.61782 6.95053 10.18625
#
# Compressibility (1/GPa) = 0.01506334
#
# Stress axis : x y z
#
# Youngs Moduli (GPa) = 68.48305 77.80650 75.71134
#
# Poissons Ratio (x) = 0.52794 0.42678
# Poissons Ratio (y) = 0.46468 0.02857
# Poissons Ratio (z) = 0.38604 0.02936
#
# Static dielectric constant tensor:
#      x y z
#    x 3.849820 0.000000 0.000000 
#    y 0.000000 3.827860 0.000000 
#    z 0.000000 0.000000 3.573960 
# 
# 
# High freq. dielectric constant tensor:
#      x y z
#    x 1.799600 0.000000 0.000000 
#    y 0.000000 1.830160 0.000000 
#    z 0.000000 0.000000 1.802700 
# 
# From -- ./inp_files/10611.got.cif
#   From: 2010.03.12/outbox.cif.g09.slc.cpg/sg38_6_cif.got.tgz:10611.got - 2010.04.14 02:38:36.
