data_PCOD8180959
_publ_section_title
;
Structure prediction by ZEFSAII (Michael W. Deem and Ramdas Pophale) SiO2 
 PCOD8180959
Probable space group: A B M 2
;
_chemical_formula_sum "Si O2"
_cell_formula_units_Z 60
_cell_length_a 13.529092
_cell_length_b 28.554279
_cell_length_c 9.181635
_cell_angle_alpha 90.000000
_cell_angle_beta 90.000000
_cell_angle_gamma 90.000000
_cell_volume 3546.989255
_symmetry_space_group_name_H-M "A B M 2"
_symmetry_group_IT_number 39
_symmetry_cell_setting 'orthorhombic'
loop_
_space_group_symop_operation_xyz
x,y,z
-x,-y,z
-x,1/2+y,z
x,1/2-y,z
x,1/2+y,1/2+z
-x,1/2-y,1/2+z
-x,y,1/2+z
x,-y,1/2+z
loop_
_atom_site_type_symbol
_atom_site_label
_atom_site_fract_x
_atom_site_fract_y
_atom_site_fract_z
Si Si1 0.578522 0.695005 0.012360
Si Si2 0.000000 0.000000 0.989854
Si Si3 0.092268 0.365422 0.329383
Si Si4 0.386111 0.305915 0.683447
Si Si5 0.812237 0.640755 0.626126
Si Si6 0.785523 0.303255 0.609916
Si Si7 0.080916 0.301612 0.838569
Si Si8 0.065026 0.937659 0.244259
O O1 0.585843 0.750000 0.023429
O O2 0.476337 0.678101 0.081326
O O3 0.673827 0.676374 0.102292
O O4 0.582336 0.679772 0.845151
O O5 0.063294 0.965735 0.092279
O O6 0.924010 0.971454 0.884592
O O7 0.166255 0.376186 0.461943
O O8 0.149993 0.337656 0.205886
O O9 0.005760 0.334075 0.399327
O O10 0.041590 0.411450 0.260541
O O11 0.360513 0.250000 0.668196
O O12 0.298583 0.340335 0.635043
O O13 0.883662 0.682896 0.677670
O O14 0.840571 0.597352 0.734977
O O15 0.789642 0.250000 0.672712
O O16 0.825225 0.303456 0.444979
O O17 0.036748 0.250000 0.823450
#
# Coordination Sequence:
#
# PCOD8180959 Si02
#       8
#     8   4   8   8   8   8   8   8
#     4   9  19  34  49  69  96 141 193 232 265 300
#     4  10  20  38  60  74 108 140 168 196 266 328
#     4  11  22  31  47  77 108 138 174 216 251 311
#     4  10  20  34  52  71 103 144 186 232 271 304
#     4  11  21  33  50  76 105 135 175 220 265 310
#     4  10  20  33  48  69 105 149 189 223 258 301
#     4  10  19  32  46  65 102 148 183 211 251 302
#     4  10  21  37  55  82 106 139 163 212 254 327
#
# _framework density 16.915755000000001
#
# number of rings (size 3 to 8) (size 9 to 14) (size 15 to 20)
#    0.000    1.867    2.667    2.400    3.733    3.200 
#    0.000    0.000    0.000    0.000    0.000    0.000 
#    0.000   18.133    0.000    0.000    0.000    0.000 
#
# Total GULP energy -371810.519950 kJ/mol
# GULP energy per Si atom -12393.683998 kJ/mol
# Density = 1.687725 g / cm^3
# Si number density = 16.915755 Si / 1000 Ang^3
#
#
#
# Elastic Constant Matrix: (Units=GPa)
#
#
# Indices 1 2 3 4 5 6 
#
# 1 113.4350 39.3447 40.3827 0.0000 0.0000 0.0000
# 2 39.3447 76.1660 35.8573 0.0000 0.0000 0.0000
# 3 40.3827 35.8573 88.6665 0.0000 0.0000 0.0000
# 4 0.0000 0.0000 0.0000 20.7015 0.0000 0.0000
# 5 0.0000 0.0000 0.0000 0.0000 24.8736 0.0000
# 6 0.0000 0.0000 0.0000 0.0000 0.0000 15.9985
#
#
#
# Elastic Compliance Matrix: (Units=1/GPa)
#
#
# Indices 1 2 3 4 5 6 
#
# 1 0.011567 -0.004317 -0.003522 0.000000 0.000000 0.000000
# 2 -0.004317 0.017828 -0.005244 0.000000 0.000000 0.000000
# 3 -0.003522 -0.005244 0.015003 0.000000 0.000000 0.000000
# 4 0.000000 0.000000 0.000000 0.048306 0.000000 0.000000
# 5 0.000000 0.000000 0.000000 0.000000 0.040203 0.000000
# 6 0.000000 0.000000 0.000000 0.000000 0.000000 0.062506
#
#
# Mechanical properties :
#
#
# Convention : Reuss Voigt Hill
#
# Bulk Modulus (GPa) = 54.84822 56.60410 55.72616
# Shear Modulus (GPa) = 21.96308 23.16026 22.56167
#
# Velocity S-wave (km/s) = 3.60721 3.70422 3.65604
# Velocity P-wave (km/s) = 7.06003 7.19931 7.13001
#
# Compressibility (1/GPa) = 0.01823213
#
# Stress axis : x y z
#
# Youngs Moduli (GPa) = 86.45415 56.09249 66.65345
#
# Poissons Ratio (x) = 0.24214 0.23477
# Poissons Ratio (y) = 0.37320 0.34950
# Poissons Ratio (z) = 0.30452 0.29413
#
# Static dielectric constant tensor:
#      x y z
#    x 3.285740 0.000000 0.000000 
#    y 0.000000 3.124340 0.000000 
#    z 0.000000 0.000000 3.308940 
# 
# 
# High freq. dielectric constant tensor:
#      x y z
#    x 1.633310 0.000000 0.000000 
#    y 0.000000 1.623610 0.000000 
#    z 0.000000 0.000000 1.664480 
# 
# From -- ./inp_files/2871.got.cif
#   From: 2010.03.12/outbox.cif.g09.slc.cpg/sg39_2_cif.got.tgz:2871.got - 2010.04.14 02:53:20.
