data_PCOD8180798
_publ_section_title
;
Structure prediction by ZEFSAII (Michael W. Deem and Ramdas Pophale) SiO2 
 PCOD8180798
Probable space group: A B M 2
;
_chemical_formula_sum "Si O2"
_cell_formula_units_Z 52
_cell_length_a 20.913738
_cell_length_b 9.592696
_cell_length_c 13.791920
_cell_angle_alpha 90.000000
_cell_angle_beta 90.000000
_cell_angle_gamma 90.000000
_cell_volume 2766.923003
_symmetry_space_group_name_H-M "A B M 2"
_symmetry_group_IT_number 39
_symmetry_cell_setting 'orthorhombic'
loop_
_space_group_symop_operation_xyz
x,y,z
-x,-y,z
-x,1/2+y,z
x,1/2-y,z
x,1/2+y,1/2+z
-x,1/2-y,1/2+z
-x,y,1/2+z
x,-y,1/2+z
loop_
_atom_site_type_symbol
_atom_site_label
_atom_site_fract_x
_atom_site_fract_y
_atom_site_fract_z
Si Si1 0.607931 0.090428 0.189640
Si Si2 0.500000 0.500000 0.830166
Si Si3 0.398319 0.594170 0.974599
Si Si4 0.061361 0.414147 0.953177
Si Si5 0.696375 0.914933 0.317890
Si Si6 0.943812 0.905644 0.177132
Si Si7 0.156351 0.089948 0.335816
O O1 0.631308 0.250000 0.186603
O O2 0.546476 0.086863 0.260178
O O3 0.665696 0.994303 0.226804
O O4 0.590444 0.028472 0.081835
O O5 0.459689 0.595709 0.903828
O O6 0.379137 0.750000 0.998273
O O7 0.338215 0.528062 0.916081
O O8 0.054623 0.250000 0.927409
O O9 0.069374 0.441511 0.066407
O O10 0.000000 0.500000 0.913606
O O11 0.125121 0.480734 0.909250
O O12 0.684773 0.750000 0.303486
O O13 0.770427 0.952970 0.323654
O O14 0.969617 0.750000 0.189607
O O15 0.877367 0.928863 0.232104
O O16 0.000000 0.000000 0.221696
O O17 0.149516 0.250000 0.373262
#
# Coordination Sequence:
#
# PCOD8180798 Si02
#       7
#     8   4   8   8   8   8   8
#     4  10  20  34  54  78 103 133 172 214 251 298
#     4  10  18  32  52  78 106 134 166 208 256 306
#     4   9  18  33  51  73 103 136 168 207 257 306
#     4  10  20  34  52  76 104 133 167 212 261 308
#     4   9  20  37  53  72 104 141 173 209 257 309
#     4   9  19  34  51  73 102 132 167 211 259 310
#     4  10  20  35  54  75 101 137 176 212 255 307
#
# _framework density 18.79344
#
# number of rings (size 3 to 8) (size 9 to 14) (size 15 to 20)
#    0.000    2.462    0.000    1.846    0.000    4.923 
#    0.000    3.846    0.000    0.000    0.000    0.000 
#    0.000    0.000    0.000    0.000    0.000    0.000 
#
# Total GULP energy -322234.296732 kJ/mol
# GULP energy per Si atom -12393.626797 kJ/mol
# Density = 1.875067 g / cm^3
# Si number density = 18.793440 Si / 1000 Ang^3
#
#
#
# Elastic Constant Matrix: (Units=GPa)
#
#
# Indices 1 2 3 4 5 6 
#
# 1 151.9064 51.1738 67.4629 0.0000 0.0000 0.0000
# 2 51.1738 78.9453 44.8828 0.0000 0.0000 0.0000
# 3 67.4629 44.8828 131.3172 0.0000 0.0000 0.0000
# 4 0.0000 0.0000 0.0000 20.4775 0.0000 0.0000
# 5 0.0000 0.0000 0.0000 0.0000 -2.2634 0.0000
# 6 0.0000 0.0000 0.0000 0.0000 0.0000 29.9675
#
#
#
# Elastic Compliance Matrix: (Units=1/GPa)
#
#
# Indices 1 2 3 4 5 6 
#
# 1 0.009540 -0.004217 -0.003460 0.000000 0.000000 0.000000
# 2 -0.004217 0.017586 -0.003844 0.000000 0.000000 0.000000
# 3 -0.003460 -0.003844 0.010707 0.000000 0.000000 0.000000
# 4 0.000000 0.000000 0.000000 0.048834 0.000000 0.000000
# 5 0.000000 0.000000 0.000000 0.000000 -0.441818 0.000000
# 6 0.000000 0.000000 0.000000 0.000000 0.000000 0.033369
#
#
# Mechanical properties :
#
#
# Convention : Reuss Voigt Hill
#
# Bulk Modulus (GPa) = 67.61092 76.57865 72.09479
# Shear Modulus (GPa) = -17.01789 22.87962 2.93087
#
# Velocity S-wave (km/s) = -3.01246 3.49295 1.25016
# Velocity P-wave (km/s) = 4.89429 7.55669 6.36623
#
# Compressibility (1/GPa) = 0.01479051
#
# Stress axis : x y z
#
# Youngs Moduli (GPa) = 104.81989 56.86272 93.40105
#
# Poissons Ratio (x) = 0.23980 0.32315
# Poissons Ratio (y) = 0.44204 0.35906
# Poissons Ratio (z) = 0.36266 0.21860
#
# Static dielectric constant tensor:
#      x y z
#    x 3.458640 0.000000 0.000000 
#    y 0.000000 3.335500 0.000000 
#    z 0.000000 0.000000 3.730420 
# 
# 
# High freq. dielectric constant tensor:
#      x y z
#    x 1.723670 0.000000 0.000000 
#    y 0.000000 1.717070 0.000000 
#    z 0.000000 0.000000 1.742060 
# 
# From -- ./inp_files/10273.got.cif
#   From: 2010.03.12/outbox.cif.g09.slc.cpg/sg39_6_cif.got.tgz:10273.got - 2010.04.14 02:53:20.
