data_PCOD8180991
_publ_section_title
;
Structure prediction by ZEFSAII (Michael W. Deem and Ramdas Pophale) SiO2 
 PCOD8180991
Probable space group: A B M 2
;
_chemical_formula_sum "Si O2"
_cell_formula_units_Z 56
_cell_length_a 31.069240
_cell_length_b 18.549163
_cell_length_c 5.100932
_cell_angle_alpha 90.000000
_cell_angle_beta 90.000000
_cell_angle_gamma 90.000000
_cell_volume 2939.709944
_symmetry_space_group_name_H-M "A B M 2"
_symmetry_group_IT_number 39
_symmetry_cell_setting 'orthorhombic'
loop_
_space_group_symop_operation_xyz
x,y,z
-x,-y,z
-x,1/2+y,z
x,1/2-y,z
x,1/2+y,1/2+z
-x,1/2-y,1/2+z
-x,y,1/2+z
x,-y,1/2+z
loop_
_atom_site_type_symbol
_atom_site_label
_atom_site_fract_x
_atom_site_fract_y
_atom_site_fract_z
Si Si1 0.806998 0.544164 0.774910
Si Si2 0.027955 0.332672 0.801875
Si Si3 0.356802 0.668168 0.384744
Si Si4 0.285771 0.049078 0.869298
Si Si5 0.452630 0.530796 0.753041
Si Si6 0.412536 0.169559 0.384946
Si Si7 0.899981 0.549446 0.866446
O O1 0.806940 0.526339 0.465483
O O2 0.762256 0.584710 0.844294
O O3 0.851790 0.584495 0.844043
O O4 0.043727 0.250000 0.823968
O O5 0.068366 0.383823 0.842197
O O6 0.008003 0.349232 0.519028
O O7 0.339543 0.750000 0.357412
O O8 0.318113 0.614500 0.328251
O O9 0.374928 0.654896 0.675543
O O10 0.394560 0.655266 0.173962
O O11 0.292713 0.987615 0.650804
O O12 0.500000 0.500000 0.684881
O O13 0.428153 0.515391 0.478840
O O14 0.452109 0.615041 0.828123
O O15 0.431335 0.250000 0.355688
O O16 0.907399 0.489393 0.643682
#
# Coordination Sequence:
#
# PCOD8180991 Si02
#       7
#     8   8   8   8   8   8   8
#     4   8  16  30  47  70 100 129 161 204 249 292
#     4  10  21  35  49  69 100 131 160 205 261 308
#     4  10  21  35  52  78 108 136 168 208 250 294
#     4  10  19  32  52  77 103 135 171 204 246 299
#     4  10  21  37  55  79 105 130 166 213 250 284
#     4  10  21  37  55  75 105 140 168 201 253 305
#     4  10  19  32  52  74  96 127 168 210 248 295
#
# _framework density 19.049499000000001
#
# number of rings (size 3 to 8) (size 9 to 14) (size 15 to 20)
#    0.000    2.286    0.000    2.571    0.000    5.143 
#    0.000    3.571    0.000    0.000    0.000   18.000 
#    0.000    0.000    0.000    0.000    0.000    0.000 
#
# Total GULP energy -346968.513899 kJ/mol
# GULP energy per Si atom -12391.732639 kJ/mol
# Density = 1.900614 g / cm^3
# Si number density = 19.049499 Si / 1000 Ang^3
#
#
#
# Elastic Constant Matrix: (Units=GPa)
#
#
# Indices 1 2 3 4 5 6 
#
# 1 75.0943 49.3692 -4.8679 0.0000 0.0000 0.0000
# 2 49.3692 83.3512 6.9636 0.0000 0.0000 0.0000
# 3 -4.8679 6.9636 97.2298 0.0000 0.0000 0.0000
# 4 0.0000 0.0000 0.0000 23.4242 0.0000 0.0000
# 5 0.0000 0.0000 0.0000 0.0000 11.7616 0.0000
# 6 0.0000 0.0000 0.0000 0.0000 0.0000 10.3154
#
#
#
# Elastic Compliance Matrix: (Units=1/GPa)
#
#
# Indices 1 2 3 4 5 6 
#
# 1 0.022214 -0.013330 0.002067 0.000000 0.000000 0.000000
# 2 -0.013330 0.020069 -0.002105 0.000000 0.000000 0.000000
# 3 0.002067 -0.002105 0.010539 0.000000 0.000000 0.000000
# 4 0.000000 0.000000 0.000000 0.042691 0.000000 0.000000
# 5 0.000000 0.000000 0.000000 0.000000 0.085022 0.000000
# 6 0.000000 0.000000 0.000000 0.000000 0.000000 0.096943
#
#
# Mechanical properties :
#
#
# Convention : Reuss Voigt Hill
#
# Bulk Modulus (GPa) = 38.33470 39.84503 39.08986
# Shear Modulus (GPa) = 15.97905 22.71427 19.34666
#
# Velocity S-wave (km/s) = 2.89938 3.45683 3.19030
# Velocity P-wave (km/s) = 5.60142 6.07412 5.84255
#
# Compressibility (1/GPa) = 0.02608603
#
# Stress axis : x y z
#
# Youngs Moduli (GPa) = 45.01605 49.82844 94.88447
#
# Poissons Ratio (x) = 0.66423 -0.19612
# Poissons Ratio (y) = 0.60008 0.19971
# Poissons Ratio (z) = -0.09304 0.10488
#
# Static dielectric constant tensor:
#      x y z
#    x 3.547400 0.000000 0.000000 
#    y 0.000000 3.289420 0.000000 
#    z 0.000000 0.000000 3.994180 
# 
# 
# High freq. dielectric constant tensor:
#      x y z
#    x 1.728920 0.000000 0.000000 
#    y 0.000000 1.709300 0.000000 
#    z 0.000000 0.000000 1.775660 
# 
# From -- ./inp_files/1494.got.cif
#   From: 2010.03.12/outbox.cif.g09.slc.cpg/sg39_1_cif.got.tgz:1494.got - 2010.04.14 02:53:20.
