data_PCOD8180647
_publ_section_title
;
Structure prediction by ZEFSAII (Michael W. Deem and Ramdas Pophale) SiO2 
 PCOD8180647
Probable space group: A B M 2
;
_chemical_formula_sum "Si O2"
_cell_formula_units_Z 64
_cell_length_a 19.441787
_cell_length_b 8.628034
_cell_length_c 20.565748
_cell_angle_alpha 90.000000
_cell_angle_beta 90.000000
_cell_angle_gamma 90.000000
_cell_volume 3449.789044
_symmetry_space_group_name_H-M "A B M 2"
_symmetry_group_IT_number 39
_symmetry_cell_setting 'orthorhombic'
loop_
_space_group_symop_operation_xyz
x,y,z
-x,-y,z
-x,1/2+y,z
x,1/2-y,z
x,1/2+y,1/2+z
-x,1/2-y,1/2+z
-x,y,1/2+z
x,-y,1/2+z
loop_
_atom_site_type_symbol
_atom_site_label
_atom_site_fract_x
_atom_site_fract_y
_atom_site_fract_z
Si Si1 0.575609 0.568270 0.487500
Si Si2 0.650537 0.431061 0.366736
Si Si3 0.932218 0.433501 0.805148
Si Si4 0.790405 0.567206 0.162808
Si Si5 0.793919 0.431521 0.305569
Si Si6 0.930674 0.932949 0.661119
Si Si7 0.574547 0.567013 0.738704
Si Si8 0.342911 0.933804 0.113594
O O1 0.500000 0.500000 0.478275
O O2 0.566570 0.750000 0.490403
O O3 0.625787 0.524704 0.428886
O O4 0.611465 0.506917 0.553216
O O5 0.636957 0.250000 0.378200
O O6 0.730719 0.464942 0.353785
O O7 0.607593 0.493809 0.305307
O O8 0.937078 0.250000 0.797442
O O9 0.860110 0.482959 0.838322
O O10 0.930887 0.518725 0.736152
O O11 0.000000 0.500000 0.842919
O O12 0.793935 0.750000 0.171217
O O13 0.776629 0.492803 0.233519
O O14 0.861709 0.506664 0.130602
O O15 0.731037 0.517069 0.112611
O O16 0.808644 0.250000 0.299285
O O17 0.929365 0.750000 0.652979
O O18 0.000000 0.000000 0.627167
O O19 0.500000 0.500000 0.729997
O O20 0.571032 0.750000 0.738556
O O21 0.619697 0.508474 0.678643
O O22 0.331933 0.750000 0.111621
#
# Coordination Sequence:
#
# PCOD8180647 Si02
#       8
#     8   8   8   8   8   8   8   8
#     4  11  24  40  60  80 107 141 178 225 270 324
#     4  10  21  37  57  78 106 142 177 220 269 323
#     4  10  17  26  41  67 102 140 179 218 261 314
#     4  11  20  30  49  78 107 138 177 223 268 317
#     4  10  18  32  51  73 105 143 177 219 269 317
#     4  10  17  27  43  66 102 143 179 217 261 314
#     4  10  20  35  54  77 102 133 171 213 264 319
#     4  10  21  39  56  75 105 142 179 217 270 322
#
# _framework density 18.551860000000001
#
# number of rings (size 3 to 8) (size 9 to 14) (size 15 to 20)
#    0.000    1.750    1.250    7.125    0.000    4.000 
#    0.000    0.000    0.000    0.000    0.000    0.875 
#    0.000    2.000    0.000    0.000    0.000    0.000 
#
# Total GULP energy -396751.359470 kJ/mol
# GULP energy per Si atom -12398.479983 kJ/mol
# Density = 1.850964 g / cm^3
# Si number density = 18.551860 Si / 1000 Ang^3
#
#
#
# Elastic Constant Matrix: (Units=GPa)
#
#
# Indices 1 2 3 4 5 6 
#
# 1 156.9593 42.5982 35.0369 0.0000 0.0000 0.0000
# 2 42.5982 69.1271 24.2347 0.0000 0.0000 0.0000
# 3 35.0369 24.2347 68.7465 0.0000 0.0000 0.0000
# 4 0.0000 0.0000 0.0000 18.9876 0.0000 0.0000
# 5 0.0000 0.0000 0.0000 0.0000 18.3781 0.0000
# 6 0.0000 0.0000 0.0000 0.0000 0.0000 38.2252
#
#
#
# Elastic Compliance Matrix: (Units=1/GPa)
#
#
# Indices 1 2 3 4 5 6 
#
# 1 0.008064 -0.004026 -0.002691 0.000000 0.000000 0.000000
# 2 -0.004026 0.018516 -0.004475 0.000000 0.000000 0.000000
# 3 -0.002691 -0.004475 0.017495 0.000000 0.000000 0.000000
# 4 0.000000 0.000000 0.000000 0.052666 0.000000 0.000000
# 5 0.000000 0.000000 0.000000 0.000000 0.054412 0.000000
# 6 0.000000 0.000000 0.000000 0.000000 0.000000 0.026161
#
#
# Mechanical properties :
#
#
# Convention : Reuss Voigt Hill
#
# Bulk Modulus (GPa) = 46.10182 55.39694 50.74938
# Shear Modulus (GPa) = 24.16276 27.98241 26.07258
#
# Velocity S-wave (km/s) = 3.61285 3.88794 3.75292
# Velocity P-wave (km/s) = 6.50445 7.07674 6.79662
#
# Compressibility (1/GPa) = 0.02169112
#
# Stress axis : x y z
#
# Youngs Moduli (GPa) = 124.00176 54.00685 57.15850
#
# Poissons Ratio (x) = 0.21744 0.15380
# Poissons Ratio (y) = 0.49926 0.25581
# Poissons Ratio (z) = 0.33365 0.24170
#
# Static dielectric constant tensor:
#      x y z
#    x 4.252840 0.000000 0.000000 
#    y 0.000000 3.386720 0.000000 
#    z 0.000000 0.000000 3.067490 
# 
# 
# High freq. dielectric constant tensor:
#      x y z
#    x 1.749950 0.000000 0.000000 
#    y 0.000000 1.727080 0.000000 
#    z 0.000000 0.000000 1.662360 
# 
# From -- ./inp_files/13204.got.cif
#   From: 2010.03.12/outbox.cif.g09.slc.cpg/sg39_7_cif.got.tgz:13204.got - 2010.04.14 02:53:20.
