data_PCOD8180685
_publ_section_title
;
Structure prediction by ZEFSAII (Michael W. Deem and Ramdas Pophale) SiO2 
 PCOD8180685
Probable space group: A B M 2
;
_chemical_formula_sum "Si O2"
_cell_formula_units_Z 64
_cell_length_a 15.159138
_cell_length_b 8.652808
_cell_length_c 30.284996
_cell_angle_alpha 90.000000
_cell_angle_beta 90.000000
_cell_angle_gamma 90.000000
_cell_volume 3972.455989
_symmetry_space_group_name_H-M "A B M 2"
_symmetry_group_IT_number 39
_symmetry_cell_setting 'orthorhombic'
loop_
_space_group_symop_operation_xyz
x,y,z
-x,-y,z
-x,1/2+y,z
x,1/2-y,z
x,1/2+y,1/2+z
-x,1/2-y,1/2+z
-x,y,1/2+z
x,-y,1/2+z
loop_
_atom_site_type_symbol
_atom_site_label
_atom_site_fract_x
_atom_site_fract_y
_atom_site_fract_z
Si Si1 0.088670 0.423505 0.168470
Si Si2 0.403768 0.568528 0.604155
Si Si3 0.269610 0.071959 0.772788
Si Si4 0.269610 0.571959 0.169131
Si Si5 0.598152 0.933232 0.514973
Si Si6 0.596232 0.931472 0.337764
Si Si7 0.401848 0.566768 0.426946
Si Si8 0.088670 0.576495 0.773449
O O1 0.097307 0.250000 0.149893
O O2 0.172628 0.522235 0.152702
O O3 0.083199 0.421692 0.220960
O O4 0.000000 0.500000 0.148809
O O5 0.500000 0.500000 0.613671
O O6 0.412904 0.750000 0.597102
O O7 0.342559 0.532423 0.645726
O O8 0.358026 0.493334 0.560415
O O9 0.284504 0.250000 0.785086
O O10 0.279829 0.041906 0.720960
O O11 0.342559 0.967577 0.796194
O O12 0.172628 0.022235 0.789217
O O13 0.284504 0.750000 0.156834
O O14 0.598106 0.750000 0.513291
O O15 0.500000 0.000000 0.515728
O O16 0.646679 0.000000 0.470960
O O17 0.587096 0.750000 0.344818
O O18 0.500000 0.000000 0.328249
O O19 0.641974 0.006666 0.381505
O O20 0.500000 0.500000 0.426192
O O21 0.401894 0.750000 0.428628
O O22 0.097306 0.750000 0.792027
O O23 0.000000 0.500000 0.793111
#
# Coordination Sequence:
#
# PCOD8180685 Si02
#       8
#     8   8   8   8   8   8   8   8
#     4   9  16  27  44  65  87 112 143 181 225 269
#     4  11  21  33  47  64  88 119 154 189 225 265
#     4  10  20  33  47  64  88 119 154 190 226 265
#     4  10  20  33  47  64  88 119 154 190 226 265
#     4  10  17  28  45  65  87 111 142 180 224 268
#     4  11  21  33  47  64  88 119 154 189 225 265
#     4  10  17  28  45  65  87 111 142 180 224 268
#     4   9  16  27  44  65  87 112 143 181 225 269
#
# _framework density 16.110938999999998
#
# number of rings (size 3 to 8) (size 9 to 14) (size 15 to 20)
#    0.000    2.000    0.000    8.250    0.000    5.000 
#    0.000    0.000    0.000    0.000    0.000    0.000 
#    0.000    1.000    0.000   10.000    0.000    6.500 
#
# Total GULP energy -396733.888634 kJ/mol
# GULP energy per Si atom -12397.934020 kJ/mol
# Density = 1.607427 g / cm^3
# Si number density = 16.110939 Si / 1000 Ang^3
#
#
#
# Elastic Constant Matrix: (Units=GPa)
#
#
# Indices 1 2 3 4 5 6 
#
# 1 77.1346 32.4117 37.0678 0.0000 0.0000 0.0000
# 2 32.4117 140.0258 38.3822 0.0000 0.0000 0.0000
# 3 37.0678 38.3822 59.2118 0.0000 0.0000 0.0000
# 4 0.0000 0.0000 0.0000 25.5863 0.0000 0.0000
# 5 0.0000 0.0000 0.0000 0.0000 0.6685 0.0000
# 6 0.0000 0.0000 0.0000 0.0000 0.0000 26.6203
#
#
#
# Elastic Compliance Matrix: (Units=1/GPa)
#
#
# Indices 1 2 3 4 5 6 
#
# 1 0.018755 -0.001366 -0.010856 0.000000 0.000000 0.000000
# 2 -0.001366 0.008784 -0.004839 0.000000 0.000000 0.000000
# 3 -0.010856 -0.004839 0.026821 0.000000 0.000000 0.000000
# 4 0.000000 0.000000 0.000000 0.039083 0.000000 0.000000
# 5 0.000000 0.000000 0.000000 0.000000 1.495817 0.000000
# 6 0.000000 0.000000 0.000000 0.000000 0.000000 0.037565
#
#
# Mechanical properties :
#
#
# Convention : Reuss Voigt Hill
#
# Bulk Modulus (GPa) = 49.40867 54.67726 52.04297
# Shear Modulus (GPa) = 2.99815 21.80906 12.40361
#
# Velocity S-wave (km/s) = 1.36564 3.68323 2.77769
# Velocity P-wave (km/s) = 5.76377 7.21803 6.53150
#
# Compressibility (1/GPa) = 0.02023936
#
# Stress axis : x y z
#
# Youngs Moduli (GPa) = 53.31909 113.84249 37.28376
#
# Poissons Ratio (x) = 0.15546 0.40475
# Poissons Ratio (y) = 0.07281 0.18042
# Poissons Ratio (z) = 0.57882 0.55090
#
# Static dielectric constant tensor:
#      x y z
#    x 2.854830 0.000000 0.000000 
#    y 0.000000 3.232550 0.000000 
#    z 0.000000 0.000000 3.435160 
# 
# 
# High freq. dielectric constant tensor:
#      x y z
#    x 1.584830 0.000000 0.000000 
#    y 0.000000 1.645450 0.000000 
#    z 0.000000 0.000000 1.595220 
# 
# From -- ./inp_files/17989.got.cif
#   From: 2010.03.12/outbox.cif.g09.slc.cpg/sg39_9_cif.got.tgz:17989.got - 2010.04.14 02:53:20.
