data_PCOD8180750
_publ_section_title
;
Structure prediction by ZEFSAII (Michael W. Deem and Ramdas Pophale) SiO2 
 PCOD8180750
Probable space group: A B M 2
;
_chemical_formula_sum "Si O2"
_cell_formula_units_Z 48
_cell_length_a 9.106572
_cell_length_b 8.680161
_cell_length_c 31.160504
_cell_angle_alpha 90.000000
_cell_angle_beta 90.000000
_cell_angle_gamma 90.000000
_cell_volume 2463.129126
_symmetry_space_group_name_H-M "A B M 2"
_symmetry_group_IT_number 39
_symmetry_cell_setting 'orthorhombic'
loop_
_space_group_symop_operation_xyz
x,y,z
-x,-y,z
-x,1/2+y,z
x,1/2-y,z
x,1/2+y,1/2+z
-x,1/2-y,1/2+z
-x,y,1/2+z
x,-y,1/2+z
loop_
_atom_site_type_symbol
_atom_site_label
_atom_site_fract_x
_atom_site_fract_y
_atom_site_fract_z
Si Si1 0.662735 0.932778 0.830300
Si Si2 0.659241 0.430030 0.916490
Si Si3 0.839365 0.430132 0.001126
Si Si4 0.339141 0.432339 0.078753
Si Si5 0.160254 0.931859 0.661104
Si Si6 0.661634 0.567285 0.243770
O O1 0.664041 0.750000 0.828395
O O2 0.500000 0.000000 0.831363
O O3 0.735910 0.992445 0.874489
O O4 0.737786 0.000788 0.787243
O O5 0.500000 0.500000 0.927103
O O6 0.638171 0.250000 0.908029
O O7 0.768291 0.465101 0.955237
O O8 0.847436 0.250000 0.011069
O O9 0.740277 0.510656 0.036372
O O10 0.000000 0.500000 0.002253
O O11 0.500000 0.500000 0.080974
O O12 0.349470 0.250000 0.077728
O O13 0.251172 0.492114 0.120289
O O14 0.148383 0.750000 0.660462
O O15 0.239637 0.989256 0.704259
O O16 0.000000 0.000000 0.658780
O O17 0.500000 0.500000 0.237147
O O18 0.650795 0.750000 0.246784
#
# Coordination Sequence:
#
# PCOD8180750 Si02
#       6
#     8   8   8   8   8   8
#     4  10  18  30  52  81 110 143 183 228 278 326
#     4  10  20  35  56  82 111 145 186 231 278 328
#     4  11  24  40  59  84 115 151 188 230 281 336
#     4  11  23  40  62  88 115 146 187 232 279 331
#     4  10  23  39  57  82 113 149 186 227 276 331
#     4  10  19  34  55  81 111 144 185 230 276 326
#
# _framework density 19.487406
#
# number of rings (size 3 to 8) (size 9 to 14) (size 15 to 20)
#    0.000    1.667    0.000    7.000    0.000    8.000 
#    0.000    0.833    0.000    0.000    0.000    0.000 
#    0.000    0.000    0.000    0.000    0.000    0.000 
#
# Total GULP energy -297622.306319 kJ/mol
# GULP energy per Si atom -12400.929430 kJ/mol
# Density = 1.944305 g / cm^3
# Si number density = 19.487406 Si / 1000 Ang^3
#
#
#
# Elastic Constant Matrix: (Units=GPa)
#
#
# Indices 1 2 3 4 5 6 
#
# 1 124.8855 45.4296 73.7051 0.0000 0.0000 0.0000
# 2 45.4296 106.7118 68.9543 0.0000 0.0000 0.0000
# 3 73.7051 68.9543 171.2062 0.0000 0.0000 0.0000
# 4 0.0000 0.0000 0.0000 69.1023 0.0000 0.0000
# 5 0.0000 0.0000 0.0000 0.0000 7.8219 0.0000
# 6 0.0000 0.0000 0.0000 0.0000 0.0000 32.1092
#
#
#
# Elastic Compliance Matrix: (Units=1/GPa)
#
#
# Indices 1 2 3 4 5 6 
#
# 1 0.011109 -0.002216 -0.003890 0.000000 0.000000 0.000000
# 2 -0.002216 0.013110 -0.004326 0.000000 0.000000 0.000000
# 3 -0.003890 -0.004326 0.009258 0.000000 0.000000 0.000000
# 4 0.000000 0.000000 0.000000 0.014471 0.000000 0.000000
# 5 0.000000 0.000000 0.000000 0.000000 0.127847 0.000000
# 6 0.000000 0.000000 0.000000 0.000000 0.000000 0.031144
#
#
# Mechanical properties :
#
#
# Convention : Reuss Voigt Hill
#
# Bulk Modulus (GPa) = 79.28376 86.55350 82.91863
# Shear Modulus (GPa) = 21.55107 36.12097 28.83602
#
# Velocity S-wave (km/s) = 3.32911 4.30996 3.85089
# Velocity P-wave (km/s) = 7.45320 8.32341 7.90030
#
# Compressibility (1/GPa) = 0.01261292
#
# Stress axis : x y z
#
# Youngs Moduli (GPa) = 90.01494 76.27898 108.01419
#
# Poissons Ratio (x) = 0.16901 0.42020
# Poissons Ratio (y) = 0.19945 0.46729
# Poissons Ratio (z) = 0.35018 0.32999
#
# Static dielectric constant tensor:
#      x y z
#    x 3.364010 0.000000 0.000000 
#    y 0.000000 3.661170 0.000000 
#    z 0.000000 0.000000 4.405090 
# 
# 
# High freq. dielectric constant tensor:
#      x y z
#    x 1.736930 0.000000 0.000000 
#    y 0.000000 1.772430 0.000000 
#    z 0.000000 0.000000 1.787860 
# 
# From -- ./inp_files/17596.got.cif
#   From: 2010.03.12/outbox.cif.g09.slc.cpg/sg39_9_cif.got.tgz:17596.got - 2010.04.14 02:53:20.
