data_PCOD8180589
_publ_section_title
;
Structure prediction by ZEFSAII (Michael W. Deem and Ramdas Pophale) SiO2 
 PCOD8180589
Probable space group: A B M 2
;
_chemical_formula_sum "Si O2"
_cell_formula_units_Z 64
_cell_length_a 21.003315
_cell_length_b 8.847197
_cell_length_c 19.197053
_cell_angle_alpha 90.000000
_cell_angle_beta 90.000000
_cell_angle_gamma 90.000000
_cell_volume 3567.205324
_symmetry_space_group_name_H-M "A B M 2"
_symmetry_group_IT_number 39
_symmetry_cell_setting 'orthorhombic'
loop_
_space_group_symop_operation_xyz
x,y,z
-x,-y,z
-x,1/2+y,z
x,1/2-y,z
x,1/2+y,1/2+z
-x,1/2-y,1/2+z
-x,y,1/2+z
x,-y,1/2+z
loop_
_atom_site_type_symbol
_atom_site_label
_atom_site_fract_x
_atom_site_fract_y
_atom_site_fract_z
Si Si1 0.434778 0.072257 0.523760
Si Si2 0.060500 0.928865 0.624620
Si Si3 0.320693 0.929488 0.276901
Si Si4 0.197253 0.582861 0.614660
Si Si5 0.678118 0.927140 0.618070
Si Si6 0.191115 0.921429 0.780413
Si Si7 0.063523 0.429361 0.775797
Si Si8 0.566140 0.428292 0.863555
O O1 0.440742 0.250000 0.533477
O O2 0.377525 0.003302 0.570110
O O3 0.421908 0.028651 0.443861
O O4 0.500000 0.000000 0.551129
O O5 0.052304 0.750000 0.639908
O O6 0.127173 0.957663 0.583277
O O7 0.062543 0.024392 0.695332
O O8 0.000000 0.000000 0.582119
O O9 0.321559 0.750000 0.283018
O O10 0.329845 0.984515 0.197126
O O11 0.253872 0.990895 0.307039
O O12 0.377390 0.999976 0.320232
O O13 0.217766 0.750000 0.591400
O O14 0.252647 0.472885 0.587763
O O15 0.189082 0.574052 0.697345
O O16 0.673815 0.750000 0.614334
O O17 0.193266 0.750000 0.808286
O O18 0.127891 0.003146 0.810626
O O19 0.063426 0.250000 0.784460
O O20 0.000000 0.500000 0.812041
O O21 0.500000 0.500000 0.837410
O O22 0.563807 0.250000 0.851359
#
# Coordination Sequence:
#
# PCOD8180589 Si02
#       8
#     8   8   8   8   8   8   8   8
#     4   9  19  35  52  70  91 118 152 187 226 270
#     4   9  15  22  32  49  75 109 149 187 223 268
#     4  10  19  31  48  71  97 123 153 189 231 278
#     4   8  15  25  37  56  83 114 147 183 223 268
#     4   9  18  31  47  68  93 120 151 188 227 271
#     4   9  16  27  40  57  84 117 152 188 228 272
#     4  10  16  22  33  51  77 112 152 190 229 272
#     4  10  20  35  53  70  92 121 152 188 227 271
#
# _framework density 17.941216000000001
#
# number of rings (size 3 to 8) (size 9 to 14) (size 15 to 20)
#    0.000    2.750    0.000    4.125    0.000    5.500 
#    0.000    1.250    0.000    0.000    0.000    0.000 
#    0.000    1.000    0.000    6.500    0.000   14.250 
#
# Total GULP energy -396578.887204 kJ/mol
# GULP energy per Si atom -12393.090225 kJ/mol
# Density = 1.790038 g / cm^3
# Si number density = 17.941216 Si / 1000 Ang^3
#
#
#
# Elastic Constant Matrix: (Units=GPa)
#
#
# Indices 1 2 3 4 5 6 
#
# 1 206.5581 63.1179 49.0019 0.0000 0.0000 0.0000
# 2 63.1179 83.5249 23.0982 0.0000 0.0000 0.0000
# 3 49.0019 23.0982 29.5262 0.0000 0.0000 0.0000
# 4 0.0000 0.0000 0.0000 11.9876 0.0000 0.0000
# 5 0.0000 0.0000 0.0000 0.0000 1.5099 0.0000
# 6 0.0000 0.0000 0.0000 0.0000 0.0000 41.1214
#
#
#
# Elastic Compliance Matrix: (Units=1/GPa)
#
#
# Indices 1 2 3 4 5 6 
#
# 1 0.008632 -0.003268 -0.011769 0.000000 0.000000 0.000000
# 2 -0.003268 0.016515 -0.007496 0.000000 0.000000 0.000000
# 3 -0.011769 -0.007496 0.059264 0.000000 0.000000 0.000000
# 4 0.000000 0.000000 0.000000 0.083420 0.000000 0.000000
# 5 0.000000 0.000000 0.000000 0.000000 0.662296 0.000000
# 6 0.000000 0.000000 0.000000 0.000000 0.000000 0.024318
#
#
# Mechanical properties :
#
#
# Convention : Reuss Voigt Hill
#
# Bulk Modulus (GPa) = 25.41601 65.56058 45.48829
# Shear Modulus (GPa) = 5.47871 23.21653 14.34762
#
# Velocity S-wave (km/s) = 1.74938 3.60117 2.83097
# Velocity P-wave (km/s) = 4.27521 7.34251 6.00791
#
# Compressibility (1/GPa) = 0.03934529
#
# Stress axis : x y z
#
# Youngs Moduli (GPa) = 115.84985 60.55054 16.87379
#
# Poissons Ratio (x) = 0.19790 0.19858
# Poissons Ratio (y) = 0.37864 0.12648
# Poissons Ratio (z) = 1.36340 0.45386
#
# Static dielectric constant tensor:
#      x y z
#    x 4.025430 0.000000 0.000000 
#    y 0.000000 3.355700 0.000000 
#    z 0.000000 0.000000 2.809250 
# 
# 
# High freq. dielectric constant tensor:
#      x y z
#    x 1.724590 0.000000 0.000000 
#    y 0.000000 1.702170 0.000000 
#    z 0.000000 0.000000 1.615740 
# 
# From -- ./inp_files/13164.got.cif
#   From: 2010.03.12/outbox.cif.g09.slc.cpg/sg39_7_cif.got.tgz:13164.got - 2010.04.14 02:53:20.
