data_PCOD8180309
_publ_section_title
;
Structure prediction by ZEFSAII (Michael W. Deem and Ramdas Pophale) SiO2 
 PCOD8180309
Probable space group: A M M 2
;
_chemical_formula_sum "Si O2"
_cell_formula_units_Z 56
_cell_length_a 14.009635
_cell_length_b 9.253582
_cell_length_c 20.841103
_cell_angle_alpha 90.000000
_cell_angle_beta 90.000000
_cell_angle_gamma 90.000000
_cell_volume 2701.826135
_symmetry_space_group_name_H-M "A M M 2"
_symmetry_group_IT_number 38
_symmetry_cell_setting 'orthorhombic'
loop_
_space_group_symop_operation_xyz
x,y,z
-x,-y,z
-x,y,z
x,-y,z
x,1/2+y,1/2+z
-x,1/2-y,1/2+z
-x,1/2+y,1/2+z
x,1/2-y,1/2+z
loop_
_atom_site_type_symbol
_atom_site_label
_atom_site_fract_x
_atom_site_fract_y
_atom_site_fract_z
Si Si1 0.893628 0.164978 0.535500
Si Si2 0.703123 0.166796 0.844200
Si Si3 0.892825 0.164752 0.779540
Si Si4 0.293317 0.834241 0.469603
Si Si5 0.613324 0.834909 0.226403
Si Si6 0.387342 0.165661 0.602010
Si Si7 0.886499 0.661804 0.657264
O O1 0.821550 0.183241 0.476106
O O2 0.850073 0.255770 0.594364
O O3 0.000000 0.217171 0.514878
O O4 0.896658 0.000000 0.558942
O O5 0.818284 0.183230 0.837706
O O6 0.670522 0.236500 0.911209
O O7 0.650328 0.246801 0.786940
O O8 0.671850 0.000000 0.843639
O O9 0.850808 0.260730 0.721693
O O10 0.000000 0.213282 0.801004
O O11 0.895363 0.000000 0.755310
O O12 0.342811 0.780650 0.535007
O O13 0.321261 0.000000 0.455009
O O14 0.500000 0.826599 0.227105
O O15 0.652692 0.763461 0.160442
O O16 0.649472 0.000000 0.229794
O O17 0.500000 0.182257 0.596022
O O18 0.357529 0.000000 0.615592
O O19 0.845685 0.500000 0.656526
O O20 0.000000 0.665153 0.656938
#
# Coordination Sequence:
#
# PCOD8180309 Si02
#       7
#     8   8   8   8   8   8   8
#     4   9  18  33  52  75 109 153 195 235 283 341
#     4  11  24  39  58  86 119 156 198 242 292 345
#     4   9  19  36  55  76 109 154 198 238 285 343
#     4  10  22  38  56  82 116 154 196 237 286 345
#     4  10  22  41  65  91 118 150 189 236 291 350
#     4   9  19  38  63  88 114 146 186 234 287 343
#     4   9  17  29  48  77 107 137 182 239 291 334
#
# _framework density 20.726723
#
# number of rings (size 3 to 8) (size 9 to 14) (size 15 to 20)
#    0.000    2.429    0.000    1.286    2.000    6.000 
#    0.000    1.429    0.000    0.000    0.000    0.000 
#    0.000    0.000    0.000    0.000    0.000    0.000 
#
# Total GULP energy -347192.918705 kJ/mol
# GULP energy per Si atom -12399.747097 kJ/mol
# Density = 2.067955 g / cm^3
# Si number density = 20.726723 Si / 1000 Ang^3
#
#
#
# Elastic Constant Matrix: (Units=GPa)
#
#
# Indices 1 2 3 4 5 6 
#
# 1 21.8921 21.5490 31.4448 0.0000 0.0000 0.0000
# 2 21.5490 127.9747 85.0917 0.0000 0.0000 0.0000
# 3 31.4448 85.0917 155.3234 0.0000 0.0000 0.0000
# 4 0.0000 0.0000 0.0000 39.1002 0.0000 0.0000
# 5 0.0000 0.0000 0.0000 0.0000 24.0570 0.0000
# 6 0.0000 0.0000 0.0000 0.0000 0.0000 21.3107
#
#
#
# Elastic Compliance Matrix: (Units=1/GPa)
#
#
# Indices 1 2 3 4 5 6 
#
# 1 0.065374 -0.003473 -0.011332 0.000000 0.000000 0.000000
# 2 -0.003473 0.012476 -0.006132 0.000000 0.000000 0.000000
# 3 -0.011332 -0.006132 0.012091 0.000000 0.000000 0.000000
# 4 0.000000 0.000000 0.000000 0.025575 0.000000 0.000000
# 5 0.000000 0.000000 0.000000 0.000000 0.041568 0.000000
# 6 0.000000 0.000000 0.000000 0.000000 0.000000 0.046925
#
#
# Mechanical properties :
#
#
# Convention : Reuss Voigt Hill
#
# Bulk Modulus (GPa) = 20.80399 64.59570 42.69985
# Shear Modulus (GPa) = 19.09086 28.03390 23.56238
#
# Velocity S-wave (km/s) = 3.03821 3.68169 3.37532
# Velocity P-wave (km/s) = 4.72935 7.02184 5.98636
#
# Compressibility (1/GPa) = 0.04806769
#
# Stress axis : x y z
#
# Youngs Moduli (GPa) = 15.29658 80.15514 82.70336
#
# Poissons Ratio (x) = 0.27839 0.93720
# Poissons Ratio (y) = 0.05313 0.50710
# Poissons Ratio (z) = 0.17334 0.49148
#
# Static dielectric constant tensor:
#      x y z
#    x 3.814430 0.000000 0.000000 
#    y 0.000000 3.834050 0.000000 
#    z 0.000000 0.000000 3.531240 
# 
# 
# High freq. dielectric constant tensor:
#      x y z
#    x 1.816530 0.000000 0.000000 
#    y 0.000000 1.807780 0.000000 
#    z 0.000000 0.000000 1.795470 
# 
# From -- ./inp_files/21018.got.cif
#   From: 2010.03.12/outbox.cif.g09.slc.cpg/sg38_11_cif.got.tgz:21018.got - 2010.04.14 02:38:36.
