data_PCOD8180073
_publ_section_title
;
Structure prediction by ZEFSAII (Michael W. Deem and Ramdas Pophale) SiO2 
 PCOD8180073
Probable space group: A M M 2
;
_chemical_formula_sum "Si O2"
_cell_formula_units_Z 56
_cell_length_a 19.280464
_cell_length_b 8.931663
_cell_length_c 15.931830
_cell_angle_alpha 90.000000
_cell_angle_beta 90.000000
_cell_angle_gamma 90.000000
_cell_volume 2743.566387
_symmetry_space_group_name_H-M "A M M 2"
_symmetry_group_IT_number 38
_symmetry_cell_setting 'orthorhombic'
loop_
_space_group_symop_operation_xyz
x,y,z
-x,-y,z
-x,y,z
x,-y,z
x,1/2+y,1/2+z
-x,1/2-y,1/2+z
-x,1/2+y,1/2+z
x,1/2-y,1/2+z
loop_
_atom_site_type_symbol
_atom_site_label
_atom_site_fract_x
_atom_site_fract_y
_atom_site_fract_z
Si Si1 0.208819 0.823649 0.292670
Si Si2 0.333313 0.826416 0.721020
Si Si3 0.659280 0.325937 0.034200
Si Si4 0.784326 0.825364 0.964050
Si Si5 0.076749 0.830158 0.051168
Si Si6 0.420406 0.176171 0.882195
Si Si7 0.921622 0.827041 0.723404
O O1 0.261439 0.767170 0.221091
O O2 0.237253 0.750417 0.377423
O O3 0.130178 0.772052 0.277748
O O4 0.210420 0.000000 0.299413
O O5 0.369132 0.801566 0.629550
O O6 0.383522 0.770270 0.795898
O O7 0.314370 0.000000 0.733083
O O8 0.666427 0.500000 0.012917
O O9 0.735311 0.249673 0.033495
O O10 0.609163 0.253234 0.965556
O O11 0.767884 0.000000 0.958757
O O12 0.865339 0.793560 0.982125
O O13 0.085829 0.714725 0.126296
O O14 0.000000 0.812764 0.010373
O O15 0.087108 0.000000 0.085341
O O16 0.500000 0.223711 0.873509
O O17 0.411361 0.000000 0.894042
O O18 0.000000 0.795305 0.754493
O O19 0.901919 0.000000 0.734867
#
# Coordination Sequence:
#
# PCOD8180073 Si02
#       7
#     8   8   8   8   8   8   8
#     4  12  24  37  58  87 119 156 204 258 309 362
#     4  10  22  41  65  92 127 167 206 250 306 369
#     4  11  23  39  63  95 126 162 209 258 306 361
#     4  11  22  37  58  84 119 161 204 253 310 368
#     4   9  19  36  57  82 113 151 198 252 308 365
#     4  10  22  42  67  94 127 168 208 248 301 366
#     4  10  21  37  57  81 113 155 201 250 307 369
#
# _framework density 20.411387000000001
#
# number of rings (size 3 to 8) (size 9 to 14) (size 15 to 20)
#    0.000    1.571    1.429    3.429    0.000    6.857 
#    0.000    2.857    0.000    0.000    0.000    0.000 
#    0.000    0.000    0.000    0.000    0.000    0.000 
#
# Total GULP energy -347215.042273 kJ/mol
# GULP energy per Si atom -12400.537224 kJ/mol
# Density = 2.036493 g / cm^3
# Si number density = 20.411387 Si / 1000 Ang^3
#
#
#
# Elastic Constant Matrix: (Units=GPa)
#
#
# Indices 1 2 3 4 5 6 
#
# 1 124.4797 45.5170 52.5352 0.0000 0.0000 0.0000
# 2 45.5170 75.4064 41.3072 0.0000 0.0000 0.0000
# 3 52.5352 41.3072 119.4627 0.0000 0.0000 0.0000
# 4 0.0000 0.0000 0.0000 31.2135 0.0000 0.0000
# 5 0.0000 0.0000 0.0000 0.0000 28.7350 0.0000
# 6 0.0000 0.0000 0.0000 0.0000 0.0000 27.7117
#
#
#
# Elastic Compliance Matrix: (Units=1/GPa)
#
#
# Indices 1 2 3 4 5 6 
#
# 1 0.011219 -0.005020 -0.003198 0.000000 0.000000 0.000000
# 2 -0.005020 0.018607 -0.004226 0.000000 0.000000 0.000000
# 3 -0.003198 -0.004226 0.011238 0.000000 0.000000 0.000000
# 4 0.000000 0.000000 0.000000 0.032037 0.000000 0.000000
# 5 0.000000 0.000000 0.000000 0.000000 0.034801 0.000000
# 6 0.000000 0.000000 0.000000 0.000000 0.000000 0.036086
#
#
# Mechanical properties :
#
#
# Convention : Reuss Voigt Hill
#
# Bulk Modulus (GPa) = 61.82043 66.45195 64.13619
# Shear Modulus (GPa) = 28.69150 29.53132 29.11141
#
# Velocity S-wave (km/s) = 3.75328 3.80782 3.78065
# Velocity P-wave (km/s) = 7.00969 7.20830 7.10969
#
# Compressibility (1/GPa) = 0.01617588
#
# Stress axis : x y z
#
# Youngs Moduli (GPa) = 89.13735 53.74384 88.98136
#
# Poissons Ratio (x) = 0.26980 0.28454
# Poissons Ratio (y) = 0.44748 0.37604
# Poissons Ratio (z) = 0.28503 0.22713
#
# Static dielectric constant tensor:
#      x y z
#    x 3.805670 0.000000 0.000000 
#    y 0.000000 3.675050 0.000000 
#    z 0.000000 0.000000 3.661270 
# 
# 
# High freq. dielectric constant tensor:
#      x y z
#    x 1.799960 0.000000 0.000000 
#    y 0.000000 1.797330 0.000000 
#    z 0.000000 0.000000 1.795550 
# 
# From -- ./inp_files/15483.got.cif
#   From: 2010.03.12/outbox.cif.g09.slc.cpg/sg38_8_cif.got.tgz:15483.got - 2010.04.14 02:38:36.
