data_PCOD8180788
_publ_section_title
;
Structure prediction by ZEFSAII (Michael W. Deem and Ramdas Pophale) SiO2 
 PCOD8180788
Probable space group: A B M 2
;
_chemical_formula_sum "Si O2"
_cell_formula_units_Z 64
_cell_length_a 14.312185
_cell_length_b 8.728256
_cell_length_c 31.433225
_cell_angle_alpha 90.000000
_cell_angle_beta 90.000000
_cell_angle_gamma 90.000000
_cell_volume 3926.651499
_symmetry_space_group_name_H-M "A B M 2"
_symmetry_group_IT_number 39
_symmetry_cell_setting 'orthorhombic'
loop_
_space_group_symop_operation_xyz
x,y,z
-x,-y,z
-x,1/2+y,z
x,1/2-y,z
x,1/2+y,1/2+z
-x,1/2-y,1/2+z
-x,y,1/2+z
x,-y,1/2+z
loop_
_atom_site_type_symbol
_atom_site_label
_atom_site_fract_x
_atom_site_fract_y
_atom_site_fract_z
Si Si1 0.898221 0.429680 0.435470
Si Si2 0.101398 0.068832 0.190311
Si Si3 0.777125 0.430615 0.770656
Si Si4 0.898235 0.069973 0.528635
Si Si5 0.897344 0.930471 0.351328
Si Si6 0.403883 0.068195 0.145932
Si Si7 0.403303 0.068540 0.738420
Si Si8 0.212033 0.931626 0.608883
O O1 0.903189 0.250000 0.426946
O O2 0.853625 0.466628 0.481905
O O3 0.847815 0.509201 0.395095
O O4 0.000000 0.500000 0.436981
O O5 0.092871 0.250000 0.188896
O O6 0.162562 0.015744 0.230321
O O7 0.149587 0.003540 0.147580
O O8 0.000000 0.000000 0.195356
O O9 0.757936 0.250000 0.769704
O O10 0.831482 0.482335 0.812857
O O11 0.678888 0.519413 0.770343
O O12 0.911076 0.250000 0.534185
O O13 0.827682 0.003231 0.564266
O O14 0.000000 0.000000 0.535221
O O15 0.907984 0.750000 0.353247
O O16 0.000000 0.000000 0.344711
O O17 0.412108 0.250000 0.150196
O O18 0.319878 0.018003 0.114585
O O19 0.500000 0.000000 0.127116
O O20 0.382036 0.001140 0.192188
O O21 0.411233 0.250000 0.735090
O O22 0.500000 0.000000 0.756439
O O23 0.206368 0.750000 0.609585
#
# Coordination Sequence:
#
# PCOD8180788 Si02
#       8
#     8   8   8   8   8   8   8   8
#     4   9  16  27  44  64  90 118 154 195 231 275
#     4  10  19  31  44  61  90 125 156 186 222 265
#     4  10  20  34  48  66  93 125 157 191 232 273
#     4   9  17  29  45  67  91 122 156 189 230 272
#     4  10  19  30  47  68  95 126 158 194 233 276
#     4  10  18  32  50  67  91 120 153 194 236 276
#     4  11  21  33  51  71  92 119 154 195 235 277
#     4   9  17  30  47  64  90 124 153 187 231 275
#
# _framework density 16.298874000000001
#
# number of rings (size 3 to 8) (size 9 to 14) (size 15 to 20)
#    0.000    2.250    1.250    4.500    0.000    2.000 
#    0.000    1.250    0.000    0.000    0.000    0.875 
#    0.000    4.000    0.000    0.000    0.000    0.000 
#
# Total GULP energy -396657.969620 kJ/mol
# GULP energy per Si atom -12395.561551 kJ/mol
# Density = 1.626178 g / cm^3
# Si number density = 16.298874 Si / 1000 Ang^3
#
#
#
# Elastic Constant Matrix: (Units=GPa)
#
#
# Indices 1 2 3 4 5 6 
#
# 1 118.4534 36.6866 68.5821 0.0000 0.0000 0.0000
# 2 36.6866 61.8003 37.3164 0.0000 0.0000 0.0000
# 3 68.5821 37.3164 142.7300 0.0000 0.0000 0.0000
# 4 0.0000 0.0000 0.0000 17.6520 0.0000 0.0000
# 5 0.0000 0.0000 0.0000 0.0000 11.5671 0.0000
# 6 0.0000 0.0000 0.0000 0.0000 0.0000 25.3488
#
#
#
# Elastic Compliance Matrix: (Units=1/GPa)
#
#
# Indices 1 2 3 4 5 6 
#
# 1 0.012700 -0.004577 -0.004906 0.000000 0.000000 0.000000
# 2 -0.004577 0.020864 -0.003256 0.000000 0.000000 0.000000
# 3 -0.004906 -0.003256 0.010215 0.000000 0.000000 0.000000
# 4 0.000000 0.000000 0.000000 0.056651 0.000000 0.000000
# 5 0.000000 0.000000 0.000000 0.000000 0.086452 0.000000
# 6 0.000000 0.000000 0.000000 0.000000 0.000000 0.039450
#
#
# Mechanical properties :
#
#
# Convention : Reuss Voigt Hill
#
# Bulk Modulus (GPa) = 54.63877 67.57266 61.10571
# Shear Modulus (GPa) = 19.38676 22.94017 21.16346
#
# Velocity S-wave (km/s) = 3.45259 3.75570 3.60733
# Velocity P-wave (km/s) = 7.03489 7.76888 7.41098
#
# Compressibility (1/GPa) = 0.01830202
#
# Stress axis : x y z
#
# Youngs Moduli (GPa) = 78.74015 47.92956 97.89885
#
# Poissons Ratio (x) = 0.21937 0.48027
# Poissons Ratio (y) = 0.36039 0.31872
# Poissons Ratio (z) = 0.38628 0.15604
#
# Static dielectric constant tensor:
#      x y z
#    x 3.083670 0.000000 0.000000 
#    y 0.000000 3.048250 0.000000 
#    z 0.000000 0.000000 3.621020 
# 
# 
# High freq. dielectric constant tensor:
#      x y z
#    x 1.607070 0.000000 0.000000 
#    y 0.000000 1.625790 0.000000 
#    z 0.000000 0.000000 1.622170 
# 
# From -- ./inp_files/17983.got.cif
#   From: 2010.03.12/outbox.cif.g09.slc.cpg/sg39_9_cif.got.tgz:17983.got - 2010.04.14 02:53:20.
