data_PCOD8180425
_publ_section_title
;
Structure prediction by ZEFSAII (Michael W. Deem and Ramdas Pophale) SiO2 
 PCOD8180425
Probable space group: A M M 2
;
_chemical_formula_sum "Si O2"
_cell_formula_units_Z 64
_cell_length_a 8.342747
_cell_length_b 30.367004
_cell_length_c 14.381101
_cell_angle_alpha 90.000000
_cell_angle_beta 90.000000
_cell_angle_gamma 90.000000
_cell_volume 3643.368981
_symmetry_space_group_name_H-M "A M M 2"
_symmetry_group_IT_number 38
_symmetry_cell_setting 'orthorhombic'
loop_
_space_group_symop_operation_xyz
x,y,z
-x,-y,z
-x,y,z
x,-y,z
x,1/2+y,1/2+z
-x,1/2-y,1/2+z
-x,1/2+y,1/2+z
x,1/2-y,1/2+z
loop_
_atom_site_type_symbol
_atom_site_label
_atom_site_fract_x
_atom_site_fract_y
_atom_site_fract_z
Si Si1 0.690341 0.548175 0.006140
Si Si2 0.184060 0.175891 0.622562
Si Si3 0.187827 0.699713 0.450268
Si Si4 0.683855 0.232033 0.130494
Si Si5 0.690173 0.451769 0.214778
Si Si6 0.185262 0.283003 0.827878
Si Si7 0.309980 0.136111 0.805725
Si Si8 0.315699 0.861032 0.442677
O O1 0.500000 0.548745 0.013179
O O2 0.748992 0.500000 0.969295
O O3 0.759035 0.556068 0.110577
O O4 0.742615 0.587605 0.935878
O O5 0.198690 0.227804 0.605863
O O6 0.247796 0.168078 0.725482
O O7 0.297442 0.150276 0.551268
O O8 0.000000 0.161491 0.609845
O O9 0.278559 0.696954 0.549251
O O10 0.248833 0.742060 0.390010
O O11 0.231526 0.653870 0.400077
O O12 0.000000 0.702789 0.467241
O O13 0.500000 0.247058 0.125892
O O14 0.718070 0.212506 0.232178
O O15 0.500000 0.449789 0.210690
O O16 0.746569 0.500000 0.251151
O O17 0.752136 0.413594 0.284236
O O18 0.205721 0.329244 0.881475
O O19 0.000000 0.275626 0.804448
O O20 0.500000 0.138624 0.813341
O O21 0.500000 0.855249 0.412203
#
# Coordination Sequence:
#
# PCOD8180425 Si02
#       8
#     8   8   8   8   8   8   8   8
#     4   8  14  26  46  74 105 134 167 211 258 297
#     4  12  22  32  47  71 106 142 171 208 260 305
#     4  11  23  37  53  74 105 140 169 206 259 310
#     4  12  24  38  56  75  98 131 178 223 250 292
#     4   8  14  26  46  74 105 134 167 211 258 297
#     4  11  23  37  53  74 105 140 169 206 259 310
#     4  11  20  32  52  77 101 136 181 217 247 296
#     4  11  20  32  52  77 101 136 181 217 247 296
#
# _framework density 17.566158999999999
#
# number of rings (size 3 to 8) (size 9 to 14) (size 15 to 20)
#    0.000    1.500    3.750    4.500    0.000    1.000 
#    0.000    0.000    0.000    3.750    0.000    0.875 
#    0.000    7.000    0.000    0.000    0.000    0.000 
#
# Total GULP energy -396703.458480 kJ/mol
# GULP energy per Si atom -12396.983077 kJ/mol
# Density = 1.752618 g / cm^3
# Si number density = 17.566159 Si / 1000 Ang^3
#
#
#
# Elastic Constant Matrix: (Units=GPa)
#
#
# Indices 1 2 3 4 5 6 
#
# 1 45.5291 11.1231 23.5187 0.0000 0.0000 0.0000
# 2 11.1231 107.1255 27.9579 0.0000 0.0000 0.0000
# 3 23.5187 27.9579 73.0712 0.0000 0.0000 0.0000
# 4 0.0000 0.0000 0.0000 24.9219 0.0000 0.0000
# 5 0.0000 0.0000 0.0000 0.0000 21.9109 0.0000
# 6 0.0000 0.0000 0.0000 0.0000 0.0000 11.0961
#
#
#
# Elastic Compliance Matrix: (Units=1/GPa)
#
#
# Indices 1 2 3 4 5 6 
#
# 1 0.026376 -0.000581 -0.008267 0.000000 0.000000 0.000000
# 2 -0.000581 0.010383 -0.003786 0.000000 0.000000 0.000000
# 3 -0.008267 -0.003786 0.017795 0.000000 0.000000 0.000000
# 4 0.000000 0.000000 0.000000 0.040125 0.000000 0.000000
# 5 0.000000 0.000000 0.000000 0.000000 0.045639 0.000000
# 6 0.000000 0.000000 0.000000 0.000000 0.000000 0.090122
#
#
# Mechanical properties :
#
#
# Convention : Reuss Voigt Hill
#
# Bulk Modulus (GPa) = 34.14571 38.99168 36.56870
# Shear Modulus (GPa) = 18.83444 22.46085 20.64764
#
# Velocity S-wave (km/s) = 3.27800 3.57969 3.43216
# Velocity P-wave (km/s) = 5.81443 6.27143 6.04725
#
# Compressibility (1/GPa) = 0.02928625
#
# Stress axis : x y z
#
# Youngs Moduli (GPa) = 37.91261 96.30959 56.19683
#
# Poissons Ratio (x) = 0.05597 0.46459
# Poissons Ratio (y) = 0.02203 0.21274
# Poissons Ratio (z) = 0.31343 0.36460
#
# Static dielectric constant tensor:
#      x y z
#    x 3.041870 0.000000 0.000000 
#    y 0.000000 3.560110 0.000000 
#    z 0.000000 0.000000 3.085640 
# 
# 
# High freq. dielectric constant tensor:
#      x y z
#    x 1.670220 0.000000 0.000000 
#    y 0.000000 1.673360 0.000000 
#    z 0.000000 0.000000 1.647580 
# 
# From -- ./inp_files/13068.got.cif
#   From: 2010.03.12/outbox.cif.g09.slc.cpg/sg38_7_cif.got.tgz:13068.got - 2010.04.14 02:38:36.
