data_PCOD8180277
_publ_section_title
;
Structure prediction by ZEFSAII (Michael W. Deem and Ramdas Pophale) SiO2 
 PCOD8180277
Probable space group: A M M 2
;
_chemical_formula_sum "Si O2"
_cell_formula_units_Z 56
_cell_length_a 20.085505
_cell_length_b 9.189539
_cell_length_c 15.414893
_cell_angle_alpha 90.000000
_cell_angle_beta 90.000000
_cell_angle_gamma 90.000000
_cell_volume 2845.227484
_symmetry_space_group_name_H-M "A M M 2"
_symmetry_group_IT_number 38
_symmetry_cell_setting 'orthorhombic'
loop_
_space_group_symop_operation_xyz
x,y,z
-x,-y,z
-x,y,z
x,-y,z
x,1/2+y,1/2+z
-x,1/2-y,1/2+z
-x,1/2+y,1/2+z
x,1/2-y,1/2+z
loop_
_atom_site_type_symbol
_atom_site_label
_atom_site_fract_x
_atom_site_fract_y
_atom_site_fract_z
Si Si1 0.428884 0.665640 0.215040
Si Si2 0.838785 0.670590 0.460046
Si Si3 0.712916 0.163126 0.698128
Si Si4 0.159157 0.329850 0.654208
Si Si5 0.572776 0.669094 0.891397
Si Si6 0.698651 0.165571 0.904086
Si Si7 0.076144 0.327236 0.300143
O O1 0.500000 0.680960 0.163132
O O2 0.422816 0.500000 0.252227
O O3 0.361673 0.693824 0.158291
O O4 0.430443 0.778443 0.292856
O O5 0.832350 0.500000 0.443238
O O6 0.865780 0.703457 0.556371
O O7 0.764775 0.736852 0.447018
O O8 0.889995 0.732933 0.388466
O O9 0.764340 0.279600 0.661049
O O10 0.707065 0.180703 0.801207
O O11 0.737516 0.000000 0.674679
O O12 0.155327 0.500000 0.675917
O O13 0.111721 0.242078 0.717649
O O14 0.500000 0.699505 0.935083
O O15 0.589494 0.500000 0.892361
O O16 0.633452 0.750282 0.939788
O O17 0.689935 0.000000 0.933665
O O18 0.082412 0.500000 0.292162
O O19 0.000000 0.276079 0.301442
#
# Coordination Sequence:
#
# PCOD8180277 Si02
#       7
#     8   8   8   8   8   8   8
#     4   8  14  25  42  65  94 135 186 229 264 313
#     4   9  19  37  58  82 110 146 187 220 260 320
#     4   9  16  29  51  75 104 143 186 227 268 323
#     4  11  22  35  57  87 117 144 177 226 275 319
#     4   9  16  24  37  65 104 137 170 221 282 330
#     4   9  16  30  52  71  96 139 189 228 256 312
#     4  10  21  41  66  85 108 145 182 215 261 325
#
# _framework density 19.682082999999999
#
# number of rings (size 3 to 8) (size 9 to 14) (size 15 to 20)
#    0.000    2.714    1.429    1.714    0.000    4.000 
#    0.000    4.286    0.000    0.857    0.000    4.000 
#    0.000    0.000    0.000    0.000    0.000    0.000 
#
# Total GULP energy -346913.599477 kJ/mol
# GULP energy per Si atom -12389.771410 kJ/mol
# Density = 1.963729 g / cm^3
# Si number density = 19.682083 Si / 1000 Ang^3
#
#
#
# Elastic Constant Matrix: (Units=GPa)
#
#
# Indices 1 2 3 4 5 6 
#
# 1 182.9354 46.3129 53.8223 0.0000 0.0000 0.0000
# 2 46.3129 50.6742 21.1987 0.0000 0.0000 0.0000
# 3 53.8223 21.1987 70.9744 0.0000 0.0000 0.0000
# 4 0.0000 0.0000 0.0000 17.9013 0.0000 0.0000
# 5 0.0000 0.0000 0.0000 0.0000 2.9644 0.0000
# 6 0.0000 0.0000 0.0000 0.0000 0.0000 25.7504
#
#
#
# Elastic Compliance Matrix: (Units=1/GPa)
#
#
# Indices 1 2 3 4 5 6 
#
# 1 0.008230 -0.005612 -0.004565 0.000000 0.000000 0.000000
# 2 -0.005612 0.026379 -0.003623 0.000000 0.000000 0.000000
# 3 -0.004565 -0.003623 0.018634 0.000000 0.000000 0.000000
# 4 0.000000 0.000000 0.000000 0.055862 0.000000 0.000000
# 5 0.000000 0.000000 0.000000 0.000000 0.337333 0.000000
# 6 0.000000 0.000000 0.000000 0.000000 0.000000 0.038834
#
#
# Mechanical properties :
#
#
# Convention : Reuss Voigt Hill
#
# Bulk Modulus (GPa) = 38.99821 60.80575 49.90198
# Shear Modulus (GPa) = 9.58920 21.53988 15.56454
#
# Velocity S-wave (km/s) = 2.20967 3.31175 2.81516
# Velocity P-wave (km/s) = 5.13490 6.75164 5.99799
#
# Compressibility (1/GPa) = 0.02564220
#
# Stress axis : x y z
#
# Youngs Moduli (GPa) = 121.50135 37.90931 53.66674
#
# Poissons Ratio (x) = 0.21276 0.24499
# Poissons Ratio (y) = 0.68190 0.19443
# Poissons Ratio (z) = 0.55466 0.13734
#
# Static dielectric constant tensor:
#      x y z
#    x 4.180930 0.000000 0.000000 
#    y 0.000000 3.392170 0.000000 
#    z 0.000000 0.000000 3.202410 
# 
# 
# High freq. dielectric constant tensor:
#      x y z
#    x 1.787340 0.000000 0.000000 
#    y 0.000000 1.745800 0.000000 
#    z 0.000000 0.000000 1.726900 
# 
# From -- ./inp_files/15433.got.cif
#   From: 2010.03.12/outbox.cif.g09.slc.cpg/sg38_8_cif.got.tgz:15433.got - 2010.04.14 02:38:36.
