data_PCOD8180043
_publ_section_title
;
Structure prediction by ZEFSAII (Michael W. Deem and Ramdas Pophale) SiO2 
 PCOD8180043
Probable space group: A M M 2
;
_chemical_formula_sum "Si O2"
_cell_formula_units_Z 64
_cell_length_a 14.128832
_cell_length_b 8.896460
_cell_length_c 26.140062
_cell_angle_alpha 90.000000
_cell_angle_beta 90.000000
_cell_angle_gamma 90.000000
_cell_volume 3285.716623
_symmetry_space_group_name_H-M "A M M 2"
_symmetry_group_IT_number 38
_symmetry_cell_setting 'orthorhombic'
loop_
_space_group_symop_operation_xyz
x,y,z
-x,-y,z
-x,y,z
x,-y,z
x,1/2+y,1/2+z
-x,1/2-y,1/2+z
-x,1/2+y,1/2+z
x,1/2-y,1/2+z
loop_
_atom_site_type_symbol
_atom_site_label
_atom_site_fract_x
_atom_site_fract_y
_atom_site_fract_z
Si Si1 0.105063 0.178859 0.045710
Si Si2 0.387597 0.668879 0.101321
Si Si3 0.219344 0.176948 0.748423
Si Si4 0.892332 0.179234 0.847638
Si Si5 0.211215 0.176536 0.947420
Si Si6 0.607775 0.677582 0.704920
Si Si7 0.605620 0.175649 0.998536
Si Si8 0.887404 0.171431 0.158326
O O1 0.146104 0.224683 0.101544
O O2 0.000000 0.244835 0.039066
O O3 0.101788 0.000000 0.043650
O O4 0.166043 0.245707 0.999053
O O5 0.500000 0.669186 0.100281
O O6 0.347383 0.500000 0.105685
O O7 0.353492 0.764187 0.150205
O O8 0.352364 0.744027 0.048828
O O9 0.162103 0.237818 0.797540
O O10 0.323082 0.253942 0.747982
O O11 0.159582 0.217426 0.698493
O O12 0.234404 0.000000 0.751341
O O13 0.836226 0.246649 0.896766
O O14 0.000000 0.240745 0.847728
O O15 0.893229 0.000000 0.848517
O O16 0.324175 0.210546 0.950845
O O17 0.191694 0.000000 0.946067
O O18 0.500000 0.731521 0.715536
O O19 0.614250 0.500000 0.705395
O O20 0.500000 0.231819 0.983844
O O21 0.605072 0.000000 0.011497
O O22 0.000000 0.183777 0.162109
O O23 0.854991 0.000000 0.169447
#
# Coordination Sequence:
#
# PCOD8180043 Si02
#       8
#     8   8   8   8   8   8   8   8
#     4   8  14  25  43  69  98 126 163 216 270 313
#     4   9  17  30  49  74 106 142 176 212 258 313
#     4  11  22  34  52  79 109 142 179 221 278 336
#     4   9  18  33  52  75 104 138 180 228 276 326
#     4   9  16  27  47  72  98 135 181 225 268 312
#     4  10  21  37  56  77 104 140 182 225 267 316
#     4   9  17  28  44  72 108 141 176 218 264 315
#     4   9  18  32  50  75 107 141 178 223 274 329
#
# _framework density 19.478245999999999
#
# number of rings (size 3 to 8) (size 9 to 14) (size 15 to 20)
#    0.000    2.750    0.000    2.625    1.750    4.500 
#    0.000    0.625    0.000    3.750    0.000    1.750 
#    0.000    5.000    0.000    0.000    0.000    0.000 
#
# Total GULP energy -396657.412319 kJ/mol
# GULP energy per Si atom -12395.544135 kJ/mol
# Density = 1.943391 g / cm^3
# Si number density = 19.478246 Si / 1000 Ang^3
#
#
#
# Elastic Constant Matrix: (Units=GPa)
#
#
# Indices 1 2 3 4 5 6 
#
# 1 115.7098 22.2405 85.1342 0.0000 0.0000 0.0000
# 2 22.2405 44.6980 24.6233 0.0000 0.0000 0.0000
# 3 85.1342 24.6233 146.5831 0.0000 0.0000 0.0000
# 4 0.0000 0.0000 0.0000 19.8244 0.0000 0.0000
# 5 0.0000 0.0000 0.0000 0.0000 37.1526 0.0000
# 6 0.0000 0.0000 0.0000 0.0000 0.0000 20.2020
#
#
#
# Elastic Compliance Matrix: (Units=1/GPa)
#
#
# Indices 1 2 3 4 5 6 
#
# 1 0.015453 -0.003025 -0.008467 0.000000 0.000000 0.000000
# 2 -0.003025 0.025246 -0.002484 0.000000 0.000000 0.000000
# 3 -0.008467 -0.002484 0.012157 0.000000 0.000000 0.000000
# 4 0.000000 0.000000 0.000000 0.050443 0.000000 0.000000
# 5 0.000000 0.000000 0.000000 0.000000 0.026916 0.000000
# 6 0.000000 0.000000 0.000000 0.000000 0.000000 0.049500
#
#
# Mechanical properties :
#
#
# Convention : Reuss Voigt Hill
#
# Bulk Modulus (GPa) = 40.15374 63.44298 51.79836
# Shear Modulus (GPa) = 23.15149 27.10198 25.12674
#
# Velocity S-wave (km/s) = 3.45132 3.73419 3.59554
# Velocity P-wave (km/s) = 6.04496 7.15780 6.62479
#
# Compressibility (1/GPa) = 0.02490428
#
# Stress axis : x y z
#
# Youngs Moduli (GPa) = 64.71049 39.61045 82.25744
#
# Poissons Ratio (x) = 0.11982 0.69648
# Poissons Ratio (y) = 0.19574 0.20433
# Poissons Ratio (z) = 0.54791 0.09839
#
# Static dielectric constant tensor:
#      x y z
#    x 3.774310 0.000000 0.000000 
#    y 0.000000 3.152230 0.000000 
#    z 0.000000 0.000000 3.658430 
# 
# 
# High freq. dielectric constant tensor:
#      x y z
#    x 1.771370 0.000000 0.000000 
#    y 0.000000 1.713060 0.000000 
#    z 0.000000 0.000000 1.744730 
# 
# From -- ./inp_files/22973.got.cif
#   From: 2010.03.12/outbox.cif.g09.slc.cpg/sg38_12_cif.got.tgz:22973.got - 2010.04.14 02:38:36.
