data_PCOD8180573
_publ_section_title
;
Structure prediction by ZEFSAII (Michael W. Deem and Ramdas Pophale) SiO2 
 PCOD8180573
Probable space group: A B M 2
;
_chemical_formula_sum "Si O2"
_cell_formula_units_Z 56
_cell_length_a 33.313072
_cell_length_b 16.632564
_cell_length_c 5.172730
_cell_angle_alpha 90.000000
_cell_angle_beta 90.000000
_cell_angle_gamma 90.000000
_cell_volume 2866.115560
_symmetry_space_group_name_H-M "A B M 2"
_symmetry_group_IT_number 39
_symmetry_cell_setting 'orthorhombic'
loop_
_space_group_symop_operation_xyz
x,y,z
-x,-y,z
-x,1/2+y,z
x,1/2-y,z
x,1/2+y,1/2+z
-x,1/2-y,1/2+z
-x,y,1/2+z
x,-y,1/2+z
loop_
_atom_site_type_symbol
_atom_site_label
_atom_site_fract_x
_atom_site_fract_y
_atom_site_fract_z
Si Si1 0.974460 0.842532 0.705190
Si Si2 0.768607 0.155311 0.736706
Si Si3 0.817186 0.154796 0.235229
Si Si4 0.482575 0.908570 0.770786
Si Si5 0.308495 0.052507 0.284399
Si Si6 0.103896 0.052659 0.710918
Si Si7 0.604665 0.950411 0.198300
O O1 0.960483 0.750000 0.722549
O O2 0.936832 0.898968 0.751103
O O3 0.993167 0.861886 0.426495
O O4 0.763866 0.250000 0.744326
O O5 0.791309 0.126226 0.480185
O O6 0.724162 0.120535 0.739758
O O7 0.794069 0.124421 0.980892
O O8 0.823782 0.250000 0.233294
O O9 0.860203 0.114462 0.251213
O O10 0.502354 0.863605 0.527292
O O11 0.434549 0.898052 0.757590
O O12 0.500000 0.000000 0.781809
O O13 0.352709 0.093689 0.252546
O O14 0.303521 0.017601 0.572184
O O15 0.106172 0.017151 0.423450
O O16 0.602909 0.025416 0.397248
#
# Coordination Sequence:
#
# PCOD8180573 Si02
#       7
#     8   8   8   8   8   8   8
#     4  10  22  41  63  84 113 156 196 226 263 318
#     4  10  21  38  58  78 101 138 181 216 260 315
#     4  10  22  40  60  79 106 141 180 223 260 315
#     4  10  14  20  34  52  78 120 153 189 235 290
#     4  10  21  32  49  73 104 134 161 211 263 314
#     4  12  25  38  58  90 119 146 178 227 279 322
#     4  10  16  25  36  58  89 122 155 193 245 302
#
# _framework density 19.538640999999998
#
# number of rings (size 3 to 8) (size 9 to 14) (size 15 to 20)
#    0.000    1.714    2.857    3.000    0.000    5.143 
#    0.000    5.714    0.000    0.000    0.000    0.000 
#    0.000    1.143    0.000    0.000    0.000    5.714 
#
# Total GULP energy -347122.426239 kJ/mol
# GULP energy per Si atom -12397.229509 kJ/mol
# Density = 1.949417 g / cm^3
# Si number density = 19.538641 Si / 1000 Ang^3
#
#
#
# Elastic Constant Matrix: (Units=GPa)
#
#
# Indices 1 2 3 4 5 6 
#
# 1 138.2921 35.6312 24.7965 0.0000 0.0000 0.0000
# 2 35.6312 24.8739 14.4338 0.0000 0.0000 0.0000
# 3 24.7965 14.4338 122.7847 0.0000 0.0000 0.0000
# 4 0.0000 0.0000 0.0000 8.3129 0.0000 0.0000
# 5 0.0000 0.0000 0.0000 0.0000 30.2711 0.0000
# 6 0.0000 0.0000 0.0000 0.0000 0.0000 -0.9104
#
#
#
# Elastic Compliance Matrix: (Units=1/GPa)
#
#
# Indices 1 2 3 4 5 6 
#
# 1 0.011481 -0.016206 -0.000413 0.000000 0.000000 0.000000
# 2 -0.016206 0.066022 -0.004488 0.000000 0.000000 0.000000
# 3 -0.000413 -0.004488 0.008755 0.000000 0.000000 0.000000
# 4 0.000000 0.000000 0.000000 0.120295 0.000000 0.000000
# 5 0.000000 0.000000 0.000000 0.000000 0.033035 0.000000
# 6 0.000000 0.000000 0.000000 0.000000 0.000000 -1.098440
#
#
# Mechanical properties :
#
#
# Convention : Reuss Voigt Hill
#
# Bulk Modulus (GPa) = 22.70533 48.40821 35.55677
# Shear Modulus (GPa) = -6.23475 21.60734 7.68630
#
# Velocity S-wave (km/s) = -1.78827 3.32908 1.98556
# Velocity P-wave (km/s) = 2.71700 6.29337 4.84709
#
# Compressibility (1/GPa) = 0.04404252
#
# Stress axis : x y z
#
# Youngs Moduli (GPa) = 87.10286 15.14656 114.21445
#
# Poissons Ratio (x) = 0.24546 0.04723
# Poissons Ratio (y) = 1.41157 0.51263
# Poissons Ratio (z) = 0.03602 0.06798
#
# Static dielectric constant tensor:
#      x y z
#    x 3.791720 0.000000 0.000000 
#    y 0.000000 3.037000 0.000000 
#    z 0.000000 0.000000 4.765200 
# 
# 
# High freq. dielectric constant tensor:
#      x y z
#    x 1.782020 0.000000 0.000000 
#    y 0.000000 1.703040 0.000000 
#    z 0.000000 0.000000 1.792240 
# 
# From -- ./inp_files/1491.got.cif
#   From: 2010.03.12/outbox.cif.g09.slc.cpg/sg39_1_cif.got.tgz:1491.got - 2010.04.14 02:53:20.
