data_PCOD8180123
_publ_section_title
;
Structure prediction by ZEFSAII (Michael W. Deem and Ramdas Pophale) SiO2 
 PCOD8180123
Probable space group: A M M 2
;
_chemical_formula_sum "Si O2"
_cell_formula_units_Z 64
_cell_length_a 24.019882
_cell_length_b 8.722999
_cell_length_c 15.433161
_cell_angle_alpha 90.000000
_cell_angle_beta 90.000000
_cell_angle_gamma 90.000000
_cell_volume 3233.639335
_symmetry_space_group_name_H-M "A M M 2"
_symmetry_group_IT_number 38
_symmetry_cell_setting 'orthorhombic'
loop_
_space_group_symop_operation_xyz
x,y,z
-x,-y,z
-x,y,z
x,-y,z
x,1/2+y,1/2+z
-x,1/2-y,1/2+z
-x,1/2+y,1/2+z
x,1/2-y,1/2+z
loop_
_atom_site_type_symbol
_atom_site_label
_atom_site_fract_x
_atom_site_fract_y
_atom_site_fract_z
Si Si1 0.866826 0.175293 0.978320
Si Si2 0.436834 0.181980 0.827070
Si Si3 0.243090 0.680076 0.922512
Si Si4 0.756939 0.179726 0.737735
Si Si5 0.062101 0.681110 0.828931
Si Si6 0.862670 0.176845 0.171743
Si Si7 0.365488 0.181724 0.477605
Si Si8 0.637846 0.681411 0.171114
O O1 0.803416 0.234045 0.978305
O O2 0.905796 0.271094 0.915181
O O3 0.868070 0.000000 0.947461
O O4 0.889541 0.193524 0.076356
O O5 0.500000 0.240910 0.821257
O O6 0.410357 0.242380 0.915323
O O7 0.404097 0.249030 0.743434
O O8 0.433695 0.000000 0.828076
O O9 0.236243 0.500000 0.937315
O O10 0.233597 0.720741 0.822987
O O11 0.303693 0.737631 0.952524
O O12 0.807641 0.218191 0.674185
O O13 0.700302 0.234883 0.692159
O O14 0.755165 0.000000 0.760400
O O15 0.058646 0.500000 0.827424
O O16 0.093648 0.739396 0.742776
O O17 0.000000 0.752308 0.829540
O O18 0.846668 0.000000 0.190202
O O19 0.378829 0.239072 0.575240
O O20 0.370088 0.000000 0.468936
O O21 0.634799 0.500000 0.172503
#
# Coordination Sequence:
#
# PCOD8180123 Si02
#       8
#     8   8   8   8   8   8   8   8
#     4  11  23  38  60  90 119 153 195 238 286 342
#     4  10  21  38  58  80 111 150 191 238 288 335
#     4  11  21  35  57  86 121 154 187 233 292 347
#     4  11  20  34  60  88 116 150 190 234 285 348
#     4  10  22  41  62  83 114 158 199 240 291 339
#     4  10  22  39  59  86 120 154 189 232 290 350
#     4  10  21  37  59  85 113 149 189 232 282 339
#     4   9  19  36  57  83 113 148 187 227 280 343
#
# _framework density 19.791941000000001
#
# number of rings (size 3 to 8) (size 9 to 14) (size 15 to 20)
#    0.000    1.750    2.500    1.875    0.000    4.000 
#    0.000    4.375    0.000    0.000    0.000    0.000 
#    0.000    0.000    0.000    0.000    0.000    0.000 
#
# Total GULP energy -396868.731957 kJ/mol
# GULP energy per Si atom -12402.147874 kJ/mol
# Density = 1.974689 g / cm^3
# Si number density = 19.791941 Si / 1000 Ang^3
#
#
#
# Elastic Constant Matrix: (Units=GPa)
#
#
# Indices 1 2 3 4 5 6 
#
# 1 152.6030 18.9304 63.6677 0.0000 0.0000 0.0000
# 2 18.9304 15.6380 11.5534 0.0000 0.0000 0.0000
# 3 63.6677 11.5534 143.4671 0.0000 0.0000 0.0000
# 4 0.0000 0.0000 0.0000 26.1883 0.0000 0.0000
# 5 0.0000 0.0000 0.0000 0.0000 15.6935 0.0000
# 6 0.0000 0.0000 0.0000 0.0000 0.0000 25.1675
#
#
#
# Elastic Compliance Matrix: (Units=1/GPa)
#
#
# Indices 1 2 3 4 5 6 
#
# 1 0.008977 -0.008425 -0.003305 0.000000 0.000000 0.000000
# 2 -0.008425 0.075899 -0.002373 0.000000 0.000000 0.000000
# 3 -0.003305 -0.002373 0.008628 0.000000 0.000000 0.000000
# 4 0.000000 0.000000 0.000000 0.038185 0.000000 0.000000
# 5 0.000000 0.000000 0.000000 0.000000 0.063720 0.000000
# 6 0.000000 0.000000 0.000000 0.000000 0.000000 0.039734
#
#
# Mechanical properties :
#
#
# Convention : Reuss Voigt Hill
#
# Bulk Modulus (GPa) = 15.31467 55.55679 35.43573
# Shear Modulus (GPa) = 17.53668 27.91364 22.72516
#
# Velocity S-wave (km/s) = 2.97989 3.75954 3.39219
# Velocity P-wave (km/s) = 4.42654 6.85397 5.76937
#
# Compressibility (1/GPa) = 0.06529686
#
# Stress axis : x y z
#
# Youngs Moduli (GPa) = 111.39412 13.17540 115.89872
#
# Poissons Ratio (x) = 0.11100 0.38309
# Poissons Ratio (y) = 0.93851 0.27506
# Poissons Ratio (z) = 0.36820 0.03127
#
# Static dielectric constant tensor:
#      x y z
#    x 3.790100 0.000000 0.000000 
#    y 0.000000 3.364350 0.000000 
#    z 0.000000 0.000000 3.778530 
# 
# 
# High freq. dielectric constant tensor:
#      x y z
#    x 1.770010 0.000000 0.000000 
#    y 0.000000 1.751260 0.000000 
#    z 0.000000 0.000000 1.786090 
# 
# From -- ./inp_files/15753.got.cif
#   From: 2010.03.12/outbox.cif.g09.slc.cpg/sg38_8_cif.got.tgz:15753.got - 2010.04.14 02:38:36.
