data_PCOD8180642
_publ_section_title
;
Structure prediction by ZEFSAII (Michael W. Deem and Ramdas Pophale) SiO2 
 PCOD8180642
Probable space group: A B M 2
;
_chemical_formula_sum "Si O2"
_cell_formula_units_Z 56
_cell_length_a 13.674010
_cell_length_b 8.719769
_cell_length_c 31.384621
_cell_angle_alpha 90.000000
_cell_angle_beta 90.000000
_cell_angle_gamma 90.000000
_cell_volume 3742.120444
_symmetry_space_group_name_H-M "A B M 2"
_symmetry_group_IT_number 39
_symmetry_cell_setting 'orthorhombic'
loop_
_space_group_symop_operation_xyz
x,y,z
-x,-y,z
-x,1/2+y,z
x,1/2-y,z
x,1/2+y,1/2+z
-x,1/2-y,1/2+z
-x,y,1/2+z
x,-y,1/2+z
loop_
_atom_site_type_symbol
_atom_site_label
_atom_site_fract_x
_atom_site_fract_y
_atom_site_fract_z
Si Si1 0.394588 0.926899 0.534950
Si Si2 0.709337 0.423408 0.788724
Si Si3 0.726592 0.069189 0.203869
Si Si4 0.606984 0.571846 0.129203
Si Si5 0.606753 0.069394 0.366518
Si Si6 0.608569 0.068542 0.952331
Si Si7 0.101927 0.076788 0.243550
O O1 0.404508 0.750000 0.522456
O O2 0.346599 0.948318 0.581620
O O3 0.500000 0.000000 0.539465
O O4 0.336971 0.012229 0.495976
O O5 0.669686 0.250000 0.794586
O O6 0.668189 0.493076 0.744000
O O7 0.676947 0.529178 0.827511
O O8 0.828315 0.425459 0.785677
O O9 0.719084 0.250000 0.207406
O O10 0.681425 0.013478 0.159917
O O11 0.840713 0.015313 0.205993
O O12 0.500000 0.500000 0.133563
O O13 0.599058 0.750000 0.141348
O O14 0.596995 0.250000 0.371569
O O15 0.500000 0.000000 0.358052
O O16 0.656595 0.999199 0.409306
O O17 0.608153 0.250000 0.949741
O O18 0.500000 0.000000 0.954338
O O19 0.083938 0.250000 0.227883
O O20 0.000000 0.000000 0.255425
#
# Coordination Sequence:
#
# PCOD8180642 Si02
#       7
#     8   8   8   8   8   8   8
#     4   9  16  26  40  57  79 108 145 184 219 254
#     4   9  19  33  46  64  88 113 144 181 215 255
#     4  10  19  31  46  65  88 115 147 180 216 258
#     4  10  19  30  43  61  87 119 152 185 220 256
#     4  11  20  30  44  61  86 118 151 183 217 257
#     4  10  17  26  40  57  80 109 145 183 218 254
#     4   9  18  32  51  68  88 111 139 177 218 261
#
# _framework density 14.964778000000001
#
# number of rings (size 3 to 8) (size 9 to 14) (size 15 to 20)
#    0.857    1.429    0.000    6.857    0.000    2.286 
#    0.000    2.857    0.000    0.000    0.000    0.000 
#    0.000    1.143    0.000    8.000    0.000    5.857 
#
# Total GULP energy -346881.947932 kJ/mol
# GULP energy per Si atom -12388.640998 kJ/mol
# Density = 1.493072 g / cm^3
# Si number density = 14.964778 Si / 1000 Ang^3
#
#
#
# Elastic Constant Matrix: (Units=GPa)
#
#
# Indices 1 2 3 4 5 6 
#
# 1 44.0157 25.6368 29.5673 0.0000 0.0000 0.0000
# 2 25.6368 140.2729 51.6884 0.0000 0.0000 0.0000
# 3 29.5673 51.6884 112.8886 0.0000 0.0000 0.0000
# 4 0.0000 0.0000 0.0000 28.7704 0.0000 0.0000
# 5 0.0000 0.0000 0.0000 0.0000 1.3769 0.0000
# 6 0.0000 0.0000 0.0000 0.0000 0.0000 20.4998
#
#
#
# Elastic Compliance Matrix: (Units=1/GPa)
#
#
# Indices 1 2 3 4 5 6 
#
# 1 0.028558 -0.002963 -0.006123 0.000000 0.000000 0.000000
# 2 -0.002963 0.008883 -0.003291 0.000000 0.000000 0.000000
# 3 -0.006123 -0.003291 0.011969 0.000000 0.000000 0.000000
# 4 0.000000 0.000000 0.000000 0.034758 0.000000 0.000000
# 5 0.000000 0.000000 0.000000 0.000000 0.726267 0.000000
# 6 0.000000 0.000000 0.000000 0.000000 0.000000 0.048781
#
#
# Mechanical properties :
#
#
# Convention : Reuss Voigt Hill
#
# Bulk Modulus (GPa) = 40.55902 56.77357 48.66629
# Shear Modulus (GPa) = 5.60419 22.81507 14.20963
#
# Velocity S-wave (km/s) = 1.93728 3.90883 3.08480
# Velocity P-wave (km/s) = 5.67150 7.64149 6.72898
#
# Compressibility (1/GPa) = 0.02465543
#
# Stress axis : x y z
#
# Youngs Moduli (GPa) = 35.01618 112.57060 83.54896
#
# Poissons Ratio (x) = 0.33356 0.51158
# Poissons Ratio (y) = 0.10376 0.27499
# Poissons Ratio (z) = 0.21441 0.37051
#
# Static dielectric constant tensor:
#      x y z
#    x 2.452430 0.000000 0.000000 
#    y 0.000000 3.060870 0.000000 
#    z 0.000000 0.000000 3.456870 
# 
# 
# High freq. dielectric constant tensor:
#      x y z
#    x 1.506260 0.000000 0.000000 
#    y 0.000000 1.600130 0.000000 
#    z 0.000000 0.000000 1.579830 
# 
# From -- ./inp_files/17921.got.cif
#   From: 2010.03.12/outbox.cif.g09.slc.cpg/sg39_9_cif.got.tgz:17921.got - 2010.04.14 02:53:20.
