data_PCOD8180682
_publ_section_title
;
Structure prediction by ZEFSAII (Michael W. Deem and Ramdas Pophale) SiO2 
 PCOD8180682
Probable space group: A B M 2
;
_chemical_formula_sum "Si O2"
_cell_formula_units_Z 64
_cell_length_a 17.087858
_cell_length_b 22.351229
_cell_length_c 8.779266
_cell_angle_alpha 90.000000
_cell_angle_beta 90.000000
_cell_angle_gamma 90.000000
_cell_volume 3353.105687
_symmetry_space_group_name_H-M "A B M 2"
_symmetry_group_IT_number 39
_symmetry_cell_setting 'orthorhombic'
loop_
_space_group_symop_operation_xyz
x,y,z
-x,-y,z
-x,1/2+y,z
x,1/2-y,z
x,1/2+y,1/2+z
-x,1/2-y,1/2+z
-x,y,1/2+z
x,-y,1/2+z
loop_
_atom_site_type_symbol
_atom_site_label
_atom_site_fract_x
_atom_site_fract_y
_atom_site_fract_z
Si Si1 0.898508 0.183305 0.539310
Si Si2 0.984355 0.133866 0.266864
Si Si3 0.601630 0.612522 0.050939
Si Si4 0.513509 0.592785 0.783640
Si Si5 0.062739 0.553796 0.005644
Si Si6 0.767531 0.588275 0.083975
Si Si7 0.232139 0.521114 0.899691
Si Si8 0.399231 0.030319 0.516649
O O1 0.862938 0.250000 0.551327
O O2 0.972804 0.178917 0.651181
O O3 0.839405 0.132760 0.595885
O O4 0.921433 0.171421 0.363930
O O5 0.045744 0.104414 0.381953
O O6 0.942787 0.080453 0.175123
O O7 0.544226 0.634869 0.184904
O O8 0.690480 0.630726 0.087483
O O9 0.595660 0.540477 0.037741
O O10 0.566644 0.636237 0.890637
O O11 0.574799 0.557299 0.677963
O O12 0.457739 0.549570 0.883023
O O13 0.000000 0.500000 0.989335
O O14 0.152561 0.536817 0.987126
O O15 0.770534 0.540474 0.223120
O O16 0.764397 0.551062 0.925066
O O17 0.309895 0.550220 0.976258
#
# Coordination Sequence:
#
# PCOD8180682 Si02
#       8
#     8   8   8   8   8   8   8   8
#     4  11  23  43  63  81 109 145 197 244 284 328
#     4  10  22  38  58  87 105 143 193 237 283 332
#     4  10  18  28  45  70 108 144 192 215 275 328
#     4  10  17  28  44  70 104 156 184 221 266 343
#     4  11  22  35  57  82 122 153 183 221 288 356
#     4  11  24  36  53  83 116 153 184 233 286 339
#     4  11  23  35  51  81 121 152 183 228 284 354
#     4  10  18  27  44  66 108 149 185 218 267 332
#
# _framework density 19.086784000000002
#
# number of rings (size 3 to 8) (size 9 to 14) (size 15 to 20)
#    0.000    1.500    2.500    5.250    8.750    0.000 
#    0.000    0.000    0.000    0.000    0.000    0.875 
#    0.000    0.000    0.000    0.000    0.000    0.000 
#
# Total GULP energy -396497.093826 kJ/mol
# GULP energy per Si atom -12390.534182 kJ/mol
# Density = 1.904334 g / cm^3
# Si number density = 19.086784 Si / 1000 Ang^3
#
#
#
# Elastic Constant Matrix: (Units=GPa)
#
#
# Indices 1 2 3 4 5 6 
#
# 1 127.0130 20.1548 40.7278 0.0000 0.0000 0.0000
# 2 20.1548 51.7655 22.6040 0.0000 0.0000 0.0000
# 3 40.7278 22.6040 112.1243 0.0000 0.0000 0.0000
# 4 0.0000 0.0000 0.0000 10.9847 0.0000 0.0000
# 5 0.0000 0.0000 0.0000 0.0000 28.3940 0.0000
# 6 0.0000 0.0000 0.0000 0.0000 0.0000 4.0267
#
#
#
# Elastic Compliance Matrix: (Units=1/GPa)
#
#
# Indices 1 2 3 4 5 6 
#
# 1 0.009158 -0.002317 -0.002859 0.000000 0.000000 0.000000
# 2 -0.002317 0.021769 -0.003547 0.000000 0.000000 0.000000
# 3 -0.002859 -0.003547 0.010672 0.000000 0.000000 0.000000
# 4 0.000000 0.000000 0.000000 0.091036 0.000000 0.000000
# 5 0.000000 0.000000 0.000000 0.000000 0.035219 0.000000
# 6 0.000000 0.000000 0.000000 0.000000 0.000000 0.248342
#
#
# Mechanical properties :
#
#
# Convention : Reuss Voigt Hill
#
# Bulk Modulus (GPa) = 41.40377 50.87511 46.13944
# Shear Modulus (GPa) = 11.32010 22.50883 16.91446
#
# Velocity S-wave (km/s) = 2.43798 3.43780 2.98012
# Velocity P-wave (km/s) = 5.44651 6.51694 6.00562
#
# Compressibility (1/GPa) = 0.02415239
#
# Stress axis : x y z
#
# Youngs Moduli (GPa) = 109.19708 45.93732 93.70014
#
# Poissons Ratio (x) = 0.10644 0.26792
# Poissons Ratio (y) = 0.25301 0.33235
# Poissons Ratio (z) = 0.31223 0.16294
#
# Static dielectric constant tensor:
#      x y z
#    x 3.969380 0.000000 0.000000 
#    y 0.000000 2.859990 0.000000 
#    z 0.000000 0.000000 3.905890 
# 
# 
# High freq. dielectric constant tensor:
#      x y z
#    x 1.761820 0.000000 0.000000 
#    y 0.000000 1.661900 0.000000 
#    z 0.000000 0.000000 1.764320 
# 
# From -- ./inp_files/3882.got.cif
#   From: 2010.03.12/outbox.cif.g09.slc.cpg/sg39_2_cif.got.tgz:3882.got - 2010.04.14 02:53:20.
