data_PCOD8180141
_publ_section_title
;
Structure prediction by ZEFSAII (Michael W. Deem and Ramdas Pophale) SiO2 
 PCOD8180141
Probable space group: A M M 2
;
_chemical_formula_sum "Si O2"
_cell_formula_units_Z 48
_cell_length_a 8.388754
_cell_length_b 14.426543
_cell_length_c 20.053917
_cell_angle_alpha 90.000000
_cell_angle_beta 90.000000
_cell_angle_gamma 90.000000
_cell_volume 2426.939480
_symmetry_space_group_name_H-M "A M M 2"
_symmetry_group_IT_number 38
_symmetry_cell_setting 'orthorhombic'
loop_
_space_group_symop_operation_xyz
x,y,z
-x,-y,z
-x,y,z
x,-y,z
x,1/2+y,1/2+z
-x,1/2-y,1/2+z
-x,1/2+y,1/2+z
x,1/2-y,1/2+z
loop_
_atom_site_type_symbol
_atom_site_label
_atom_site_fract_x
_atom_site_fract_y
_atom_site_fract_z
Si Si1 0.183808 0.807678 0.789970
Si Si2 0.186431 0.500000 0.355158
Si Si3 0.315705 0.194441 0.408948
Si Si4 0.812838 0.500000 0.950588
Si Si5 0.187018 0.000000 0.606670
Si Si6 0.184110 0.304605 0.531287
Si Si7 0.685786 0.000000 0.000878
Si Si8 0.316387 0.306153 0.149929
O O1 0.234316 0.910438 0.812759
O O2 0.212172 0.736193 0.849445
O O3 0.287689 0.777735 0.726446
O O4 0.000000 0.805779 0.769121
O O5 0.289567 0.500000 0.421880
O O6 0.000000 0.500000 0.374804
O O7 0.500000 0.201801 0.390008
O O8 0.266508 0.088502 0.417127
O O9 0.286958 0.250565 0.476708
O O10 0.000000 0.500000 0.936978
O O11 0.774912 0.500000 0.028679
O O12 0.265300 0.088162 0.640816
O O13 0.000000 0.000000 0.621465
O O14 0.233226 0.411361 0.534625
O O15 0.211519 0.260035 0.603338
O O16 0.000000 0.294642 0.511138
O O17 0.500000 0.000000 0.017477
O O18 0.500000 0.292648 0.131076
#
# Coordination Sequence:
#
# PCOD8180141 Si02
#       8
#     8   4   8   4   4   8   4   8
#     4  11  23  41  64  92 130 172 211 253 313 382
#     4  10  21  37  62  92 128 167 208 253 308 374
#     4  12  24  40  64  95 128 163 209 264 314 364
#     4  11  23  40  65  94 125 166 213 257 311 375
#     4  11  22  38  63  93 129 169 209 254 315 382
#     4  12  24  42  65  91 126 169 212 254 310 378
#     4  12  24  39  64  97 128 160 208 264 316 363
#     4  12  25  41  63  94 130 166 211 264 317 369
#
# _framework density 19.777996999999999
#
# number of rings (size 3 to 8) (size 9 to 14) (size 15 to 20)
#    0.000    0.500    3.333    6.750    0.000    2.000 
#    0.000    0.833    0.000    0.000    0.000    0.000 
#    0.000    0.000    0.000    0.000    0.000    0.000 
#
# Total GULP energy -297821.391123 kJ/mol
# GULP energy per Si atom -12409.224630 kJ/mol
# Density = 1.973298 g / cm^3
# Si number density = 19.777997 Si / 1000 Ang^3
#
#
#
# Elastic Constant Matrix: (Units=GPa)
#
#
# Indices 1 2 3 4 5 6 
#
# 1 80.0704 18.3110 14.7141 0.0000 0.0000 0.0000
# 2 18.3110 133.3471 41.0062 0.0000 0.0000 0.0000
# 3 14.7141 41.0062 97.8821 0.0000 0.0000 0.0000
# 4 0.0000 0.0000 0.0000 47.0560 0.0000 0.0000
# 5 0.0000 0.0000 0.0000 0.0000 33.3639 0.0000
# 6 0.0000 0.0000 0.0000 0.0000 0.0000 31.8619
#
#
#
# Elastic Compliance Matrix: (Units=1/GPa)
#
#
# Indices 1 2 3 4 5 6 
#
# 1 0.013057 -0.001365 -0.001391 0.000000 0.000000 0.000000
# 2 -0.001365 0.008751 -0.003461 0.000000 0.000000 0.000000
# 3 -0.001391 -0.003461 0.011875 0.000000 0.000000 0.000000
# 4 0.000000 0.000000 0.000000 0.021251 0.000000 0.000000
# 5 0.000000 0.000000 0.000000 0.000000 0.029973 0.000000
# 6 0.000000 0.000000 0.000000 0.000000 0.000000 0.031385
#
#
# Mechanical properties :
#
#
# Convention : Reuss Voigt Hill
#
# Bulk Modulus (GPa) = 47.06045 51.04024 49.05034
# Shear Modulus (GPa) = 36.81635 38.27425 37.54530
#
# Velocity S-wave (km/s) = 4.31917 4.40386 4.36172
# Velocity P-wave (km/s) = 6.97994 7.19174 7.08664
#
# Compressibility (1/GPa) = 0.02124927
#
# Stress axis : x y z
#
# Youngs Moduli (GPa) = 76.58846 114.27314 84.20825
#
# Poissons Ratio (x) = 0.15601 0.11712
# Poissons Ratio (y) = 0.10456 0.29143
# Poissons Ratio (z) = 0.10652 0.39548
#
# Static dielectric constant tensor:
#      x y z
#    x 3.662750 0.000000 0.000000 
#    y 0.000000 3.681270 0.000000 
#    z 0.000000 0.000000 3.518720 
# 
# 
# High freq. dielectric constant tensor:
#      x y z
#    x 1.785070 0.000000 0.000000 
#    y 0.000000 1.776270 0.000000 
#    z 0.000000 0.000000 1.768300 
# 
# From -- ./inp_files/16755.got.cif
#   From: 2010.03.12/outbox.cif.g09.slc.cpg/sg38_9_cif.got.tgz:16755.got - 2010.04.14 02:38:36.
