data_PCOD8180467
_publ_section_title
;
Structure prediction by ZEFSAII (Michael W. Deem and Ramdas Pophale) SiO2 
 PCOD8180467
Probable space group: A M M 2
;
_chemical_formula_sum "Si O2"
_cell_formula_units_Z 64
_cell_length_a 8.745588
_cell_length_b 14.345356
_cell_length_c 28.460967
_cell_angle_alpha 90.000000
_cell_angle_beta 90.000000
_cell_angle_gamma 90.000000
_cell_volume 3570.672314
_symmetry_space_group_name_H-M "A M M 2"
_symmetry_group_IT_number 38
_symmetry_cell_setting 'orthorhombic'
loop_
_space_group_symop_operation_xyz
x,y,z
-x,-y,z
-x,y,z
x,-y,z
x,1/2+y,1/2+z
-x,1/2-y,1/2+z
-x,1/2+y,1/2+z
x,1/2-y,1/2+z
loop_
_atom_site_type_symbol
_atom_site_label
_atom_site_fract_x
_atom_site_fract_y
_atom_site_fract_z
Si Si1 0.820583 0.749979 0.449770
Si Si2 0.818700 0.605735 0.118176
Si Si3 0.180610 0.249970 0.694397
Si Si4 0.818749 0.105775 0.118151
Si Si5 0.819001 0.396668 0.372727
Si Si6 0.320670 0.750041 0.550338
Si Si7 0.182764 0.249976 0.298872
Si Si8 0.181012 0.603338 0.872753
O O1 0.775032 0.658441 0.420000
O O2 0.719162 0.749924 0.495856
O O3 0.774934 0.841514 0.420009
O O4 0.000000 0.750012 0.462500
O O5 0.758556 0.500000 0.120433
O O6 0.766292 0.658131 0.165874
O O7 0.747798 0.656623 0.073251
O O8 0.000000 0.609935 0.112602
O O9 0.233277 0.341942 0.665914
O O10 0.254148 0.250021 0.746425
O O11 0.000000 0.249748 0.699644
O O12 0.747173 0.156588 0.073306
O O13 0.000000 0.110197 0.112378
O O14 0.758882 0.000000 0.120461
O O15 0.745414 0.500000 0.373930
O O16 0.758568 0.341578 0.326719
O O17 0.000000 0.403361 0.369445
O O18 0.500000 0.750308 0.557775
O O19 0.241424 0.158377 0.326725
O O20 0.000000 0.249955 0.297454
O O21 0.254568 0.500000 0.873970
O O22 0.000000 0.596676 0.869504
#
# Coordination Sequence:
#
# PCOD8180467 Si02
#       8
#     8   8   8   8   8   8   8   8
#     4   9  17  30  46  64  88 119 157 195 230 277
#     4   9  18  33  51  70  95 128 163 196 232 280
#     4   8  14  25  42  67  96 123 153 190 232 275
#     4   9  18  33  51  70  95 128 163 196 232 280
#     4   8  14  24  39  62  92 123 152 184 225 272
#     4  11  22  34  49  70  96 123 155 201 249 289
#     4   8  13  21  36  63  98 125 145 178 225 275
#     4   8  14  24  39  62  92 123 152 184 225 272
#
# _framework density 17.923795999999999
#
# number of rings (size 3 to 8) (size 9 to 14) (size 15 to 20)
#    0.000    3.250    0.000    3.375    0.000    2.500 
#    0.000    7.500    0.000    0.000    0.000   14.000 
#    0.000    0.000    0.000    0.000    0.000    0.000 
#
# Total GULP energy -396632.694059 kJ/mol
# GULP energy per Si atom -12394.771689 kJ/mol
# Density = 1.788300 g / cm^3
# Si number density = 17.923796 Si / 1000 Ang^3
#
#
#
# Elastic Constant Matrix: (Units=GPa)
#
#
# Indices 1 2 3 4 5 6 
#
# 1 20.6892 20.7156 16.7008 0.0000 0.0000 0.0000
# 2 20.7156 193.2926 84.8794 0.0000 0.0000 0.0000
# 3 16.7008 84.8794 154.1106 0.0000 0.0000 0.0000
# 4 0.0000 0.0000 0.0000 14.4259 0.0000 0.0000
# 5 0.0000 0.0000 0.0000 0.0000 -0.5588 0.0000
# 6 0.0000 0.0000 0.0000 0.0000 0.0000 5.6207
#
#
#
# Elastic Compliance Matrix: (Units=1/GPa)
#
#
# Indices 1 2 3 4 5 6 
#
# 1 0.055635 -0.004373 -0.003621 0.000000 0.000000 0.000000
# 2 -0.004373 0.007168 -0.003474 0.000000 0.000000 0.000000
# 3 -0.003621 -0.003474 0.008795 0.000000 0.000000 0.000000
# 4 0.000000 0.000000 0.000000 0.069320 0.000000 0.000000
# 5 0.000000 0.000000 0.000000 0.000000 -1.789688 0.000000
# 6 0.000000 0.000000 0.000000 0.000000 0.000000 0.177912
#
#
# Mechanical properties :
#
#
# Convention : Reuss Voigt Hill
#
# Bulk Modulus (GPa) = 20.54955 68.07599 44.31277
# Shear Modulus (GPa) = -3.49234 20.28403 8.39584
#
# Velocity S-wave (km/s) = -1.39738 3.36770 2.16665
# Velocity P-wave (km/s) = 2.98099 7.29281 5.57097
#
# Compressibility (1/GPa) = 0.04866286
#
# Stress axis : x y z
#
# Youngs Moduli (GPa) = 17.97422 139.51761 113.70736
#
# Poissons Ratio (x) = 0.61005 0.41172
# Poissons Ratio (y) = 0.07859 0.39500
# Poissons Ratio (z) = 0.06508 0.48466
#
# Static dielectric constant tensor:
#      x y z
#    x 2.709630 0.000000 0.000000 
#    y 0.000000 3.934350 0.000000 
#    z 0.000000 0.000000 3.467540 
# 
# 
# High freq. dielectric constant tensor:
#      x y z
#    x 1.633520 0.000000 0.000000 
#    y 0.000000 1.701820 0.000000 
#    z 0.000000 0.000000 1.698980 
# 
# From -- ./inp_files/24782.got.cif
#   From: 2010.03.12/outbox.cif.g09.slc.cpg/sg38_13_cif.got.tgz:24782.got - 2010.04.14 02:38:36.
