data_PCOD8180985
_publ_section_title
;
Structure prediction by ZEFSAII (Michael W. Deem and Ramdas Pophale) SiO2 
 PCOD8180985
Probable space group: A B M 2
;
_chemical_formula_sum "Si O2"
_cell_formula_units_Z 64
_cell_length_a 36.913452
_cell_length_b 16.579589
_cell_length_c 5.225756
_cell_angle_alpha 90.000000
_cell_angle_beta 90.000000
_cell_angle_gamma 90.000000
_cell_volume 3198.214212
_symmetry_space_group_name_H-M "A B M 2"
_symmetry_group_IT_number 39
_symmetry_cell_setting 'orthorhombic'
loop_
_space_group_symop_operation_xyz
x,y,z
-x,-y,z
-x,1/2+y,z
x,1/2-y,z
x,1/2+y,1/2+z
-x,1/2-y,1/2+z
-x,y,1/2+z
x,-y,1/2+z
loop_
_atom_site_type_symbol
_atom_site_label
_atom_site_fract_x
_atom_site_fract_y
_atom_site_fract_z
Si Si1 0.020551 0.846219 0.595820
Si Si2 0.638157 0.655979 0.586079
Si Si3 0.211983 0.448526 0.628155
Si Si4 0.102383 0.346139 0.091475
Si Si5 0.143635 0.845533 0.091372
Si Si6 0.405954 0.654460 0.584144
Si Si7 0.484319 0.091098 0.092712
Si Si8 0.293599 0.050416 0.635843
O O1 0.020584 0.750000 0.595634
O O2 0.061476 0.879505 0.595277
O O3 0.999901 0.879417 0.346201
O O4 0.643710 0.750000 0.597245
O O5 0.617808 0.629861 0.328297
O O6 0.678298 0.621241 0.588098
O O7 0.615207 0.627232 0.830525
O O8 0.204954 0.512637 0.404321
O O9 0.184992 0.374124 0.594141
O O10 0.252933 0.414501 0.609561
O O11 0.102090 0.250000 0.092200
O O12 0.123388 0.379242 0.340069
O O13 0.122289 0.379046 0.838375
O O14 0.144176 0.750000 0.091016
O O15 0.415689 0.750000 0.583211
O O16 0.441178 0.597884 0.595130
O O17 0.500208 0.136229 0.342061
O O18 0.500000 0.000000 0.091311
O O19 0.299919 0.982707 0.420836
#
# Coordination Sequence:
#
# PCOD8180985 Si02
#       8
#     8   8   8   8   8   8   8   8
#     4   9  15  23  37  59  92 135 171 204 265 331
#     4  10  21  39  60  86 116 146 183 225 269 323
#     4  10  21  37  57  77 112 143 177 221 263 318
#     4   9  17  28  43  68 104 135 171 225 268 317
#     4  10  19  32  51  76 104 139 178 216 269 319
#     4  10  21  38  59  82 111 147 183 222 271 320
#     4  10  21  38  53  78 112 141 182 227 267 313
#     4  10  21  39  57  86 113 144 180 220 269 317
#
# _framework density 20.011168000000001
#
# number of rings (size 3 to 8) (size 9 to 14) (size 15 to 20)
#    0.000    2.250    0.000    3.000    0.000    4.000 
#   13.500    0.000    0.000    9.000    0.000    0.000 
#    0.000   35.000    0.000    0.000    0.000    0.000 
#
# Total GULP energy -396769.496568 kJ/mol
# GULP energy per Si atom -12399.046768 kJ/mol
# Density = 1.996562 g / cm^3
# Si number density = 20.011168 Si / 1000 Ang^3
#
#
#
# Elastic Constant Matrix: (Units=GPa)
#
#
# Indices 1 2 3 4 5 6 
#
# 1 172.4268 40.1046 62.1603 0.0000 0.0000 0.0000
# 2 40.1046 20.4302 15.7207 0.0000 0.0000 0.0000
# 3 62.1603 15.7207 166.7268 0.0000 0.0000 0.0000
# 4 0.0000 0.0000 0.0000 7.3339 0.0000 0.0000
# 5 0.0000 0.0000 0.0000 0.0000 34.2047 0.0000
# 6 0.0000 0.0000 0.0000 0.0000 0.0000 26.0171
#
#
#
# Elastic Compliance Matrix: (Units=1/GPa)
#
#
# Indices 1 2 3 4 5 6 
#
# 1 0.011446 -0.020686 -0.002317 0.000000 0.000000 0.000000
# 2 -0.020686 0.090162 -0.000789 0.000000 0.000000 0.000000
# 3 -0.002317 -0.000789 0.006936 0.000000 0.000000 0.000000
# 4 0.000000 0.000000 0.000000 0.136354 0.000000 0.000000
# 5 0.000000 0.000000 0.000000 0.000000 0.029236 0.000000
# 6 0.000000 0.000000 0.000000 0.000000 0.000000 0.038436
#
#
# Mechanical properties :
#
#
# Convention : Reuss Voigt Hill
#
# Bulk Modulus (GPa) = 16.40431 66.17277 41.28854
# Shear Modulus (GPa) = 13.14152 29.61767 21.37960
#
# Velocity S-wave (km/s) = 2.56541 3.85132 3.27216
# Velocity P-wave (km/s) = 4.12195 7.27438 5.91215
#
# Compressibility (1/GPa) = 0.06095960
#
# Stress axis : x y z
#
# Youngs Moduli (GPa) = 87.36503 11.09120 144.17416
#
# Poissons Ratio (x) = 0.22943 0.33405
# Poissons Ratio (y) = 1.80725 0.11375
# Poissons Ratio (z) = 0.20242 0.00875
#
# Static dielectric constant tensor:
#      x y z
#    x 3.796480 0.000000 0.000000 
#    y 0.000000 3.027840 0.000000 
#    z 0.000000 0.000000 4.989640 
# 
# 
# High freq. dielectric constant tensor:
#      x y z
#    x 1.794320 0.000000 0.000000 
#    y 0.000000 1.729440 0.000000 
#    z 0.000000 0.000000 1.811060 
# 
# From -- ./inp_files/1538.got.cif
#   From: 2010.03.12/outbox.cif.g09.slc.cpg/sg39_1_cif.got.tgz:1538.got - 2010.04.14 02:53:20.
