data_PCOD8180844
_publ_section_title
;
Structure prediction by ZEFSAII (Michael W. Deem and Ramdas Pophale) SiO2 
 PCOD8180844
Probable space group: A B M 2
;
_chemical_formula_sum "Si O2"
_cell_formula_units_Z 48
_cell_length_a 14.103212
_cell_length_b 8.622465
_cell_length_c 20.611238
_cell_angle_alpha 90.000000
_cell_angle_beta 90.000000
_cell_angle_gamma 90.000000
_cell_volume 2506.418299
_symmetry_space_group_name_H-M "A B M 2"
_symmetry_group_IT_number 39
_symmetry_cell_setting 'orthorhombic'
loop_
_space_group_symop_operation_xyz
x,y,z
-x,-y,z
-x,1/2+y,z
x,1/2-y,z
x,1/2+y,1/2+z
-x,1/2-y,1/2+z
-x,y,1/2+z
x,-y,1/2+z
loop_
_atom_site_type_symbol
_atom_site_label
_atom_site_fract_x
_atom_site_fract_y
_atom_site_fract_z
Si Si1 0.398159 0.932382 0.900090
Si Si2 0.900258 0.433868 0.323691
Si Si3 0.604912 0.565638 0.653340
Si Si4 0.098719 0.066316 0.465530
Si Si5 0.708017 0.933615 0.525086
Si Si6 0.283265 0.932879 0.773708
O O1 0.407491 0.750000 0.905356
O O2 0.329988 0.980015 0.841629
O O3 0.500000 0.000000 0.885486
O O4 0.355255 0.002803 0.966483
O O5 0.904109 0.250000 0.325504
O O6 0.877760 0.497591 0.395225
O O7 0.821007 0.491701 0.272991
O O8 0.000000 0.500000 0.298335
O O9 0.500000 0.500000 0.646127
O O10 0.600001 0.750000 0.655089
O O11 0.667862 0.503346 0.593005
O O12 0.652665 0.504274 0.717956
O O13 0.091324 0.250000 0.457673
O O14 0.182177 0.016945 0.515142
O O15 0.000000 0.000000 0.493346
O O16 0.700684 0.750000 0.522947
O O17 0.275548 0.750000 0.763892
#
# Coordination Sequence:
#
# PCOD8180844 Si02
#       6
#     8   8   8   8   8   8
#     4  10  20  35  55  80 109 144 187 239 290 338
#     4  11  21  35  58  89 120 152 191 237 292 349
#     4  11  23  40  60  83 115 157 199 240 295 352
#     4  10  18  34  57  85 118 152 190 235 292 347
#     4   9  19  37  58  80 113 154 191 237 291 345
#     4  11  22  39  60  83 116 154 195 241 291 346
#
# _framework density 19.150832999999999
#
# number of rings (size 3 to 8) (size 9 to 14) (size 15 to 20)
#    0.000    1.667    1.667    5.000    0.000    2.667 
#    0.000    5.000    0.000    2.000    0.000    0.000 
#    0.000    0.000    0.000    0.000    0.000    0.000 
#
# Total GULP energy -297632.986992 kJ/mol
# GULP energy per Si atom -12401.374458 kJ/mol
# Density = 1.910725 g / cm^3
# Si number density = 19.150833 Si / 1000 Ang^3
#
#
#
# Elastic Constant Matrix: (Units=GPa)
#
#
# Indices 1 2 3 4 5 6 
#
# 1 151.0983 53.5151 35.5468 0.0000 0.0000 0.0000
# 2 53.5151 86.7216 43.3471 0.0000 0.0000 0.0000
# 3 35.5468 43.3471 68.0822 0.0000 0.0000 0.0000
# 4 0.0000 0.0000 0.0000 22.1708 0.0000 0.0000
# 5 0.0000 0.0000 0.0000 0.0000 40.3076 0.0000
# 6 0.0000 0.0000 0.0000 0.0000 0.0000 36.3835
#
#
#
# Elastic Compliance Matrix: (Units=1/GPa)
#
#
# Indices 1 2 3 4 5 6 
#
# 1 0.008591 -0.004487 -0.001628 0.000000 0.000000 0.000000
# 2 -0.004487 0.019258 -0.009918 0.000000 0.000000 0.000000
# 3 -0.001628 -0.009918 0.021853 0.000000 0.000000 0.000000
# 4 0.000000 0.000000 0.000000 0.045104 0.000000 0.000000
# 5 0.000000 0.000000 0.000000 0.000000 0.024809 0.000000
# 6 0.000000 0.000000 0.000000 0.000000 0.000000 0.027485
#
#
# Mechanical properties :
#
#
# Convention : Reuss Voigt Hill
#
# Bulk Modulus (GPa) = 56.70940 63.41335 60.06137
# Shear Modulus (GPa) = 27.02035 31.33859 29.17947
#
# Velocity S-wave (km/s) = 3.76030 4.04964 3.90765
# Velocity P-wave (km/s) = 6.96630 7.41961 7.19653
#
# Compressibility (1/GPa) = 0.01763376
#
# Stress axis : x y z
#
# Youngs Moduli (GPa) = 116.40707 51.92704 45.75997
#
# Poissons Ratio (x) = 0.23301 0.07451
# Poissons Ratio (y) = 0.52235 0.45386
# Poissons Ratio (z) = 0.18954 0.51503
#
# Static dielectric constant tensor:
#      x y z
#    x 3.800820 0.000000 0.000000 
#    y 0.000000 3.428700 0.000000 
#    z 0.000000 0.000000 3.556560 
# 
# 
# High freq. dielectric constant tensor:
#      x y z
#    x 1.765530 0.000000 0.000000 
#    y 0.000000 1.740570 0.000000 
#    z 0.000000 0.000000 1.729080 
# 
# From -- ./inp_files/12663.got.cif
#   From: 2010.03.12/outbox.cif.g09.slc.cpg/sg39_7_cif.got.tgz:12663.got - 2010.04.14 02:53:20.
