data_PCOD8180889
_publ_section_title
;
Structure prediction by ZEFSAII (Michael W. Deem and Ramdas Pophale) SiO2 
 PCOD8180889
Probable space group: A B M 2
;
_chemical_formula_sum "Si O2"
_cell_formula_units_Z 64
_cell_length_a 20.818437
_cell_length_b 9.444858
_cell_length_c 18.294009
_cell_angle_alpha 90.000000
_cell_angle_beta 90.000000
_cell_angle_gamma 90.000000
_cell_volume 3597.099423
_symmetry_space_group_name_H-M "A B M 2"
_symmetry_group_IT_number 39
_symmetry_cell_setting 'orthorhombic'
loop_
_space_group_symop_operation_xyz
x,y,z
-x,-y,z
-x,1/2+y,z
x,1/2-y,z
x,1/2+y,1/2+z
-x,1/2-y,1/2+z
-x,y,1/2+z
x,-y,1/2+z
loop_
_atom_site_type_symbol
_atom_site_label
_atom_site_fract_x
_atom_site_fract_y
_atom_site_fract_z
Si Si1 0.442583 0.591042 0.076970
Si Si2 0.557947 0.408709 0.903076
Si Si3 0.061536 0.587245 0.665234
Si Si4 0.179387 0.914124 0.406872
Si Si5 0.936142 0.416185 0.836108
Si Si6 0.302148 0.591637 0.078176
Si Si7 0.184483 0.911030 0.579924
Si Si8 0.299940 0.590141 0.904468
O O1 0.500000 0.500000 0.112371
O O2 0.451979 0.750000 0.105017
O O3 0.372516 0.534185 0.102625
O O4 0.446138 0.585224 0.990001
O O5 0.500000 0.500000 0.868105
O O6 0.547684 0.250000 0.874949
O O7 0.629094 0.461342 0.877998
O O8 0.048198 0.750000 0.645654
O O9 0.075722 0.566243 0.750320
O O10 0.121779 0.527049 0.619890
O O11 0.000000 0.500000 0.639333
O O12 0.173998 0.750000 0.381801
O O13 0.175972 0.926746 0.493762
O O14 0.122396 0.009224 0.376390
O O15 0.246214 0.979831 0.376178
O O16 0.941442 0.250000 0.858009
O O17 0.000000 0.500000 0.860319
O O18 0.291765 0.750000 0.108276
O O19 0.246467 0.493378 0.110600
O O20 0.298767 0.592733 0.991337
O O21 0.194922 0.750000 0.603618
O O22 0.285624 0.750000 0.875700
#
# Coordination Sequence:
#
# PCOD8180889 Si02
#       8
#     8   8   8   8   8   8   8   8
#     4   8  13  20  30  47  73 106 144 180 213 253
#     4   8  13  20  31  48  73 107 145 182 217 256
#     4   9  19  35  52  69  89 115 147 181 218 261
#     4  10  19  30  46  69  95 120 148 184 223 264
#     4  10  20  35  53  69  89 117 147 181 219 262
#     4   8  14  24  37  55  81 113 147 181 218 260
#     4   9  18  31  46  67  93 118 147 183 221 262
#     4   8  14  25  38  54  81 116 150 182 219 262
#
# _framework density 17.792114000000002
#
# number of rings (size 3 to 8) (size 9 to 14) (size 15 to 20)
#    0.000    3.250    0.000    2.250    0.000    3.000 
#    0.000    6.250    0.000    0.000    0.000    0.000 
#    0.000    1.000    0.000    8.500    0.000   14.625 
#
# Total GULP energy -396567.703801 kJ/mol
# GULP energy per Si atom -12392.740744 kJ/mol
# Density = 1.775162 g / cm^3
# Si number density = 17.792114 Si / 1000 Ang^3
#
#
#
# Elastic Constant Matrix: (Units=GPa)
#
#
# Indices 1 2 3 4 5 6 
#
# 1 195.7171 98.3443 25.3498 0.0000 0.0000 0.0000
# 2 98.3443 109.9769 17.4742 0.0000 0.0000 0.0000
# 3 25.3498 17.4742 10.6326 0.0000 0.0000 0.0000
# 4 0.0000 0.0000 0.0000 11.0525 0.0000 0.0000
# 5 0.0000 0.0000 0.0000 0.0000 -1.7230 0.0000
# 6 0.0000 0.0000 0.0000 0.0000 0.0000 43.6553
#
#
#
# Elastic Compliance Matrix: (Units=1/GPa)
#
#
# Indices 1 2 3 4 5 6 
#
# 1 0.010445 -0.007286 -0.012928 0.000000 0.000000 0.000000
# 2 -0.007286 0.017389 -0.011207 0.000000 0.000000 0.000000
# 3 -0.012928 -0.011207 0.143291 0.000000 0.000000 0.000000
# 4 0.000000 0.000000 0.000000 0.090477 0.000000 0.000000
# 5 0.000000 0.000000 0.000000 0.000000 -0.580370 0.000000
# 6 0.000000 0.000000 0.000000 0.000000 0.000000 0.022907
#
#
# Mechanical properties :
#
#
# Convention : Reuss Voigt Hill
#
# Bulk Modulus (GPa) = 9.23506 66.51813 37.87660
# Shear Modulus (GPa) = -25.39036 22.27417 -1.55810
#
# Velocity S-wave (km/s) = -3.78174 3.54208 -0.93682
# Velocity P-wave (km/s) = 3.72383 7.36178 4.49049
#
# Compressibility (1/GPa) = 0.10828300
#
# Stress axis : x y z
#
# Youngs Moduli (GPa) = 95.73910 57.50817 6.97880
#
# Poissons Ratio (x) = 0.41901 0.09022
# Poissons Ratio (y) = 0.69756 0.07821
# Poissons Ratio (z) = 1.23775 0.64447
#
# Static dielectric constant tensor:
#      x y z
#    x 3.759390 0.000000 0.000000 
#    y 0.000000 3.503850 0.000000 
#    z 0.000000 0.000000 2.711290 
# 
# 
# High freq. dielectric constant tensor:
#      x y z
#    x 1.708680 0.000000 0.000000 
#    y 0.000000 1.689600 0.000000 
#    z 0.000000 0.000000 1.621060 
# 
# From -- ./inp_files/13139.got.cif
#   From: 2010.03.12/outbox.cif.g09.slc.cpg/sg39_7_cif.got.tgz:13139.got - 2010.04.14 02:53:20.
