data_PCOD8180831
_publ_section_title
;
Structure prediction by ZEFSAII (Michael W. Deem and Ramdas Pophale) SiO2 
 PCOD8180831
Probable space group: A B M 2
;
_chemical_formula_sum "Si O2"
_cell_formula_units_Z 64
_cell_length_a 10.135600
_cell_length_b 16.944101
_cell_length_c 19.464082
_cell_angle_alpha 90.000000
_cell_angle_beta 90.000000
_cell_angle_gamma 90.000000
_cell_volume 3342.734779
_symmetry_space_group_name_H-M "A B M 2"
_symmetry_group_IT_number 39
_symmetry_cell_setting 'orthorhombic'
loop_
_space_group_symop_operation_xyz
x,y,z
-x,-y,z
-x,1/2+y,z
x,1/2-y,z
x,1/2+y,1/2+z
-x,1/2-y,1/2+z
-x,y,1/2+z
x,-y,1/2+z
loop_
_atom_site_type_symbol
_atom_site_label
_atom_site_fract_x
_atom_site_fract_y
_atom_site_fract_z
Si Si1 0.005082 0.410661 0.545860
Si Si2 0.057708 0.086522 0.394917
Si Si3 0.740909 0.157888 0.689039
Si Si4 0.717501 0.843427 0.040768
Si Si5 0.828738 0.341245 0.317159
Si Si6 0.411746 0.656007 0.403459
Si Si7 0.681683 0.343220 0.837649
Si Si8 0.964643 0.157222 0.184461
O O1 0.079520 0.362838 0.606598
O O2 0.000000 0.500000 0.571448
O O3 0.087634 0.402793 0.475766
O O4 0.860599 0.379196 0.527843
O O5 0.951799 0.149793 0.368602
O O6 0.196048 0.102656 0.358403
O O7 0.000000 0.000000 0.377881
O O8 0.765098 0.250000 0.681589
O O9 0.669680 0.129990 0.617761
O O10 0.654379 0.139541 0.756522
O O11 0.888286 0.120767 0.695277
O O12 0.730633 0.750000 0.034586
O O13 0.617906 0.874094 0.981354
O O14 0.798335 0.250000 0.307353
O O15 0.697955 0.380097 0.351086
O O16 0.865955 0.379185 0.242424
O O17 0.407053 0.750000 0.400554
O O18 0.555446 0.626608 0.380143
O O19 0.710949 0.250000 0.849825
O O20 0.965140 0.250000 0.195730
#
# Coordination Sequence:
#
# PCOD8180831 Si02
#       8
#     8   8   8   8   8   8   8   8
#     4  10  20  32  49  75 107 140 179 222 267 314
#     4  11  22  34  51  78 108 137 180 221 266 321
#     4   8  14  26  47  74 103 133 168 211 263 319
#     4   9  16  30  52  76 102 139 181 217 263 330
#     4  10  18  33  55  78 105 138 175 221 272 321
#     4   9  18  31  53  80 105 139 179 219 270 321
#     4  10  19  34  53  79 110 138 175 226 273 313
#     4   9  17  30  50  77 103 136 177 219 272 318
#
# _framework density 19.146000000000001
#
# number of rings (size 3 to 8) (size 9 to 14) (size 15 to 20)
#    0.000    2.500    2.500    1.500    0.000    2.000 
#    0.000    1.875    0.000    4.500    0.000    0.000 
#    0.000    0.000    0.000    0.000    0.000    0.000 
#
# Total GULP energy -396480.490834 kJ/mol
# GULP energy per Si atom -12390.015339 kJ/mol
# Density = 1.910242 g / cm^3
# Si number density = 19.146000 Si / 1000 Ang^3
#
#
#
# Elastic Constant Matrix: (Units=GPa)
#
#
# Indices 1 2 3 4 5 6 
#
# 1 108.8829 19.3932 69.6319 0.0000 0.0000 0.0000
# 2 19.3932 16.9820 28.2826 0.0000 0.0000 0.0000
# 3 69.6319 28.2826 166.7131 0.0000 0.0000 0.0000
# 4 0.0000 0.0000 0.0000 15.7288 0.0000 0.0000
# 5 0.0000 0.0000 0.0000 0.0000 27.0697 0.0000
# 6 0.0000 0.0000 0.0000 0.0000 0.0000 12.7240
#
#
#
# Elastic Compliance Matrix: (Units=1/GPa)
#
#
# Indices 1 2 3 4 5 6 
#
# 1 0.013319 -0.008286 -0.004157 0.000000 0.000000 0.000000
# 2 -0.008286 0.087230 -0.011338 0.000000 0.000000 0.000000
# 3 -0.004157 -0.011338 0.009658 0.000000 0.000000 0.000000
# 4 0.000000 0.000000 0.000000 0.063578 0.000000 0.000000
# 5 0.000000 0.000000 0.000000 0.000000 0.036942 0.000000
# 6 0.000000 0.000000 0.000000 0.000000 0.000000 0.078592
#
#
# Mechanical properties :
#
#
# Convention : Reuss Voigt Hill
#
# Bulk Modulus (GPa) = 15.96287 58.57706 37.26997
# Shear Modulus (GPa) = 13.97579 22.78918 18.38249
#
# Velocity S-wave (km/s) = 2.70471 3.45379 3.10194
# Velocity P-wave (km/s) = 4.25552 6.82395 5.68664
#
# Compressibility (1/GPa) = 0.06264537
#
# Stress axis : x y z
#
# Youngs Moduli (GPa) = 75.08334 11.46389 103.54071
#
# Poissons Ratio (x) = 0.09499 0.43043
# Poissons Ratio (y) = 0.62215 1.17390
# Poissons Ratio (z) = 0.31213 0.12997
#
# Static dielectric constant tensor:
#      x y z
#    x 3.332430 0.000000 0.000000 
#    y 0.000000 3.134250 0.000000 
#    z 0.000000 0.000000 4.037600 
# 
# 
# High freq. dielectric constant tensor:
#      x y z
#    x 1.706220 0.000000 0.000000 
#    y 0.000000 1.704950 0.000000 
#    z 0.000000 0.000000 1.769760 
# 
# From -- ./inp_files/14238.got.cif
#   From: 2010.03.12/outbox.cif.g09.slc.cpg/sg39_8_cif.got.tgz:14238.got - 2010.04.14 02:53:20.
