data_PCOD8180763
_publ_section_title
;
Structure prediction by ZEFSAII (Michael W. Deem and Ramdas Pophale) SiO2 
 PCOD8180763
Probable space group: A B M 2
;
_chemical_formula_sum "Si O2"
_cell_formula_units_Z 56
_cell_length_a 15.642728
_cell_length_b 8.802411
_cell_length_c 20.388656
_cell_angle_alpha 90.000000
_cell_angle_beta 90.000000
_cell_angle_gamma 90.000000
_cell_volume 2807.389911
_symmetry_space_group_name_H-M "A B M 2"
_symmetry_group_IT_number 39
_symmetry_cell_setting 'orthorhombic'
loop_
_space_group_symop_operation_xyz
x,y,z
-x,-y,z
-x,1/2+y,z
x,1/2-y,z
x,1/2+y,1/2+z
-x,1/2-y,1/2+z
-x,y,1/2+z
x,-y,1/2+z
loop_
_atom_site_type_symbol
_atom_site_label
_atom_site_fract_x
_atom_site_fract_y
_atom_site_fract_z
Si Si1 0.229916 0.931407 0.586050
Si Si2 0.413298 0.577073 0.629009
Si Si3 0.911184 0.930395 0.188815
Si Si4 0.641775 0.924756 0.273972
Si Si5 0.582218 0.071066 0.401137
Si Si6 0.816938 0.930492 0.802613
Si Si7 0.233015 0.428755 0.942746
O O1 0.233480 0.750000 0.590364
O O2 0.325476 0.995550 0.599900
O O3 0.162062 0.991467 0.639264
O O4 0.198676 0.986668 0.513324
O O5 0.500000 0.500000 0.602252
O O6 0.418609 0.750000 0.605560
O O7 0.410486 0.561199 0.707136
O O8 0.916677 0.750000 0.189258
O O9 0.893072 0.990384 0.262432
O O10 0.000000 0.000000 0.163931
O O11 0.666193 0.750000 0.288501
O O12 0.582380 0.993580 0.329906
O O13 0.728465 0.021787 0.268774
O O14 0.573026 0.250000 0.393087
O O15 0.667338 0.024778 0.439949
O O16 0.500000 0.000000 0.438670
O O17 0.827438 0.750000 0.799124
O O18 0.817855 0.991208 0.878748
O O19 0.225334 0.250000 0.938873
#
# Coordination Sequence:
#
# PCOD8180763 Si02
#       7
#     8   8   8   8   8   8   8
#     4   9  18  37  58  79 113 153 190 230 283 340
#     4  10  20  32  49  76 108 148 192 232 279 328
#     4  11  22  39  64  90 115 147 185 232 285 341
#     4  10  18  31  50  75 107 146 189 236 287 331
#     4  10  19  30  46  73 105 145 193 240 287 337
#     4  10  19  34  58  87 114 143 181 229 283 338
#     4   8  17  33  55  78 106 148 189 227 278 337
#
# _framework density 19.947354000000001
#
# number of rings (size 3 to 8) (size 9 to 14) (size 15 to 20)
#    0.000    2.286    1.429    3.000    0.000    2.857 
#    0.000    0.714    0.000   16.286    0.000    0.000 
#    0.000    0.000    0.000    0.000    0.000    0.000 
#
# Total GULP energy -347022.980076 kJ/mol
# GULP energy per Si atom -12393.677860 kJ/mol
# Density = 1.990195 g / cm^3
# Si number density = 19.947354 Si / 1000 Ang^3
#
#
#
# Elastic Constant Matrix: (Units=GPa)
#
#
# Indices 1 2 3 4 5 6 
#
# 1 117.6490 27.0041 55.1588 0.0000 0.0000 0.0000
# 2 27.0041 53.2523 30.2536 0.0000 0.0000 0.0000
# 3 55.1588 30.2536 115.9503 0.0000 0.0000 0.0000
# 4 0.0000 0.0000 0.0000 17.1336 0.0000 0.0000
# 5 0.0000 0.0000 0.0000 0.0000 12.7808 0.0000
# 6 0.0000 0.0000 0.0000 0.0000 0.0000 32.1359
#
#
#
# Elastic Compliance Matrix: (Units=1/GPa)
#
#
# Indices 1 2 3 4 5 6 
#
# 1 0.011376 -0.003163 -0.004586 0.000000 0.000000 0.000000
# 2 -0.003163 0.022926 -0.004477 0.000000 0.000000 0.000000
# 3 -0.004586 -0.004477 0.011974 0.000000 0.000000 0.000000
# 4 0.000000 0.000000 0.000000 0.058365 0.000000 0.000000
# 5 0.000000 0.000000 0.000000 0.000000 0.078242 0.000000
# 6 0.000000 0.000000 0.000000 0.000000 0.000000 0.031118
#
#
# Mechanical properties :
#
#
# Convention : Reuss Voigt Hill
#
# Bulk Modulus (GPa) = 45.82276 56.85385 51.33831
# Shear Modulus (GPa) = 20.34756 24.03906 22.19331
#
# Velocity S-wave (km/s) = 3.19731 3.47526 3.33918
# Velocity P-wave (km/s) = 6.05410 6.68334 6.37649
#
# Compressibility (1/GPa) = 0.02182321
#
# Stress axis : x y z
#
# Youngs Moduli (GPa) = 87.90252 43.61840 83.51181
#
# Poissons Ratio (x) = 0.13797 0.38302
# Poissons Ratio (y) = 0.27806 0.37389
# Poissons Ratio (z) = 0.40316 0.19528
#
# Static dielectric constant tensor:
#      x y z
#    x 3.548060 0.000000 0.000000 
#    y 0.000000 3.378740 0.000000 
#    z 0.000000 0.000000 3.950350 
# 
# 
# High freq. dielectric constant tensor:
#      x y z
#    x 1.763760 0.000000 0.000000 
#    y 0.000000 1.751220 0.000000 
#    z 0.000000 0.000000 1.780120 
# 
# From -- ./inp_files/14763.got.cif
#   From: 2010.03.12/outbox.cif.g09.slc.cpg/sg39_8_cif.got.tgz:14763.got - 2010.04.14 02:53:20.
