data_PCOD8180666
_publ_section_title
;
Structure prediction by ZEFSAII (Michael W. Deem and Ramdas Pophale) SiO2 
 PCOD8180666
Probable space group: A B M 2
;
_chemical_formula_sum "Si O2"
_cell_formula_units_Z 64
_cell_length_a 18.683620
_cell_length_b 8.844854
_cell_length_c 25.653478
_cell_angle_alpha 90.000000
_cell_angle_beta 90.000000
_cell_angle_gamma 90.000000
_cell_volume 4239.337060
_symmetry_space_group_name_H-M "A B M 2"
_symmetry_group_IT_number 39
_symmetry_cell_setting 'orthorhombic'
loop_
_space_group_symop_operation_xyz
x,y,z
-x,-y,z
-x,1/2+y,z
x,1/2-y,z
x,1/2+y,1/2+z
-x,1/2-y,1/2+z
-x,y,1/2+z
x,-y,1/2+z
loop_
_atom_site_type_symbol
_atom_site_label
_atom_site_fract_x
_atom_site_fract_y
_atom_site_fract_z
Si Si1 0.331220 0.072246 0.784170
Si Si2 0.922720 0.928037 0.693826
Si Si3 0.808554 0.417958 0.635414
Si Si4 0.425421 0.571159 0.496711
Si Si5 0.578015 0.070232 0.692414
Si Si6 0.426531 0.573888 0.380106
Si Si7 0.664774 0.070241 0.592446
Si Si8 0.195129 0.418167 0.250701
O O1 0.332898 0.250000 0.772256
O O2 0.363068 0.032452 0.840835
O O3 0.376116 0.984749 0.741220
O O4 0.249457 0.013956 0.786095
O O5 0.929227 0.750000 0.698464
O O6 0.878367 0.974034 0.641059
O O7 0.881382 0.994988 0.744805
O O8 0.000000 0.000000 0.690284
O O9 0.833013 0.250000 0.616721
O O10 0.746985 0.489067 0.598301
O O11 0.771259 0.404065 0.692588
O O12 0.500000 0.500000 0.514511
O O13 0.433032 0.750000 0.500514
O O14 0.405025 0.517503 0.438237
O O15 0.364946 0.512789 0.536888
O O16 0.571861 0.250000 0.694224
O O17 0.614149 0.010845 0.638912
O O18 0.500000 0.000000 0.696463
O O19 0.500000 0.500000 0.360609
O O20 0.441749 0.750000 0.381134
O O21 0.668039 0.250000 0.595499
O O22 0.183210 0.250000 0.274484
#
# Coordination Sequence:
#
# PCOD8180666 Si02
#       8
#     8   8   8   8   8   8   8   8
#     4  11  20  30  43  60  82 111 143 177 217 261
#     4  10  17  27  43  64  91 123 150 173 201 242
#     4   8  15  28  42  60  85 114 143 170 205 250
#     4   9  17  31  47  61  79 107 143 186 228 264
#     4  11  20  29  39  57  81 106 138 174 213 262
#     4   9  19  32  45  61  80 106 146 188 226 265
#     4   9  16  28  45  60  81 110 139 174 218 260
#     4   9  17  29  43  61  86 114 141 171 207 248
#
# _framework density 15.0967
#
# number of rings (size 3 to 8) (size 9 to 14) (size 15 to 20)
#    0.750    1.750    1.250    2.625    0.000    2.000 
#    0.000    1.250    0.000    0.000    0.000    0.000 
#    0.000    1.000    0.000    5.500    0.000    2.875 
#
# Total GULP energy -396520.026579 kJ/mol
# GULP energy per Si atom -12391.250831 kJ/mol
# Density = 1.506234 g / cm^3
# Si number density = 15.096700 Si / 1000 Ang^3
#
#
#
# Elastic Constant Matrix: (Units=GPa)
#
#
# Indices 1 2 3 4 5 6 
#
# 1 125.1045 42.1956 45.9056 0.0000 0.0000 0.0000
# 2 42.1956 70.0285 23.9367 0.0000 0.0000 0.0000
# 3 45.9056 23.9367 65.4741 0.0000 0.0000 0.0000
# 4 0.0000 0.0000 0.0000 14.1376 0.0000 0.0000
# 5 0.0000 0.0000 0.0000 0.0000 16.3816 0.0000
# 6 0.0000 0.0000 0.0000 0.0000 0.0000 24.1172
#
#
#
# Elastic Compliance Matrix: (Units=1/GPa)
#
#
# Indices 1 2 3 4 5 6 
#
# 1 0.012139 -0.005034 -0.006670 0.000000 0.000000 0.000000
# 2 -0.005034 0.018407 -0.003200 0.000000 0.000000 0.000000
# 3 -0.006670 -0.003200 0.021120 0.000000 0.000000 0.000000
# 4 0.000000 0.000000 0.000000 0.070733 0.000000 0.000000
# 5 0.000000 0.000000 0.000000 0.000000 0.061044 0.000000
# 6 0.000000 0.000000 0.000000 0.000000 0.000000 0.041464
#
#
# Mechanical properties :
#
#
# Convention : Reuss Voigt Hill
#
# Bulk Modulus (GPa) = 45.75227 53.85364 49.80296
# Shear Modulus (GPa) = 19.08384 20.83191 19.95787
#
# Velocity S-wave (km/s) = 3.55929 3.71873 3.63988
# Velocity P-wave (km/s) = 6.87483 7.36128 7.12221
#
# Compressibility (1/GPa) = 0.02185684
#
# Stress axis : x y z
#
# Youngs Moduli (GPa) = 82.37967 54.32713 47.34881
#
# Poissons Ratio (x) = 0.27350 0.31584
# Poissons Ratio (y) = 0.41472 0.15151
# Poissons Ratio (z) = 0.54951 0.17384
#
# Static dielectric constant tensor:
#      x y z
#    x 2.875480 0.000000 0.000000 
#    y 0.000000 2.860370 0.000000 
#    z 0.000000 0.000000 2.879840 
# 
# 
# High freq. dielectric constant tensor:
#      x y z
#    x 1.567740 0.000000 0.000000 
#    y 0.000000 1.578710 0.000000 
#    z 0.000000 0.000000 1.544850 
# 
# From -- ./inp_files/17203.got.cif
#   From: 2010.03.12/outbox.cif.g09.slc.cpg/sg39_9_cif.got.tgz:17203.got - 2010.04.14 02:53:20.
