data_PCOD8180834
_publ_section_title
;
Structure prediction by ZEFSAII (Michael W. Deem and Ramdas Pophale) SiO2 
 PCOD8180834
Probable space group: A B M 2
;
_chemical_formula_sum "Si O2"
_cell_formula_units_Z 64
_cell_length_a 19.959664
_cell_length_b 8.967081
_cell_length_c 20.011173
_cell_angle_alpha 90.000000
_cell_angle_beta 90.000000
_cell_angle_gamma 90.000000
_cell_volume 3581.598219
_symmetry_space_group_name_H-M "A B M 2"
_symmetry_group_IT_number 39
_symmetry_cell_setting 'orthorhombic'
loop_
_space_group_symop_operation_xyz
x,y,z
-x,-y,z
-x,1/2+y,z
x,1/2-y,z
x,1/2+y,1/2+z
-x,1/2-y,1/2+z
-x,y,1/2+z
x,-y,1/2+z
loop_
_atom_site_type_symbol
_atom_site_label
_atom_site_fract_x
_atom_site_fract_y
_atom_site_fract_z
Si Si1 0.167434 0.577371 0.356440
Si Si2 0.174402 0.576718 0.066763
Si Si3 0.429346 0.427756 0.636732
Si Si4 0.342998 0.574154 0.742578
Si Si5 0.322030 0.574950 0.031218
Si Si6 0.071247 0.425396 0.970281
Si Si7 0.206957 0.921401 0.212939
Si Si8 0.697358 0.076226 0.885954
O O1 0.181266 0.750000 0.367378
O O2 0.101306 0.529483 0.397493
O O3 0.160736 0.539156 0.277410
O O4 0.230060 0.496075 0.388941
O O5 0.166718 0.750000 0.046615
O O6 0.248131 0.513893 0.048440
O O7 0.163462 0.553030 0.146358
O O8 0.119129 0.480792 0.029297
O O9 0.500000 0.500000 0.619594
O O10 0.435568 0.250000 0.637635
O O11 0.403742 0.485877 0.708391
O O12 0.378198 0.490767 0.580462
O O13 0.352783 0.750000 0.732290
O O14 0.272242 0.525420 0.711163
O O15 0.345024 0.527090 0.821022
O O16 0.320559 0.750000 0.043305
O O17 0.341286 0.533783 0.954489
O O18 0.062409 0.250000 0.977598
O O19 0.000000 0.500000 0.978298
O O20 0.232255 0.750000 0.216263
O O21 0.711702 0.250000 0.882307
#
# Coordination Sequence:
#
# PCOD8180834 Si02
#       8
#     8   8   8   8   8   8   8   8
#     4   9  18  32  51  77 106 135 173 218 262 310
#     4  10  18  33  57  81 106 142 179 219 270 321
#     4  11  22  38  56  77 107 145 183 222 270 325
#     4  10  19  31  51  80 109 139 174 217 262 313
#     4   9  17  32  55  80 106 140 178 217 266 319
#     4  11  23  37  53  77 108 145 181 223 270 324
#     4   9  17  32  54  79 107 138 173 217 267 313
#     4   9  17  31  53  79 106 135 173 216 261 311
#
# _framework density 17.869116999999999
#
# number of rings (size 3 to 8) (size 9 to 14) (size 15 to 20)
#    0.000    2.250    2.500    1.125    0.000    1.500 
#    0.000    2.500    0.000    3.000    0.000    0.000 
#    0.000    0.000    0.000    0.000    0.000    0.000 
#
# Total GULP energy -396708.066541 kJ/mol
# GULP energy per Si atom -12397.127079 kJ/mol
# Density = 1.782845 g / cm^3
# Si number density = 17.869117 Si / 1000 Ang^3
#
#
#
# Elastic Constant Matrix: (Units=GPa)
#
#
# Indices 1 2 3 4 5 6 
#
# 1 124.5790 41.2067 71.1074 0.0000 0.0000 0.0000
# 2 41.2067 54.4095 36.1525 0.0000 0.0000 0.0000
# 3 71.1074 36.1525 128.7852 0.0000 0.0000 0.0000
# 4 0.0000 0.0000 0.0000 23.0653 0.0000 0.0000
# 5 0.0000 0.0000 0.0000 0.0000 25.9525 0.0000
# 6 0.0000 0.0000 0.0000 0.0000 0.0000 28.0463
#
#
#
# Elastic Compliance Matrix: (Units=1/GPa)
#
#
# Indices 1 2 3 4 5 6 
#
# 1 0.013312 -0.006390 -0.005556 0.000000 0.000000 0.000000
# 2 -0.006390 0.025661 -0.003675 0.000000 0.000000 0.000000
# 3 -0.005556 -0.003675 0.011864 0.000000 0.000000 0.000000
# 4 0.000000 0.000000 0.000000 0.043355 0.000000 0.000000
# 5 0.000000 0.000000 0.000000 0.000000 0.038532 0.000000
# 6 0.000000 0.000000 0.000000 0.000000 0.000000 0.035655
#
#
# Mechanical properties :
#
#
# Convention : Reuss Voigt Hill
#
# Bulk Modulus (GPa) = 51.03600 67.18964 59.11282
# Shear Modulus (GPa) = 24.25373 26.03331 25.14352
#
# Velocity S-wave (km/s) = 3.68815 3.82106 3.75519
# Velocity P-wave (km/s) = 6.83810 7.55976 7.20797
#
# Compressibility (1/GPa) = 0.01959401
#
# Stress axis : x y z
#
# Youngs Moduli (GPa) = 75.11987 38.97035 84.28527
#
# Poissons Ratio (x) = 0.24902 0.46832
# Poissons Ratio (y) = 0.48001 0.30977
# Poissons Ratio (z) = 0.41739 0.14323
#
# Static dielectric constant tensor:
#      x y z
#    x 3.108800 0.000000 0.000000 
#    y 0.000000 3.228070 0.000000 
#    z 0.000000 0.000000 3.819520 
# 
# 
# High freq. dielectric constant tensor:
#      x y z
#    x 1.659900 0.000000 0.000000 
#    y 0.000000 1.683240 0.000000 
#    z 0.000000 0.000000 1.710420 
# 
# From -- ./inp_files/15033.got.cif
#   From: 2010.03.12/outbox.cif.g09.slc.cpg/sg39_8_cif.got.tgz:15033.got - 2010.04.14 02:53:20.
