data_PCOD8180863
_publ_section_title
;
Structure prediction by ZEFSAII (Michael W. Deem and Ramdas Pophale) SiO2 
 PCOD8180863
Probable space group: A B M 2
;
_chemical_formula_sum "Si O2"
_cell_formula_units_Z 64
_cell_length_a 12.201588
_cell_length_b 17.774661
_cell_length_c 14.468293
_cell_angle_alpha 90.000000
_cell_angle_beta 90.000000
_cell_angle_gamma 90.000000
_cell_volume 3137.870225
_symmetry_space_group_name_H-M "A B M 2"
_symmetry_group_IT_number 39
_symmetry_cell_setting 'orthorhombic'
loop_
_space_group_symop_operation_xyz
x,y,z
-x,-y,z
-x,1/2+y,z
x,1/2-y,z
x,1/2+y,1/2+z
-x,1/2-y,1/2+z
-x,y,1/2+z
x,-y,1/2+z
loop_
_atom_site_type_symbol
_atom_site_label
_atom_site_fract_x
_atom_site_fract_y
_atom_site_fract_z
Si Si1 0.432029 0.600488 0.843680
Si Si2 0.381697 0.167684 0.524578
Si Si3 0.663223 0.450131 0.375328
Si Si4 0.161455 0.881518 0.107626
Si Si5 0.234107 0.958905 0.565609
Si Si6 0.972789 0.587263 0.973377
Si Si7 0.453858 0.417958 0.148784
Si Si8 0.849506 0.161531 0.311144
O O1 0.361471 0.525398 0.816365
O O2 0.546332 0.587139 0.897678
O O3 0.459969 0.633934 0.741981
O O4 0.364090 0.652010 0.914639
O O5 0.431730 0.250000 0.536143
O O6 0.266242 0.165663 0.576668
O O7 0.467663 0.111119 0.568918
O O8 0.714989 0.484776 0.468081
O O9 0.740316 0.388574 0.326427
O O10 0.114732 0.849668 0.204508
O O11 0.194518 0.968526 0.122487
O O12 0.071957 0.872761 0.026564
O O13 0.130496 0.905870 0.543277
O O14 0.326784 0.913753 0.619895
O O15 0.946345 0.631475 0.878248
O O16 0.000000 0.500000 0.950182
O O17 0.500000 0.500000 0.173349
O O18 0.826809 0.250000 0.331189
#
# Coordination Sequence:
#
# PCOD8180863 Si02
#       8
#     8   8   8   8   8   8   8   8
#     4  11  21  36  61  91 126 167 204 251 305 365
#     4  12  26  40  61  94 130 165 202 257 315 371
#     4  10  18  37  60  90 125 160 210 247 298 372
#     4  11  21  41  64  90 129 160 206 258 314 373
#     4  10  19  37  65  91 121 160 211 261 303 359
#     4   9  23  43  66  93 120 165 214 265 308 369
#     4  12  20  36  66  93 123 165 205 249 303 374
#     4  11  24  40  65  96 125 164 209 261 321 375
#
# _framework density 20.395999
#
# number of rings (size 3 to 8) (size 9 to 14) (size 15 to 20)
#    0.000    1.250    5.000    1.875    0.000    3.500 
#    2.250    0.000    0.000    0.000    0.000    0.000 
#    0.000    0.000    0.000    0.000    0.000    0.000 
#
# Total GULP energy -396599.139861 kJ/mol
# GULP energy per Si atom -12393.723121 kJ/mol
# Density = 2.034958 g / cm^3
# Si number density = 20.395999 Si / 1000 Ang^3
#
#
#
# Elastic Constant Matrix: (Units=GPa)
#
#
# Indices 1 2 3 4 5 6 
#
# 1 109.8059 26.7876 44.8174 0.0000 0.0000 0.0000
# 2 26.7876 69.3348 43.8788 0.0000 0.0000 0.0000
# 3 44.8174 43.8788 130.3233 0.0000 0.0000 0.0000
# 4 0.0000 0.0000 0.0000 15.9214 0.0000 0.0000
# 5 0.0000 0.0000 0.0000 0.0000 32.9817 0.0000
# 6 0.0000 0.0000 0.0000 0.0000 0.0000 10.1271
#
#
#
# Elastic Compliance Matrix: (Units=1/GPa)
#
#
# Indices 1 2 3 4 5 6 
#
# 1 0.010883 -0.002333 -0.002957 0.000000 0.000000 0.000000
# 2 -0.002333 0.018828 -0.005537 0.000000 0.000000 0.000000
# 3 -0.002957 -0.005537 0.010554 0.000000 0.000000 0.000000
# 4 0.000000 0.000000 0.000000 0.062809 0.000000 0.000000
# 5 0.000000 0.000000 0.000000 0.000000 0.030320 0.000000
# 6 0.000000 0.000000 0.000000 0.000000 0.000000 0.098745
#
#
# Mechanical properties :
#
#
# Convention : Reuss Voigt Hill
#
# Bulk Modulus (GPa) = 53.73100 60.04797 56.88949
# Shear Modulus (GPa) = 19.23092 24.73803 21.98448
#
# Velocity S-wave (km/s) = 3.07396 3.48643 3.28667
# Velocity P-wave (km/s) = 6.24500 6.76106 6.50815
#
# Compressibility (1/GPa) = 0.01861123
#
# Stress axis : x y z
#
# Youngs Moduli (GPa) = 91.88544 53.11140 94.74748
#
# Poissons Ratio (x) = 0.12393 0.28017
# Poissons Ratio (y) = 0.21440 0.52461
# Poissons Ratio (z) = 0.27171 0.29407
#
# Static dielectric constant tensor:
#      x y z
#    x 3.812000 0.000000 0.000000 
#    y 0.000000 3.384140 0.000000 
#    z 0.000000 0.000000 3.739840 
# 
# 
# High freq. dielectric constant tensor:
#      x y z
#    x 1.795780 0.000000 0.000000 
#    y 0.000000 1.762270 0.000000 
#    z 0.000000 0.000000 1.807720 
# 
# From -- ./inp_files/9470.got.cif
#   From: 2010.03.12/outbox.cif.g09.slc.cpg/sg39_5_cif.got.tgz:9470.got - 2010.04.14 02:53:20.
