data_PCOD8180708
_publ_section_title
;
Structure prediction by ZEFSAII (Michael W. Deem and Ramdas Pophale) SiO2 
 PCOD8180708
Probable space group: A B M 2
;
_chemical_formula_sum "Si O2"
_cell_formula_units_Z 48
_cell_length_a 13.061685
_cell_length_b 8.772667
_cell_length_c 23.322413
_cell_angle_alpha 90.000000
_cell_angle_beta 90.000000
_cell_angle_gamma 90.000000
_cell_volume 2672.417654
_symmetry_space_group_name_H-M "A B M 2"
_symmetry_group_IT_number 39
_symmetry_cell_setting 'orthorhombic'
loop_
_space_group_symop_operation_xyz
x,y,z
-x,-y,z
-x,1/2+y,z
x,1/2-y,z
x,1/2+y,1/2+z
-x,1/2-y,1/2+z
-x,y,1/2+z
x,-y,1/2+z
loop_
_atom_site_type_symbol
_atom_site_label
_atom_site_fract_x
_atom_site_fract_y
_atom_site_fract_z
Si Si1 0.608452 0.068555 0.132060
Si Si2 0.109242 0.929235 0.442376
Si Si3 0.236115 0.916517 0.850459
Si Si4 0.407116 0.416011 0.443076
Si Si5 0.608761 0.567032 0.255680
Si Si6 0.281137 0.572111 0.531993
O O1 0.599952 0.250000 0.136325
O O2 0.500000 0.000000 0.110155
O O3 0.634837 0.998027 0.193556
O O4 0.703542 0.020684 0.091114
O O5 0.100369 0.750000 0.441134
O O6 0.181594 0.981474 0.495485
O O7 0.148598 0.978287 0.378762
O O8 0.000000 0.000000 0.455287
O O9 0.188960 0.750000 0.834701
O O10 0.318430 0.891403 0.898981
O O11 0.296019 0.987521 0.795878
O O12 0.500000 0.500000 0.410578
O O13 0.437536 0.250000 0.468199
O O14 0.379580 0.530894 0.494260
O O15 0.500000 0.500000 0.277542
O O16 0.600952 0.750000 0.255448
O O17 0.276824 0.750000 0.546003
#
# Coordination Sequence:
#
# PCOD8180708 Si02
#       6
#     8   8   8   8   8   8
#     4  11  21  33  50  73 103 140 175 210 246 291
#     4  10  21  36  57  79 101 128 162 207 259 309
#     4   9  19  33  50  72 100 132 167 205 248 295
#     4  10  18  28  43  67  98 130 161 198 242 293
#     4  10  19  32  50  74 105 141 175 209 244 289
#     4  10  20  34  50  71  97 129 166 205 249 299
#
# _framework density 17.961264
#
# number of rings (size 3 to 8) (size 9 to 14) (size 15 to 20)
#    0.000    2.000    0.000    5.500    0.000    4.000 
#    0.000    0.000    0.000    1.000    0.000    4.667 
#    0.000    0.000    0.000    0.000    0.000    0.000 
#
# Total GULP energy -297383.984224 kJ/mol
# GULP energy per Si atom -12390.999343 kJ/mol
# Density = 1.792038 g / cm^3
# Si number density = 17.961264 Si / 1000 Ang^3
#
#
#
# Elastic Constant Matrix: (Units=GPa)
#
#
# Indices 1 2 3 4 5 6 
#
# 1 86.4036 48.9304 45.9384 0.0000 0.0000 0.0000
# 2 48.9304 91.2451 37.4110 0.0000 0.0000 0.0000
# 3 45.9384 37.4110 100.6503 0.0000 0.0000 0.0000
# 4 0.0000 0.0000 0.0000 -2.1417 0.0000 0.0000
# 5 0.0000 0.0000 0.0000 0.0000 22.8061 0.0000
# 6 0.0000 0.0000 0.0000 0.0000 0.0000 27.6805
#
#
#
# Elastic Compliance Matrix: (Units=1/GPa)
#
#
# Indices 1 2 3 4 5 6 
#
# 1 0.019115 -0.007873 -0.005798 0.000000 0.000000 0.000000
# 2 -0.007873 0.016173 -0.002418 0.000000 0.000000 0.000000
# 3 -0.005798 -0.002418 0.013480 0.000000 0.000000 0.000000
# 4 0.000000 0.000000 0.000000 -0.466929 0.000000 0.000000
# 5 0.000000 0.000000 0.000000 0.000000 0.043848 0.000000
# 6 0.000000 0.000000 0.000000 0.000000 0.000000 0.036127
#
#
# Mechanical properties :
#
#
# Convention : Reuss Voigt Hill
#
# Bulk Modulus (GPa) = 60.27702 60.31762 60.29732
# Shear Modulus (GPa) = -16.64008 19.40361 1.38176
#
# Velocity S-wave (km/s) = -3.04705 3.29036 0.87805
# Velocity P-wave (km/s) = 4.61009 6.93471 5.88826
#
# Compressibility (1/GPa) = 0.01659007
#
# Stress axis : x y z
#
# Youngs Moduli (GPa) = 52.31567 61.83210 74.18206
#
# Poissons Ratio (x) = 0.48681 0.43010
# Poissons Ratio (y) = 0.41189 0.17936
# Poissons Ratio (z) = 0.30332 0.14950
#
# Static dielectric constant tensor:
#      x y z
#    x 3.741260 0.000000 0.000000 
#    y 0.000000 3.951090 0.000000 
#    z 0.000000 0.000000 3.464620 
# 
# 
# High freq. dielectric constant tensor:
#      x y z
#    x 1.666030 0.000000 0.000000 
#    y 0.000000 1.710290 0.000000 
#    z 0.000000 0.000000 1.688990 
# 
# From -- ./inp_files/15838.got.cif
#   From: 2010.03.12/outbox.cif.g09.slc.cpg/sg39_8_cif.got.tgz:15838.got - 2010.04.14 02:53:20.
