data_PCOD8180220
_publ_section_title
;
Structure prediction by ZEFSAII (Michael W. Deem and Ramdas Pophale) SiO2 
 PCOD8180220
Probable space group: A M M 2
;
_chemical_formula_sum "Si O2"
_cell_formula_units_Z 64
_cell_length_a 8.819863
_cell_length_b 15.403739
_cell_length_c 23.834688
_cell_angle_alpha 90.000000
_cell_angle_beta 90.000000
_cell_angle_gamma 90.000000
_cell_volume 3238.153723
_symmetry_space_group_name_H-M "A M M 2"
_symmetry_group_IT_number 38
_symmetry_cell_setting 'orthorhombic'
loop_
_space_group_symop_operation_xyz
x,y,z
-x,-y,z
-x,y,z
x,-y,z
x,1/2+y,1/2+z
-x,1/2-y,1/2+z
-x,1/2+y,1/2+z
x,1/2-y,1/2+z
loop_
_atom_site_type_symbol
_atom_site_label
_atom_site_fract_x
_atom_site_fract_y
_atom_site_fract_z
Si Si1 0.178565 0.650948 0.377980
Si Si2 0.825825 0.903599 0.477063
Si Si3 0.679263 0.255418 0.178120
Si Si4 0.673273 0.597813 0.264961
Si Si5 0.679898 0.904072 0.251588
Si Si6 0.178890 0.249992 0.557969
Si Si7 0.326101 0.902323 0.990015
Si Si8 0.321379 0.662864 0.871374
O O1 0.224823 0.607112 0.319784
O O2 0.250655 0.598183 0.429016
O O3 0.233405 0.748840 0.381853
O O4 0.000000 0.647343 0.384669
O O5 0.767732 0.832446 0.521372
O O6 0.721930 0.901086 0.421740
O O7 0.000000 0.885000 0.460462
O O8 0.808337 0.000000 0.503395
O O9 0.500000 0.253689 0.168076
O O10 0.728109 0.335923 0.217238
O O11 0.737939 0.166258 0.206684
O O12 0.763131 0.267029 0.120031
O O13 0.500000 0.619426 0.281757
O O14 0.689103 0.500000 0.241487
O O15 0.500000 0.904847 0.251906
O O16 0.737072 0.878573 0.313432
O O17 0.742765 0.000000 0.235933
O O18 0.246191 0.338443 0.533576
O O19 0.000000 0.258918 0.558499
O O20 0.500000 0.873488 0.984067
O O21 0.312701 0.000000 0.014172
O O22 0.500000 0.680611 0.869850
#
# Coordination Sequence:
#
# PCOD8180220 Si02
#       8
#     8   8   8   8   8   8   8   8
#     4  12  23  36  59  91 126 160 193 239 304 367
#     4  10  22  40  60  86 122 160 195 241 303 361
#     4  10  21  39  60  84 116 156 202 250 294 344
#     4  10  21  39  62  88 119 157 202 250 296 348
#     4   9  18  34  58  87 116 147 188 238 292 345
#     4  11  24  41  61  87 120 160 202 249 300 355
#     4  11  24  42  65  91 119 156 201 249 300 357
#     4  11  20  35  61  90 120 155 196 243 294 352
#
# _framework density 19.764347999999998
#
# number of rings (size 3 to 8) (size 9 to 14) (size 15 to 20)
#    0.000    1.500    2.500    3.000    0.000    5.500 
#    0.000    1.250    0.000    1.500    0.000    0.000 
#    0.000    0.000    0.000    0.000    0.000    0.000 
#
# Total GULP energy -396899.433383 kJ/mol
# GULP energy per Si atom -12403.107293 kJ/mol
# Density = 1.971936 g / cm^3
# Si number density = 19.764348 Si / 1000 Ang^3
#
#
#
# Elastic Constant Matrix: (Units=GPa)
#
#
# Indices 1 2 3 4 5 6 
#
# 1 67.1652 25.8321 41.8841 0.0000 0.0000 0.0000
# 2 25.8321 127.8289 42.4555 0.0000 0.0000 0.0000
# 3 41.8841 42.4555 112.4214 0.0000 0.0000 0.0000
# 4 0.0000 0.0000 0.0000 15.1034 0.0000 0.0000
# 5 0.0000 0.0000 0.0000 0.0000 -0.3776 0.0000
# 6 0.0000 0.0000 0.0000 0.0000 0.0000 22.1121
#
#
#
# Elastic Compliance Matrix: (Units=1/GPa)
#
#
# Indices 1 2 3 4 5 6 
#
# 1 0.019738 -0.001768 -0.006686 0.000000 0.000000 0.000000
# 2 -0.001768 0.009103 -0.002779 0.000000 0.000000 0.000000
# 3 -0.006686 -0.002779 0.012436 0.000000 0.000000 0.000000
# 4 0.000000 0.000000 0.000000 0.066210 0.000000 0.000000
# 5 0.000000 0.000000 0.000000 0.000000 -2.648539 0.000000
# 6 0.000000 0.000000 0.000000 0.000000 0.000000 0.045224
#
#
# Mechanical properties :
#
#
# Convention : Reuss Voigt Hill
#
# Bulk Modulus (GPa) = 53.16165 58.63988 55.90077
# Shear Modulus (GPa) = -2.02668 20.51719 9.24526
#
# Velocity S-wave (km/s) = -1.01373 3.22544 2.16516
# Velocity P-wave (km/s) = 5.05826 6.60342 5.88180
#
# Compressibility (1/GPa) = 0.01881055
#
# Stress axis : x y z
#
# Youngs Moduli (GPa) = 50.66362 109.85054 80.41475
#
# Poissons Ratio (x) = 0.19423 0.53765
# Poissons Ratio (y) = 0.08958 0.22348
# Poissons Ratio (z) = 0.33873 0.30528
#
# Static dielectric constant tensor:
#      x y z
#    x 3.469380 0.000000 0.000000 
#    y 0.000000 3.873530 0.000000 
#    z 0.000000 0.000000 3.573000 
# 
# 
# High freq. dielectric constant tensor:
#      x y z
#    x 1.757490 0.000000 0.000000 
#    y 0.000000 1.788950 0.000000 
#    z 0.000000 0.000000 1.764830 
# 
# From -- ./inp_files/22121.got.cif
#   From: 2010.03.12/outbox.cif.g09.slc.cpg/sg38_12_cif.got.tgz:22121.got - 2010.04.14 02:38:36.
