data_PCOD8180180
_publ_section_title
;
Structure prediction by ZEFSAII (Michael W. Deem and Ramdas Pophale) SiO2 
 PCOD8180180
Probable space group: A M M 2
;
_chemical_formula_sum "Si O2"
_cell_formula_units_Z 64
_cell_length_a 23.958977
_cell_length_b 8.537327
_cell_length_c 15.408488
_cell_angle_alpha 90.000000
_cell_angle_beta 90.000000
_cell_angle_gamma 90.000000
_cell_volume 3151.738750
_symmetry_space_group_name_H-M "A M M 2"
_symmetry_group_IT_number 38
_symmetry_cell_setting 'orthorhombic'
loop_
_space_group_symop_operation_xyz
x,y,z
-x,-y,z
-x,y,z
x,-y,z
x,1/2+y,1/2+z
-x,1/2-y,1/2+z
-x,1/2+y,1/2+z
x,1/2-y,1/2+z
loop_
_atom_site_type_symbol
_atom_site_label
_atom_site_fract_x
_atom_site_fract_y
_atom_site_fract_z
Si Si1 0.861273 0.183753 0.351450
Si Si2 0.249541 0.181257 0.919158
Si Si3 0.438111 0.816383 0.507746
Si Si4 0.368897 0.678920 0.659427
Si Si5 0.359805 0.317060 0.854447
Si Si6 0.937532 0.814007 0.508686
Si Si7 0.133736 0.815297 0.671112
Si Si8 0.744811 0.318688 0.105830
O O1 0.804310 0.279685 0.362045
O O2 0.905635 0.243074 0.422608
O O3 0.885946 0.224576 0.257113
O O4 0.849400 0.000000 0.361333
O O5 0.303250 0.218233 0.860846
O O6 0.249319 0.000000 0.946004
O O7 0.250255 0.289148 0.003714
O O8 0.500000 0.739982 0.507696
O O9 0.407427 0.783131 0.598091
O O10 0.402941 0.750727 0.426206
O O11 0.443701 0.000000 0.496770
O O12 0.379252 0.500000 0.633455
O O13 0.385917 0.710490 0.759198
O O14 0.303752 0.715722 0.647503
O O15 0.346426 0.500000 0.869734
O O16 0.904804 0.752132 0.593077
O O17 0.000000 0.743651 0.508332
O O18 0.939527 0.000000 0.510283
O O19 0.197571 0.770984 0.651038
O O20 0.126317 0.000000 0.683961
O O21 0.730577 0.500000 0.120397
#
# Coordination Sequence:
#
# PCOD8180180 Si02
#       8
#     8   8   8   8   8   8   8   8
#     4  11  22  38  60  88 120 157 196 239 295 354
#     4  12  23  36  60  91 121 153 194 242 294 352
#     4  10  22  41  63  85 115 161 206 244 292 348
#     4  11  23  38  60  92 121 153 196 244 294 347
#     4  10  22  40  62  88 122 158 194 238 294 355
#     4   9  19  38  61  83 114 158 202 243 293 351
#     4  10  21  38  60  88 118 154 196 241 294 350
#     4  11  21  37  60  86 120 158 193 236 297 361
#
# _framework density 20.306252000000001
#
# number of rings (size 3 to 8) (size 9 to 14) (size 15 to 20)
#    0.000    1.500    2.500    3.000    0.000    5.250 
#    0.000    1.250    0.000    2.625    0.000    0.000 
#    0.000    0.000    0.000    0.000    0.000    0.000 
#
# Total GULP energy -396948.504239 kJ/mol
# GULP energy per Si atom -12404.640757 kJ/mol
# Density = 2.026003 g / cm^3
# Si number density = 20.306252 Si / 1000 Ang^3
#
#
#
# Elastic Constant Matrix: (Units=GPa)
#
#
# Indices 1 2 3 4 5 6 
#
# 1 146.7376 22.3401 64.2799 0.0000 0.0000 0.0000
# 2 22.3401 30.7897 16.8572 0.0000 0.0000 0.0000
# 3 64.2799 16.8572 152.2733 0.0000 0.0000 0.0000
# 4 0.0000 0.0000 0.0000 31.8367 0.0000 0.0000
# 5 0.0000 0.0000 0.0000 0.0000 12.8240 0.0000
# 6 0.0000 0.0000 0.0000 0.0000 0.0000 7.2990
#
#
#
# Elastic Compliance Matrix: (Units=1/GPa)
#
#
# Indices 1 2 3 4 5 6 
#
# 1 0.008961 -0.004717 -0.003261 0.000000 0.000000 0.000000
# 2 -0.004717 0.037057 -0.002111 0.000000 0.000000 0.000000
# 3 -0.003261 -0.002111 0.008177 0.000000 0.000000 0.000000
# 4 0.000000 0.000000 0.000000 0.031410 0.000000 0.000000
# 5 0.000000 0.000000 0.000000 0.000000 0.077979 0.000000
# 6 0.000000 0.000000 0.000000 0.000000 0.000000 0.137004
#
#
# Mechanical properties :
#
#
# Convention : Reuss Voigt Hill
#
# Bulk Modulus (GPa) = 29.39635 59.63944 44.51790
# Shear Modulus (GPa) = 15.05546 25.48019 20.26782
#
# Velocity S-wave (km/s) = 2.72586 3.54615 3.16271
# Velocity P-wave (km/s) = 4.94115 6.79711 5.94204
#
# Compressibility (1/GPa) = 0.03401783
#
# Stress axis : x y z
#
# Youngs Moduli (GPa) = 111.58948 26.98573 122.28938
#
# Poissons Ratio (x) = 0.12729 0.39876
# Poissons Ratio (y) = 0.52636 0.25817
# Poissons Ratio (z) = 0.36387 0.05697
#
# Static dielectric constant tensor:
#      x y z
#    x 3.855990 0.000000 0.000000 
#    y 0.000000 3.402680 0.000000 
#    z 0.000000 0.000000 3.784990 
# 
# 
# High freq. dielectric constant tensor:
#      x y z
#    x 1.789440 0.000000 0.000000 
#    y 0.000000 1.774130 0.000000 
#    z 0.000000 0.000000 1.807660 
# 
# From -- ./inp_files/15832.got.cif
#   From: 2010.03.12/outbox.cif.g09.slc.cpg/sg38_8_cif.got.tgz:15832.got - 2010.04.14 02:38:36.
