data_PCOD8180332
_publ_section_title
;
Structure prediction by ZEFSAII (Michael W. Deem and Ramdas Pophale) SiO2 
 PCOD8180332
Probable space group: A M M 2
;
_chemical_formula_sum "Si O2"
_cell_formula_units_Z 64
_cell_length_a 22.501987
_cell_length_b 14.582225
_cell_length_c 9.921220
_cell_angle_alpha 90.000000
_cell_angle_beta 90.000000
_cell_angle_gamma 90.000000
_cell_volume 3255.440368
_symmetry_space_group_name_H-M "A M M 2"
_symmetry_group_IT_number 38
_symmetry_cell_setting 'orthorhombic'
loop_
_space_group_symop_operation_xyz
x,y,z
-x,-y,z
-x,y,z
x,-y,z
x,1/2+y,1/2+z
-x,1/2-y,1/2+z
-x,1/2+y,1/2+z
x,1/2-y,1/2+z
loop_
_atom_site_type_symbol
_atom_site_label
_atom_site_fract_x
_atom_site_fract_y
_atom_site_fract_z
Si Si1 0.670469 0.392063 0.883020
Si Si2 0.669088 0.392264 0.196542
Si Si3 0.067351 0.892717 0.456622
Si Si4 0.152523 0.758432 0.040991
Si Si5 0.764820 0.752297 0.792205
Si Si6 0.434062 0.391127 0.389994
Si Si7 0.067785 0.601967 0.648203
Si Si8 0.433877 0.391157 0.690951
O O1 0.681881 0.500000 0.859685
O O2 0.727226 0.338181 0.827899
O O3 0.613038 0.355231 0.801117
O O4 0.659426 0.369860 0.039621
O O5 0.679519 0.500000 0.220145
O O6 0.725519 0.340073 0.255328
O O7 0.611705 0.354706 0.277821
O O8 0.117950 0.838926 0.539618
O O9 0.073714 0.862276 0.301322
O O10 0.000000 0.870165 0.506571
O O11 0.080147 0.000000 0.475000
O O12 0.192926 0.771010 0.170074
O O13 0.102609 0.836161 0.042601
O O14 0.194228 0.778566 0.916000
O O15 0.500000 0.353700 0.355133
O O16 0.435037 0.500000 0.386644
O O17 0.415057 0.358177 0.540415
O O18 0.094078 0.500000 0.639389
O O19 0.000000 0.603181 0.601707
O O20 0.500000 0.354066 0.726589
O O21 0.434995 0.500000 0.694717
#
# Coordination Sequence:
#
# PCOD8180332 Si02
#       8
#     8   8   8   8   8   8   8   8
#     4  10  22  40  60  82 114 155 197 244 294 347
#     4  10  22  40  59  82 116 154 194 246 299 344
#     4   9  19  38  65  93 120 154 193 234 288 349
#     4  12  23  40  61  87 120 157 199 238 285 341
#     4  12  26  40  57  85 120 159 200 243 284 341
#     4   8  15  30  55  86 115 145 186 239 300 356
#     4   9  19  38  64  93 122 152 191 238 288 344
#     4   8  15  30  55  86 114 144 188 240 296 356
#
# _framework density 19.659399000000001
#
# number of rings (size 3 to 8) (size 9 to 14) (size 15 to 20)
#    0.000    2.250    2.500    1.875    1.750    2.500 
#    0.000    3.125    0.000    1.500    0.000    0.000 
#    0.000    0.000    0.000    0.000    0.000    0.000 
#
# Total GULP energy -396750.587693 kJ/mol
# GULP energy per Si atom -12398.455865 kJ/mol
# Density = 1.961465 g / cm^3
# Si number density = 19.659399 Si / 1000 Ang^3
#
#
#
# Elastic Constant Matrix: (Units=GPa)
#
#
# Indices 1 2 3 4 5 6 
#
# 1 122.8435 48.9033 78.1317 0.0000 0.0000 0.0000
# 2 48.9033 64.1724 43.1252 0.0000 0.0000 0.0000
# 3 78.1317 43.1252 137.1044 0.0000 0.0000 0.0000
# 4 0.0000 0.0000 0.0000 23.8207 0.0000 0.0000
# 5 0.0000 0.0000 0.0000 0.0000 39.9805 0.0000
# 6 0.0000 0.0000 0.0000 0.0000 0.0000 19.3527
#
#
#
# Elastic Compliance Matrix: (Units=1/GPa)
#
#
# Indices 1 2 3 4 5 6 
#
# 1 0.015010 -0.007215 -0.006284 0.000000 0.000000 0.000000
# 2 -0.007215 0.023228 -0.003195 0.000000 0.000000 0.000000
# 3 -0.006284 -0.003195 0.011880 0.000000 0.000000 0.000000
# 4 0.000000 0.000000 0.000000 0.041980 0.000000 0.000000
# 5 0.000000 0.000000 0.000000 0.000000 0.025012 0.000000
# 6 0.000000 0.000000 0.000000 0.000000 0.000000 0.051672
#
#
# Mechanical properties :
#
#
# Convention : Reuss Voigt Hill
#
# Bulk Modulus (GPa) = 59.77330 73.82675 66.80002
# Shear Modulus (GPa) = 24.06781 26.89480 25.48131
#
# Velocity S-wave (km/s) = 3.50271 3.70271 3.60410
# Velocity P-wave (km/s) = 6.84318 7.47760 7.16741
#
# Compressibility (1/GPa) = 0.01672988
#
# Stress axis : x y z
#
# Youngs Moduli (GPa) = 66.62406 43.05103 84.17782
#
# Poissons Ratio (x) = 0.31062 0.52898
# Poissons Ratio (y) = 0.48071 0.26891
# Poissons Ratio (z) = 0.41867 0.13753
#
# Static dielectric constant tensor:
#      x y z
#    x 3.833240 0.000000 0.000000 
#    y 0.000000 3.371090 0.000000 
#    z 0.000000 0.000000 3.625580 
# 
# 
# High freq. dielectric constant tensor:
#      x y z
#    x 1.775770 0.000000 0.000000 
#    y 0.000000 1.755220 0.000000 
#    z 0.000000 0.000000 1.762290 
# 
# From -- ./inp_files/6967.got.cif
#   From: 2010.03.12/outbox.cif.g09.slc.cpg/sg38_4_cif.got.tgz:6967.got - 2010.04.14 02:38:36.
