data_PCOD8180375
_publ_section_title
;
Structure prediction by ZEFSAII (Michael W. Deem and Ramdas Pophale) SiO2 
 PCOD8180375
Probable space group: A M M 2
;
_chemical_formula_sum "Si O2"
_cell_formula_units_Z 56
_cell_length_a 22.681582
_cell_length_b 13.213141
_cell_length_c 8.736212
_cell_angle_alpha 90.000000
_cell_angle_beta 90.000000
_cell_angle_gamma 90.000000
_cell_volume 2618.198541
_symmetry_space_group_name_H-M "A M M 2"
_symmetry_group_IT_number 38
_symmetry_cell_setting 'orthorhombic'
loop_
_space_group_symop_operation_xyz
x,y,z
-x,-y,z
-x,y,z
x,-y,z
x,1/2+y,1/2+z
-x,1/2-y,1/2+z
-x,1/2+y,1/2+z
x,1/2-y,1/2+z
loop_
_atom_site_type_symbol
_atom_site_label
_atom_site_fract_x
_atom_site_fract_y
_atom_site_fract_z
Si Si1 0.097883 0.115741 0.883550
Si Si2 0.631593 0.743214 0.534943
Si Si3 0.286687 0.301249 0.784682
Si Si4 0.829503 0.883911 0.398228
Si Si5 0.784043 0.613890 0.222655
Si Si6 0.569750 0.616691 0.277077
Si Si7 0.065811 0.206279 0.209227
O O1 0.168340 0.118779 0.859204
O O2 0.065983 0.171957 0.739831
O O3 0.075180 0.000000 0.891196
O O4 0.083718 0.174244 0.039898
O O5 0.671608 0.670007 0.642297
O O6 0.675526 0.815215 0.438238
O O7 0.592924 0.668902 0.431714
O O8 0.591178 0.819664 0.630905
O O9 0.226831 0.366162 0.787378
O O10 0.271444 0.181452 0.769328
O O11 0.814382 0.842546 0.567501
O O12 0.887628 0.831527 0.334731
O O13 0.845306 0.000000 0.404895
O O14 0.761229 0.500000 0.195160
O O15 0.500000 0.621302 0.280755
O O16 0.591349 0.500000 0.267296
O O17 0.000000 0.164429 0.242526
#
# Coordination Sequence:
#
# PCOD8180375 Si02
#       7
#     8   8   8   8   8   8   8
#     4  11  25  45  70  96 126 167 214 270 337 404
#     4  10  23  38  66 102 137 174 224 275 321 391
#     4  11  21  39  62  95 134 170 211 276 335 389
#     4  11  24  41  64  93 128 173 221 273 339 406
#     4  10  22  41  66  90 123 171 218 264 331 412
#     4  10  22  44  71  99 139 186 228 273 323 376
#     4  12  26  44  68  96 128 166 220 282 335 409
#
# _framework density 21.388752
#
# number of rings (size 3 to 8) (size 9 to 14) (size 15 to 20)
#    0.000    1.286    2.857    2.143    2.000    5.429 
#    0.000    3.571    0.000   16.286    0.000    0.000 
#    0.000    0.000    0.000    0.000    0.000    0.000 
#
# Total GULP energy -347128.108738 kJ/mol
# GULP energy per Si atom -12397.432455 kJ/mol
# Density = 2.134007 g / cm^3
# Si number density = 21.388752 Si / 1000 Ang^3
#
#
#
# Elastic Constant Matrix: (Units=GPa)
#
#
# Indices 1 2 3 4 5 6 
#
# 1 105.8115 34.3542 46.2191 0.0000 0.0000 0.0000
# 2 34.3542 114.7085 62.4160 0.0000 0.0000 0.0000
# 3 46.2191 62.4160 128.3763 0.0000 0.0000 0.0000
# 4 0.0000 0.0000 0.0000 33.3213 0.0000 0.0000
# 5 0.0000 0.0000 0.0000 0.0000 24.1748 0.0000
# 6 0.0000 0.0000 0.0000 0.0000 0.0000 12.0672
#
#
#
# Elastic Compliance Matrix: (Units=1/GPa)
#
#
# Indices 1 2 3 4 5 6 
#
# 1 0.011429 -0.001610 -0.003332 0.000000 0.000000 0.000000
# 2 -0.001610 0.012080 -0.005294 0.000000 0.000000 0.000000
# 3 -0.003332 -0.005294 0.011563 0.000000 0.000000 0.000000
# 4 0.000000 0.000000 0.000000 0.030011 0.000000 0.000000
# 5 0.000000 0.000000 0.000000 0.000000 0.041365 0.000000
# 6 0.000000 0.000000 0.000000 0.000000 0.000000 0.082869
#
#
# Mechanical properties :
#
#
# Convention : Reuss Voigt Hill
#
# Bulk Modulus (GPa) = 68.48865 70.54165 69.51515
# Shear Modulus (GPa) = 23.29303 27.63978 25.46641
#
# Velocity S-wave (km/s) = 3.30363 3.59870 3.45432
# Velocity P-wave (km/s) = 6.82952 7.09365 6.96284
#
# Compressibility (1/GPa) = 0.01460096
#
# Stress axis : x y z
#
# Youngs Moduli (GPa) = 87.49760 82.77867 86.48204
#
# Poissons Ratio (x) = 0.13326 0.28816
# Poissons Ratio (y) = 0.14085 0.45782
# Poissons Ratio (z) = 0.29155 0.43822
#
# Static dielectric constant tensor:
#      x y z
#    x 3.970020 0.000000 0.000000 
#    y 0.000000 3.932820 0.000000 
#    z 0.000000 0.000000 3.983890 
# 
# 
# High freq. dielectric constant tensor:
#      x y z
#    x 1.844180 0.000000 0.000000 
#    y 0.000000 1.830200 0.000000 
#    z 0.000000 0.000000 1.847070 
# 
# From -- ./inp_files/6733.got.cif
#   From: 2010.03.12/outbox.cif.g09.slc.cpg/sg38_4_cif.got.tgz:6733.got - 2010.04.14 02:38:36.
