data_PCOD8180417
_publ_section_title
;
Structure prediction by ZEFSAII (Michael W. Deem and Ramdas Pophale) SiO2 
 PCOD8180417
Probable space group: A M M 2
;
_chemical_formula_sum "Si O2"
_cell_formula_units_Z 56
_cell_length_a 8.903581
_cell_length_b 22.340807
_cell_length_c 14.288785
_cell_angle_alpha 90.000000
_cell_angle_beta 90.000000
_cell_angle_gamma 90.000000
_cell_volume 2842.227730
_symmetry_space_group_name_H-M "A M M 2"
_symmetry_group_IT_number 38
_symmetry_cell_setting 'orthorhombic'
loop_
_space_group_symop_operation_xyz
x,y,z
-x,-y,z
-x,y,z
x,-y,z
x,1/2+y,1/2+z
-x,1/2-y,1/2+z
-x,1/2+y,1/2+z
x,1/2-y,1/2+z
loop_
_atom_site_type_symbol
_atom_site_label
_atom_site_fract_x
_atom_site_fract_y
_atom_site_fract_z
Si Si1 0.175410 0.112260 0.258880
Si Si2 0.678452 0.500000 0.434677
Si Si3 0.323675 0.649766 0.937807
Si Si4 0.324747 0.852147 0.647398
Si Si5 0.821831 0.500000 0.637296
Si Si6 0.329996 0.786863 0.148760
Si Si7 0.176341 0.109202 0.827171
Si Si8 0.327618 0.786845 0.932759
O O1 0.246390 0.106857 0.362177
O O2 0.218073 0.174662 0.210979
O O3 0.000000 0.108763 0.272364
O O4 0.232268 0.057796 0.195083
O O5 0.500000 0.500000 0.435310
O O6 0.737058 0.500000 0.539814
O O7 0.736090 0.441532 0.382474
O O8 0.500000 0.642041 0.930474
O O9 0.279532 0.718404 0.916707
O O10 0.271718 0.631422 0.042290
O O11 0.500000 0.866654 0.661125
O O12 0.293643 0.782338 0.666171
O O13 0.227355 0.891620 0.718870
O O14 0.000000 0.500000 0.619242
O O15 0.500000 0.801053 0.180437
O O16 0.308183 0.804277 0.040868
O O17 0.217136 0.173091 0.871480
O O18 0.000000 0.097243 0.834264
O O19 0.500000 0.797234 0.900942
#
# Coordination Sequence:
#
# PCOD8180417 Si02
#       8
#     8   4   8   8   4   8   8   8
#     4  11  22  35  54  79 111 149 185 226 283 339
#     4  12  26  44  65  84 105 142 189 232 272 324
#     4   9  19  36  58  83 113 147 188 235 275 318
#     4   9  19  37  58  81 111 148 186 227 274 326
#     4  10  24  44  59  80 115 148 181 228 280 330
#     4   9  18  33  55  82 112 145 185 230 275 326
#     4  12  24  37  56  84 116 148 182 228 282 334
#     4   9  18  34  56  83 114 150 188 228 275 328
#
# _framework density 19.702853999999999
#
# number of rings (size 3 to 8) (size 9 to 14) (size 15 to 20)
#    0.000    2.000    0.000    5.786    0.000    9.143 
#    0.000    3.571    0.000    3.429    0.000    0.000 
#    0.000    0.000    0.000    0.000    0.000    0.000 
#
# Total GULP energy -347271.860301 kJ/mol
# GULP energy per Si atom -12402.566439 kJ/mol
# Density = 1.965801 g / cm^3
# Si number density = 19.702854 Si / 1000 Ang^3
#
#
#
# Elastic Constant Matrix: (Units=GPa)
#
#
# Indices 1 2 3 4 5 6 
#
# 1 79.5856 43.7214 65.1427 0.0000 0.0000 0.0000
# 2 43.7214 63.4184 73.2990 0.0000 0.0000 0.0000
# 3 65.1427 73.2990 160.1850 0.0000 0.0000 0.0000
# 4 0.0000 0.0000 0.0000 33.3599 0.0000 0.0000
# 5 0.0000 0.0000 0.0000 0.0000 24.5198 0.0000
# 6 0.0000 0.0000 0.0000 0.0000 0.0000 25.0258
#
#
#
# Elastic Compliance Matrix: (Units=1/GPa)
#
#
# Indices 1 2 3 4 5 6 
#
# 1 0.021452 -0.009989 -0.004153 0.000000 0.000000 0.000000
# 2 -0.009989 0.038122 -0.013382 0.000000 0.000000 0.000000
# 3 -0.004153 -0.013382 0.014055 0.000000 0.000000 0.000000
# 4 0.000000 0.000000 0.000000 0.029976 0.000000 0.000000
# 5 0.000000 0.000000 0.000000 0.000000 0.040783 0.000000
# 6 0.000000 0.000000 0.000000 0.000000 0.000000 0.039959
#
#
# Mechanical properties :
#
#
# Convention : Reuss Voigt Hill
#
# Bulk Modulus (GPa) = 53.81911 74.16838 63.99374
# Shear Modulus (GPa) = 20.35923 24.64946 22.50435
#
# Velocity S-wave (km/s) = 3.21801 3.54087 3.38329
# Velocity P-wave (km/s) = 6.41733 7.37850 6.91463
#
# Compressibility (1/GPa) = 0.01858076
#
# Stress axis : x y z
#
# Youngs Moduli (GPa) = 46.61525 26.23183 71.14913
#
# Poissons Ratio (x) = 0.26204 0.29548
# Poissons Ratio (y) = 0.46566 0.95209
# Poissons Ratio (z) = 0.19359 0.35103
#
# Static dielectric constant tensor:
#      x y z
#    x 3.408550 0.000000 0.000000 
#    y 0.000000 3.541890 0.000000 
#    z 0.000000 0.000000 3.873570 
# 
# 
# High freq. dielectric constant tensor:
#      x y z
#    x 1.755980 0.000000 0.000000 
#    y 0.000000 1.749180 0.000000 
#    z 0.000000 0.000000 1.789170 
# 
# From -- ./inp_files/12500.got.cif
#   From: 2010.03.12/outbox.cif.g09.slc.cpg/sg38_7_cif.got.tgz:12500.got - 2010.04.14 02:38:36.
