data_PCOD8180746
_publ_section_title
;
Structure prediction by ZEFSAII (Michael W. Deem and Ramdas Pophale) SiO2 
 PCOD8180746
Probable space group: A B M 2
;
_chemical_formula_sum "Si O2"
_cell_formula_units_Z 64
_cell_length_a 15.794386
_cell_length_b 9.352611
_cell_length_c 22.361063
_cell_angle_alpha 90.000000
_cell_angle_beta 90.000000
_cell_angle_gamma 90.000000
_cell_volume 3303.148236
_symmetry_space_group_name_H-M "A B M 2"
_symmetry_group_IT_number 39
_symmetry_cell_setting 'orthorhombic'
loop_
_space_group_symop_operation_xyz
x,y,z
-x,-y,z
-x,1/2+y,z
x,1/2-y,z
x,1/2+y,1/2+z
-x,1/2-y,1/2+z
-x,y,1/2+z
x,-y,1/2+z
loop_
_atom_site_type_symbol
_atom_site_label
_atom_site_fract_x
_atom_site_fract_y
_atom_site_fract_z
Si Si1 0.811034 0.906712 0.833920
Si Si2 0.289479 0.907292 0.910649
Si Si3 0.249105 0.083055 0.638903
Si Si4 0.413665 0.081989 0.125562
Si Si5 0.167510 0.903997 0.018020
Si Si6 0.582029 0.084752 0.485654
Si Si7 0.070674 0.903969 0.443318
Si Si8 0.087660 0.582359 0.219115
O O1 0.774692 0.750000 0.813526
O O2 0.852685 0.885194 0.898286
O O3 0.879062 0.960073 0.785190
O O4 0.738034 0.025043 0.845994
O O5 0.331423 0.750000 0.899001
O O6 0.210619 0.882408 0.953939
O O7 0.346371 0.022427 0.943680
O O8 0.270707 0.250000 0.649359
O O9 0.232429 0.047191 0.569311
O O10 0.164281 0.037819 0.674709
O O11 0.331853 0.990185 0.658181
O O12 0.420658 0.250000 0.142627
O O13 0.398501 0.061009 0.055193
O O14 0.500000 0.000000 0.145180
O O15 0.128244 0.750000 0.037674
O O16 0.096169 0.023518 0.006932
O O17 0.569664 0.250000 0.470555
O O18 0.500000 0.000000 0.466078
O O19 0.031912 0.750000 0.459534
O O20 0.000000 0.000000 0.411185
O O21 0.067411 0.750000 0.214060
O O22 0.000000 0.500000 0.204652
#
# Coordination Sequence:
#
# PCOD8180746 Si02
#       8
#     8   8   8   8   8   8   8   8
#     4   9  19  35  53  74  99 132 175 223 272 321
#     4  10  18  30  51  77 105 138 172 213 265 320
#     4  10  20  36  56  79 111 147 184 229 281 331
#     4  10  20  33  54  83 115 151 188 226 271 326
#     4   9  18  31  47  69 100 133 167 206 255 317
#     4  10  19  30  48  77 113 147 179 215 261 321
#     4  10  19  30  47  69  96 127 164 210 261 316
#     4  10  22  39  59  80 106 143 189 240 288 334
#
# _framework density 19.375454999999999
#
# number of rings (size 3 to 8) (size 9 to 14) (size 15 to 20)
#    0.000    2.250    1.250    1.875    0.000    4.000 
#    0.000    1.250    0.000    0.750    0.000    3.500 
#    0.000    0.000    0.000    0.000    0.000    0.000 
#
# Total GULP energy -396450.675271 kJ/mol
# GULP energy per Si atom -12389.083602 kJ/mol
# Density = 1.933136 g / cm^3
# Si number density = 19.375455 Si / 1000 Ang^3
#
#
#
# Elastic Constant Matrix: (Units=GPa)
#
#
# Indices 1 2 3 4 5 6 
#
# 1 101.2984 61.4597 29.4369 0.0000 0.0000 0.0000
# 2 61.4597 136.5370 29.6502 0.0000 0.0000 0.0000
# 3 29.4369 29.6502 44.5346 0.0000 0.0000 0.0000
# 4 0.0000 0.0000 0.0000 14.2548 0.0000 0.0000
# 5 0.0000 0.0000 0.0000 0.0000 25.1692 0.0000
# 6 0.0000 0.0000 0.0000 0.0000 0.0000 38.6192
#
#
#
# Elastic Compliance Matrix: (Units=1/GPa)
#
#
# Indices 1 2 3 4 5 6 
#
# 1 0.014962 -0.005362 -0.006319 0.000000 0.000000 0.000000
# 2 -0.005362 0.010484 -0.003435 0.000000 0.000000 0.000000
# 3 -0.006319 -0.003435 0.028919 0.000000 0.000000 0.000000
# 4 0.000000 0.000000 0.000000 0.070152 0.000000 0.000000
# 5 0.000000 0.000000 0.000000 0.000000 0.039731 0.000000
# 6 0.000000 0.000000 0.000000 0.000000 0.000000 0.025894
#
#
# Mechanical properties :
#
#
# Convention : Reuss Voigt Hill
#
# Bulk Modulus (GPa) = 41.44242 58.16262 49.80252
# Shear Modulus (GPa) = 21.88966 26.39686 24.14326
#
# Velocity S-wave (km/s) = 3.36484 3.69506 3.53381
# Velocity P-wave (km/s) = 6.04415 6.94899 6.51230
#
# Compressibility (1/GPa) = 0.02412987
#
# Stress axis : x y z
#
# Youngs Moduli (GPa) = 66.83732 95.38465 34.57979
#
# Poissons Ratio (x) = 0.51150 0.21852
# Poissons Ratio (y) = 0.35841 0.11880
# Poissons Ratio (z) = 0.42237 0.32768
#
# Static dielectric constant tensor:
#      x y z
#    x 3.478930 0.000000 0.000000 
#    y 0.000000 4.187420 0.000000 
#    z 0.000000 0.000000 3.239690 
# 
# 
# High freq. dielectric constant tensor:
#      x y z
#    x 1.740350 0.000000 0.000000 
#    y 0.000000 1.768360 0.000000 
#    z 0.000000 0.000000 1.716400 
# 
# From -- ./inp_files/16195.got.cif
#   From: 2010.03.12/outbox.cif.g09.slc.cpg/sg39_9_cif.got.tgz:16195.got - 2010.04.14 02:53:20.
