data_PCOD8180174
_publ_section_title
;
Structure prediction by ZEFSAII (Michael W. Deem and Ramdas Pophale) SiO2 
 PCOD8180174
Probable space group: A M M 2
;
_chemical_formula_sum "Si O2"
_cell_formula_units_Z 48
_cell_length_a 8.606322
_cell_length_b 14.971660
_cell_length_c 18.879824
_cell_angle_alpha 90.000000
_cell_angle_beta 90.000000
_cell_angle_gamma 90.000000
_cell_volume 2432.682821
_symmetry_space_group_name_H-M "A M M 2"
_symmetry_group_IT_number 38
_symmetry_cell_setting 'orthorhombic'
loop_
_space_group_symop_operation_xyz
x,y,z
-x,-y,z
-x,y,z
x,-y,z
x,1/2+y,1/2+z
-x,1/2-y,1/2+z
-x,1/2+y,1/2+z
x,1/2-y,1/2+z
loop_
_atom_site_type_symbol
_atom_site_label
_atom_site_fract_x
_atom_site_fract_y
_atom_site_fract_z
Si Si1 0.319198 0.601830 0.475210
Si Si2 0.684581 0.402055 0.811923
Si Si3 0.682526 0.238574 0.719959
Si Si4 0.179307 0.604235 0.326744
Si Si5 0.180071 0.749426 0.067740
Si Si6 0.320882 0.103248 0.471398
O O1 0.500000 0.611740 0.458285
O O2 0.276443 0.500000 0.495492
O O3 0.226761 0.634048 0.405748
O O4 0.274126 0.664382 0.540704
O O5 0.500000 0.402796 0.812422
O O6 0.746620 0.500000 0.788375
O O7 0.747750 0.327785 0.758205
O O8 0.739979 0.380472 0.891581
O O9 0.500000 0.244805 0.704847
O O10 0.715890 0.154156 0.769475
O O11 0.773244 0.227262 0.647444
O O12 0.213026 0.500000 0.316819
O O13 0.000000 0.628313 0.314570
O O14 0.000000 0.772409 0.063351
O O15 0.215079 0.661746 0.022280
O O16 0.500000 0.133258 0.479265
O O17 0.301836 0.000000 0.492774
#
# Coordination Sequence:
#
# PCOD8180174 Si02
#       6
#     8   8   8   8   8   8
#     4  10  21  39  63  87 111 145 192 240 284 338
#     4   8  16  33  58  85 108 133 172 224 276 324
#     4  11  22  36  57  83 113 151 192 231 275 335
#     4  10  21  38  60  86 116 148 184 232 290 344
#     4  12  25  38  54  80 118 156 189 234 289 339
#     4   9  18  36  62  87 110 140 183 233 282 338
#
# _framework density 19.731301999999999
#
# number of rings (size 3 to 8) (size 9 to 14) (size 15 to 20)
#    0.000    2.000    0.000    5.000    0.000    5.000 
#    0.000    2.500    0.000    3.500    0.000    0.000 
#    0.000    0.000    0.000    0.000    0.000    0.000 
#
# Total GULP energy -297684.317713 kJ/mol
# GULP energy per Si atom -12403.513238 kJ/mol
# Density = 1.968639 g / cm^3
# Si number density = 19.731302 Si / 1000 Ang^3
#
#
#
# Elastic Constant Matrix: (Units=GPa)
#
#
# Indices 1 2 3 4 5 6 
#
# 1 56.1477 25.8294 16.8829 0.0000 0.0000 0.0000
# 2 25.8294 70.5667 21.8628 0.0000 0.0000 0.0000
# 3 16.8829 21.8628 60.8156 0.0000 0.0000 0.0000
# 4 0.0000 0.0000 0.0000 13.0726 0.0000 0.0000
# 5 0.0000 0.0000 0.0000 0.0000 21.2405 0.0000
# 6 0.0000 0.0000 0.0000 0.0000 0.0000 24.8396
#
#
#
# Elastic Compliance Matrix: (Units=1/GPa)
#
#
# Indices 1 2 3 4 5 6 
#
# 1 0.022107 -0.006966 -0.003633 0.000000 0.000000 0.000000
# 2 -0.006966 0.018142 -0.004588 0.000000 0.000000 0.000000
# 3 -0.003633 -0.004588 0.019101 0.000000 0.000000 0.000000
# 4 0.000000 0.000000 0.000000 0.076496 0.000000 0.000000
# 5 0.000000 0.000000 0.000000 0.000000 0.047080 0.000000
# 6 0.000000 0.000000 0.000000 0.000000 0.000000 0.040258
#
#
# Mechanical properties :
#
#
# Convention : Reuss Voigt Hill
#
# Bulk Modulus (GPa) = 34.51127 35.18670 34.84899
# Shear Modulus (GPa) = 18.99568 20.02753 19.51161
#
# Velocity S-wave (km/s) = 3.10614 3.18938 3.14803
# Velocity P-wave (km/s) = 5.51296 5.60665 5.56000
#
# Compressibility (1/GPa) = 0.02897604
#
# Stress axis : x y z
#
# Youngs Moduli (GPa) = 45.23412 55.11962 52.35321
#
# Poissons Ratio (x) = 0.38398 0.19019
# Poissons Ratio (y) = 0.31512 0.24020
# Poissons Ratio (z) = 0.16433 0.25290
#
# Static dielectric constant tensor:
#      x y z
#    x 3.398180 0.000000 0.000000 
#    y 0.000000 3.811410 0.000000 
#    z 0.000000 0.000000 3.539170 
# 
# 
# High freq. dielectric constant tensor:
#      x y z
#    x 1.756140 0.000000 0.000000 
#    y 0.000000 1.781160 0.000000 
#    z 0.000000 0.000000 1.765490 
# 
# From -- ./inp_files/16628.got.cif
#   From: 2010.03.12/outbox.cif.g09.slc.cpg/sg38_9_cif.got.tgz:16628.got - 2010.04.14 02:38:36.
