data_PCOD8180536
_publ_section_title
;
Structure prediction by ZEFSAII (Michael W. Deem and Ramdas Pophale) SiO2 
 PCOD8180536
Probable space group: A M M 2
;
_chemical_formula_sum "Si O2"
_cell_formula_units_Z 48
_cell_length_a 16.695294
_cell_length_b 9.769472
_cell_length_c 18.329995
_cell_angle_alpha 90.000000
_cell_angle_beta 90.000000
_cell_angle_gamma 90.000000
_cell_volume 2989.699304
_symmetry_space_group_name_H-M "A M M 2"
_symmetry_group_IT_number 38
_symmetry_cell_setting 'orthorhombic'
loop_
_space_group_symop_operation_xyz
x,y,z
-x,-y,z
-x,y,z
x,-y,z
x,1/2+y,1/2+z
-x,1/2-y,1/2+z
-x,1/2+y,1/2+z
x,1/2-y,1/2+z
loop_
_atom_site_type_symbol
_atom_site_label
_atom_site_fract_x
_atom_site_fract_y
_atom_site_fract_z
Si Si1 0.679822 0.348101 0.290490
Si Si2 0.838883 0.348300 0.384940
Si Si3 0.738293 0.837235 0.016671
Si Si4 0.758860 0.660862 0.680612
Si Si5 0.588495 0.662911 0.428886
Si Si6 0.910554 0.656181 0.774361
O O1 0.659312 0.500000 0.259485
O O2 0.760676 0.357428 0.335874
O O3 0.689715 0.240467 0.224805
O O4 0.611110 0.294866 0.345804
O O5 0.877712 0.500000 0.391514
O O6 0.811884 0.291016 0.464383
O O7 0.901613 0.246088 0.347541
O O8 0.755414 0.784122 0.097936
O O9 0.734365 0.000000 0.014524
O O10 0.653278 0.777856 0.986855
O O11 0.740199 0.500000 0.685735
O O12 0.847053 0.696746 0.711718
O O13 0.500000 0.721333 0.447294
O O14 0.589146 0.500000 0.433499
O O15 0.896632 0.500000 0.798298
O O16 0.000000 0.678388 0.742629
#
# Coordination Sequence:
#
# PCOD8180536 Si02
#       6
#     8   8   8   8   8   8
#     4   8  14  25  41  60  80 103 135 169 196 232
#     4   8  14  26  43  60  77 100 133 170 201 231
#     4   8  14  25  41  61  83 106 136 170 200 238
#     4   9  16  27  43  61  83 110 135 162 202 248
#     4   8  13  23  41  62  82 107 139 173 205 234
#     4   9  17  28  41  58  81 108 136 166 202 245
#
# _framework density 16.055126999999999
#
# number of rings (size 3 to 8) (size 9 to 14) (size 15 to 20)
#    0.000    3.667    0.000    2.000    0.000    0.333 
#    0.000    2.500    0.000    5.500    0.000    0.000 
#    0.000    0.000    0.000    0.000    0.000    0.000 
#
# Total GULP energy -297373.917496 kJ/mol
# GULP energy per Si atom -12390.579896 kJ/mol
# Density = 1.601858 g / cm^3
# Si number density = 16.055127 Si / 1000 Ang^3
#
#
#
# Elastic Constant Matrix: (Units=GPa)
#
#
# Indices 1 2 3 4 5 6 
#
# 1 82.4959 24.3031 48.1703 0.0000 0.0000 0.0000
# 2 24.3031 39.0818 39.1582 0.0000 0.0000 0.0000
# 3 48.1703 39.1582 130.3924 0.0000 0.0000 0.0000
# 4 0.0000 0.0000 0.0000 21.0031 0.0000 0.0000
# 5 0.0000 0.0000 0.0000 0.0000 17.7319 0.0000
# 6 0.0000 0.0000 0.0000 0.0000 0.0000 13.2944
#
#
#
# Elastic Compliance Matrix: (Units=1/GPa)
#
#
# Indices 1 2 3 4 5 6 
#
# 1 0.016351 -0.005887 -0.004273 0.000000 0.000000 0.000000
# 2 -0.005887 0.038720 -0.009453 0.000000 0.000000 0.000000
# 3 -0.004273 -0.009453 0.012086 0.000000 0.000000 0.000000
# 4 0.000000 0.000000 0.000000 0.047612 0.000000 0.000000
# 5 0.000000 0.000000 0.000000 0.000000 0.056396 0.000000
# 6 0.000000 0.000000 0.000000 0.000000 0.000000 0.075220
#
#
# Mechanical properties :
#
#
# Convention : Reuss Voigt Hill
#
# Bulk Modulus (GPa) = 35.80146 52.80371 44.30258
# Shear Modulus (GPa) = 16.95375 19.76179 18.35777
#
# Velocity S-wave (km/s) = 3.25310 3.51218 3.38512
# Velocity P-wave (km/s) = 6.03802 7.02906 6.55230
#
# Compressibility (1/GPa) = 0.02793182
#
# Stress axis : x y z
#
# Youngs Moduli (GPa) = 61.15885 25.82658 82.73753
#
# Poissons Ratio (x) = 0.15204 0.35350
# Poissons Ratio (y) = 0.36004 0.78213
# Poissons Ratio (z) = 0.26130 0.24414
#
# Static dielectric constant tensor:
#      x y z
#    x 3.115070 0.000000 0.000000 
#    y 0.000000 2.939580 0.000000 
#    z 0.000000 0.000000 3.262910 
# 
# 
# High freq. dielectric constant tensor:
#      x y z
#    x 1.602600 0.000000 0.000000 
#    y 0.000000 1.582690 0.000000 
#    z 0.000000 0.000000 1.607130 
# 
# From -- ./inp_files/14463.got.cif
#   From: 2010.03.12/outbox.cif.g09.slc.cpg/sg38_8_cif.got.tgz:14463.got - 2010.04.14 02:38:36.
