data_PCOD8180460
_publ_section_title
;
Structure prediction by ZEFSAII (Michael W. Deem and Ramdas Pophale) SiO2 
 PCOD8180460
Probable space group: A M M 2
;
_chemical_formula_sum "Si O2"
_cell_formula_units_Z 40
_cell_length_a 8.623677
_cell_length_b 11.486357
_cell_length_c 19.821564
_cell_angle_alpha 90.000000
_cell_angle_beta 90.000000
_cell_angle_gamma 90.000000
_cell_volume 1963.417741
_symmetry_space_group_name_H-M "A M M 2"
_symmetry_group_IT_number 38
_symmetry_cell_setting 'orthorhombic'
loop_
_space_group_symop_operation_xyz
x,y,z
-x,-y,z
-x,y,z
x,-y,z
x,1/2+y,1/2+z
-x,1/2-y,1/2+z
-x,1/2+y,1/2+z
x,1/2-y,1/2+z
loop_
_atom_site_type_symbol
_atom_site_label
_atom_site_fract_x
_atom_site_fract_y
_atom_site_fract_z
Si Si1 0.318145 0.746052 0.949410
Si Si2 0.181709 0.867601 0.576323
Si Si3 0.317250 0.731632 0.203718
Si Si4 0.682664 0.500000 0.424133
Si Si5 0.684232 0.500000 0.275408
Si Si6 0.819816 0.634704 0.820007
O O1 0.500000 0.727640 0.961696
O O2 0.268887 0.881375 0.962421
O O3 0.278651 0.711115 0.872729
O O4 0.221859 0.665738 0.999794
O O5 0.266916 0.775697 0.625517
O O6 0.000000 0.857776 0.587478
O O7 0.239350 0.000000 0.589078
O O8 0.500000 0.749480 0.208227
O O9 0.254825 0.613079 0.236964
O O10 0.235189 0.836601 0.243763
O O11 0.500000 0.500000 0.413346
O O12 0.758182 0.500000 0.349781
O O13 0.500000 0.500000 0.276497
O O14 0.786078 0.500000 0.834011
O O15 0.000000 0.664104 0.828392
#
# Coordination Sequence:
#
# PCOD8180460 Si02
#       6
#     8   8   8   4   4   8
#     4  11  22  39  64  90 118 157 205 250 296 355
#     4  11  24  41  60  87 124 161 198 246 305 361
#     4  11  21  38  65  92 118 152 199 250 298 354
#     4   9  18  36  60  90 120 147 188 247 300 346
#     4   9  16  32  60  92 120 141 180 247 300 342
#     4  11  24  41  60  87 125 162 197 245 303 359
#
# _framework density 20.372638999999999
#
# number of rings (size 3 to 8) (size 9 to 14) (size 15 to 20)
#    0.000    1.400    3.000    3.000    0.000    5.200 
#    1.800    3.000    0.000    0.000    0.000    0.000 
#    0.000    0.000    0.000    0.000    0.000    0.000 
#
# Total GULP energy -248045.115448 kJ/mol
# GULP energy per Si atom -12402.255772 kJ/mol
# Density = 2.032627 g / cm^3
# Si number density = 20.372639 Si / 1000 Ang^3
#
#
#
# Elastic Constant Matrix: (Units=GPa)
#
#
# Indices 1 2 3 4 5 6 
#
# 1 59.4022 41.7485 15.5611 0.0000 0.0000 0.0000
# 2 41.7485 92.6580 24.7749 0.0000 0.0000 0.0000
# 3 15.5611 24.7749 90.0737 0.0000 0.0000 0.0000
# 4 0.0000 0.0000 0.0000 37.7717 0.0000 0.0000
# 5 0.0000 0.0000 0.0000 0.0000 35.3420 0.0000
# 6 0.0000 0.0000 0.0000 0.0000 0.0000 27.1976
#
#
#
# Elastic Compliance Matrix: (Units=1/GPa)
#
#
# Indices 1 2 3 4 5 6 
#
# 1 0.024777 -0.010814 -0.001306 0.000000 0.000000 0.000000
# 2 -0.010814 0.016369 -0.002634 0.000000 0.000000 0.000000
# 3 -0.001306 -0.002634 0.012052 0.000000 0.000000 0.000000
# 4 0.000000 0.000000 0.000000 0.026475 0.000000 0.000000
# 5 0.000000 0.000000 0.000000 0.000000 0.028295 0.000000
# 6 0.000000 0.000000 0.000000 0.000000 0.000000 0.036768
#
#
# Mechanical properties :
#
#
# Convention : Reuss Voigt Hill
#
# Bulk Modulus (GPa) = 42.21286 45.14476 43.67881
# Shear Modulus (GPa) = 27.45114 30.73221 29.09168
#
# Velocity S-wave (km/s) = 3.67475 3.88816 3.78296
# Velocity P-wave (km/s) = 6.22659 6.50881 6.36926
#
# Compressibility (1/GPa) = 0.02368946
#
# Stress axis : x y z
#
# Youngs Moduli (GPa) = 40.35995 61.08989 82.97274
#
# Poissons Ratio (x) = 0.66066 0.10836
# Poissons Ratio (y) = 0.43647 0.21856
# Poissons Ratio (z) = 0.05271 0.16092
#
# Static dielectric constant tensor:
#      x y z
#    x 3.432180 0.000000 0.000000 
#    y 0.000000 3.803850 0.000000 
#    z 0.000000 0.000000 3.611930 
# 
# 
# High freq. dielectric constant tensor:
#      x y z
#    x 1.785460 0.000000 0.000000 
#    y 0.000000 1.795640 0.000000 
#    z 0.000000 0.000000 1.795350 
# 
# From -- ./inp_files/19519.got.cif
#   From: 2010.03.12/outbox.cif.g09.slc.cpg/sg38_10_cif.got.tgz:19519.got - 2010.04.14 02:38:36.
