data_PCOD8180317
_publ_section_title
;
Structure prediction by ZEFSAII (Michael W. Deem and Ramdas Pophale) SiO2 
 PCOD8180317
Probable space group: A M M 2
;
_chemical_formula_sum "Si O2"
_cell_formula_units_Z 48
_cell_length_a 9.085896
_cell_length_b 23.261053
_cell_length_c 11.557673
_cell_angle_alpha 90.000000
_cell_angle_beta 90.000000
_cell_angle_gamma 90.000000
_cell_volume 2442.685392
_symmetry_space_group_name_H-M "A M M 2"
_symmetry_group_IT_number 38
_symmetry_cell_setting 'orthorhombic'
loop_
_space_group_symop_operation_xyz
x,y,z
-x,-y,z
-x,y,z
x,-y,z
x,1/2+y,1/2+z
-x,1/2-y,1/2+z
-x,1/2+y,1/2+z
x,1/2-y,1/2+z
loop_
_atom_site_type_symbol
_atom_site_label
_atom_site_fract_x
_atom_site_fract_y
_atom_site_fract_z
Si Si1 0.831465 0.851918 0.280510
Si Si2 0.667605 0.639731 0.413583
Si Si3 0.170752 0.728326 0.562227
Si Si4 0.326785 0.840908 0.518174
Si Si5 0.673742 0.565434 0.198951
Si Si6 0.335664 0.064664 0.138562
O O1 0.803380 0.805683 0.180561
O O2 0.730325 0.837660 0.388317
O O3 0.782047 0.913291 0.231288
O O4 0.000000 0.854296 0.320161
O O5 0.500000 0.659767 0.388714
O O6 0.762277 0.695674 0.449653
O O7 0.735241 0.605594 0.303254
O O8 0.675668 0.595586 0.517395
O O9 0.250611 0.788610 0.586002
O O10 0.000000 0.738203 0.535004
O O11 0.500000 0.830914 0.520275
O O12 0.285930 0.901715 0.579363
O O13 0.500000 0.560297 0.215157
O O14 0.740294 0.500000 0.198409
O O15 0.500000 0.071578 0.190902
O O16 0.294235 0.000000 0.111886
#
# Coordination Sequence:
#
# PCOD8180317 Si02
#       6
#     8   8   8   8   8   8
#     4  10  22  39  56  79 112 151 191 234 287 346
#     4   9  17  33  59  89 115 146 188 237 288 345
#     4  10  22  39  58  82 114 150 189 240 296 348
#     4  11  23  37  58  85 114 151 193 239 288 349
#     4   9  19  36  58  87 120 152 189 237 292 344
#     4   9  17  31  55  85 114 146 186 235 286 336
#
# _framework density 19.650504000000002
#
# number of rings (size 3 to 8) (size 9 to 14) (size 15 to 20)
#    0.000    2.333    0.000    2.000    2.333    5.000 
#    0.000    2.500    0.000    5.000    0.000    0.000 
#    0.000    0.000    0.000    0.000    0.000    0.000 
#
# Total GULP energy -297538.811333 kJ/mol
# GULP energy per Si atom -12397.450472 kJ/mol
# Density = 1.960578 g / cm^3
# Si number density = 19.650504 Si / 1000 Ang^3
#
#
#
# Elastic Constant Matrix: (Units=GPa)
#
#
# Indices 1 2 3 4 5 6 
#
# 1 82.7999 47.4315 44.1720 0.0000 0.0000 0.0000
# 2 47.4315 110.2994 32.4808 0.0000 0.0000 0.0000
# 3 44.1720 32.4808 77.7973 0.0000 0.0000 0.0000
# 4 0.0000 0.0000 0.0000 22.2933 0.0000 0.0000
# 5 0.0000 0.0000 0.0000 0.0000 22.4989 0.0000
# 6 0.0000 0.0000 0.0000 0.0000 0.0000 19.8067
#
#
#
# Elastic Compliance Matrix: (Units=1/GPa)
#
#
# Indices 1 2 3 4 5 6 
#
# 1 0.020395 -0.006112 -0.009028 0.000000 0.000000 0.000000
# 2 -0.006112 0.012169 -0.001610 0.000000 0.000000 0.000000
# 3 -0.009028 -0.001610 0.018652 0.000000 0.000000 0.000000
# 4 0.000000 0.000000 0.000000 0.044857 0.000000 0.000000
# 5 0.000000 0.000000 0.000000 0.000000 0.044447 0.000000
# 6 0.000000 0.000000 0.000000 0.000000 0.000000 0.050488
#
#
# Mechanical properties :
#
#
# Convention : Reuss Voigt Hill
#
# Bulk Modulus (GPa) = 56.44838 57.67391 57.06114
# Shear Modulus (GPa) = 21.70027 22.70727 22.20377
#
# Velocity S-wave (km/s) = 3.32672 3.40304 3.36510
# Velocity P-wave (km/s) = 6.59884 6.69734 6.64827
#
# Compressibility (1/GPa) = 0.01771530
#
# Stress axis : x y z
#
# Youngs Moduli (GPa) = 49.03255 82.17875 53.61277
#
# Poissons Ratio (x) = 0.50224 0.48402
# Poissons Ratio (y) = 0.29967 0.08634
# Poissons Ratio (z) = 0.44267 0.13234
#
# Static dielectric constant tensor:
#      x y z
#    x 3.516260 0.000000 0.000000 
#    y 0.000000 3.827680 0.000000 
#    z 0.000000 0.000000 3.563500 
# 
# 
# High freq. dielectric constant tensor:
#      x y z
#    x 1.746110 0.000000 0.000000 
#    y 0.000000 1.772800 0.000000 
#    z 0.000000 0.000000 1.765240 
# 
# From -- ./inp_files/8113.got.cif
#   From: 2010.03.12/outbox.cif.g09.slc.cpg/sg38_5_cif.got.tgz:8113.got - 2010.04.14 02:38:36.
