data_PCOD8180848
_publ_section_title
;
Structure prediction by ZEFSAII (Michael W. Deem and Ramdas Pophale) SiO2 
 PCOD8180848
Probable space group: A B M 2
;
_chemical_formula_sum "Si O2"
_cell_formula_units_Z 56
_cell_length_a 9.398556
_cell_length_b 20.390676
_cell_length_c 14.417795
_cell_angle_alpha 90.000000
_cell_angle_beta 90.000000
_cell_angle_gamma 90.000000
_cell_volume 2763.068193
_symmetry_space_group_name_H-M "A B M 2"
_symmetry_group_IT_number 39
_symmetry_cell_setting 'orthorhombic'
loop_
_space_group_symop_operation_xyz
x,y,z
-x,-y,z
-x,1/2+y,z
x,1/2-y,z
x,1/2+y,1/2+z
-x,1/2-y,1/2+z
-x,y,1/2+z
x,-y,1/2+z
loop_
_atom_site_type_symbol
_atom_site_label
_atom_site_fract_x
_atom_site_fract_y
_atom_site_fract_z
Si Si1 0.751356 0.677193 0.514150
Si Si2 0.538277 0.926141 0.443318
Si Si3 0.242713 0.965719 0.798855
Si Si4 0.768653 0.583366 0.921673
Si Si5 0.037277 0.356608 0.355500
Si Si6 0.863687 0.045468 0.608736
Si Si7 0.002063 0.178076 0.649649
O O1 0.680484 0.750000 0.519748
O O2 0.635355 0.618538 0.510735
O O3 0.850819 0.679275 0.422309
O O4 0.841245 0.663325 0.607658
O O5 0.617107 0.932894 0.343851
O O6 0.389844 0.886442 0.431068
O O7 0.500000 0.000000 0.480989
O O8 0.099352 0.927617 0.828107
O O9 0.254858 0.967603 0.687326
O O10 0.226286 0.040419 0.829134
O O11 0.890676 0.637796 0.913912
O O12 0.797387 0.532956 0.007713
O O13 0.999430 0.318251 0.261550
O O14 0.897299 0.122887 0.611734
O O15 0.000000 0.000000 0.625961
O O16 0.952110 0.250000 0.614170
#
# Coordination Sequence:
#
# PCOD8180848 Si02
#       7
#     8   8   8   8   8   8   8
#     4  10  20  38  60  84 118 161 200 245 303 367
#     4   9  21  38  56  80 125 161 197 243 295 367
#     4   9  19  36  53  83 120 155 195 245 300 362
#     4  11  20  36  56  91 119 152 200 256 303 356
#     4  10  18  34  60  85 114 151 198 251 298 348
#     4  11  21  34  63  91 116 157 201 258 309 351
#     4  10  21  36  57  89 119 151 198 246 301 358
#
# _framework density 20.267323999999999
#
# number of rings (size 3 to 8) (size 9 to 14) (size 15 to 20)
#    0.000    2.000    1.429    3.429    4.000    0.000 
#    2.571    5.714    0.000    0.000    0.000    0.000 
#    0.000    0.000    0.000    0.000    0.000    0.000 
#
# Total GULP energy -346967.930759 kJ/mol
# GULP energy per Si atom -12391.711813 kJ/mol
# Density = 2.022119 g / cm^3
# Si number density = 20.267324 Si / 1000 Ang^3
#
#
#
# Elastic Constant Matrix: (Units=GPa)
#
#
# Indices 1 2 3 4 5 6 
#
# 1 99.9169 30.0181 21.0066 0.0000 0.0000 0.0000
# 2 30.0181 88.9349 23.1367 0.0000 0.0000 0.0000
# 3 21.0066 23.1367 86.3867 0.0000 0.0000 0.0000
# 4 0.0000 0.0000 0.0000 22.0219 0.0000 0.0000
# 5 0.0000 0.0000 0.0000 0.0000 26.0542 0.0000
# 6 0.0000 0.0000 0.0000 0.0000 0.0000 24.3106
#
#
#
# Elastic Compliance Matrix: (Units=1/GPa)
#
#
# Indices 1 2 3 4 5 6 
#
# 1 0.011413 -0.003365 -0.001874 0.000000 0.000000 0.000000
# 2 -0.003365 0.013078 -0.002685 0.000000 0.000000 0.000000
# 3 -0.001874 -0.002685 0.012751 0.000000 0.000000 0.000000
# 4 0.000000 0.000000 0.000000 0.045409 0.000000 0.000000
# 5 0.000000 0.000000 0.000000 0.000000 0.038381 0.000000
# 6 0.000000 0.000000 0.000000 0.000000 0.000000 0.041134
#
#
# Mechanical properties :
#
#
# Convention : Reuss Voigt Hill
#
# Bulk Modulus (GPa) = 46.73940 47.06238 46.90089
# Shear Modulus (GPa) = 27.00575 27.88248 27.44412
#
# Velocity S-wave (km/s) = 3.65427 3.71312 3.68381
# Velocity P-wave (km/s) = 6.39660 6.45401 6.42537
#
# Compressibility (1/GPa) = 0.02139522
#
# Stress axis : x y z
#
# Youngs Moduli (GPa) = 87.61770 76.46279 78.42772
#
# Poissons Ratio (x) = 0.25728 0.14699
# Poissons Ratio (y) = 0.29481 0.21054
# Poissons Ratio (z) = 0.16421 0.20527
#
# Static dielectric constant tensor:
#      x y z
#    x 3.679130 0.000000 0.000000 
#    y 0.000000 3.560930 0.000000 
#    z 0.000000 0.000000 3.785310 
# 
# 
# High freq. dielectric constant tensor:
#      x y z
#    x 1.773200 0.000000 0.000000 
#    y 0.000000 1.777280 0.000000 
#    z 0.000000 0.000000 1.792790 
# 
# From -- ./inp_files/8605.got.cif
#   From: 2010.03.12/outbox.cif.g09.slc.cpg/sg39_5_cif.got.tgz:8605.got - 2010.04.14 02:53:20.
