data_PCOD8180927
_publ_section_title
;
Structure prediction by ZEFSAII (Michael W. Deem and Ramdas Pophale) SiO2 
 PCOD8180927
Probable space group: A B M 2
;
_chemical_formula_sum "Si O2"
_cell_formula_units_Z 48
_cell_length_a 16.269287
_cell_length_b 8.968799
_cell_length_c 18.376890
_cell_angle_alpha 90.000000
_cell_angle_beta 90.000000
_cell_angle_gamma 90.000000
_cell_volume 2681.481638
_symmetry_space_group_name_H-M "A B M 2"
_symmetry_group_IT_number 39
_symmetry_cell_setting 'orthorhombic'
loop_
_space_group_symop_operation_xyz
x,y,z
-x,-y,z
-x,1/2+y,z
x,1/2-y,z
x,1/2+y,1/2+z
-x,1/2-y,1/2+z
-x,y,1/2+z
x,-y,1/2+z
loop_
_atom_site_type_symbol
_atom_site_label
_atom_site_fract_x
_atom_site_fract_y
_atom_site_fract_z
Si Si1 0.270092 0.074991 0.478680
Si Si2 0.917092 0.576054 0.229712
Si Si3 0.584370 0.927376 0.063068
Si Si4 0.164597 0.414380 0.607432
Si Si5 0.754070 0.424566 0.812434
Si Si6 0.665032 0.582991 0.691742
O O1 0.292026 0.250000 0.487570
O O2 0.187023 0.037652 0.524778
O O3 0.251042 0.030251 0.396312
O O4 0.345777 0.977251 0.506584
O O5 0.931171 0.750000 0.231215
O O6 0.897683 0.527849 0.146317
O O7 0.843252 0.525278 0.282617
O O8 0.000000 0.500000 0.258377
O O9 0.578027 0.750000 0.063809
O O10 0.500000 0.000000 0.035065
O O11 0.601366 0.985445 0.144992
O O12 0.123932 0.250000 0.609224
O O13 0.250263 0.412083 0.649094
O O14 0.741603 0.250000 0.799481
O O15 0.680617 0.508234 0.770224
O O16 0.629664 0.750000 0.702485
#
# Coordination Sequence:
#
# PCOD8180927 Si02
#       6
#     8   8   8   8   8   8
#     4   9  18  34  54  76 104 135 166 204 253 305
#     4  10  19  31  49  72  98 130 168 211 255 298
#     4  11  21  34  53  76 102 132 169 211 254 299
#     4   8  15  29  49  70  94 126 161 198 241 292
#     4   9  18  33  53  76 103 135 169 205 249 304
#     4   9  17  31  51  74  99 128 164 203 244 292
#
# _framework density 17.900552000000001
#
# number of rings (size 3 to 8) (size 9 to 14) (size 15 to 20)
#    0.000    2.667    0.000    3.500    0.000    5.333 
#    0.000    1.667    0.000    6.000    0.000    0.000 
#    0.000    0.000    0.000    0.000    0.000    0.000 
#
# Total GULP energy -297541.897267 kJ/mol
# GULP energy per Si atom -12397.579053 kJ/mol
# Density = 1.785981 g / cm^3
# Si number density = 17.900552 Si / 1000 Ang^3
#
#
#
# Elastic Constant Matrix: (Units=GPa)
#
#
# Indices 1 2 3 4 5 6 
#
# 1 74.5655 46.2227 35.1153 0.0000 0.0000 0.0000
# 2 46.2227 103.6937 45.4048 0.0000 0.0000 0.0000
# 3 35.1153 45.4048 129.5828 0.0000 0.0000 0.0000
# 4 0.0000 0.0000 0.0000 26.2654 0.0000 0.0000
# 5 0.0000 0.0000 0.0000 0.0000 16.9143 0.0000
# 6 0.0000 0.0000 0.0000 0.0000 0.0000 29.2480
#
#
#
# Elastic Compliance Matrix: (Units=1/GPa)
#
#
# Indices 1 2 3 4 5 6 
#
# 1 0.019251 -0.007439 -0.002611 0.000000 0.000000 0.000000
# 2 -0.007439 0.014266 -0.002983 0.000000 0.000000 0.000000
# 3 -0.002611 -0.002983 0.009470 0.000000 0.000000 0.000000
# 4 0.000000 0.000000 0.000000 0.038073 0.000000 0.000000
# 5 0.000000 0.000000 0.000000 0.000000 0.059122 0.000000
# 6 0.000000 0.000000 0.000000 0.000000 0.000000 0.034190
#
#
# Mechanical properties :
#
#
# Convention : Reuss Voigt Hill
#
# Bulk Modulus (GPa) = 59.09079 62.36973 60.73026
# Shear Modulus (GPa) = 24.26284 26.55881 25.41083
#
# Velocity S-wave (km/s) = 3.68560 3.85604 3.77179
# Velocity P-wave (km/s) = 7.15499 7.39888 7.27795
#
# Compressibility (1/GPa) = 0.01692311
#
# Stress axis : x y z
#
# Youngs Moduli (GPa) = 51.94404 70.09816 105.60047
#
# Poissons Ratio (x) = 0.52143 0.27567
# Poissons Ratio (y) = 0.38639 0.31499
# Poissons Ratio (z) = 0.13560 0.20909
#
# Static dielectric constant tensor:
#      x y z
#    x 3.188900 0.000000 0.000000 
#    y 0.000000 3.382630 0.000000 
#    z 0.000000 0.000000 3.445370 
# 
# 
# High freq. dielectric constant tensor:
#      x y z
#    x 1.671690 0.000000 0.000000 
#    y 0.000000 1.697430 0.000000 
#    z 0.000000 0.000000 1.683450 
# 
# From -- ./inp_files/12628.got.cif
#   From: 2010.03.12/outbox.cif.g09.slc.cpg/sg39_7_cif.got.tgz:12628.got - 2010.04.14 02:53:20.
