data_PCOD8180665
_publ_section_title
;
Structure prediction by ZEFSAII (Michael W. Deem and Ramdas Pophale) SiO2 
 PCOD8180665
Probable space group: A B M 2
;
_chemical_formula_sum "Si O2"
_cell_formula_units_Z 64
_cell_length_a 15.310734
_cell_length_b 8.792819
_cell_length_c 30.528530
_cell_angle_alpha 90.000000
_cell_angle_beta 90.000000
_cell_angle_gamma 90.000000
_cell_volume 4109.888478
_symmetry_space_group_name_H-M "A B M 2"
_symmetry_group_IT_number 39
_symmetry_cell_setting 'orthorhombic'
loop_
_space_group_symop_operation_xyz
x,y,z
-x,-y,z
-x,1/2+y,z
x,1/2-y,z
x,1/2+y,1/2+z
-x,1/2-y,1/2+z
-x,y,1/2+z
x,-y,1/2+z
loop_
_atom_site_type_symbol
_atom_site_label
_atom_site_fract_x
_atom_site_fract_y
_atom_site_fract_z
Si Si1 0.085683 0.080421 0.722400
Si Si2 0.404233 0.069111 0.888355
Si Si3 0.912486 0.578036 0.826621
Si Si4 0.594386 0.427248 0.561591
Si Si5 0.406108 0.573082 0.657977
Si Si6 0.261912 0.571749 0.723507
Si Si7 0.596691 0.569056 0.476736
Si Si8 0.267007 0.428986 0.324739
O O1 0.087113 0.250000 0.703954
O O2 0.082252 0.077491 0.774590
O O3 0.172080 0.997310 0.705541
O O4 0.000000 0.000000 0.702843
O O5 0.411580 0.250000 0.891635
O O6 0.500000 0.000000 0.880330
O O7 0.360590 0.000806 0.932831
O O8 0.342730 0.021594 0.848585
O O9 0.905861 0.750000 0.844650
O O10 0.827671 0.483464 0.842016
O O11 0.000000 0.500000 0.846030
O O12 0.500000 0.500000 0.565663
O O13 0.587085 0.250000 0.550023
O O14 0.636713 0.454458 0.609563
O O15 0.645532 0.511981 0.521434
O O16 0.500000 0.500000 0.664349
O O17 0.420236 0.750000 0.666091
O O18 0.340311 0.504479 0.694085
O O19 0.253591 0.750000 0.717260
O O20 0.278812 0.528801 0.773846
O O21 0.500000 0.500000 0.479077
O O22 0.596248 0.750000 0.473921
O O23 0.276531 0.250000 0.333503
#
# Coordination Sequence:
#
# PCOD8180665 Si02
#       8
#     8   8   8   8   8   8   8   8
#     4   9  16  26  42  62  82 106 137 175 218 260
#     4  11  21  33  46  61  84 114 148 182 216 255
#     4   9  16  27  43  63  84 108 139 176 219 261
#     4   9  15  25  41  60  81 105 135 171 213 255
#     4   9  18  30  43  60  84 115 148 180 212 248
#     4   9  18  31  44  60  85 116 148 181 214 249
#     4  10  17  27  43  62  82 104 134 172 216 259
#     4  10  19  31  45  62  86 116 149 183 217 253
#
# _framework density 15.572198999999999
#
# number of rings (size 3 to 8) (size 9 to 14) (size 15 to 20)
#    0.000    2.500    0.000    5.250    0.000    5.000 
#    0.000    1.250    0.000    0.000    0.000    0.000 
#    0.000    1.000    0.000    8.500    0.000    5.250 
#
# Total GULP energy -396596.300001 kJ/mol
# GULP energy per Si atom -12393.634375 kJ/mol
# Density = 1.553676 g / cm^3
# Si number density = 15.572199 Si / 1000 Ang^3
#
#
#
# Elastic Constant Matrix: (Units=GPa)
#
#
# Indices 1 2 3 4 5 6 
#
# 1 93.9419 42.4857 50.7213 0.0000 0.0000 0.0000
# 2 42.4857 105.1142 44.8105 0.0000 0.0000 0.0000
# 3 50.7213 44.8105 76.2106 0.0000 0.0000 0.0000
# 4 0.0000 0.0000 0.0000 16.2758 0.0000 0.0000
# 5 0.0000 0.0000 0.0000 0.0000 1.0667 0.0000
# 6 0.0000 0.0000 0.0000 0.0000 0.0000 25.3561
#
#
#
# Elastic Compliance Matrix: (Units=1/GPa)
#
#
# Indices 1 2 3 4 5 6 
#
# 1 0.017197 -0.002765 -0.009820 0.000000 0.000000 0.000000
# 2 -0.002765 0.013140 -0.005886 0.000000 0.000000 0.000000
# 3 -0.009820 -0.005886 0.023118 0.000000 0.000000 0.000000
# 4 0.000000 0.000000 0.000000 0.061441 0.000000 0.000000
# 5 0.000000 0.000000 0.000000 0.000000 0.937481 0.000000
# 6 0.000000 0.000000 0.000000 0.000000 0.000000 0.039438
#
#
# Mechanical properties :
#
#
# Convention : Reuss Voigt Hill
#
# Bulk Modulus (GPa) = 60.55479 61.25575 60.90527
# Shear Modulus (GPa) = 4.40815 17.68966 11.04890
#
# Velocity S-wave (km/s) = 1.68432 3.37408 2.66659
# Velocity P-wave (km/s) = 6.53861 7.38927 6.97692
#
# Compressibility (1/GPa) = 0.01651397
#
# Stress axis : x y z
#
# Youngs Moduli (GPa) = 58.14916 76.10236 43.25627
#
# Poissons Ratio (x) = 0.21039 0.42477
# Poissons Ratio (y) = 0.16076 0.25462
# Poissons Ratio (z) = 0.57102 0.44796
#
# Static dielectric constant tensor:
#      x y z
#    x 2.860730 0.000000 0.000000 
#    y 0.000000 3.142490 0.000000 
#    z 0.000000 0.000000 3.455070 
# 
# 
# High freq. dielectric constant tensor:
#      x y z
#    x 1.565160 0.000000 0.000000 
#    y 0.000000 1.615210 0.000000 
#    z 0.000000 0.000000 1.575360 
# 
# From -- ./inp_files/17947.got.cif
#   From: 2010.03.12/outbox.cif.g09.slc.cpg/sg39_9_cif.got.tgz:17947.got - 2010.04.14 02:53:20.
