data_PCOD8180920
_publ_section_title
;
Structure prediction by ZEFSAII (Michael W. Deem and Ramdas Pophale) SiO2 
 PCOD8180920
Probable space group: A B M 2
;
_chemical_formula_sum "Si O2"
_cell_formula_units_Z 56
_cell_length_a 5.129010
_cell_length_b 26.061878
_cell_length_c 22.845561
_cell_angle_alpha 90.000000
_cell_angle_beta 90.000000
_cell_angle_gamma 90.000000
_cell_volume 3053.803443
_symmetry_space_group_name_H-M "A B M 2"
_symmetry_group_IT_number 39
_symmetry_cell_setting 'orthorhombic'
loop_
_space_group_symop_operation_xyz
x,y,z
-x,-y,z
-x,1/2+y,z
x,1/2-y,z
x,1/2+y,1/2+z
-x,1/2-y,1/2+z
-x,y,1/2+z
x,-y,1/2+z
loop_
_atom_site_type_symbol
_atom_site_label
_atom_site_fract_x
_atom_site_fract_y
_atom_site_fract_z
Si Si1 0.836355 0.806734 0.754710
Si Si2 0.538232 0.439247 0.854936
Si Si3 0.838814 0.192548 0.116165
Si Si4 0.665045 0.368230 0.755276
Si Si5 0.336242 0.629405 0.617109
Si Si6 0.242484 0.966641 0.540074
Si Si7 0.040484 0.058697 0.916256
O O1 0.872971 0.750000 0.781913
O O2 0.850210 0.802754 0.685313
O O3 0.556510 0.827843 0.773526
O O4 0.062986 0.844341 0.776893
O O5 0.500000 0.500000 0.854566
O O6 0.612526 0.421064 0.789669
O O7 0.264084 0.415104 0.876355
O O8 0.757451 0.417628 0.900777
O O9 0.827559 0.250000 0.088935
O O10 0.590874 0.159751 0.095771
O O11 0.094889 0.163070 0.094309
O O12 0.664259 0.380133 0.686534
O O13 0.330915 0.573433 0.588809
O O14 0.128789 0.936871 0.483617
O O15 0.500000 0.000000 0.523061
O O16 0.000000 0.000000 0.565322
O O17 0.000000 0.000000 0.898065
#
# Coordination Sequence:
#
# PCOD8180920 Si02
#       7
#     8   8   8   8   8   8   8
#     4   9  17  30  48  70  98 130 164 201 237 280
#     4  10  19  32  50  72  98 127 160 200 239 281
#     4   9  17  31  50  72 100 131 166 207 243 284
#     4  10  19  31  48  75 104 128 158 195 245 303
#     4  10  20  32  49  77 105 131 163 197 249 308
#     4  11  21  35  53  73 101 133 167 206 243 288
#     4   9  18  33  51  69  90 124 172 210 231 264
#
# _framework density 18.337789999999998
#
# number of rings (size 3 to 8) (size 9 to 14) (size 15 to 20)
#    0.000    2.286    0.000    4.714    0.000    4.000 
#    0.000    2.143    0.000    0.000    0.000   20.000 
#    0.000    0.000    0.000    0.000    0.000    0.000 
#
# Total GULP energy -347033.649322 kJ/mol
# GULP energy per Si atom -12394.058904 kJ/mol
# Density = 1.829605 g / cm^3
# Si number density = 18.337790 Si / 1000 Ang^3
#
#
#
# Elastic Constant Matrix: (Units=GPa)
#
#
# Indices 1 2 3 4 5 6 
#
# 1 145.7033 42.0892 36.5349 0.0000 0.0000 0.0000
# 2 42.0892 72.9254 40.4724 0.0000 0.0000 0.0000
# 3 36.5349 40.4724 61.7709 0.0000 0.0000 0.0000
# 4 0.0000 0.0000 0.0000 5.1832 0.0000 0.0000
# 5 0.0000 0.0000 0.0000 0.0000 20.3247 0.0000
# 6 0.0000 0.0000 0.0000 0.0000 0.0000 27.1993
#
#
#
# Elastic Compliance Matrix: (Units=1/GPa)
#
#
# Indices 1 2 3 4 5 6 
#
# 1 0.008547 -0.003343 -0.002865 0.000000 0.000000 0.000000
# 2 -0.003343 0.022856 -0.012998 0.000000 0.000000 0.000000
# 3 -0.002865 -0.012998 0.026400 0.000000 0.000000 0.000000
# 4 0.000000 0.000000 0.000000 0.192931 0.000000 0.000000
# 5 0.000000 0.000000 0.000000 0.000000 0.049201 0.000000
# 6 0.000000 0.000000 0.000000 0.000000 0.000000 0.036766
#
#
# Mechanical properties :
#
#
# Convention : Reuss Voigt Hill
#
# Bulk Modulus (GPa) = 51.57078 57.62138 54.59608
# Shear Modulus (GPa) = 13.10355 21.29498 17.19927
#
# Velocity S-wave (km/s) = 2.67604 3.41143 3.06586
# Velocity P-wave (km/s) = 6.14263 6.85620 6.50920
#
# Compressibility (1/GPa) = 0.01939083
#
# Stress axis : x y z
#
# Youngs Moduli (GPa) = 116.99487 43.75275 37.87949
#
# Poissons Ratio (x) = 0.14627 0.10852
# Poissons Ratio (y) = 0.39113 0.49235
# Poissons Ratio (z) = 0.33519 0.56869
#
# Static dielectric constant tensor:
#      x y z
#    x 3.944070 0.000000 0.000000 
#    y 0.000000 3.236310 0.000000 
#    z 0.000000 0.000000 3.000960 
# 
# 
# High freq. dielectric constant tensor:
#      x y z
#    x 1.742740 0.000000 0.000000 
#    y 0.000000 1.687270 0.000000 
#    z 0.000000 0.000000 1.668700 
# 
# From -- ./inp_files/13594.got.cif
#   From: 2010.03.12/outbox.cif.g09.slc.cpg/sg39_7_cif.got.tgz:13594.got - 2010.04.14 02:53:20.
