data_PCOD8180399
_publ_section_title
;
Structure prediction by ZEFSAII (Michael W. Deem and Ramdas Pophale) SiO2 
 PCOD8180399
Probable space group: A M M 2
;
_chemical_formula_sum "Si O2"
_cell_formula_units_Z 48
_cell_length_a 14.497941
_cell_length_b 26.173405
_cell_length_c 5.205433
_cell_angle_alpha 90.000000
_cell_angle_beta 90.000000
_cell_angle_gamma 90.000000
_cell_volume 1975.256112
_symmetry_space_group_name_H-M "A M M 2"
_symmetry_group_IT_number 38
_symmetry_cell_setting 'orthorhombic'
loop_
_space_group_symop_operation_xyz
x,y,z
-x,-y,z
-x,y,z
x,-y,z
x,1/2+y,1/2+z
-x,1/2-y,1/2+z
-x,1/2+y,1/2+z
x,1/2-y,1/2+z
loop_
_atom_site_type_symbol
_atom_site_label
_atom_site_fract_x
_atom_site_fract_y
_atom_site_fract_z
Si Si1 0.896011 0.624775 0.748040
Si Si2 0.350664 0.217197 0.947725
Si Si3 0.602212 0.371479 0.764224
Si Si4 0.242014 0.853395 0.653631
Si Si5 0.894231 0.775069 0.961852
Si Si6 0.255560 0.940468 0.026606
O O1 0.893202 0.662873 0.503287
O O2 0.834834 0.574641 0.692320
O O3 0.000000 0.607958 0.814387
O O4 0.852616 0.654063 0.995550
O O5 0.371918 0.244395 0.679618
O O6 0.249301 0.189281 0.892785
O O7 0.410046 0.166753 0.018537
O O8 0.500000 0.383878 0.873452
O O9 0.651263 0.423980 0.675469
O O10 0.668240 0.343476 0.972653
O O11 0.249276 0.911144 0.756052
O O12 0.845346 0.744584 0.197657
O O13 0.000000 0.756128 0.941740
O O14 0.257233 0.000000 0.969834
#
# Coordination Sequence:
#
# PCOD8180399 Si02
#       6
#     8   8   8   8   8   8
#     4  10  23  42  67 100 139 186 244 300 359 433
#     4  11  22  42  68 105 151 198 234 279 345 423
#     4  10  23  45  71 103 141 186 242 300 362 441
#     4  10  23  42  68 103 141 191 239 300 361 436
#     4   9  19  35  58  91 130 170 214 266 324 392
#     4  10  24  46  67  96 137 183 237 307 384 444
#
# _framework density 24.300647000000001
#
# number of rings (size 3 to 8) (size 9 to 14) (size 15 to 20)
#    0.000    2.000    1.667    0.000    2.333    8.667 
#    0.000    0.000    0.000    0.000    0.000    0.000 
#    0.000    0.000    0.000    0.000    0.000    0.000 
#
# Total GULP energy -297313.988186 kJ/mol
# GULP energy per Si atom -12388.082841 kJ/mol
# Density = 2.424534 g / cm^3
# Si number density = 24.300647 Si / 1000 Ang^3
#
#
#
# Elastic Constant Matrix: (Units=GPa)
#
#
# Indices 1 2 3 4 5 6 
#
# 1 174.0236 24.9942 34.4843 0.0000 0.0000 0.0000
# 2 24.9942 151.4624 57.1165 0.0000 0.0000 0.0000
# 3 34.4843 57.1165 145.7652 0.0000 0.0000 0.0000
# 4 0.0000 0.0000 0.0000 36.8092 0.0000 0.0000
# 5 0.0000 0.0000 0.0000 0.0000 23.0136 0.0000
# 6 0.0000 0.0000 0.0000 0.0000 0.0000 16.7379
#
#
#
# Elastic Compliance Matrix: (Units=1/GPa)
#
#
# Indices 1 2 3 4 5 6 
#
# 1 0.006066 -0.000540 -0.001224 0.000000 0.000000 0.000000
# 2 -0.000540 0.007795 -0.002927 0.000000 0.000000 0.000000
# 3 -0.001224 -0.002927 0.008297 0.000000 0.000000 0.000000
# 4 0.000000 0.000000 0.000000 0.027167 0.000000 0.000000
# 5 0.000000 0.000000 0.000000 0.000000 0.043453 0.000000
# 6 0.000000 0.000000 0.000000 0.000000 0.000000 0.059745
#
#
# Mechanical properties :
#
#
# Convention : Reuss Voigt Hill
#
# Bulk Modulus (GPa) = 78.25998 78.27125 78.26561
# Shear Modulus (GPa) = 30.09114 38.95587 34.52351
#
# Velocity S-wave (km/s) = 3.52275 4.00819 3.77328
# Velocity P-wave (km/s) = 6.98721 7.32805 7.15966
#
# Compressibility (1/GPa) = 0.01277792
#
# Stress axis : x y z
#
# Youngs Moduli (GPa) = 164.84416 128.28712 120.53052
#
# Poissons Ratio (x) = 0.06922 0.14749
# Poissons Ratio (y) = 0.08895 0.35276
# Poissons Ratio (z) = 0.20172 0.37546
#
# Static dielectric constant tensor:
#      x y z
#    x 4.468300 0.000000 0.000000 
#    y 0.000000 3.918530 0.000000 
#    z 0.000000 0.000000 4.703410 
# 
# 
# High freq. dielectric constant tensor:
#      x y z
#    x 1.971230 0.000000 0.000000 
#    y 0.000000 1.936930 0.000000 
#    z 0.000000 0.000000 1.980270 
# 
# From -- ./inp_files/1318.got.cif
#   From: 2010.03.12/outbox.cif.g09.slc.cpg/sg38_1_cif.got.tgz:1318.got - 2010.04.14 02:38:36.
