data_PCOD8180554
_publ_section_title
;
Structure prediction by ZEFSAII (Michael W. Deem and Ramdas Pophale) SiO2 
 PCOD8180554
Probable space group: A M M 2
;
_chemical_formula_sum "Si O2"
_cell_formula_units_Z 64
_cell_length_a 28.391060
_cell_length_b 9.427855
_cell_length_c 14.112215
_cell_angle_alpha 90.000000
_cell_angle_beta 90.000000
_cell_angle_gamma 90.000000
_cell_volume 3777.371387
_symmetry_space_group_name_H-M "A M M 2"
_symmetry_group_IT_number 38
_symmetry_cell_setting 'orthorhombic'
loop_
_space_group_symop_operation_xyz
x,y,z
-x,-y,z
-x,y,z
x,-y,z
x,1/2+y,1/2+z
-x,1/2-y,1/2+z
-x,1/2+y,1/2+z
x,1/2-y,1/2+z
loop_
_atom_site_type_symbol
_atom_site_label
_atom_site_fract_x
_atom_site_fract_y
_atom_site_fract_z
Si Si1 0.873170 0.831857 0.571270
Si Si2 0.200258 0.832458 0.419079
Si Si3 0.873815 0.832600 0.265674
Si Si4 0.616481 0.664882 0.049556
Si Si5 0.305435 0.166169 0.398233
Si Si6 0.369300 0.834588 0.763955
Si Si7 0.052257 0.832180 0.419095
Si Si8 0.553620 0.164156 0.915842
O O1 0.827280 0.779593 0.512591
O O2 0.873687 0.752090 0.669380
O O3 0.919612 0.785023 0.512976
O O4 0.872215 0.000000 0.588398
O O5 0.172571 0.786733 0.324352
O O6 0.253253 0.772156 0.417322
O O7 0.201492 0.000000 0.424036
O O8 0.919837 0.784875 0.324945
O O9 0.874163 0.000000 0.245313
O O10 0.603452 0.500000 0.046276
O O11 0.623678 0.717264 0.156664
O O12 0.664044 0.698124 0.991741
O O13 0.572703 0.748263 0.005063
O O14 0.326146 0.247518 0.307836
O O15 0.304793 0.000000 0.373951
O O16 0.417082 0.800602 0.821133
O O17 0.356260 0.000000 0.768228
O O18 0.000000 0.763434 0.419399
O O19 0.048834 0.000000 0.418924
O O20 0.500000 0.208480 0.895524
O O21 0.558087 0.000000 0.942845
#
# Coordination Sequence:
#
# PCOD8180554 Si02
#       8
#     8   8   8   8   8   8   8   8
#     4   9  17  30  48  68  90 118 152 189 227 267
#     4   8  16  31  47  63  89 124 153 179 221 276
#     4   9  17  30  47  66  89 118 152 187 224 268
#     4   9  18  31  48  69  91 117 149 186 224 263
#     4   9  17  31  49  67  89 119 155 188 218 261
#     4   9  18  32  48  69  96 120 145 182 229 271
#     4   8  15  29  47  65  89 123 155 180 219 279
#     4   9  18  32  48  66  91 122 151 180 218 265
#
# _framework density 16.943000000000001
#
# number of rings (size 3 to 8) (size 9 to 14) (size 15 to 20)
#    0.000    3.250    0.000    1.500    0.000    2.750 
#    0.000    6.250    0.000    0.750    0.000    0.000 
#    0.000    0.000    0.000    0.000    0.000    0.000 
#
# Total GULP energy -396716.890948 kJ/mol
# GULP energy per Si atom -12397.402842 kJ/mol
# Density = 1.690444 g / cm^3
# Si number density = 16.943000 Si / 1000 Ang^3
#
#
#
# Elastic Constant Matrix: (Units=GPa)
#
#
# Indices 1 2 3 4 5 6 
#
# 1 150.3959 35.0261 69.4397 0.0000 0.0000 0.0000
# 2 35.0261 35.1171 45.2544 0.0000 0.0000 0.0000
# 3 69.4397 45.2544 157.0602 0.0000 0.0000 0.0000
# 4 0.0000 0.0000 0.0000 32.6643 0.0000 0.0000
# 5 0.0000 0.0000 0.0000 0.0000 14.5028 0.0000
# 6 0.0000 0.0000 0.0000 0.0000 0.0000 18.5013
#
#
#
# Elastic Compliance Matrix: (Units=1/GPa)
#
#
# Indices 1 2 3 4 5 6 
#
# 1 0.009134 -0.006213 -0.002248 0.000000 0.000000 0.000000
# 2 -0.006213 0.049521 -0.011522 0.000000 0.000000 0.000000
# 3 -0.002248 -0.011522 0.010681 0.000000 0.000000 0.000000
# 4 0.000000 0.000000 0.000000 0.030614 0.000000 0.000000
# 5 0.000000 0.000000 0.000000 0.000000 0.068952 0.000000
# 6 0.000000 0.000000 0.000000 0.000000 0.000000 0.054050
#
#
# Mechanical properties :
#
#
# Convention : Reuss Voigt Hill
#
# Bulk Modulus (GPa) = 34.04877 71.33484 52.69180
# Shear Modulus (GPa) = 18.33457 25.99055 22.16256
#
# Velocity S-wave (km/s) = 3.29315 3.92088 3.62064
# Velocity P-wave (km/s) = 5.88213 7.91783 6.97465
#
# Compressibility (1/GPa) = 0.02936964
#
# Stress axis : x y z
#
# Youngs Moduli (GPa) = 109.47909 20.19341 93.62687
#
# Poissons Ratio (x) = 0.12547 0.21048
# Poissons Ratio (y) = 0.68024 1.07873
# Poissons Ratio (z) = 0.24612 0.23266
#
# Static dielectric constant tensor:
#      x y z
#    x 3.700170 0.000000 0.000000 
#    y 0.000000 2.880870 0.000000 
#    z 0.000000 0.000000 3.149330 
# 
# 
# High freq. dielectric constant tensor:
#      x y z
#    x 1.660190 0.000000 0.000000 
#    y 0.000000 1.624410 0.000000 
#    z 0.000000 0.000000 1.655210 
# 
# From -- ./inp_files/15915.got.cif
#   From: 2010.03.12/outbox.cif.g09.slc.cpg/sg38_8_cif.got.tgz:15915.got - 2010.04.14 02:38:36.
