data_PCOD8180493
_publ_section_title
;
Structure prediction by ZEFSAII (Michael W. Deem and Ramdas Pophale) SiO2 
 PCOD8180493
Probable space group: A M M 2
;
_chemical_formula_sum "Si O2"
_cell_formula_units_Z 48
_cell_length_a 7.817242
_cell_length_b 9.322112
_cell_length_c 34.204781
_cell_angle_alpha 90.000000
_cell_angle_beta 90.000000
_cell_angle_gamma 90.000000
_cell_volume 2492.612033
_symmetry_space_group_name_H-M "A M M 2"
_symmetry_group_IT_number 38
_symmetry_cell_setting 'orthorhombic'
loop_
_space_group_symop_operation_xyz
x,y,z
-x,-y,z
-x,y,z
x,-y,z
x,1/2+y,1/2+z
-x,1/2-y,1/2+z
-x,1/2+y,1/2+z
x,1/2-y,1/2+z
loop_
_atom_site_type_symbol
_atom_site_label
_atom_site_fract_x
_atom_site_fract_y
_atom_site_fract_z
Si Si1 0.189168 0.829018 0.939020
Si Si2 0.199387 0.669534 0.123783
Si Si3 0.199621 0.661616 0.351438
Si Si4 0.305849 0.658331 0.779883
Si Si5 0.500000 0.828721 0.080092
Si Si6 0.195729 0.154142 0.709821
Si Si7 0.500000 0.330567 0.489828
O O1 0.235835 0.779075 0.894986
O O2 0.330006 0.766873 0.968888
O O3 0.000000 0.770955 0.950797
O O4 0.184378 0.000000 0.939309
O O5 0.223038 0.500000 0.115862
O O6 0.324938 0.761337 0.096484
O O7 0.265048 0.708211 0.167842
O O8 0.000000 0.713878 0.116279
O O9 0.269985 0.500000 0.347011
O O10 0.296229 0.760535 0.320812
O O11 0.000000 0.665200 0.341690
O O12 0.500000 0.648985 0.766482
O O13 0.226299 0.500000 0.785118
O O14 0.209437 0.734460 0.744664
O O15 0.500000 0.000000 0.086801
O O16 0.500000 0.786847 0.034606
O O17 0.000000 0.124345 0.701263
O O18 0.281201 0.000000 0.721463
O O19 0.500000 0.500000 0.484102
#
# Coordination Sequence:
#
# PCOD8180493 Si02
#       7
#     8   8   8   8   4   8   4
#     4   8  15  29  50  76 105 137 178 226 268 313
#     4   9  20  40  63  84 110 149 195 238 280 331
#     4   9  18  33  54  78 100 130 179 230 267 306
#     4  11  24  35  45  72 112 146 175 211 262 324
#     4  11  23  35  55  90 125 150 179 226 287 351
#     4   9  19  37  59  79  98 130 182 233 269 309
#     4   9  18  31  49  78 113 146 173 210 275 337
#
# _framework density 19.256907999999999
#
# number of rings (size 3 to 8) (size 9 to 14) (size 15 to 20)
#    0.000    2.667    0.000    3.250    2.333    5.667 
#    0.000    3.333    0.000    2.000    0.000    0.000 
#    0.000    0.000    0.000    0.000    0.000    0.000 
#
# Total GULP energy -297430.591913 kJ/mol
# GULP energy per Si atom -12392.941330 kJ/mol
# Density = 1.921308 g / cm^3
# Si number density = 19.256908 Si / 1000 Ang^3
#
#
#
# Elastic Constant Matrix: (Units=GPa)
#
#
# Indices 1 2 3 4 5 6 
#
# 1 94.8021 34.2646 63.5062 0.0000 0.0000 0.0000
# 2 34.2646 78.6586 55.4698 0.0000 0.0000 0.0000
# 3 63.5062 55.4698 148.6124 0.0000 0.0000 0.0000
# 4 0.0000 0.0000 0.0000 22.8736 0.0000 0.0000
# 5 0.0000 0.0000 0.0000 0.0000 35.2974 0.0000
# 6 0.0000 0.0000 0.0000 0.0000 0.0000 22.9136
#
#
#
# Elastic Compliance Matrix: (Units=1/GPa)
#
#
# Indices 1 2 3 4 5 6 
#
# 1 0.015211 -0.002772 -0.005466 0.000000 0.000000 0.000000
# 2 -0.002772 0.017760 -0.005444 0.000000 0.000000 0.000000
# 3 -0.005466 -0.005444 0.011097 0.000000 0.000000 0.000000
# 4 0.000000 0.000000 0.000000 0.043718 0.000000 0.000000
# 5 0.000000 0.000000 0.000000 0.000000 0.028331 0.000000
# 6 0.000000 0.000000 0.000000 0.000000 0.000000 0.043642
#
#
# Mechanical properties :
#
#
# Convention : Reuss Voigt Hill
#
# Bulk Modulus (GPa) = 59.86536 69.83938 64.85237
# Shear Modulus (GPa) = 25.94819 27.47243 26.71031
#
# Velocity S-wave (km/s) = 3.67478 3.78117 3.72835
# Velocity P-wave (km/s) = 7.01146 7.44372 7.23082
#
# Compressibility (1/GPa) = 0.01670415
#
# Stress axis : x y z
#
# Youngs Moduli (GPa) = 65.73974 56.30611 90.11693
#
# Poissons Ratio (x) = 0.15608 0.49255
# Poissons Ratio (y) = 0.18223 0.49064
# Poissons Ratio (z) = 0.35931 0.30656
#
# Static dielectric constant tensor:
#      x y z
#    x 3.589890 0.000000 0.000000 
#    y 0.000000 3.307900 0.000000 
#    z 0.000000 0.000000 3.522140 
# 
# 
# High freq. dielectric constant tensor:
#      x y z
#    x 1.753630 0.000000 0.000000 
#    y 0.000000 1.714760 0.000000 
#    z 0.000000 0.000000 1.750950 
# 
# From -- ./inp_files/24411.got.cif
#   From: 2010.03.12/outbox.cif.g09.slc.cpg/sg38_13_cif.got.tgz:24411.got - 2010.04.14 02:38:36.
