data_PCOD8180641
_publ_section_title
;
Structure prediction by ZEFSAII (Michael W. Deem and Ramdas Pophale) SiO2 
 PCOD8180641
Probable space group: A B M 2
;
_chemical_formula_sum "Si O2"
_cell_formula_units_Z 64
_cell_length_a 17.668606
_cell_length_b 8.946893
_cell_length_c 23.008887
_cell_angle_alpha 90.000000
_cell_angle_beta 90.000000
_cell_angle_gamma 90.000000
_cell_volume 3637.224778
_symmetry_space_group_name_H-M "A B M 2"
_symmetry_group_IT_number 39
_symmetry_cell_setting 'orthorhombic'
loop_
_space_group_symop_operation_xyz
x,y,z
-x,-y,z
-x,1/2+y,z
x,1/2-y,z
x,1/2+y,1/2+z
-x,1/2-y,1/2+z
-x,y,1/2+z
x,-y,1/2+z
loop_
_atom_site_type_symbol
_atom_site_label
_atom_site_fract_x
_atom_site_fract_y
_atom_site_fract_z
Si Si1 0.301452 0.084537 0.218840
Si Si2 0.923162 0.574156 0.777908
Si Si3 0.729508 0.079859 0.445567
Si Si4 0.356198 0.423884 0.614563
Si Si5 0.222437 0.926207 0.830800
Si Si6 0.785435 0.078433 0.565730
Si Si7 0.425837 0.575394 0.510121
Si Si8 0.132133 0.086168 0.171617
O O1 0.337305 0.250000 0.219392
O O2 0.288281 0.026437 0.284894
O O3 0.219429 0.088177 0.189523
O O4 0.357809 0.978820 0.182001
O O5 0.927354 0.750000 0.785543
O O6 0.855064 0.511276 0.816506
O O7 0.913354 0.534923 0.709156
O O8 0.000000 0.500000 0.801392
O O9 0.730580 0.250000 0.422357
O O10 0.793189 0.057859 0.496174
O O11 0.647059 0.038129 0.470787
O O12 0.748982 0.967058 0.394409
O O13 0.374294 0.250000 0.612871
O O14 0.274058 0.457440 0.588275
O O15 0.417317 0.509598 0.575216
O O16 0.206513 0.750000 0.825890
O O17 0.755966 0.250000 0.576916
O O18 0.864512 0.052122 0.601579
O O19 0.500000 0.500000 0.481225
O O20 0.439051 0.750000 0.515217
O O21 0.095633 0.250000 0.183398
#
# Coordination Sequence:
#
# PCOD8180641 Si02
#       8
#     8   8   8   8   8   8   8   8
#     4   8  15  28  44  64  93 124 152 189 237 284
#     4  11  21  33  50  72  99 129 163 205 254 305
#     4   9  18  32  50  73 100 132 169 209 250 294
#     4  10  17  25  43  70  95 120 153 192 236 285
#     4  10  20  33  50  73 100 132 171 212 251 294
#     4   8  15  28  45  66  95 126 153 189 236 282
#     4  10  20  34  51  72 100 131 164 204 253 304
#     4   8  14  27  46  68  94 122 152 188 235 286
#
# _framework density 17.595834
#
# number of rings (size 3 to 8) (size 9 to 14) (size 15 to 20)
#    0.000    2.750    0.000    5.250    0.000    7.500 
#    0.000    0.000    0.000    1.500    0.000    5.250 
#    0.000    0.000    0.000    0.000    0.000    0.000 
#
# Total GULP energy -396499.212004 kJ/mol
# GULP energy per Si atom -12390.600375 kJ/mol
# Density = 1.755579 g / cm^3
# Si number density = 17.595834 Si / 1000 Ang^3
#
#
#
# Elastic Constant Matrix: (Units=GPa)
#
#
# Indices 1 2 3 4 5 6 
#
# 1 55.4775 39.2550 33.1333 0.0000 0.0000 0.0000
# 2 39.2550 108.8257 47.1533 0.0000 0.0000 0.0000
# 3 33.1333 47.1533 116.3057 0.0000 0.0000 0.0000
# 4 0.0000 0.0000 0.0000 27.9809 0.0000 0.0000
# 5 0.0000 0.0000 0.0000 0.0000 14.5436 0.0000
# 6 0.0000 0.0000 0.0000 0.0000 0.0000 24.2157
#
#
#
# Elastic Compliance Matrix: (Units=1/GPa)
#
#
# Indices 1 2 3 4 5 6 
#
# 1 0.025903 -0.007456 -0.004356 0.000000 0.000000 0.000000
# 2 -0.007456 0.013293 -0.003265 0.000000 0.000000 0.000000
# 3 -0.004356 -0.003265 0.011163 0.000000 0.000000 0.000000
# 4 0.000000 0.000000 0.000000 0.035739 0.000000 0.000000
# 5 0.000000 0.000000 0.000000 0.000000 0.068759 0.000000
# 6 0.000000 0.000000 0.000000 0.000000 0.000000 0.041296
#
#
# Mechanical properties :
#
#
# Convention : Reuss Voigt Hill
#
# Bulk Modulus (GPa) = 49.49597 57.74357 53.61977
# Shear Modulus (GPa) = 21.45532 24.08585 22.77058
#
# Velocity S-wave (km/s) = 3.49569 3.70379 3.60125
# Velocity P-wave (km/s) = 6.66960 7.15393 6.91601
#
# Compressibility (1/GPa) = 0.02020367
#
# Stress axis : x y z
#
# Youngs Moduli (GPa) = 38.60580 75.22563 89.58189
#
# Poissons Ratio (x) = 0.56088 0.39025
# Poissons Ratio (y) = 0.28784 0.29252
# Poissons Ratio (z) = 0.16818 0.24564
#
# Static dielectric constant tensor:
#      x y z
#    x 3.015970 0.000000 0.000000 
#    y 0.000000 3.206920 0.000000 
#    z 0.000000 0.000000 3.522100 
# 
# 
# High freq. dielectric constant tensor:
#      x y z
#    x 1.635770 0.000000 0.000000 
#    y 0.000000 1.682980 0.000000 
#    z 0.000000 0.000000 1.674270 
# 
# From -- ./inp_files/16361.got.cif
#   From: 2010.03.12/outbox.cif.g09.slc.cpg/sg39_9_cif.got.tgz:16361.got - 2010.04.14 02:53:20.
