data_PCOD8180525
_publ_section_title
;
Structure prediction by ZEFSAII (Michael W. Deem and Ramdas Pophale) SiO2 
 PCOD8180525
Probable space group: A M M 2
;
_chemical_formula_sum "Si O2"
_cell_formula_units_Z 64
_cell_length_a 9.393844
_cell_length_b 21.461303
_cell_length_c 21.712426
_cell_angle_alpha 90.000000
_cell_angle_beta 90.000000
_cell_angle_gamma 90.000000
_cell_volume 4377.314806
_symmetry_space_group_name_H-M "A M M 2"
_symmetry_group_IT_number 38
_symmetry_cell_setting 'orthorhombic'
loop_
_space_group_symop_operation_xyz
x,y,z
-x,-y,z
-x,y,z
x,-y,z
x,1/2+y,1/2+z
-x,1/2-y,1/2+z
-x,1/2+y,1/2+z
x,1/2-y,1/2+z
loop_
_atom_site_type_symbol
_atom_site_label
_atom_site_fract_x
_atom_site_fract_y
_atom_site_fract_z
Si Si1 0.669250 0.331273 0.284240
Si Si2 0.840045 0.758114 0.060467
Si Si3 0.664372 0.071469 0.546243
Si Si4 0.669696 0.930616 0.879508
Si Si5 0.658707 0.268751 0.877350
Si Si6 0.341564 0.162722 0.979669
Si Si7 0.332973 0.673868 0.145105
Si Si8 0.159970 0.348568 0.958723
O O1 0.500000 0.333600 0.287252
O O2 0.730530 0.390549 0.322024
O O3 0.718537 0.266268 0.316216
O O4 0.723661 0.335810 0.214401
O O5 0.750732 0.732814 0.118102
O O6 0.000000 0.774372 0.081658
O O7 0.765320 0.820870 0.035249
O O8 0.841404 0.706878 0.007418
O O9 0.500000 0.081062 0.528201
O O10 0.702120 0.111235 0.607064
O O11 0.756862 0.092960 0.487790
O O12 0.699591 0.000000 0.561686
O O13 0.500000 0.932298 0.876011
O O14 0.715073 0.898699 0.944139
O O15 0.734720 0.000000 0.876347
O O16 0.500000 0.295746 0.865750
O O17 0.651051 0.218883 0.931671
O O18 0.762212 0.325547 0.896284
O O19 0.500000 0.151609 0.006844
O O20 0.500000 0.689402 0.143069
O O21 0.000000 0.369433 0.941913
#
# Coordination Sequence:
#
# PCOD8180525 Si02
#       8
#     8   8   8   8   8   8   8   8
#     4   8  14  23  36  55  78 105 133 158 187 222
#     4   9  16  25  37  53  72  95 125 161 199 233
#     4   9  17  27  38  54  77 105 134 161 189 221
#     4   8  13  21  35  57  82 104 128 159 190 220
#     4   8  13  23  38  54  73  96 122 154 192 231
#     4   8  13  22  37  55  73  95 123 155 192 229
#     4   9  16  26  39  55  77 104 133 162 188 219
#     4   9  16  25  38  55  72  93 124 161 199 233
#
# _framework density 14.620837
#
# number of rings (size 3 to 8) (size 9 to 14) (size 15 to 20)
#    0.000    3.500    0.000    2.250    0.000    3.750 
#    0.000    3.125    0.000    1.125    0.000    0.000 
#    0.000    1.000    0.000    8.000    0.000    4.125 
#
# Total GULP energy -396586.141144 kJ/mol
# GULP energy per Si atom -12393.316911 kJ/mol
# Density = 1.458756 g / cm^3
# Si number density = 14.620837 Si / 1000 Ang^3
#
#
#
# Elastic Constant Matrix: (Units=GPa)
#
#
# Indices 1 2 3 4 5 6 
#
# 1 64.4561 37.1256 40.5226 0.0000 0.0000 0.0000
# 2 37.1256 65.3663 67.7350 0.0000 0.0000 0.0000
# 3 40.5226 67.7350 78.6879 0.0000 0.0000 0.0000
# 4 0.0000 0.0000 0.0000 16.3738 0.0000 0.0000
# 5 0.0000 0.0000 0.0000 0.0000 8.5156 0.0000
# 6 0.0000 0.0000 0.0000 0.0000 0.0000 8.8605
#
#
#
# Elastic Compliance Matrix: (Units=1/GPa)
#
#
# Indices 1 2 3 4 5 6 
#
# 1 0.023324 -0.007412 -0.005631 0.000000 0.000000 0.000000
# 2 -0.007412 0.144008 -0.120146 0.000000 0.000000 0.000000
# 3 -0.005631 -0.120146 0.119030 0.000000 0.000000 0.000000
# 4 0.000000 0.000000 0.000000 0.061073 0.000000 0.000000
# 5 0.000000 0.000000 0.000000 0.000000 0.117432 0.000000
# 6 0.000000 0.000000 0.000000 0.000000 0.000000 0.112860
#
#
# Mechanical properties :
#
#
# Convention : Reuss Voigt Hill
#
# Bulk Modulus (GPa) = 50.03865 55.47516 52.75690
# Shear Modulus (GPa) = 5.87706 10.95845 8.41775
#
# Velocity S-wave (km/s) = 2.00708 2.74069 2.40205
# Velocity P-wave (km/s) = 6.29839 6.93109 6.62230
#
# Compressibility (1/GPa) = 0.01998455
#
# Stress axis : x y z
#
# Youngs Moduli (GPa) = 42.87486 6.94408 8.40123
#
# Poissons Ratio (x) = 0.05147 0.04731
# Poissons Ratio (y) = 0.31780 1.00937
# Poissons Ratio (z) = 0.24142 0.83430
#
# Static dielectric constant tensor:
#      x y z
#    x 2.823990 0.000000 0.000000 
#    y 0.000000 2.807680 0.000000 
#    z 0.000000 0.000000 2.829070 
# 
# 
# High freq. dielectric constant tensor:
#      x y z
#    x 1.540980 0.000000 0.000000 
#    y 0.000000 1.531920 0.000000 
#    z 0.000000 0.000000 1.533730 
# 
# From -- ./inp_files/17281.got.cif
#   From: 2010.03.12/outbox.cif.g09.slc.cpg/sg38_9_cif.got.tgz:17281.got - 2010.04.14 02:38:36.
