data_PCOD8180250
_publ_section_title
;
Structure prediction by ZEFSAII (Michael W. Deem and Ramdas Pophale) SiO2 
 PCOD8180250
Probable space group: A M M 2
;
_chemical_formula_sum "Si O2"
_cell_formula_units_Z 34
_cell_length_a 7.881638
_cell_length_b 7.630233
_cell_length_c 26.918981
_cell_angle_alpha 90.000000
_cell_angle_beta 90.000000
_cell_angle_gamma 90.000000
_cell_volume 1618.873448
_symmetry_space_group_name_H-M "A M M 2"
_symmetry_group_IT_number 38
_symmetry_cell_setting 'orthorhombic'
loop_
_space_group_symop_operation_xyz
x,y,z
-x,-y,z
-x,y,z
x,-y,z
x,1/2+y,1/2+z
-x,1/2-y,1/2+z
-x,1/2+y,1/2+z
x,1/2-y,1/2+z
loop_
_atom_site_type_symbol
_atom_site_label
_atom_site_fract_x
_atom_site_fract_y
_atom_site_fract_z
Si Si1 0.000000 0.288211 0.120281
Si Si2 0.693594 0.298295 0.448474
Si Si3 0.000000 0.000000 0.201664
Si Si4 0.807441 0.800146 0.842976
Si Si5 0.687599 0.802439 0.555689
Si Si6 0.687163 0.000000 0.275177
O O1 0.166740 0.220616 0.090435
O O2 0.000000 0.500000 0.128881
O O3 0.000000 0.181845 0.171376
O O4 0.500000 0.256062 0.435172
O O5 0.724666 0.500000 0.460468
O O6 0.800702 0.238540 0.400540
O O7 0.749782 0.198733 0.498408
O O8 0.829664 0.000000 0.233580
O O9 0.697564 0.673412 0.808915
O O10 0.000000 0.787419 0.824471
O O11 0.738233 0.000000 0.838327
O O12 0.500000 0.709397 0.561000
O O13 0.666366 0.000000 0.573143
O O14 0.500000 0.000000 0.250362
#
# Coordination Sequence:
#
# PCOD8180250 Si02
#       6
#     4   8   2   8   8   4
#     4  10  24  44  65  89 121 159 204 272 324 375
#     4   9  18  31  51  87 130 170 208 245 296 369
#     4  12  28  48  66  98 118 154 224 276 334 388
#     4  10  21  39  63  94 135 174 210 259 314 380
#     4   9  19  36  58  88 125 166 208 248 305 374
#     4  12  26  46  70  96 128 166 216 272 331 388
#
# _framework density 21.002258000000001
#
# number of rings (size 3 to 8) (size 9 to 14) (size 15 to 20)
#    0.000    2.118    1.176    0.706    4.941    3.294 
#    0.000    0.000    0.000    0.000    0.000    0.000 
#    0.000    0.000    0.000    0.000    0.000    0.000 
#
# Total GULP energy -210701.393949 kJ/mol
# GULP energy per Si atom -12394.199644 kJ/mol
# Density = 2.095446 g / cm^3
# Si number density = 21.002258 Si / 1000 Ang^3
#
#
#
# Elastic Constant Matrix: (Units=GPa)
#
#
# Indices 1 2 3 4 5 6 
#
# 1 135.7717 37.1240 70.4179 0.0000 0.0000 0.0000
# 2 37.1240 74.4846 44.5781 0.0000 0.0000 0.0000
# 3 70.4179 44.5781 118.9206 0.0000 0.0000 0.0000
# 4 0.0000 0.0000 0.0000 31.2431 0.0000 0.0000
# 5 0.0000 0.0000 0.0000 0.0000 15.2436 0.0000
# 6 0.0000 0.0000 0.0000 0.0000 0.0000 16.8914
#
#
#
# Elastic Compliance Matrix: (Units=1/GPa)
#
#
# Indices 1 2 3 4 5 6 
#
# 1 0.010860 -0.002016 -0.005675 0.000000 0.000000 0.000000
# 2 -0.002016 0.017683 -0.005435 0.000000 0.000000 0.000000
# 3 -0.005675 -0.005435 0.013806 0.000000 0.000000 0.000000
# 4 0.000000 0.000000 0.000000 0.032007 0.000000 0.000000
# 5 0.000000 0.000000 0.000000 0.000000 0.065601 0.000000
# 6 0.000000 0.000000 0.000000 0.000000 0.000000 0.059202
#
#
# Mechanical properties :
#
#
# Convention : Reuss Voigt Hill
#
# Bulk Modulus (GPa) = 62.11996 70.37967 66.24981
# Shear Modulus (GPa) = 21.66597 24.47943 23.07270
#
# Velocity S-wave (km/s) = 3.21534 3.41774 3.31808
# Velocity P-wave (km/s) = 6.58988 7.01126 6.80384
#
# Compressibility (1/GPa) = 0.01609789
#
# Stress axis : x y z
#
# Youngs Moduli (GPa) = 92.08241 56.55100 72.43019
#
# Poissons Ratio (x) = 0.11403 0.41102
# Poissons Ratio (y) = 0.18568 0.39363
# Poissons Ratio (z) = 0.52254 0.30733
#
# Static dielectric constant tensor:
#      x y z
#    x 3.991180 0.000000 0.000000 
#    y 0.000000 3.769420 0.000000 
#    z 0.000000 0.000000 3.656000 
# 
# 
# High freq. dielectric constant tensor:
#      x y z
#    x 1.827460 0.000000 0.000000 
#    y 0.000000 1.816230 0.000000 
#    z 0.000000 0.000000 1.800980 
# 
# From -- ./inp_files/23167.got.cif
#   From: 2010.03.12/outbox.cif.g09.slc.cpg/sg38_12_cif.got.tgz:23167.got - 2010.04.14 02:38:36.
