data_PCOD8180300
_publ_section_title
;
Structure prediction by ZEFSAII (Michael W. Deem and Ramdas Pophale) SiO2 
 PCOD8180300
Probable space group: A M M 2
;
_chemical_formula_sum "Si O2"
_cell_formula_units_Z 48
_cell_length_a 9.065518
_cell_length_b 17.042061
_cell_length_c 16.430502
_cell_angle_alpha 90.000000
_cell_angle_beta 90.000000
_cell_angle_gamma 90.000000
_cell_volume 2538.432226
_symmetry_space_group_name_H-M "A M M 2"
_symmetry_group_IT_number 38
_symmetry_cell_setting 'orthorhombic'
loop_
_space_group_symop_operation_xyz
x,y,z
-x,-y,z
-x,y,z
x,-y,z
x,1/2+y,1/2+z
-x,1/2-y,1/2+z
-x,1/2+y,1/2+z
x,1/2-y,1/2+z
loop_
_atom_site_type_symbol
_atom_site_label
_atom_site_fract_x
_atom_site_fract_y
_atom_site_fract_z
Si Si1 0.327450 0.657550 0.824150
Si Si2 0.324820 0.000000 0.055250
Si Si3 0.828488 0.351436 0.478631
Si Si4 0.325074 0.000000 0.241485
Si Si5 0.829059 0.313404 0.293105
Si Si6 0.670686 0.803605 0.506518
Si Si7 0.670538 0.090506 0.658259
O O1 0.500000 0.665656 0.806519
O O2 0.262780 0.577378 0.786311
O O3 0.250399 0.730330 0.779387
O O4 0.291897 0.656935 0.920006
O O5 0.500000 0.000000 0.047928
O O6 0.271992 0.000000 0.148561
O O7 0.262371 0.075975 0.011562
O O8 0.798534 0.346434 0.382728
O O9 0.769786 0.272896 0.521974
O O10 0.000000 0.362160 0.499025
O O11 0.500000 0.000000 0.248184
O O12 0.767864 0.377351 0.231372
O O13 0.000000 0.300099 0.276627
O O14 0.500000 0.778181 0.510406
O O15 0.712000 0.866432 0.574713
O O16 0.500000 0.103142 0.680694
O O17 0.709169 0.000000 0.645274
#
# Coordination Sequence:
#
# PCOD8180300 Si02
#       7
#     8   4   8   4   8   8   8
#     4   9  18  36  61  85 112 147 185 227 280 335
#     4  11  23  37  57  86 117 146 188 237 283 333
#     4  10  22  40  59  81 113 151 191 233 282 337
#     4   9  20  35  57  88 115 142 180 231 279 327
#     4  10  22  39  58  81 112 150 190 232 281 335
#     4   9  19  36  60  86 113 147 186 229 279 335
#     4  10  22  37  57  87 117 145 185 234 280 331
#
# _framework density 18.909310000000001
#
# number of rings (size 3 to 8) (size 9 to 14) (size 15 to 20)
#    0.000    2.333    0.000    1.250    4.667    3.000 
#    0.000    1.250    0.000    0.000    0.000    0.000 
#    0.000    0.000    0.000    0.000    0.000    0.000 
#
# Total GULP energy -297699.319753 kJ/mol
# GULP energy per Si atom -12404.138323 kJ/mol
# Density = 1.886627 g / cm^3
# Si number density = 18.909310 Si / 1000 Ang^3
#
#
#
# Elastic Constant Matrix: (Units=GPa)
#
#
# Indices 1 2 3 4 5 6 
#
# 1 75.1735 67.3416 49.6521 0.0000 0.0000 0.0000
# 2 67.3416 173.8851 79.7583 0.0000 0.0000 0.0000
# 3 49.6521 79.7583 90.5403 0.0000 0.0000 0.0000
# 4 0.0000 0.0000 0.0000 33.4118 0.0000 0.0000
# 5 0.0000 0.0000 0.0000 0.0000 23.2639 0.0000
# 6 0.0000 0.0000 0.0000 0.0000 0.0000 0.3857
#
#
#
# Elastic Compliance Matrix: (Units=1/GPa)
#
#
# Indices 1 2 3 4 5 6 
#
# 1 0.023492 -0.005351 -0.008169 0.000000 0.000000 0.000000
# 2 -0.005351 0.010869 -0.006640 0.000000 0.000000 0.000000
# 3 -0.008169 -0.006640 0.021374 0.000000 0.000000 0.000000
# 4 0.000000 0.000000 0.000000 0.029930 0.000000 0.000000
# 5 0.000000 0.000000 0.000000 0.000000 0.042985 0.000000
# 6 0.000000 0.000000 0.000000 0.000000 0.000000 2.592538
#
#
# Mechanical properties :
#
#
# Convention : Reuss Voigt Hill
#
# Bulk Modulus (GPa) = 64.87439 81.45589 73.16514
# Shear Modulus (GPa) = 1.80724 20.93541 11.37133
#
# Velocity S-wave (km/s) = 0.97868 3.33099 2.45493
# Velocity P-wave (km/s) = 5.97158 7.61345 6.84195
#
# Compressibility (1/GPa) = 0.01541440
#
# Stress axis : x y z
#
# Youngs Moduli (GPa) = 42.56852 92.00574 46.78501
#
# Poissons Ratio (x) = 0.49229 0.38220
# Poissons Ratio (y) = 0.22777 0.31067
# Poissons Ratio (z) = 0.34775 0.61095
#
# Static dielectric constant tensor:
#      x y z
#    x 3.389860 0.000000 0.000000 
#    y 0.000000 3.696770 0.000000 
#    z 0.000000 0.000000 3.527030 
# 
# 
# High freq. dielectric constant tensor:
#      x y z
#    x 1.724620 0.000000 0.000000 
#    y 0.000000 1.745330 0.000000 
#    z 0.000000 0.000000 1.739780 
# 
# From -- ./inp_files/12099.got.cif
#   From: 2010.03.12/outbox.cif.g09.slc.cpg/sg38_7_cif.got.tgz:12099.got - 2010.04.14 02:38:36.
