data_PCOD8180812
_publ_section_title
;
Structure prediction by ZEFSAII (Michael W. Deem and Ramdas Pophale) SiO2 
 PCOD8180812
Probable space group: A B M 2
;
_chemical_formula_sum "Si O2"
_cell_formula_units_Z 56
_cell_length_a 15.274676
_cell_length_b 8.909245
_cell_length_c 19.980377
_cell_angle_alpha 90.000000
_cell_angle_beta 90.000000
_cell_angle_gamma 90.000000
_cell_volume 2719.046203
_symmetry_space_group_name_H-M "A B M 2"
_symmetry_group_IT_number 39
_symmetry_cell_setting 'orthorhombic'
loop_
_space_group_symop_operation_xyz
x,y,z
-x,-y,z
-x,1/2+y,z
x,1/2-y,z
x,1/2+y,1/2+z
-x,1/2-y,1/2+z
-x,y,1/2+z
x,-y,1/2+z
loop_
_atom_site_type_symbol
_atom_site_label
_atom_site_fract_x
_atom_site_fract_y
_atom_site_fract_z
Si Si1 0.913303 0.573564 0.938330
Si Si2 0.679861 0.079634 0.752994
Si Si3 0.082692 0.425979 0.665298
Si Si4 0.127608 0.576183 0.800374
Si Si5 0.723872 0.426820 0.486113
Si Si6 0.590532 0.926059 0.385973
Si Si7 0.275498 0.924422 0.121445
O O1 0.925998 0.750000 0.938272
O O2 0.906274 0.516640 0.862892
O O3 0.000000 0.500000 0.971985
O O4 0.825889 0.526978 0.978601
O O5 0.673897 0.250000 0.726851
O O6 0.768894 0.053063 0.793432
O O7 0.604148 0.042310 0.806656
O O8 0.672373 0.973438 0.688192
O O9 0.069670 0.250000 0.674757
O O10 0.080715 0.508875 0.736139
O O11 0.172709 0.462321 0.627633
O O12 0.000000 0.500000 0.625347
O O13 0.102522 0.750000 0.809185
O O14 0.710283 0.250000 0.481111
O O15 0.669448 0.503345 0.427495
O O16 0.688856 0.485271 0.557602
O O17 0.587953 0.750000 0.400971
O O18 0.500000 0.000000 0.408926
O O19 0.293004 0.750000 0.110031
#
# Coordination Sequence:
#
# PCOD8180812 Si02
#       7
#     8   8   8   8   8   8   8
#     4  11  23  36  54  82 118 162 209 257 308 362
#     4   9  19  37  62  90 120 155 196 246 302 363
#     4  10  20  33  50  77 112 154 203 255 306 361
#     4  10  18  32  54  80 113 153 197 251 306 357
#     4  11  24  42  63  89 125 167 210 258 308 367
#     4  11  23  42  69 100 129 160 200 249 308 370
#     4  10  22  38  60  86 118 160 204 253 308 366
#
# _framework density 20.595458000000001
#
# number of rings (size 3 to 8) (size 9 to 14) (size 15 to 20)
#    0.000    1.714    1.429    3.000    0.000    5.714 
#    0.000    3.571    0.000    1.714    0.000    0.000 
#    0.000    0.000    0.000    0.000    0.000    0.000 
#
# Total GULP energy -347235.739177 kJ/mol
# GULP energy per Si atom -12401.276399 kJ/mol
# Density = 2.054858 g / cm^3
# Si number density = 20.595458 Si / 1000 Ang^3
#
#
#
# Elastic Constant Matrix: (Units=GPa)
#
#
# Indices 1 2 3 4 5 6 
#
# 1 69.6174 57.1691 31.5877 0.0000 0.0000 0.0000
# 2 57.1691 105.6525 46.4498 0.0000 0.0000 0.0000
# 3 31.5877 46.4498 91.1607 0.0000 0.0000 0.0000
# 4 0.0000 0.0000 0.0000 29.4908 0.0000 0.0000
# 5 0.0000 0.0000 0.0000 0.0000 7.9279 0.0000
# 6 0.0000 0.0000 0.0000 0.0000 0.0000 31.8214
#
#
#
# Elastic Compliance Matrix: (Units=1/GPa)
#
#
# Indices 1 2 3 4 5 6 
#
# 1 0.026251 -0.013152 -0.002395 0.000000 0.000000 0.000000
# 2 -0.013152 0.018786 -0.005015 0.000000 0.000000 0.000000
# 3 -0.002395 -0.005015 0.014355 0.000000 0.000000 0.000000
# 4 0.000000 0.000000 0.000000 0.033909 0.000000 0.000000
# 5 0.000000 0.000000 0.000000 0.000000 0.126138 0.000000
# 6 0.000000 0.000000 0.000000 0.000000 0.000000 0.031425
#
#
# Mechanical properties :
#
#
# Convention : Reuss Voigt Hill
#
# Bulk Modulus (GPa) = 54.73829 59.64932 57.19380
# Shear Modulus (GPa) = 16.77421 22.59627 19.68524
#
# Velocity S-wave (km/s) = 2.85697 3.31592 3.09496
# Velocity P-wave (km/s) = 6.12524 6.60951 6.37198
#
# Compressibility (1/GPa) = 0.01826875
#
# Stress axis : x y z
#
# Youngs Moduli (GPa) = 38.09412 53.23026 69.66256
#
# Poissons Ratio (x) = 0.70006 0.16683
# Poissons Ratio (y) = 0.50100 0.34938
# Poissons Ratio (z) = 0.09123 0.26696
#
# Static dielectric constant tensor:
#      x y z
#    x 3.817840 0.000000 0.000000 
#    y 0.000000 3.731530 0.000000 
#    z 0.000000 0.000000 3.553840 
# 
# 
# High freq. dielectric constant tensor:
#      x y z
#    x 1.794140 0.000000 0.000000 
#    y 0.000000 1.814820 0.000000 
#    z 0.000000 0.000000 1.799140 
# 
# From -- ./inp_files/14813.got.cif
#   From: 2010.03.12/outbox.cif.g09.slc.cpg/sg39_8_cif.got.tgz:14813.got - 2010.04.14 02:53:20.
