data_PCOD8180385
_publ_section_title
;
Structure prediction by ZEFSAII (Michael W. Deem and Ramdas Pophale) SiO2 
 PCOD8180385
Probable space group: A M M 2
;
_chemical_formula_sum "Si O2"
_cell_formula_units_Z 48
_cell_length_a 17.288136
_cell_length_b 14.738135
_cell_length_c 9.014966
_cell_angle_alpha 90.000000
_cell_angle_beta 90.000000
_cell_angle_gamma 90.000000
_cell_volume 2296.967201
_symmetry_space_group_name_H-M "A M M 2"
_symmetry_group_IT_number 38
_symmetry_cell_setting 'orthorhombic'
loop_
_space_group_symop_operation_xyz
x,y,z
-x,-y,z
-x,y,z
x,-y,z
x,1/2+y,1/2+z
-x,1/2-y,1/2+z
-x,1/2+y,1/2+z
x,1/2-y,1/2+z
loop_
_atom_site_type_symbol
_atom_site_label
_atom_site_fract_x
_atom_site_fract_y
_atom_site_fract_z
Si Si1 0.121924 0.746534 0.418400
Si Si2 0.348473 0.899675 0.220354
Si Si3 0.000000 0.894393 0.458777
Si Si4 0.232266 0.750239 0.168011
Si Si5 0.500000 0.649410 0.566635
Si Si6 0.000000 0.894600 0.811795
Si Si7 0.500000 0.344316 0.212687
Si Si8 0.346782 0.897693 0.556427
O O1 0.205363 0.749367 0.338290
O O2 0.149024 0.739549 0.588259
O O3 0.074892 0.656238 0.376534
O O4 0.074303 0.840216 0.395407
O O5 0.288116 0.834810 0.138355
O O6 0.425325 0.904281 0.122100
O O7 0.365995 0.864959 0.388279
O O8 0.312337 0.000000 0.225048
O O9 0.000000 0.888377 0.635405
O O10 0.000000 0.000000 0.405553
O O11 0.277526 0.659163 0.127543
O O12 0.500000 0.657753 0.389986
O O13 0.500000 0.745208 0.646130
O O14 0.000000 0.000000 0.863192
O O15 0.423626 0.394460 0.155623
O O16 0.316048 0.000000 0.554768
#
# Coordination Sequence:
#
# PCOD8180385 Si02
#       8
#     8   8   4   8   4   4   4   8
#     4  11  24  42  67  99 133 166 211 267 317 381
#     4  11  25  44  66  95 131 175 222 273 330 387
#     4  10  22  43  72  97 126 173 217 252 314 392
#     4  12  24  42  65  97 135 171 211 266 328 381
#     4  12  25  42  67  94 130 174 225 275 330 383
#     4  10  22  43  70  99 128 169 213 258 316 386
#     4  12  25  42  67  94 128 174 227 277 326 385
#     4  11  25  44  67  95 129 176 225 271 328 389
#
# _framework density 20.897119
#
# number of rings (size 3 to 8) (size 9 to 14) (size 15 to 20)
#    0.000    0.833    5.000    2.000    2.333    5.333 
#    0.000    0.833    0.000    0.000    0.000    0.000 
#    0.000    0.000    0.000    0.000    0.000    0.000 
#
# Total GULP energy -297620.424838 kJ/mol
# GULP energy per Si atom -12400.851035 kJ/mol
# Density = 2.084956 g / cm^3
# Si number density = 20.897119 Si / 1000 Ang^3
#
#
#
# Elastic Constant Matrix: (Units=GPa)
#
#
# Indices 1 2 3 4 5 6 
#
# 1 124.7145 57.8892 36.8353 0.0000 0.0000 0.0000
# 2 57.8892 154.4932 36.5527 0.0000 0.0000 0.0000
# 3 36.8353 36.5527 91.6134 0.0000 0.0000 0.0000
# 4 0.0000 0.0000 0.0000 29.4295 0.0000 0.0000
# 5 0.0000 0.0000 0.0000 0.0000 40.5747 0.0000
# 6 0.0000 0.0000 0.0000 0.0000 0.0000 2.2522
#
#
#
# Elastic Compliance Matrix: (Units=1/GPa)
#
#
# Indices 1 2 3 4 5 6 
#
# 1 0.010355 -0.003197 -0.002888 0.000000 0.000000 0.000000
# 2 -0.003197 0.008134 -0.001960 0.000000 0.000000 0.000000
# 3 -0.002888 -0.001960 0.012859 0.000000 0.000000 0.000000
# 4 0.000000 0.000000 0.000000 0.033980 0.000000 0.000000
# 5 0.000000 0.000000 0.000000 0.000000 0.024646 0.000000
# 6 0.000000 0.000000 0.000000 0.000000 0.000000 0.444007
#
#
# Mechanical properties :
#
#
# Convention : Reuss Voigt Hill
#
# Bulk Modulus (GPa) = 65.53842 70.37508 67.95675
# Shear Modulus (GPa) = 9.00646 30.42086 19.71366
#
# Velocity S-wave (km/s) = 2.07828 3.81956 3.07476
# Velocity P-wave (km/s) = 6.09832 7.29398 6.72278
#
# Compressibility (1/GPa) = 0.01525822
#
# Stress axis : x y z
#
# Youngs Moduli (GPa) = 96.56977 122.93446 77.76811
#
# Poissons Ratio (x) = 0.39300 0.22460
# Poissons Ratio (y) = 0.30872 0.15244
# Poissons Ratio (z) = 0.27890 0.24097
#
# Static dielectric constant tensor:
#      x y z
#    x 3.772210 0.000000 0.000000 
#    y 0.000000 3.796040 0.000000 
#    z 0.000000 0.000000 3.850890 
# 
# 
# High freq. dielectric constant tensor:
#      x y z
#    x 1.821150 0.000000 0.000000 
#    y 0.000000 1.822260 0.000000 
#    z 0.000000 0.000000 1.826070 
# 
# From -- ./inp_files/6240.got.cif
#   From: 2010.03.12/outbox.cif.g09.slc.cpg/sg38_4_cif.got.tgz:6240.got - 2010.04.14 02:38:36.
