data_PCOD8180768
_publ_section_title
;
Structure prediction by ZEFSAII (Michael W. Deem and Ramdas Pophale) SiO2 
 PCOD8180768
Probable space group: A B M 2
;
_chemical_formula_sum "Si O2"
_cell_formula_units_Z 40
_cell_length_a 9.928518
_cell_length_b 8.599448
_cell_length_c 25.428158
_cell_angle_alpha 90.000000
_cell_angle_beta 90.000000
_cell_angle_gamma 90.000000
_cell_volume 2171.050390
_symmetry_space_group_name_H-M "A B M 2"
_symmetry_group_IT_number 39
_symmetry_cell_setting 'orthorhombic'
loop_
_space_group_symop_operation_xyz
x,y,z
-x,-y,z
-x,1/2+y,z
x,1/2-y,z
x,1/2+y,1/2+z
-x,1/2-y,1/2+z
-x,y,1/2+z
x,-y,1/2+z
loop_
_atom_site_type_symbol
_atom_site_label
_atom_site_fract_x
_atom_site_fract_y
_atom_site_fract_z
Si Si1 0.850242 0.565468 0.464440
Si Si2 0.356979 0.065661 0.652218
Si Si3 0.149092 0.566085 0.571395
Si Si4 0.359822 0.432599 0.772133
Si Si5 0.148499 0.934416 0.357397
O O1 0.848086 0.750000 0.464824
O O2 0.781999 0.500576 0.517766
O O3 0.782725 0.501238 0.410926
O O4 0.000000 0.500000 0.464325
O O5 0.353350 0.250000 0.644543
O O6 0.331959 0.014303 0.712447
O O7 0.500000 0.000000 0.632480
O O8 0.238828 0.985765 0.620001
O O9 0.140919 0.750000 0.567806
O O10 0.000000 0.500000 0.579905
O O11 0.500000 0.500000 0.793253
O O12 0.371347 0.250000 0.775618
O O13 0.239194 0.493041 0.808909
O O14 0.140996 0.750000 0.361429
O O15 0.000000 0.000000 0.348029
#
# Coordination Sequence:
#
# PCOD8180768 Si02
#       5
#     8   8   8   8   8
#     4  10  18  31  51  76 104 137 171 211 260 312
#     4  10  20  37  56  78 106 140 177 216 262 315
#     4  11  21  35  55  80 107 139 175 218 263 311
#     4   9  20  36  55  76 104 138 174 212 257 308
#     4  10  19  33  52  78 106 136 172 213 256 306
#
# _framework density 18.424261999999999
#
# number of rings (size 3 to 8) (size 9 to 14) (size 15 to 20)
#    0.000    2.000    0.000    7.200    0.000    3.200 
#    0.000    3.000    0.000    2.400    0.000    0.000 
#    0.000    0.000    0.000    0.000    0.000    0.000 
#
# Total GULP energy -247974.730663 kJ/mol
# GULP energy per Si atom -12398.736533 kJ/mol
# Density = 1.838233 g / cm^3
# Si number density = 18.424262 Si / 1000 Ang^3
#
#
#
# Elastic Constant Matrix: (Units=GPa)
#
#
# Indices 1 2 3 4 5 6 
#
# 1 98.0028 42.1548 77.4688 0.0000 0.0000 0.0000
# 2 42.1548 120.0605 52.5854 0.0000 0.0000 0.0000
# 3 77.4688 52.5854 134.9502 0.0000 0.0000 0.0000
# 4 0.0000 0.0000 0.0000 28.8343 0.0000 0.0000
# 5 0.0000 0.0000 0.0000 0.0000 36.1906 0.0000
# 6 0.0000 0.0000 0.0000 0.0000 0.0000 29.2134
#
#
#
# Elastic Compliance Matrix: (Units=1/GPa)
#
#
# Indices 1 2 3 4 5 6 
#
# 1 0.019196 -0.002307 -0.010121 0.000000 0.000000 0.000000
# 2 -0.002307 0.010321 -0.002697 0.000000 0.000000 0.000000
# 3 -0.010121 -0.002697 0.014271 0.000000 0.000000 0.000000
# 4 0.000000 0.000000 0.000000 0.034681 0.000000 0.000000
# 5 0.000000 0.000000 0.000000 0.000000 0.027631 0.000000
# 6 0.000000 0.000000 0.000000 0.000000 0.000000 0.034231
#
#
# Mechanical properties :
#
#
# Convention : Reuss Voigt Hill
#
# Bulk Modulus (GPa) = 73.86749 77.49238 75.67993
# Shear Modulus (GPa) = 28.55611 30.90129 29.72870
#
# Velocity S-wave (km/s) = 3.94117 4.09981 4.02127
# Velocity P-wave (km/s) = 7.80320 8.03508 7.91999
#
# Compressibility (1/GPa) = 0.01353775
#
# Stress axis : x y z
#
# Youngs Moduli (GPa) = 52.09304 96.89413 70.07264
#
# Poissons Ratio (x) = 0.22357 0.70918
# Poissons Ratio (y) = 0.12020 0.18899
# Poissons Ratio (z) = 0.52722 0.26132
#
# Static dielectric constant tensor:
#      x y z
#    x 3.023830 0.000000 0.000000 
#    y 0.000000 3.471870 0.000000 
#    z 0.000000 0.000000 4.209320 
# 
# 
# High freq. dielectric constant tensor:
#      x y z
#    x 1.685950 0.000000 0.000000 
#    y 0.000000 1.730700 0.000000 
#    z 0.000000 0.000000 1.730860 
# 
# From -- ./inp_files/14354.got.cif
#   From: 2010.03.12/outbox.cif.g09.slc.cpg/sg39_8_cif.got.tgz:14354.got - 2010.04.14 02:53:20.
