data_PCOD8180670
_publ_section_title
;
Structure prediction by ZEFSAII (Michael W. Deem and Ramdas Pophale) SiO2 
 PCOD8180670
Probable space group: A B M 2
;
_chemical_formula_sum "Si O2"
_cell_formula_units_Z 64
_cell_length_a 20.991194
_cell_length_b 8.788524
_cell_length_c 19.299941
_cell_angle_alpha 90.000000
_cell_angle_beta 90.000000
_cell_angle_gamma 90.000000
_cell_volume 3560.484232
_symmetry_space_group_name_H-M "A B M 2"
_symmetry_group_IT_number 39
_symmetry_cell_setting 'orthorhombic'
loop_
_space_group_symop_operation_xyz
x,y,z
-x,-y,z
-x,1/2+y,z
x,1/2-y,z
x,1/2+y,1/2+z
-x,1/2-y,1/2+z
-x,y,1/2+z
x,-y,1/2+z
loop_
_atom_site_type_symbol
_atom_site_label
_atom_site_fract_x
_atom_site_fract_y
_atom_site_fract_z
Si Si1 0.193246 0.930607 0.913410
Si Si2 0.063584 0.930063 0.412523
Si Si3 0.694191 0.070505 0.500270
Si Si4 0.939795 0.927993 0.261830
Si Si5 0.800775 0.572876 0.256710
Si Si6 0.562787 0.579834 0.662724
Si Si7 0.308341 0.070258 0.159254
Si Si8 0.436281 0.077960 0.497832
O O1 0.185517 0.750000 0.914612
O O2 0.203859 0.992010 0.834803
O O3 0.128753 0.003662 0.945664
O O4 0.252765 0.981492 0.958198
O O5 0.062753 0.750000 0.420987
O O6 0.062815 0.979957 0.332975
O O7 0.000000 0.000000 0.449151
O O8 0.701345 0.250000 0.489389
O O9 0.702956 0.021161 0.580081
O O10 0.625016 0.017655 0.472917
O O11 0.950783 0.750000 0.276652
O O12 0.871736 0.954896 0.224438
O O13 0.000000 0.000000 0.219030
O O14 0.785991 0.750000 0.260472
O O15 0.748695 0.498523 0.205594
O O16 0.500000 0.500000 0.693705
O O17 0.564810 0.750000 0.691784
O O18 0.625582 0.493818 0.689113
O O19 0.560051 0.577127 0.580246
O O20 0.311735 0.250000 0.164573
O O21 0.431315 0.250000 0.469505
O O22 0.500000 0.000000 0.467171
#
# Coordination Sequence:
#
# PCOD8180670 Si02
#       8
#     8   8   8   8   8   8   8   8
#     4  10  19  32  49  69  95 125 157 192 231 275
#     4  10  17  27  44  67  93 119 152 192 233 274
#     4  10  19  30  47  71  96 123 155 191 233 279
#     4   9  15  25  42  65  91 118 151 189 229 270
#     4   8  16  30  48  68  90 121 156 189 228 272
#     4   9  16  26  42  66  92 118 150 188 229 270
#     4   9  17  31  49  68  92 122 155 190 229 274
#     4   9  16  27  44  66  92 120 152 191 231 272
#
# _framework density 17.975083999999999
#
# number of rings (size 3 to 8) (size 9 to 14) (size 15 to 20)
#    0.000    2.750    0.000    4.500    0.000    3.500 
#    0.000    3.750    0.000    1.500    0.000    5.250 
#    0.000    0.000    0.000    0.000    0.000    0.000 
#
# Total GULP energy -396576.408392 kJ/mol
# GULP energy per Si atom -12393.012762 kJ/mol
# Density = 1.793417 g / cm^3
# Si number density = 17.975084 Si / 1000 Ang^3
#
#
#
# Elastic Constant Matrix: (Units=GPa)
#
#
# Indices 1 2 3 4 5 6 
#
# 1 190.0683 53.3968 47.4033 0.0000 0.0000 0.0000
# 2 53.3968 89.0423 21.5456 0.0000 0.0000 0.0000
# 3 47.4033 21.5456 33.9336 0.0000 0.0000 0.0000
# 4 0.0000 0.0000 0.0000 10.2164 0.0000 0.0000
# 5 0.0000 0.0000 0.0000 0.0000 22.6851 0.0000
# 6 0.0000 0.0000 0.0000 0.0000 0.0000 37.8247
#
#
#
# Elastic Compliance Matrix: (Units=1/GPa)
#
#
# Indices 1 2 3 4 5 6 
#
# 1 0.008573 -0.002650 -0.010293 0.000000 0.000000 0.000000
# 2 -0.002650 0.014089 -0.005243 0.000000 0.000000 0.000000
# 3 -0.010293 -0.005243 0.047177 0.000000 0.000000 0.000000
# 4 0.000000 0.000000 0.000000 0.097882 0.000000 0.000000
# 5 0.000000 0.000000 0.000000 0.000000 0.044082 0.000000
# 6 0.000000 0.000000 0.000000 0.000000 0.000000 0.026438
#
#
# Mechanical properties :
#
#
# Convention : Reuss Voigt Hill
#
# Bulk Modulus (GPa) = 29.88119 61.97062 45.92591
# Shear Modulus (GPa) = 17.49672 26.85848 22.17760
#
# Velocity S-wave (km/s) = 3.12330 3.86969 3.51635
# Velocity P-wave (km/s) = 5.44669 7.38354 6.48780
#
# Compressibility (1/GPa) = 0.03346587
#
# Stress axis : x y z
#
# Youngs Moduli (GPa) = 116.64559 70.97923 21.19674
#
# Poissons Ratio (x) = 0.18812 0.21818
# Poissons Ratio (y) = 0.30916 0.11113
# Poissons Ratio (z) = 1.20065 0.37214
#
# Static dielectric constant tensor:
#      x y z
#    x 2.398240 0.000000 0.000000 
#    y 0.000000 3.339670 0.000000 
#    z 0.000000 0.000000 2.863840 
# 
# 
# High freq. dielectric constant tensor:
#      x y z
#    x 1.724890 0.000000 0.000000 
#    y 0.000000 1.697960 0.000000 
#    z 0.000000 0.000000 1.621570 
# 
# From -- ./inp_files/13185.got.cif
#   From: 2010.03.12/outbox.cif.g09.slc.cpg/sg39_7_cif.got.tgz:13185.got - 2010.04.14 02:53:20.
