data_PCOD8180388
_publ_section_title
;
Structure prediction by ZEFSAII (Michael W. Deem and Ramdas Pophale) SiO2 
 PCOD8180388
Probable space group: A M M 2
;
_chemical_formula_sum "Si O2"
_cell_formula_units_Z 64
_cell_length_a 9.347723
_cell_length_b 14.764822
_cell_length_c 24.118805
_cell_angle_alpha 90.000000
_cell_angle_beta 90.000000
_cell_angle_gamma 90.000000
_cell_volume 3328.816354
_symmetry_space_group_name_H-M "A M M 2"
_symmetry_group_IT_number 38
_symmetry_cell_setting 'orthorhombic'
loop_
_space_group_symop_operation_xyz
x,y,z
-x,-y,z
-x,y,z
x,-y,z
x,1/2+y,1/2+z
-x,1/2-y,1/2+z
-x,1/2+y,1/2+z
x,1/2-y,1/2+z
loop_
_atom_site_type_symbol
_atom_site_label
_atom_site_fract_x
_atom_site_fract_y
_atom_site_fract_z
Si Si1 0.155949 0.893133 0.413250
Si Si2 0.665798 0.239572 0.611010
Si Si3 0.332237 0.896792 0.830013
Si Si4 0.158311 0.607435 0.434022
Si Si5 0.663909 0.744364 0.238287
Si Si6 0.831940 0.104571 0.057701
Si Si7 0.170398 0.396836 0.793689
Si Si8 0.169223 0.605212 0.033157
O O1 0.233085 0.867815 0.355009
O O2 0.229579 0.865264 0.471658
O O3 0.000000 0.846940 0.412715
O O4 0.134727 0.000000 0.413948
O O5 0.500000 0.244533 0.593847
O O6 0.683766 0.213831 0.675232
O O7 0.739098 0.336446 0.600008
O O8 0.744456 0.160807 0.578067
O O9 0.500000 0.893001 0.839364
O O10 0.262176 0.855503 0.886004
O O11 0.283447 0.837985 0.777257
O O12 0.280781 0.000000 0.819508
O O13 0.158139 0.500000 0.434883
O O14 0.206180 0.639143 0.495394
O O15 0.000000 0.644224 0.420822
O O16 0.500000 0.769001 0.251295
O O17 0.758458 0.833264 0.248175
O O18 0.000000 0.118348 0.069228
O O19 0.789245 0.000000 0.066328
O O20 0.212913 0.500000 0.779646
O O21 0.000000 0.385663 0.792655
O O22 0.199668 0.500000 0.044430
O O23 0.000000 0.625835 0.037415
#
# Coordination Sequence:
#
# PCOD8180388 Si02
#       8
#     8   8   8   8   8   8   8   8
#     4   7  12  27  52  80 106 130 160 202 257 317
#     4  11  24  38  52  74 106 144 184 223 261 306
#     4   9  18  34  55  76 101 136 174 211 254 307
#     4   8  15  30  53  81 108 131 161 206 262 318
#     4  10  23  39  51  70 103 142 181 217 257 304
#     4   9  19  37  59  80 105 138 173 214 266 319
#     4   9  18  34  57  82 105 132 168 210 257 310
#     4   9  18  35  59  83 108 139 173 213 262 314
#
# _framework density 19.226053
#
# number of rings (size 3 to 8) (size 9 to 14) (size 15 to 20)
#    0.000    3.000    0.000    2.625    0.000    4.750 
#    0.000    9.375    0.000    3.750    0.000    0.000 
#    0.000    0.000    0.000    0.000    0.000    0.000 
#
# Total GULP energy -396555.469933 kJ/mol
# GULP energy per Si atom -12392.358435 kJ/mol
# Density = 1.918229 g / cm^3
# Si number density = 19.226053 Si / 1000 Ang^3
#
#
#
# Elastic Constant Matrix: (Units=GPa)
#
#
# Indices 1 2 3 4 5 6 
#
# 1 49.0538 24.8721 27.3899 0.0000 0.0000 0.0000
# 2 24.8721 51.9254 13.6835 0.0000 0.0000 0.0000
# 3 27.3899 13.6835 75.6642 0.0000 0.0000 0.0000
# 4 0.0000 0.0000 0.0000 33.0864 0.0000 0.0000
# 5 0.0000 0.0000 0.0000 0.0000 30.4650 0.0000
# 6 0.0000 0.0000 0.0000 0.0000 0.0000 23.7762
#
#
#
# Elastic Compliance Matrix: (Units=1/GPa)
#
#
# Indices 1 2 3 4 5 6 
#
# 1 0.032138 -0.012945 -0.009293 0.000000 0.000000 0.000000
# 2 -0.012945 0.025436 0.000086 0.000000 0.000000 0.000000
# 3 -0.009293 0.000086 0.016565 0.000000 0.000000 0.000000
# 4 0.000000 0.000000 0.000000 0.030224 0.000000 0.000000
# 5 0.000000 0.000000 0.000000 0.000000 0.032825 0.000000
# 6 0.000000 0.000000 0.000000 0.000000 0.000000 0.042059
#
#
# Mechanical properties :
#
#
# Convention : Reuss Voigt Hill
#
# Bulk Modulus (GPa) = 33.51720 34.28159 33.89940
# Shear Modulus (GPa) = 21.41368 24.84538 23.12953
#
# Velocity S-wave (km/s) = 3.34096 3.59872 3.47224
# Velocity P-wave (km/s) = 5.68804 5.92767 5.80909
#
# Compressibility (1/GPa) = 0.02983543
#
# Stress axis : x y z
#
# Youngs Moduli (GPa) = 31.11558 39.31370 60.36957
#
# Poissons Ratio (x) = 0.50893 0.56100
# Poissons Ratio (y) = 0.40280 -0.00519
# Poissons Ratio (z) = 0.28915 -0.00338
#
# Static dielectric constant tensor:
#      x y z
#    x 3.332190 0.000000 0.000000 
#    y 0.000000 3.397930 0.000000 
#    z 0.000000 0.000000 3.724520 
# 
# 
# High freq. dielectric constant tensor:
#      x y z
#    x 1.719210 0.000000 0.000000 
#    y 0.000000 1.744580 0.000000 
#    z 0.000000 0.000000 1.754070 
# 
# From -- ./inp_files/22163.got.cif
#   From: 2010.03.12/outbox.cif.g09.slc.cpg/sg38_12_cif.got.tgz:22163.got - 2010.04.14 02:38:36.
