data_PCOD8180715
_publ_section_title
;
Structure prediction by ZEFSAII (Michael W. Deem and Ramdas Pophale) SiO2 
 PCOD8180715
Probable space group: A B M 2
;
_chemical_formula_sum "Si O2"
_cell_formula_units_Z 64
_cell_length_a 14.309252
_cell_length_b 8.726954
_cell_length_c 31.427992
_cell_angle_alpha 90.000000
_cell_angle_beta 90.000000
_cell_angle_gamma 90.000000
_cell_volume 3924.607711
_symmetry_space_group_name_H-M "A B M 2"
_symmetry_group_IT_number 39
_symmetry_cell_setting 'orthorhombic'
loop_
_space_group_symop_operation_xyz
x,y,z
-x,-y,z
-x,1/2+y,z
x,1/2-y,z
x,1/2+y,1/2+z
-x,1/2-y,1/2+z
-x,y,1/2+z
x,-y,1/2+z
loop_
_atom_site_type_symbol
_atom_site_label
_atom_site_fract_x
_atom_site_fract_y
_atom_site_fract_z
Si Si1 0.898609 0.928851 0.533280
Si Si2 0.775589 0.568794 0.455464
Si Si3 0.898368 0.570686 0.626686
Si Si4 0.403725 0.568418 0.828600
Si Si5 0.896666 0.568258 0.210855
Si Si6 0.596613 0.068572 0.420997
Si Si7 0.209926 0.931292 0.793353
Si Si8 0.101351 0.930956 0.875148
O O1 0.914098 0.750000 0.527107
O O2 0.826503 0.990413 0.498201
O O3 0.853945 0.963665 0.580189
O O4 0.000000 0.000000 0.526537
O O5 0.757319 0.750000 0.456032
O O6 0.677489 0.480743 0.453475
O O7 0.838018 0.518554 0.415530
O O8 0.903815 0.750000 0.636154
O O9 0.847510 0.489108 0.666767
O O10 0.000000 0.500000 0.624940
O O11 0.500000 0.500000 0.809789
O O12 0.413014 0.750000 0.832986
O O13 0.381586 0.501451 0.874861
O O14 0.318690 0.520280 0.797536
O O15 0.903329 0.750000 0.210941
O O16 0.832186 0.505743 0.249248
O O17 0.000000 0.500000 0.216295
O O18 0.589029 0.250000 0.417448
O O19 0.500000 0.000000 0.438892
O O20 0.202222 0.750000 0.794779
O O21 0.150314 0.998341 0.832764
O O22 0.092412 0.750000 0.872693
O O23 0.000000 0.000000 0.880308
#
# Coordination Sequence:
#
# PCOD8180715 Si02
#       8
#     8   8   8   8   8   8   8   8
#     4   9  18  30  47  69  95 126 158 193 233 275
#     4  10  19  33  49  66  93 126 156 190 234 274
#     4   9  16  28  44  65  91 120 154 193 233 270
#     4  10  18  33  51  68  91 119 152 193 237 277
#     4  10  18  29  45  66  91 123 157 190 230 271
#     4  11  21  33  50  71  92 119 155 195 235 276
#     4   9  18  31  46  64  91 124 153 187 231 274
#     4  10  19  31  44  61  90 126 156 186 222 264
#
# _framework density 16.307362999999999
#
# number of rings (size 3 to 8) (size 9 to 14) (size 15 to 20)
#    0.000    2.250    1.250    4.500    0.000    1.500 
#    0.000    3.125    0.000    0.000    0.000    0.875 
#    0.000    4.000    0.000    0.000    0.000    0.000 
#
# Total GULP energy -396659.988015 kJ/mol
# GULP energy per Si atom -12395.624625 kJ/mol
# Density = 1.627025 g / cm^3
# Si number density = 16.307363 Si / 1000 Ang^3
#
#
#
# Elastic Constant Matrix: (Units=GPa)
#
#
# Indices 1 2 3 4 5 6 
#
# 1 116.8029 36.7856 68.0301 0.0000 0.0000 0.0000
# 2 36.7856 63.6662 37.3786 0.0000 0.0000 0.0000
# 3 68.0301 37.3786 141.5234 0.0000 0.0000 0.0000
# 4 0.0000 0.0000 0.0000 16.7982 0.0000 0.0000
# 5 0.0000 0.0000 0.0000 0.0000 11.5346 0.0000
# 6 0.0000 0.0000 0.0000 0.0000 0.0000 25.2725
#
#
#
# Elastic Compliance Matrix: (Units=1/GPa)
#
#
# Indices 1 2 3 4 5 6 
#
# 1 0.012900 -0.004513 -0.005009 0.000000 0.000000 0.000000
# 2 -0.004513 0.020168 -0.003157 0.000000 0.000000 0.000000
# 3 -0.005009 -0.003157 0.010308 0.000000 0.000000 0.000000
# 4 0.000000 0.000000 0.000000 0.059530 0.000000 0.000000
# 5 0.000000 0.000000 0.000000 0.000000 0.086696 0.000000
# 6 0.000000 0.000000 0.000000 0.000000 0.000000 0.039569
#
#
# Mechanical properties :
#
#
# Convention : Reuss Voigt Hill
#
# Bulk Modulus (GPa) = 55.50207 67.37567 61.43887
# Shear Modulus (GPa) = 19.19126 22.70759 20.94943
#
# Velocity S-wave (km/s) = 3.43424 3.73564 3.58810
# Velocity P-wave (km/s) = 7.05933 7.74677 7.41103
#
# Compressibility (1/GPa) = 0.01801735
#
# Stress axis : x y z
#
# Youngs Moduli (GPa) = 77.51825 49.58337 97.01345
#
# Poissons Ratio (x) = 0.22375 0.48596
# Poissons Ratio (y) = 0.34981 0.30632
# Poissons Ratio (z) = 0.38831 0.15656
#
# Static dielectric constant tensor:
#      x y z
#    x 3.086490 0.000000 0.000000 
#    y 0.000000 3.052030 0.000000 
#    z 0.000000 0.000000 3.649350 
# 
# 
# High freq. dielectric constant tensor:
#      x y z
#    x 1.607230 0.000000 0.000000 
#    y 0.000000 1.626220 0.000000 
#    z 0.000000 0.000000 1.622500 
# 
# From -- ./inp_files/17970.got.cif
#   From: 2010.03.12/outbox.cif.g09.slc.cpg/sg39_9_cif.got.tgz:17970.got - 2010.04.14 02:53:20.
