data_PCOD8180019
_publ_section_title
;
Structure prediction by ZEFSAII (Michael W. Deem and Ramdas Pophale) SiO2 
 PCOD8180019
Probable space group: A M M 2
;
_chemical_formula_sum "Si O2"
_cell_formula_units_Z 64
_cell_length_a 23.768103
_cell_length_b 8.642206
_cell_length_c 15.407619
_cell_angle_alpha 90.000000
_cell_angle_beta 90.000000
_cell_angle_gamma 90.000000
_cell_volume 3164.861182
_symmetry_space_group_name_H-M "A M M 2"
_symmetry_group_IT_number 38
_symmetry_cell_setting 'orthorhombic'
loop_
_space_group_symop_operation_xyz
x,y,z
-x,-y,z
-x,y,z
x,-y,z
x,1/2+y,1/2+z
-x,1/2-y,1/2+z
-x,1/2+y,1/2+z
x,1/2-y,1/2+z
loop_
_atom_site_type_symbol
_atom_site_label
_atom_site_fract_x
_atom_site_fract_y
_atom_site_fract_z
Si Si1 0.236145 0.182220 0.592640
Si Si2 0.437529 0.684029 0.929382
Si Si3 0.936731 0.178102 0.487570
Si Si4 0.434796 0.180088 0.234713
Si Si5 0.826476 0.820857 0.932353
Si Si6 0.172080 0.679571 0.754528
Si Si7 0.363062 0.817886 0.584386
Si Si8 0.063437 0.177557 0.691219
O O1 0.205816 0.218245 0.502534
O O2 0.205719 0.269603 0.670132
O O3 0.299788 0.246321 0.588172
O O4 0.233240 0.000000 0.610357
O O5 0.500000 0.749011 0.949740
O O6 0.439366 0.500000 0.934300
O O7 0.419071 0.733047 0.832464
O O8 0.394547 0.754424 0.000187
O O9 0.893276 0.286637 0.436689
O O10 0.928369 0.204075 0.589437
O O11 0.000000 0.225341 0.460185
O O12 0.924926 0.000000 0.463505
O O13 0.500000 0.216392 0.215527
O O14 0.395986 0.277800 0.171472
O O15 0.422029 0.000000 0.221016
O O16 0.804387 0.773304 0.837278
O O17 0.814440 0.000000 0.949833
O O18 0.181550 0.500000 0.771879
O O19 0.105732 0.711899 0.742525
O O20 0.361213 0.000000 0.573648
O O21 0.000000 0.220438 0.719102
O O22 0.077209 0.000000 0.714627
#
# Coordination Sequence:
#
# PCOD8180019 Si02
#       8
#     8   8   8   8   8   8   8   8
#     4  11  24  43  61  84 120 155 199 256 304 352
#     4   8  15  31  55  83 116 152 188 225 273 337
#     4   9  18  35  61  90 121 155 189 234 293 354
#     4   9  18  33  55  85 121 157 192 235 283 334
#     4  12  25  41  63  89 117 155 198 245 301 359
#     4  12  25  41  63  88 115 156 202 246 298 356
#     4  10  21  36  59  86 112 150 195 241 291 343
#     4   9  18  35  61  90 121 154 187 235 297 355
#
# _framework density 20.222057
#
# number of rings (size 3 to 8) (size 9 to 14) (size 15 to 20)
#    0.000    2.000    1.250    4.500    0.000    3.750 
#    0.000    3.125    0.000    0.750    0.000    0.000 
#    0.000    0.000    0.000    0.000    0.000    0.000 
#
# Total GULP energy -396853.588505 kJ/mol
# GULP energy per Si atom -12401.674641 kJ/mol
# Density = 2.017603 g / cm^3
# Si number density = 20.222057 Si / 1000 Ang^3
#
#
#
# Elastic Constant Matrix: (Units=GPa)
#
#
# Indices 1 2 3 4 5 6 
#
# 1 112.5497 13.9030 52.9748 0.0000 0.0000 0.0000
# 2 13.9030 45.0479 7.0061 0.0000 0.0000 0.0000
# 3 52.9748 7.0061 109.8850 0.0000 0.0000 0.0000
# 4 0.0000 0.0000 0.0000 30.7354 0.0000 0.0000
# 5 0.0000 0.0000 0.0000 0.0000 3.6507 0.0000
# 6 0.0000 0.0000 0.0000 0.0000 0.0000 22.3946
#
#
#
# Elastic Compliance Matrix: (Units=1/GPa)
#
#
# Indices 1 2 3 4 5 6 
#
# 1 0.011831 -0.002792 -0.005525 0.000000 0.000000 0.000000
# 2 -0.002792 0.023080 -0.000126 0.000000 0.000000 0.000000
# 3 -0.005525 -0.000126 0.011772 0.000000 0.000000 0.000000
# 4 0.000000 0.000000 0.000000 0.032536 0.000000 0.000000
# 5 0.000000 0.000000 0.000000 0.000000 0.273920 0.000000
# 6 0.000000 0.000000 0.000000 0.000000 0.000000 0.044654
#
#
# Mechanical properties :
#
#
# Convention : Reuss Voigt Hill
#
# Bulk Modulus (GPa) = 33.56071 46.13894 39.84982
# Shear Modulus (GPa) = 11.77550 24.26270 18.01910
#
# Velocity S-wave (km/s) = 2.41573 3.46759 2.98830
# Velocity P-wave (km/s) = 4.94096 6.23682 5.62632
#
# Compressibility (1/GPa) = 0.02979675
#
# Stress axis : x y z
#
# Youngs Moduli (GPa) = 84.52697 43.32796 84.94593
#
# Poissons Ratio (x) = 0.12097 0.46936
# Poissons Ratio (y) = 0.23599 0.01067
# Poissons Ratio (z) = 0.46705 0.00544
#
# Static dielectric constant tensor:
#      x y z
#    x 3.916830 0.000000 0.000000 
#    y 0.000000 3.356440 0.000000 
#    z 0.000000 0.000000 3.735070 
# 
# 
# High freq. dielectric constant tensor:
#      x y z
#    x 1.788730 0.000000 0.000000 
#    y 0.000000 1.766970 0.000000 
#    z 0.000000 0.000000 1.798630 
# 
# From -- ./inp_files/15826.got.cif
#   From: 2010.03.12/outbox.cif.g09.slc.cpg/sg38_8_cif.got.tgz:15826.got - 2010.04.14 02:38:36.
