data_PCOD8180667
_publ_section_title
;
Structure prediction by ZEFSAII (Michael W. Deem and Ramdas Pophale) SiO2 
 PCOD8180667
Probable space group: A B M 2
;
_chemical_formula_sum "Si O2"
_cell_formula_units_Z 64
_cell_length_a 15.352459
_cell_length_b 8.876474
_cell_length_c 30.414576
_cell_angle_alpha 90.000000
_cell_angle_beta 90.000000
_cell_angle_gamma 90.000000
_cell_volume 4144.767730
_symmetry_space_group_name_H-M "A B M 2"
_symmetry_group_IT_number 39
_symmetry_cell_setting 'orthorhombic'
loop_
_space_group_symop_operation_xyz
x,y,z
-x,-y,z
-x,1/2+y,z
x,1/2-y,z
x,1/2+y,1/2+z
-x,1/2-y,1/2+z
-x,y,1/2+z
x,-y,1/2+z
loop_
_atom_site_type_symbol
_atom_site_label
_atom_site_fract_x
_atom_site_fract_y
_atom_site_fract_z
Si Si1 0.594322 0.926408 0.055700
Si Si2 0.594301 0.425824 0.875914
Si Si3 0.913739 0.071501 0.814227
Si Si4 0.593318 0.076151 0.972977
Si Si5 0.727013 0.920738 0.713997
Si Si6 0.081471 0.925580 0.219521
Si Si7 0.407247 0.574893 0.652443
Si Si8 0.737999 0.573629 0.816862
O O1 0.588489 0.750000 0.048037
O O2 0.632810 0.964973 0.104036
O O3 0.500000 0.000000 0.054617
O O4 0.646784 0.999062 0.013924
O O5 0.500000 0.500000 0.872290
O O6 0.585927 0.250000 0.864278
O O7 0.636372 0.446945 0.924885
O O8 0.655313 0.507485 0.841349
O O9 0.915479 0.250000 0.819467
O O10 0.913971 0.022436 0.763690
O O11 0.825153 0.006366 0.835567
O O12 0.000000 0.000000 0.837376
O O13 0.582233 0.250000 0.984341
O O14 0.500000 0.000000 0.969772
O O15 0.696262 0.750000 0.705993
O O16 0.825641 0.943367 0.695134
O O17 0.725021 0.960293 0.765381
O O18 0.662416 0.029702 0.688761
O O19 0.064365 0.750000 0.230417
O O20 0.000000 0.000000 0.192171
O O21 0.500000 0.500000 0.661553
O O22 0.425100 0.750000 0.656230
O O23 0.746728 0.750000 0.825890
#
# Coordination Sequence:
#
# PCOD8180667 Si02
#       8
#     8   8   8   8   8   8   8   8
#     4   9  16  26  41  61  81 103 134 171 213 256
#     4  10  20  32  45  63  86 115 149 181 214 253
#     4  10  17  27  44  64  85 109 138 175 218 260
#     4   9  16  26  42  62  82 105 135 171 213 257
#     4   9  19  32  44  60  84 113 146 180 211 248
#     4   9  16  27  43  63  84 107 137 174 216 258
#     4  10  20  31  44  61  83 113 147 180 213 251
#     4  10  20  33  46  62  85 115 150 184 217 253
#
# _framework density 15.441155
#
# number of rings (size 3 to 8) (size 9 to 14) (size 15 to 20)
#    0.000    2.500    0.000    5.625    0.000    6.500 
#    0.000    0.000    0.000    0.000    0.000    0.000 
#    0.000    1.000    0.000    9.000    0.000    7.250 
#
# Total GULP energy -396431.220755 kJ/mol
# GULP energy per Si atom -12388.475649 kJ/mol
# Density = 1.540601 g / cm^3
# Si number density = 15.441155 Si / 1000 Ang^3
#
#
#
# Elastic Constant Matrix: (Units=GPa)
#
#
# Indices 1 2 3 4 5 6 
#
# 1 90.1954 48.1787 42.2457 0.0000 0.0000 0.0000
# 2 48.1787 112.2218 43.7292 0.0000 0.0000 0.0000
# 3 42.2457 43.7292 61.5786 0.0000 0.0000 0.0000
# 4 0.0000 0.0000 0.0000 21.8498 0.0000 0.0000
# 5 0.0000 0.0000 0.0000 0.0000 -0.2940 0.0000
# 6 0.0000 0.0000 0.0000 0.0000 0.0000 27.1583
#
#
#
# Elastic Compliance Matrix: (Units=1/GPa)
#
#
# Indices 1 2 3 4 5 6 
#
# 1 0.017500 -0.003919 -0.009223 0.000000 0.000000 0.000000
# 2 -0.003919 0.013198 -0.006683 0.000000 0.000000 0.000000
# 3 -0.009223 -0.006683 0.027313 0.000000 0.000000 0.000000
# 4 0.000000 0.000000 0.000000 0.045767 0.000000 0.000000
# 5 0.000000 0.000000 0.000000 0.000000 -3.400879 0.000000
# 6 0.000000 0.000000 0.000000 0.000000 0.000000 0.036821
#
#
# Mechanical properties :
#
#
# Convention : Reuss Voigt Hill
#
# Bulk Modulus (GPa) = 54.46649 59.14478 56.80563
# Shear Modulus (GPa) = -1.55545 18.39895 8.42175
#
# Velocity S-wave (km/s) = -1.00475 3.45563 2.33793
# Velocity P-wave (km/s) = 5.83131 7.36942 6.64502
#
# Compressibility (1/GPa) = 0.01835991
#
# Stress axis : x y z
#
# Youngs Moduli (GPa) = 57.14169 75.76961 36.61292
#
# Poissons Ratio (x) = 0.29697 0.33767
# Poissons Ratio (y) = 0.22396 0.24470
# Poissons Ratio (z) = 0.52700 0.50640
#
# Static dielectric constant tensor:
#      x y z
#    x 3.072560 0.000000 0.000000 
#    y 0.000000 3.130950 0.000000 
#    z 0.000000 0.000000 3.402300 
# 
# 
# High freq. dielectric constant tensor:
#      x y z
#    x 1.565730 0.000000 0.000000 
#    y 0.000000 1.614520 0.000000 
#    z 0.000000 0.000000 1.564590 
# 
# From -- ./inp_files/17966.got.cif
#   From: 2010.03.12/outbox.cif.g09.slc.cpg/sg39_9_cif.got.tgz:17966.got - 2010.04.14 02:53:20.
