data_PCOD8180438
_publ_section_title
;
Structure prediction by ZEFSAII (Michael W. Deem and Ramdas Pophale) SiO2 
 PCOD8180438
Probable space group: A M M 2
;
_chemical_formula_sum "Si O2"
_cell_formula_units_Z 48
_cell_length_a 8.955375
_cell_length_b 24.258029
_cell_length_c 13.568134
_cell_angle_alpha 90.000000
_cell_angle_beta 90.000000
_cell_angle_gamma 90.000000
_cell_volume 2947.537990
_symmetry_space_group_name_H-M "A M M 2"
_symmetry_group_IT_number 38
_symmetry_cell_setting 'orthorhombic'
loop_
_space_group_symop_operation_xyz
x,y,z
-x,-y,z
-x,y,z
x,-y,z
x,1/2+y,1/2+z
-x,1/2-y,1/2+z
-x,1/2+y,1/2+z
x,1/2-y,1/2+z
loop_
_atom_site_type_symbol
_atom_site_label
_atom_site_fract_x
_atom_site_fract_y
_atom_site_fract_z
Si Si1 0.828801 0.228312 0.706240
Si Si2 0.324139 0.271158 0.003855
Si Si3 0.177374 0.439739 0.500686
Si Si4 0.177165 0.438988 0.721579
Si Si5 0.825186 0.333712 0.834709
Si Si6 0.825317 0.830047 0.903179
O O1 0.721228 0.215700 0.615580
O O2 0.793811 0.288256 0.751070
O O3 0.793800 0.182091 0.788737
O O4 0.000000 0.224953 0.670942
O O5 0.500000 0.269848 0.994132
O O6 0.261410 0.319530 0.934494
O O7 0.259727 0.212071 0.973682
O O8 0.234664 0.500000 0.463849
O O9 0.238513 0.428566 0.611101
O O10 0.233359 0.391649 0.427535
O O11 0.000000 0.440162 0.503543
O O12 0.226856 0.500000 0.758355
O O13 0.238490 0.392109 0.795182
O O14 0.000000 0.434569 0.719078
O O15 0.000000 0.335798 0.860066
O O16 0.000000 0.822816 0.927114
#
# Coordination Sequence:
#
# PCOD8180438 Si02
#       6
#     8   8   8   8   8   8
#     4   9  17  29  45  64  87 118 151 181 217 261
#     4  11  21  30  43  64  90 119 150 185 222 259
#     4   8  13  23  43  71  96 113 135 173 219 264
#     4   8  13  22  41  70  96 114 136 172 218 263
#     4   9  17  30  48  67  89 117 147 180 218 262
#     4   9  17  30  48  68  90 117 147 179 218 263
#
# _framework density 16.284777999999999
#
# number of rings (size 3 to 8) (size 9 to 14) (size 15 to 20)
#    0.000    3.000    0.000    4.500    0.000    5.333 
#    0.000    0.000    0.000    2.000    0.000    7.000 
#    0.000    0.000    0.000    0.000    0.000    0.000 
#
# Total GULP energy -297492.714179 kJ/mol
# GULP energy per Si atom -12395.529757 kJ/mol
# Density = 1.624771 g / cm^3
# Si number density = 16.284778 Si / 1000 Ang^3
#
#
#
# Elastic Constant Matrix: (Units=GPa)
#
#
# Indices 1 2 3 4 5 6 
#
# 1 51.3654 32.5990 41.2988 0.0000 0.0000 0.0000
# 2 32.5990 154.5349 75.7426 0.0000 0.0000 0.0000
# 3 41.2988 75.7426 108.6428 0.0000 0.0000 0.0000
# 4 0.0000 0.0000 0.0000 27.8373 0.0000 0.0000
# 5 0.0000 0.0000 0.0000 0.0000 6.3742 0.0000
# 6 0.0000 0.0000 0.0000 0.0000 0.0000 5.6267
#
#
#
# Elastic Compliance Matrix: (Units=1/GPa)
#
#
# Indices 1 2 3 4 5 6 
#
# 1 0.028150 -0.001053 -0.009966 0.000000 0.000000 0.000000
# 2 -0.001053 0.009869 -0.006480 0.000000 0.000000 0.000000
# 3 -0.009966 -0.006480 0.017511 0.000000 0.000000 0.000000
# 4 0.000000 0.000000 0.000000 0.035923 0.000000 0.000000
# 5 0.000000 0.000000 0.000000 0.000000 0.156883 0.000000
# 6 0.000000 0.000000 0.000000 0.000000 0.000000 0.177724
#
#
# Mechanical properties :
#
#
# Convention : Reuss Voigt Hill
#
# Bulk Modulus (GPa) = 48.70844 68.20266 58.45555
# Shear Modulus (GPa) = 10.68596 18.96115 14.82355
#
# Velocity S-wave (km/s) = 2.56441 3.41596 3.02034
# Velocity P-wave (km/s) = 6.22443 7.58489 6.93809
#
# Compressibility (1/GPa) = 0.02053032
#
# Stress axis : x y z
#
# Youngs Moduli (GPa) = 35.52383 101.32302 57.10731
#
# Poissons Ratio (x) = 0.10673 0.56916
# Poissons Ratio (y) = 0.03742 0.37007
# Poissons Ratio (z) = 0.35405 0.65660
#
# Static dielectric constant tensor:
#      x y z
#    x 2.694320 0.000000 0.000000 
#    y 0.000000 3.427080 0.000000 
#    z 0.000000 0.000000 3.035170 
# 
# 
# High freq. dielectric constant tensor:
#      x y z
#    x 1.588310 0.000000 0.000000 
#    y 0.000000 1.625250 0.000000 
#    z 0.000000 0.000000 1.615800 
# 
# From -- ./inp_files/8224.got.cif
#   From: 2010.03.12/outbox.cif.g09.slc.cpg/sg38_5_cif.got.tgz:8224.got - 2010.04.14 02:38:36.
