data_PCOD8180369
_publ_section_title
;
Structure prediction by ZEFSAII (Michael W. Deem and Ramdas Pophale) SiO2 
 PCOD8180369
Probable space group: A M M 2
;
_chemical_formula_sum "Si O2"
_cell_formula_units_Z 56
_cell_length_a 21.973612
_cell_length_b 14.981939
_cell_length_c 7.825678
_cell_angle_alpha 90.000000
_cell_angle_beta 90.000000
_cell_angle_gamma 90.000000
_cell_volume 2576.270439
_symmetry_space_group_name_H-M "A M M 2"
_symmetry_group_IT_number 38
_symmetry_cell_setting 'orthorhombic'
loop_
_space_group_symop_operation_xyz
x,y,z
-x,-y,z
-x,y,z
x,-y,z
x,1/2+y,1/2+z
-x,1/2-y,1/2+z
-x,1/2+y,1/2+z
x,1/2-y,1/2+z
loop_
_atom_site_type_symbol
_atom_site_label
_atom_site_fract_x
_atom_site_fract_y
_atom_site_fract_z
Si Si1 0.068401 0.899926 0.013900
Si Si2 0.067063 0.600642 0.109453
Si Si3 0.652223 0.603826 0.360790
Si Si4 0.843858 0.252498 0.010693
Si Si5 0.655488 0.896050 0.251325
Si Si6 0.432400 0.605538 0.055065
Si Si7 0.250346 0.243810 0.761479
O O1 0.117392 0.830217 0.087923
O O2 0.000000 0.877076 0.079046
O O3 0.086200 0.000000 0.072094
O O4 0.070631 0.891647 0.811488
O O5 0.078445 0.500000 0.049451
O O6 0.117964 0.657703 0.016374
O O7 0.000000 0.632350 0.048509
O O8 0.666593 0.500000 0.330330
O O9 0.631604 0.620959 0.557164
O O10 0.600508 0.638466 0.229338
O O11 0.713357 0.656494 0.317561
O O12 0.770469 0.260298 0.063010
O O13 0.822826 0.238558 0.814201
O O14 0.603520 0.864848 0.384347
O O15 0.714149 0.836357 0.292193
O O16 0.672805 0.000000 0.277614
O O17 0.500000 0.647910 0.049354
O O18 0.437349 0.500000 0.059393
#
# Coordination Sequence:
#
# PCOD8180369 Si02
#       7
#     8   8   8   8   8   8   8
#     4   9  19  37  59  82 113 152 194 244 301 365
#     4   9  19  37  59  83 114 151 194 247 307 368
#     4  10  22  41  64  88 124 169 204 249 310 364
#     4  12  22  36  58  87 113 153 199 250 298 355
#     4  10  22  41  63  88 125 167 203 252 309 360
#     4   9  19  38  66  97 123 156 207 257 305 364
#     4  12  24  38  59  85 124 157 201 252 293 361
#
# _framework density 21.736847999999998
#
# number of rings (size 3 to 8) (size 9 to 14) (size 15 to 20)
#    0.000    1.857    2.857    2.143    0.000    2.857 
#    0.000    3.571    0.000    1.714    0.000    0.000 
#    0.000    0.000    0.000    0.000    0.000    0.000 
#
# Total GULP energy -346952.880000 kJ/mol
# GULP energy per Si atom -12391.174286 kJ/mol
# Density = 2.168737 g / cm^3
# Si number density = 21.736848 Si / 1000 Ang^3
#
#
#
# Elastic Constant Matrix: (Units=GPa)
#
#
# Indices 1 2 3 4 5 6 
#
# 1 164.6962 70.9041 61.6722 0.0000 0.0000 0.0000
# 2 70.9041 94.5045 38.9077 0.0000 0.0000 0.0000
# 3 61.6722 38.9077 80.4038 0.0000 0.0000 0.0000
# 4 0.0000 0.0000 0.0000 25.2578 0.0000 0.0000
# 5 0.0000 0.0000 0.0000 0.0000 31.4000 0.0000
# 6 0.0000 0.0000 0.0000 0.0000 0.0000 32.9008
#
#
#
# Elastic Compliance Matrix: (Units=1/GPa)
#
#
# Indices 1 2 3 4 5 6 
#
# 1 0.010514 -0.005705 -0.005304 0.000000 0.000000 0.000000
# 2 -0.005705 0.016309 -0.003517 0.000000 0.000000 0.000000
# 3 -0.005304 -0.003517 0.018207 0.000000 0.000000 0.000000
# 4 0.000000 0.000000 0.000000 0.039592 0.000000 0.000000
# 5 0.000000 0.000000 0.000000 0.000000 0.031847 0.000000
# 6 0.000000 0.000000 0.000000 0.000000 0.000000 0.030394
#
#
# Mechanical properties :
#
#
# Convention : Reuss Voigt Hill
#
# Bulk Modulus (GPa) = 62.57770 75.84140 69.20955
# Shear Modulus (GPa) = 27.58768 29.11975 28.35372
#
# Velocity S-wave (km/s) = 3.56640 3.66409 3.61558
# Velocity P-wave (km/s) = 6.76832 7.27098 7.02415
#
# Compressibility (1/GPa) = 0.01598013
#
# Stress axis : x y z
#
# Youngs Moduli (GPa) = 95.11298 61.31484 54.92341
#
# Poissons Ratio (x) = 0.34978 0.29131
# Poissons Ratio (y) = 0.54258 0.19314
# Poissons Ratio (z) = 0.50447 0.21562
#
# Static dielectric constant tensor:
#      x y z
#    x 3.980740 0.000000 0.000000 
#    y 0.000000 3.806700 0.000000 
#    z 0.000000 0.000000 4.129390 
# 
# 
# High freq. dielectric constant tensor:
#      x y z
#    x 1.850770 0.000000 0.000000 
#    y 0.000000 1.844260 0.000000 
#    z 0.000000 0.000000 1.872920 
# 
# From -- ./inp_files/6741.got.cif
#   From: 2010.03.12/outbox.cif.g09.slc.cpg/sg38_4_cif.got.tgz:6741.got - 2010.04.14 02:38:36.
