data_PCOD8180599
_publ_section_title
;
Structure prediction by ZEFSAII (Michael W. Deem and Ramdas Pophale) SiO2 
 PCOD8180599
Probable space group: A B M 2
;
_chemical_formula_sum "Si O2"
_cell_formula_units_Z 56
_cell_length_a 34.121641
_cell_length_b 13.972676
_cell_length_c 5.277428
_cell_angle_alpha 90.000000
_cell_angle_beta 90.000000
_cell_angle_gamma 90.000000
_cell_volume 2516.122695
_symmetry_space_group_name_H-M "A B M 2"
_symmetry_group_IT_number 39
_symmetry_cell_setting 'orthorhombic'
loop_
_space_group_symop_operation_xyz
x,y,z
-x,-y,z
-x,1/2+y,z
x,1/2-y,z
x,1/2+y,1/2+z
-x,1/2-y,1/2+z
-x,y,1/2+z
x,-y,1/2+z
loop_
_atom_site_type_symbol
_atom_site_label
_atom_site_fract_x
_atom_site_fract_y
_atom_site_fract_z
Si Si1 0.108420 0.399984 0.118160
Si Si2 0.401084 0.057692 0.147924
Si Si3 0.210507 0.250000 0.595635
Si Si4 0.141012 0.886282 0.117929
Si Si5 0.739152 0.250000 0.595985
Si Si6 0.518632 0.359302 0.569682
Si Si7 0.016359 0.103655 0.085563
Si Si8 0.312852 0.562358 0.608952
O O1 0.133342 0.499475 0.114852
O O2 0.121292 0.341420 0.366345
O O3 0.062147 0.411231 0.129312
O O4 0.119906 0.342231 0.865900
O O5 0.434329 0.135924 0.092486
O O6 0.357617 0.100514 0.112982
O O7 0.406513 0.025423 0.438830
O O8 0.185647 0.348878 0.623189
O O9 0.228786 0.250000 0.316816
O O10 0.242360 0.250000 0.816823
O O11 0.713714 0.344787 0.626691
O O12 0.505252 0.250000 0.557895
O O13 0.502863 0.409224 0.311147
O O14 0.995325 0.157816 0.322286
O O15 0.000000 0.000000 0.019847
O O16 0.304062 0.505728 0.349031
#
# Coordination Sequence:
#
# PCOD8180599 Si02
#       8
#     8   8   4   8   4   8   8   8
#     4  10  19  35  57  85 113 158 202 239 309 342
#     4  10  21  37  61  88 119 159 211 258 309 382
#     4  12  26  44  62  96 122 156 208 246 324 390
#     4  10  20  37  55  80 115 147 194 242 285 375
#     4  12  26  48  70  98 132 168 206 272 336 400
#     4  10  21  35  52  83 123 165 211 256 308 364
#     4  10  16  25  46  82 113 142 191 257 291 329
#     4  10  23  46  69 101 131 169 219 266 331 400
#
# _framework density 22.256467000000001
#
# number of rings (size 3 to 8) (size 9 to 14) (size 15 to 20)
#    0.000    1.714    0.000    6.857    1.000    1.714 
#   15.429    0.000    0.000    0.000    0.000   37.000 
#    0.000    0.000    0.000    0.000    0.000    0.000 
#
# Total GULP energy -346882.911055 kJ/mol
# GULP energy per Si atom -12388.675395 kJ/mol
# Density = 2.220581 g / cm^3
# Si number density = 22.256467 Si / 1000 Ang^3
#
#
#
# Elastic Constant Matrix: (Units=GPa)
#
#
# Indices 1 2 3 4 5 6 
#
# 1 124.6688 39.7605 35.2393 0.0000 0.0000 0.0000
# 2 39.7605 71.5129 10.4841 0.0000 0.0000 0.0000
# 3 35.2393 10.4841 202.9713 0.0000 0.0000 0.0000
# 4 0.0000 0.0000 0.0000 2.3156 0.0000 0.0000
# 5 0.0000 0.0000 0.0000 0.0000 42.2088 0.0000
# 6 0.0000 0.0000 0.0000 0.0000 0.0000 -19.5473
#
#
#
# Elastic Compliance Matrix: (Units=1/GPa)
#
#
# Indices 1 2 3 4 5 6 
#
# 1 0.010176 -0.005440 -0.001486 0.000000 0.000000 0.000000
# 2 -0.005440 0.016998 0.000066 0.000000 0.000000 0.000000
# 3 -0.001486 0.000066 0.005181 0.000000 0.000000 0.000000
# 4 0.000000 0.000000 0.000000 0.431848 0.000000 0.000000
# 5 0.000000 0.000000 0.000000 0.000000 0.023692 0.000000
# 6 0.000000 0.000000 0.000000 0.000000 0.000000 -0.051158
#
#
# Mechanical properties :
#
#
# Convention : Reuss Voigt Hill
#
# Bulk Modulus (GPa) = 53.65615 63.34675 58.50145
# Shear Modulus (GPa) = 10.94885 25.90668 18.42776
#
# Velocity S-wave (km/s) = 2.22038 3.41546 2.88057
# Velocity P-wave (km/s) = 5.54382 6.63911 6.11603
#
# Compressibility (1/GPa) = 0.01863719
#
# Stress axis : x y z
#
# Youngs Moduli (GPa) = 98.26830 58.82915 193.00074
#
# Poissons Ratio (x) = 0.32003 0.28675
# Poissons Ratio (y) = 0.53459 -0.01283
# Poissons Ratio (z) = 0.14600 -0.00391
#
# Static dielectric constant tensor:
#      x y z
#    x 3.974290 0.000000 0.000000 
#    y 0.000000 3.120320 0.000000 
#    z 0.000000 0.000000 5.386240 
# 
# 
# High freq. dielectric constant tensor:
#      x y z
#    x 1.872410 0.000000 0.000000 
#    y 0.000000 1.848130 0.000000 
#    z 0.000000 0.000000 1.920480 
# 
# From -- ./inp_files/1506.got.cif
#   From: 2010.03.12/outbox.cif.g09.slc.cpg/sg39_1_cif.got.tgz:1506.got - 2010.04.14 02:53:20.
