data_PCOD8180480
_publ_section_title
;
Structure prediction by ZEFSAII (Michael W. Deem and Ramdas Pophale) SiO2 
 PCOD8180480
Probable space group: A M M 2
;
_chemical_formula_sum "Si O2"
_cell_formula_units_Z 40
_cell_length_a 8.556721
_cell_length_b 26.203340
_cell_length_c 9.263083
_cell_angle_alpha 90.000000
_cell_angle_beta 90.000000
_cell_angle_gamma 90.000000
_cell_volume 2076.919095
_symmetry_space_group_name_H-M "A M M 2"
_symmetry_group_IT_number 38
_symmetry_cell_setting 'orthorhombic'
loop_
_space_group_symop_operation_xyz
x,y,z
-x,-y,z
-x,y,z
x,-y,z
x,1/2+y,1/2+z
-x,1/2-y,1/2+z
-x,1/2+y,1/2+z
x,1/2-y,1/2+z
loop_
_atom_site_type_symbol
_atom_site_label
_atom_site_fract_x
_atom_site_fract_y
_atom_site_fract_z
Si Si1 0.186484 0.390521 0.745780
Si Si2 0.170611 0.500000 0.759251
Si Si3 0.185255 0.295272 0.927822
Si Si4 0.170171 0.000000 0.917835
Si Si5 0.316537 0.297186 0.246102
Si Si6 0.187220 0.610438 0.417674
O O1 0.256469 0.446059 0.798401
O O2 0.250614 0.346370 0.850381
O O3 0.237449 0.377163 0.582304
O O4 0.000000 0.394700 0.750824
O O5 0.148356 0.500000 0.588524
O O6 0.000000 0.500000 0.834222
O O7 0.244951 0.246030 0.845780
O O8 0.000000 0.294923 0.925172
O O9 0.243888 0.292982 0.089294
O O10 0.251210 0.946431 0.873479
O O11 0.000000 0.000000 0.844322
O O12 0.500000 0.289870 0.235940
O O13 0.274695 0.351781 0.311450
O O14 0.000000 0.614541 0.399905
#
# Coordination Sequence:
#
# PCOD8180480 Si02
#       6
#     8   4   8   4   8   8
#     4   8  15  28  53  83 108 133 170 218 266 312
#     4   7  10  22  45  79 112 132 158 211 270 311
#     4  11  22  38  58  80 105 141 185 227 270 327
#     4   7  12  24  50  83 110 136 176 225 268 311
#     4  12  25  39  54  78 110 144 179 225 282 336
#     4   9  16  32  57  84 110 141 181 226 271 322
#
# _framework density 19.259297
#
# number of rings (size 3 to 8) (size 9 to 14) (size 15 to 20)
#    0.000    2.600    0.000    6.000    0.000    1.600 
#    0.000    2.500    0.000    3.600    0.000    4.900 
#    0.000    0.000    0.000    0.000    0.000    0.000 
#
# Total GULP energy -247788.461839 kJ/mol
# GULP energy per Si atom -12389.423092 kJ/mol
# Density = 1.921546 g / cm^3
# Si number density = 19.259297 Si / 1000 Ang^3
#
#
#
# Elastic Constant Matrix: (Units=GPa)
#
#
# Indices 1 2 3 4 5 6 
#
# 1 53.1034 28.6150 24.4801 0.0000 0.0000 0.0000
# 2 28.6150 181.6637 76.6298 0.0000 0.0000 0.0000
# 3 24.4801 76.6298 120.1972 0.0000 0.0000 0.0000
# 4 0.0000 0.0000 0.0000 31.9376 0.0000 0.0000
# 5 0.0000 0.0000 0.0000 0.0000 -3.7826 0.0000
# 6 0.0000 0.0000 0.0000 0.0000 0.0000 0.8128
#
#
#
# Elastic Compliance Matrix: (Units=1/GPa)
#
#
# Indices 1 2 3 4 5 6 
#
# 1 0.021348 -0.002091 -0.003015 0.000000 0.000000 0.000000
# 2 -0.002091 0.007734 -0.004505 0.000000 0.000000 0.000000
# 3 -0.003015 -0.004505 0.011806 0.000000 0.000000 0.000000
# 4 0.000000 0.000000 0.000000 0.031311 0.000000 0.000000
# 5 0.000000 0.000000 0.000000 0.000000 -0.264370 0.000000
# 6 0.000000 0.000000 0.000000 0.000000 0.000000 1.230355
#
#
# Mechanical properties :
#
#
# Convention : Reuss Voigt Hill
#
# Bulk Modulus (GPa) = 46.15459 68.26826 57.21142
# Shear Modulus (GPa) = 4.69648 20.80953 12.75300
#
# Velocity S-wave (km/s) = 1.56328 3.29065 2.57607
# Velocity P-wave (km/s) = 5.22258 7.06836 6.21438
#
# Compressibility (1/GPa) = 0.02166632
#
# Stress axis : x y z
#
# Youngs Moduli (GPa) = 46.84358 129.29295 84.70411
#
# Poissons Ratio (x) = 0.27034 0.25536
# Poissons Ratio (y) = 0.09795 0.38160
# Poissons Ratio (z) = 0.14122 0.58247
#
# Static dielectric constant tensor:
#      x y z
#    x 3.117260 0.000000 0.000000 
#    y 0.000000 4.261150 0.000000 
#    z 0.000000 0.000000 3.381910 
# 
# 
# High freq. dielectric constant tensor:
#      x y z
#    x 1.702470 0.000000 0.000000 
#    y 0.000000 1.782160 0.000000 
#    z 0.000000 0.000000 1.727330 
# 
# From -- ./inp_files/3526.got.cif
#   From: 2010.03.12/outbox.cif.g09.slc.cpg/sg38_2_cif.got.tgz:3526.got - 2010.04.14 02:38:36.
