data_PCOD8180256
_publ_section_title
;
Structure prediction by ZEFSAII (Michael W. Deem and Ramdas Pophale) SiO2 
 PCOD8180256
Probable space group: A M M 2
;
_chemical_formula_sum "Si O2"
_cell_formula_units_Z 48
_cell_length_a 8.346585
_cell_length_b 27.804557
_cell_length_c 9.941996
_cell_angle_alpha 90.000000
_cell_angle_beta 90.000000
_cell_angle_gamma 90.000000
_cell_volume 2307.269816
_symmetry_space_group_name_H-M "A M M 2"
_symmetry_group_IT_number 38
_symmetry_cell_setting 'orthorhombic'
loop_
_space_group_symop_operation_xyz
x,y,z
-x,-y,z
-x,y,z
x,-y,z
x,1/2+y,1/2+z
-x,1/2-y,1/2+z
-x,1/2+y,1/2+z
x,1/2-y,1/2+z
loop_
_atom_site_type_symbol
_atom_site_label
_atom_site_fract_x
_atom_site_fract_y
_atom_site_fract_z
Si Si1 0.187074 0.612334 0.517520
Si Si2 0.808473 0.293627 0.893778
Si Si3 0.183946 0.396106 0.993001
Si Si4 0.190749 0.445434 0.256873
Si Si5 0.317863 0.946733 0.254158
Si Si6 0.688949 0.787685 0.090609
O O1 0.247096 0.585372 0.384482
O O2 0.287782 0.591503 0.639271
O O3 0.223893 0.668745 0.512757
O O4 0.000000 0.603411 0.542746
O O5 0.742286 0.346036 0.939182
O O6 0.748499 0.281603 0.743776
O O7 0.000000 0.290729 0.893992
O O8 0.734626 0.258595 0.004327
O O9 0.204107 0.436661 0.880159
O O10 0.000000 0.386601 0.023915
O O11 0.264132 0.416897 0.128990
O O12 0.259311 0.500000 0.264444
O O13 0.000000 0.447813 0.247651
O O14 0.500000 0.942090 0.303379
O O15 0.278964 0.000000 0.199259
O O16 0.500000 0.795788 0.090409
#
# Coordination Sequence:
#
# PCOD8180256 Si02
#       6
#     8   8   8   8   8   8
#     4  11  22  39  64  92 123 166 214 262 316 380
#     4  11  24  43  68  97 127 167 215 265 318 387
#     4  10  21  39  65  93 122 161 208 259 316 376
#     4   9  19  36  60  93 127 159 205 262 312 363
#     4  11  23  38  59  89 126 166 207 258 319 381
#     4  12  26  44  66  96 131 168 208 265 330 388
#
# _framework density 20.803809000000001
#
# number of rings (size 3 to 8) (size 9 to 14) (size 15 to 20)
#    0.000    1.333    1.667    4.000    2.333    3.333 
#    0.000    1.667    0.000    4.000    0.000    0.000 
#    0.000    0.000    0.000    0.000    0.000    0.000 
#
# Total GULP energy -297624.347373 kJ/mol
# GULP energy per Si atom -12401.014474 kJ/mol
# Density = 2.075646 g / cm^3
# Si number density = 20.803809 Si / 1000 Ang^3
#
#
#
# Elastic Constant Matrix: (Units=GPa)
#
#
# Indices 1 2 3 4 5 6 
#
# 1 36.6569 28.1540 26.5077 0.0000 0.0000 0.0000
# 2 28.1540 117.7663 58.4406 0.0000 0.0000 0.0000
# 3 26.5077 58.4406 160.6989 0.0000 0.0000 0.0000
# 4 0.0000 0.0000 0.0000 40.6531 0.0000 0.0000
# 5 0.0000 0.0000 0.0000 0.0000 3.1233 0.0000
# 6 0.0000 0.0000 0.0000 0.0000 0.0000 23.9187
#
#
#
# Elastic Compliance Matrix: (Units=1/GPa)
#
#
# Indices 1 2 3 4 5 6 
#
# 1 0.034803 -0.006676 -0.003313 0.000000 0.000000 0.000000
# 2 -0.006676 0.011642 -0.003133 0.000000 0.000000 0.000000
# 3 -0.003313 -0.003133 0.007908 0.000000 0.000000 0.000000
# 4 0.000000 0.000000 0.000000 0.024598 0.000000 0.000000
# 5 0.000000 0.000000 0.000000 0.000000 0.320178 0.000000
# 6 0.000000 0.000000 0.000000 0.000000 0.000000 0.041808
#
#
# Mechanical properties :
#
#
# Convention : Reuss Voigt Hill
#
# Bulk Modulus (GPa) = 35.57420 60.14742 47.86081
# Shear Modulus (GPa) = 10.49203 27.00700 18.74952
#
# Velocity S-wave (km/s) = 2.24817 3.60693 3.00535
# Velocity P-wave (km/s) = 4.88631 6.80596 5.92440
#
# Compressibility (1/GPa) = 0.02811026
#
# Stress axis : x y z
#
# Youngs Moduli (GPa) = 28.73289 85.89635 126.44643
#
# Poissons Ratio (x) = 0.57347 0.41892
# Poissons Ratio (y) = 0.19183 0.39609
# Poissons Ratio (z) = 0.09519 0.26907
#
# Static dielectric constant tensor:
#      x y z
#    x 3.535180 0.000000 0.000000 
#    y 0.000000 4.371670 0.000000 
#    z 0.000000 0.000000 4.003720 
# 
# 
# High freq. dielectric constant tensor:
#      x y z
#    x 1.796200 0.000000 0.000000 
#    y 0.000000 1.830470 0.000000 
#    z 0.000000 0.000000 1.824600 
# 
# From -- ./inp_files/3780.got.cif
#   From: 2010.03.12/outbox.cif.g09.slc.cpg/sg38_2_cif.got.tgz:3780.got - 2010.04.14 02:38:36.
