data_PCOD8180116
_publ_section_title
;
Structure prediction by ZEFSAII (Michael W. Deem and Ramdas Pophale) SiO2 
 PCOD8180116
Probable space group: A M M 2
;
_chemical_formula_sum "Si O2"
_cell_formula_units_Z 40
_cell_length_a 11.315263
_cell_length_b 8.795585
_cell_length_c 19.972382
_cell_angle_alpha 90.000000
_cell_angle_beta 90.000000
_cell_angle_gamma 90.000000
_cell_volume 1987.738487
_symmetry_space_group_name_H-M "A M M 2"
_symmetry_group_IT_number 38
_symmetry_cell_setting 'orthorhombic'
loop_
_space_group_symop_operation_xyz
x,y,z
-x,-y,z
-x,y,z
x,-y,z
x,1/2+y,1/2+z
-x,1/2-y,1/2+z
-x,1/2+y,1/2+z
x,1/2-y,1/2+z
loop_
_atom_site_type_symbol
_atom_site_label
_atom_site_fract_x
_atom_site_fract_y
_atom_site_fract_z
Si Si1 0.757642 0.178162 0.898090
Si Si2 0.000000 0.319720 0.616399
Si Si3 0.634622 0.327010 0.015579
Si Si4 0.364384 0.821584 0.273537
Si Si5 0.237826 0.321533 0.151131
Si Si6 0.000000 0.680271 0.463944
O O1 0.661542 0.214258 0.954791
O O2 0.723713 0.265239 0.830932
O O3 0.884958 0.237946 0.923856
O O4 0.759133 0.000000 0.882886
O O5 0.111825 0.259411 0.657829
O O6 0.000000 0.254974 0.539968
O O7 0.000000 0.500000 0.616703
O O8 0.500000 0.306703 0.037569
O O9 0.660125 0.500000 0.992610
O O10 0.713626 0.280103 0.078196
O O11 0.500000 0.779466 0.291298
O O12 0.329914 0.740900 0.204828
O O13 0.348670 0.000000 0.264526
O O14 0.222810 0.500000 0.161867
O O15 0.000000 0.500000 0.468275
#
# Coordination Sequence:
#
# PCOD8180116 Si02
#       6
#     8   4   8   8   8   4
#     4  11  22  39  63  90 121 162 208 256 310 370
#     4  11  21  40  65  92 129 165 205 256 312 369
#     4  10  21  37  58  87 122 158 201 255 312 370
#     4  11  25  44  63  88 126 168 209 258 318 378
#     4  11  23  40  64  93 124 163 210 258 312 369
#     4   9  20  38  61  90 125 159 199 252 304 365
#
# _framework density 20.123372
#
# number of rings (size 3 to 8) (size 9 to 14) (size 15 to 20)
#    0.000    1.400    2.000    3.300    0.000    6.800 
#    0.000    5.000    0.000    0.000    0.000    0.000 
#    0.000    0.000    0.000    0.000    0.000    0.000 
#
# Total GULP energy -248111.838808 kJ/mol
# GULP energy per Si atom -12405.591940 kJ/mol
# Density = 2.007757 g / cm^3
# Si number density = 20.123372 Si / 1000 Ang^3
#
#
#
# Elastic Constant Matrix: (Units=GPa)
#
#
# Indices 1 2 3 4 5 6 
#
# 1 96.5116 32.4197 23.2059 0.0000 0.0000 0.0000
# 2 32.4197 79.5841 39.6645 0.0000 0.0000 0.0000
# 3 23.2059 39.6645 79.9664 0.0000 0.0000 0.0000
# 4 0.0000 0.0000 0.0000 37.8610 0.0000 0.0000
# 5 0.0000 0.0000 0.0000 0.0000 38.9021 0.0000
# 6 0.0000 0.0000 0.0000 0.0000 0.0000 32.4138
#
#
#
# Elastic Compliance Matrix: (Units=1/GPa)
#
#
# Indices 1 2 3 4 5 6 
#
# 1 0.012124 -0.004231 -0.001420 0.000000 0.000000 0.000000
# 2 -0.004231 0.018169 -0.007784 0.000000 0.000000 0.000000
# 3 -0.001420 -0.007784 0.016778 0.000000 0.000000 0.000000
# 4 0.000000 0.000000 0.000000 0.026412 0.000000 0.000000
# 5 0.000000 0.000000 0.000000 0.000000 0.025706 0.000000
# 6 0.000000 0.000000 0.000000 0.000000 0.000000 0.030851
#
#
# Mechanical properties :
#
#
# Convention : Reuss Voigt Hill
#
# Bulk Modulus (GPa) = 49.50234 49.62692 49.56463
# Shear Modulus (GPa) = 30.55425 32.55352 31.55389
#
# Velocity S-wave (km/s) = 3.90082 4.02642 3.96412
# Velocity P-wave (km/s) = 6.70383 6.80669 6.75546
#
# Compressibility (1/GPa) = 0.02020106
#
# Stress axis : x y z
#
# Youngs Moduli (GPa) = 82.47983 55.04016 59.60144
#
# Poissons Ratio (x) = 0.23290 0.08460
# Poissons Ratio (y) = 0.34901 0.46393
# Poissons Ratio (z) = 0.11708 0.42843
#
# Static dielectric constant tensor:
#      x y z
#    x 3.795540 0.000000 0.000000 
#    y 0.000000 3.578660 0.000000 
#    z 0.000000 0.000000 3.613490 
# 
# 
# High freq. dielectric constant tensor:
#      x y z
#    x 1.798980 0.000000 0.000000 
#    y 0.000000 1.782990 0.000000 
#    z 0.000000 0.000000 1.786150 
# 
# From -- ./inp_files/20499.got.cif
#   From: 2010.03.12/outbox.cif.g09.slc.cpg/sg38_11_cif.got.tgz:20499.got - 2010.04.14 02:38:36.
