data_PCOD8180514
_publ_section_title
;
Structure prediction by ZEFSAII (Michael W. Deem and Ramdas Pophale) SiO2 
 PCOD8180514
Probable space group: A M M 2
;
_chemical_formula_sum "Si O2"
_cell_formula_units_Z 48
_cell_length_a 17.073167
_cell_length_b 15.096005
_cell_length_c 10.042036
_cell_angle_alpha 90.000000
_cell_angle_beta 90.000000
_cell_angle_gamma 90.000000
_cell_volume 2588.200360
_symmetry_space_group_name_H-M "A M M 2"
_symmetry_group_IT_number 38
_symmetry_cell_setting 'orthorhombic'
loop_
_space_group_symop_operation_xyz
x,y,z
-x,-y,z
-x,y,z
x,-y,z
x,1/2+y,1/2+z
-x,1/2-y,1/2+z
-x,1/2+y,1/2+z
x,1/2-y,1/2+z
loop_
_atom_site_type_symbol
_atom_site_label
_atom_site_fract_x
_atom_site_fract_y
_atom_site_fract_z
Si Si1 0.696997 0.753822 0.479020
Si Si2 0.090072 0.100058 0.811194
Si Si3 0.409740 0.398476 0.555718
Si Si4 0.410089 0.899047 0.364590
Si Si5 0.197031 0.250866 0.228439
Si Si6 0.910483 0.897833 0.120408
O O1 0.645458 0.664248 0.467306
O O2 0.641901 0.838132 0.458530
O O3 0.766948 0.752212 0.374669
O O4 0.733263 0.762034 0.624719
O O5 0.139739 0.164966 0.717946
O O6 0.000000 0.110547 0.770240
O O7 0.118508 0.000000 0.784783
O O8 0.101632 0.124650 0.965654
O O9 0.500000 0.381962 0.516754
O O10 0.386525 0.500000 0.526317
O O11 0.396154 0.375600 0.710351
O O12 0.500000 0.883407 0.403077
O O13 0.385767 0.000000 0.391974
O O14 0.148091 0.161135 0.206937
O O15 0.000000 0.878097 0.162392
O O16 0.889823 0.000000 0.148656
#
# Coordination Sequence:
#
# PCOD8180514 Si02
#       6
#     8   8   8   8   8   8
#     4  12  23  36  56  87 121 149 181 231 288 339
#     4   9  19  38  61  82 110 151 194 234 279 334
#     4   9  19  38  62  83 108 150 198 234 271 334
#     4   9  19  38  61  82 110 151 194 234 279 334
#     4  12  23  36  56  87 121 149 181 231 288 339
#     4   9  19  38  62  83 108 150 198 234 271 334
#
# _framework density 18.545703
#
# number of rings (size 3 to 8) (size 9 to 14) (size 15 to 20)
#    0.000    2.000    3.333    3.000    0.000    2.667 
#    0.000    0.000    0.000    4.000    0.000    0.000 
#    0.000    0.000    0.000    0.000    0.000    0.000 
#
# Total GULP energy -297663.325504 kJ/mol
# GULP energy per Si atom -12402.638563 kJ/mol
# Density = 1.850349 g / cm^3
# Si number density = 18.545703 Si / 1000 Ang^3
#
#
#
# Elastic Constant Matrix: (Units=GPa)
#
#
# Indices 1 2 3 4 5 6 
#
# 1 95.0875 72.9151 28.1798 0.0000 0.0000 0.0000
# 2 72.9151 126.6202 30.4528 0.0000 0.0000 0.0000
# 3 28.1798 30.4528 31.2793 0.0000 0.0000 0.0000
# 4 0.0000 0.0000 0.0000 31.4231 0.0000 0.0000
# 5 0.0000 0.0000 0.0000 0.0000 33.9263 0.0000
# 6 0.0000 0.0000 0.0000 0.0000 0.0000 22.7737
#
#
#
# Elastic Compliance Matrix: (Units=1/GPa)
#
#
# Indices 1 2 3 4 5 6 
#
# 1 0.020674 -0.009696 -0.009186 0.000000 0.000000 0.000000
# 2 -0.009696 0.014860 -0.005732 0.000000 0.000000 0.000000
# 3 -0.009186 -0.005732 0.045826 0.000000 0.000000 0.000000
# 4 0.000000 0.000000 0.000000 0.031824 0.000000 0.000000
# 5 0.000000 0.000000 0.000000 0.000000 0.029476 0.000000
# 6 0.000000 0.000000 0.000000 0.000000 0.000000 0.043910
#
#
# Mechanical properties :
#
#
# Convention : Reuss Voigt Hill
#
# Bulk Modulus (GPa) = 31.12099 57.34249 44.23174
# Shear Modulus (GPa) = 20.28341 25.72056 23.00199
#
# Velocity S-wave (km/s) = 3.31070 3.72812 3.52559
# Velocity P-wave (km/s) = 5.60637 7.03694 6.36199
#
# Compressibility (1/GPa) = 0.03213265
#
# Stress axis : x y z
#
# Youngs Moduli (GPa) = 48.36994 67.29607 21.82181
#
# Poissons Ratio (x) = 0.65251 0.20045
# Poissons Ratio (y) = 0.46900 0.12508
# Poissons Ratio (z) = 0.44430 0.38572
#
# Static dielectric constant tensor:
#      x y z
#    x 3.461470 0.000000 0.000000 
#    y 0.000000 3.440900 0.000000 
#    z 0.000000 0.000000 3.091660 
# 
# 
# High freq. dielectric constant tensor:
#      x y z
#    x 1.732060 0.000000 0.000000 
#    y 0.000000 1.728050 0.000000 
#    z 0.000000 0.000000 1.691270 
# 
# From -- ./inp_files/5468.got.cif
#   From: 2010.03.12/outbox.cif.g09.slc.cpg/sg38_3_cif.got.tgz:5468.got - 2010.04.14 02:38:36.
