data_PCOD8180564
_publ_section_title
;
Structure prediction by ZEFSAII (Michael W. Deem and Ramdas Pophale) SiO2 
 PCOD8180564
Probable space group: A M M 2
;
_chemical_formula_sum "Si O2"
_cell_formula_units_Z 32
_cell_length_a 9.000000
_cell_length_b 24.000000
_cell_length_c 15.000000
_cell_angle_alpha 90.000000
_cell_angle_beta 90.000000
_cell_angle_gamma 90.000000
_cell_volume 3240.000000
_symmetry_space_group_name_H-M "A M M 2"
_symmetry_group_IT_number 38
_symmetry_cell_setting 'orthorhombic'
loop_
_space_group_symop_operation_xyz
x,y,z
-x,-y,z
-x,y,z
x,-y,z
x,1/2+y,1/2+z
-x,1/2-y,1/2+z
-x,1/2+y,1/2+z
x,1/2-y,1/2+z
loop_
_atom_site_type_symbol
_atom_site_label
_atom_site_fract_x
_atom_site_fract_y
_atom_site_fract_z
Si Si1 0.328369 0.784701 0.332110
Si Si2 0.328148 0.644314 0.552126
Si Si3 0.172152 0.935120 0.187081
Si Si4 0.666765 0.936575 0.541957
Si Si5 0.825528 0.389574 0.879265
Si Si6 0.668154 0.158207 0.855080
Si Si7 0.827264 0.765421 0.151208
Si Si8 0.828433 0.361296 0.179882
O O1 0.500000 0.800193 0.324241
O O2 0.247727 0.829105 0.396099
O O3 0.301987 0.723618 0.371538
O O4 0.255229 0.791382 0.235621
O O5 0.500000 0.655382 0.573427
O O6 0.268403 0.594147 0.611465
O O7 0.306145 0.627175 0.448742
O O8 0.237999 0.701765 0.566888
O O9 0.221923 0.914146 0.284065
O O10 0.000000 0.921293 0.170484
O O11 0.205534 0.000000 0.180629
O O12 0.500000 0.915941 0.521284
O O13 0.766501 0.930889 0.454410
O O14 0.730453 0.903065 0.624537
O O15 0.668270 0.000000 0.572742
O O16 0.000000 0.383916 0.890287
O O17 0.500000 0.149616 0.819809
O O18 0.782104 0.134015 0.783168
O O19 0.796124 0.700107 0.141476
O O20 0.000000 0.778323 0.162804
O O21 0.000000 0.377404 0.171401
#
# Coordination Sequence:
#
# PCOD8180564 Si02
#       8
#     8   8   8   8   8   8   8   8
#     4  10  19  34  56  85 119 158 197 237 288 349
#     4  11  22  36  58  88 119 157 201 244 293 349
#     4  10  22  40  60  83 117 159 198 242 297 352
#     4  11  25  43  63  87 117 156 202 251 302 358
#     4  11  22  37  59  88 121 158 197 243 296 354
#     4   9  21  39  58  85 122 160 198 243 296 352
#     4  10  20  35  55  85 120 155 193 237 292 353
#     4  10  22  40  63  90 117 153 199 248 302 354
#
# _framework density 9.8765429999999999
#
# number of rings (size 3 to 8) (size 9 to 14) (size 15 to 20)
#    0.000    1.750    1.250    2.625    1.750    5.250 
#    0.000    0.625    0.000    0.750    0.000    0.000 
#    0.000    0.000    0.000    0.000    0.000    0.000 
#
# Total GULP energy -396906.698831 kJ/mol
# GULP energy per Si atom -12403.334338 kJ/mol
# Density = 0.985406 g / cm^3
# Si number density = 9.876543 Si / 1000 Ang^3
#
#
#
# Elastic Constant Matrix: (Units=GPa)
#
#
# Indices 1 2 3 4 5 6 
#
# 1 106.5030 54.8525 55.6006 0.0000 0.0000 0.0000
# 2 54.8525 80.3594 51.2304 0.0000 0.0000 0.0000
# 3 55.6006 51.2304 96.0731 0.0000 0.0000 0.0000
# 4 0.0000 0.0000 0.0000 24.7235 0.0000 0.0000
# 5 0.0000 0.0000 0.0000 0.0000 28.0762 0.0000
# 6 0.0000 0.0000 0.0000 0.0000 0.0000 28.7339
#
#
#
# Elastic Compliance Matrix: (Units=1/GPa)
#
#
# Indices 1 2 3 4 5 6 
#
# 1 0.016039 -0.007621 -0.005218 0.000000 0.000000 0.000000
# 2 -0.007621 0.022475 -0.007574 0.000000 0.000000 0.000000
# 3 -0.005218 -0.007574 0.017467 0.000000 0.000000 0.000000
# 4 0.000000 0.000000 0.000000 0.040447 0.000000 0.000000
# 5 0.000000 0.000000 0.000000 0.000000 0.035617 0.000000
# 6 0.000000 0.000000 0.000000 0.000000 0.000000 0.034802
#
#
# Mechanical properties :
#
#
# Convention : Reuss Voigt Hill
#
# Bulk Modulus (GPa) = 65.98770 67.36696 66.67733
# Shear Modulus (GPa) = 23.50444 24.39017 23.94730
#
# Velocity S-wave (km/s) = 3.45325 3.51772 3.48563
# Velocity P-wave (km/s) = 7.02700 7.11882 7.07306
#
# Compressibility (1/GPa) = 0.01515434
#
# Stress axis : x y z
#
# Youngs Moduli (GPa) = 62.34890 44.49447 57.24954
#
# Poissons Ratio (x) = 0.33910 0.29874
# Poissons Ratio (y) = 0.47517 0.43360
# Poissons Ratio (z) = 0.32535 0.33699
#
# Static dielectric constant tensor:
#      x y z
#    x 3.651840 0.000000 0.000000 
#    y 0.000000 3.473340 0.000000 
#    z 0.000000 0.000000 3.483630 
# 
# 
# High freq. dielectric constant tensor:
#      x y z
#    x 1.779040 0.000000 0.000000 
#    y 0.000000 1.756840 0.000000 
#    z 0.000000 0.000000 1.762310 
# 
# From -- ./inp_files/12834.got.cif
#   From: 2010.03.12/outbox.ucp.g09.slc.cvg/sg38_7_cif.got.tgz:12834.got - 2010.05.04 21:14:20.
