data_PCOD8180504
_publ_section_title
;
Structure prediction by ZEFSAII (Michael W. Deem and Ramdas Pophale) SiO2 
 PCOD8180504
Probable space group: A M M 2
;
_chemical_formula_sum "Si O2"
_cell_formula_units_Z 56
_cell_length_a 8.645838
_cell_length_b 20.299380
_cell_length_c 15.580744
_cell_angle_alpha 90.000000
_cell_angle_beta 90.000000
_cell_angle_gamma 90.000000
_cell_volume 2734.500828
_symmetry_space_group_name_H-M "A M M 2"
_symmetry_group_IT_number 38
_symmetry_cell_setting 'orthorhombic'
loop_
_space_group_symop_operation_xyz
x,y,z
-x,-y,z
-x,y,z
x,-y,z
x,1/2+y,1/2+z
-x,1/2-y,1/2+z
-x,1/2+y,1/2+z
x,1/2-y,1/2+z
loop_
_atom_site_type_symbol
_atom_site_label
_atom_site_fract_x
_atom_site_fract_y
_atom_site_fract_z
Si Si1 0.180322 0.424668 0.766500
Si Si2 0.834388 0.072993 0.082255
Si Si3 0.179922 0.749350 0.010058
Si Si4 0.320629 0.803030 0.344191
Si Si5 0.676350 0.121008 0.935441
Si Si6 0.683318 0.205459 0.689743
Si Si7 0.182553 0.924551 0.758883
O O1 0.235518 0.500000 0.779727
O O2 0.211868 0.392866 0.671676
O O3 0.289308 0.378672 0.822817
O O4 0.000000 0.416779 0.790965
O O5 0.000000 0.101468 0.046543
O O6 0.867535 0.000000 0.115193
O O7 0.697202 0.068967 0.012232
O O8 0.233248 0.701661 0.934568
O O9 0.219294 0.821149 0.974035
O O10 0.000000 0.740368 0.027851
O O11 0.266204 0.737554 0.100090
O O12 0.500000 0.790183 0.359474
O O13 0.261475 0.749912 0.271928
O O14 0.500000 0.143173 0.921307
O O15 0.740015 0.089008 0.850040
O O16 0.500000 0.199461 0.690821
O O17 0.754446 0.131301 0.694168
O O18 0.000000 0.917135 0.767715
O O19 0.224778 0.000000 0.729815
#
# Coordination Sequence:
#
# PCOD8180504 Si02
#       7
#     8   8   8   8   8   8   8
#     4   9  19  36  58  85 119 161 206 252 307 373
#     4   9  18  33  53  80 116 157 200 244 297 368
#     4  12  25  41  65  91 122 164 213 265 318 386
#     4  11  23  40  63  93 126 161 204 260 321 383
#     4  12  23  36  56  88 125 161 207 263 322 381
#     4  11  24  43  67  96 132 169 212 270 331 392
#     4  11  24  42  65  93 128 173 223 271 326 396
#
# _framework density 20.479057000000001
#
# number of rings (size 3 to 8) (size 9 to 14) (size 15 to 20)
#    0.000    1.286    1.429    6.000    0.000    8.000 
#    0.000    2.143    0.000    4.286    0.000    0.000 
#    0.000    0.000    0.000    0.000    0.000    0.000 
#
# Total GULP energy -346885.984457 kJ/mol
# GULP energy per Si atom -12388.785159 kJ/mol
# Density = 2.043245 g / cm^3
# Si number density = 20.479057 Si / 1000 Ang^3
#
#
#
# Elastic Constant Matrix: (Units=GPa)
#
#
# Indices 1 2 3 4 5 6 
#
# 1 88.8759 26.7641 23.7511 0.0000 0.0000 0.0000
# 2 26.7641 100.5322 21.7596 0.0000 0.0000 0.0000
# 3 23.7511 21.7596 77.3940 0.0000 0.0000 0.0000
# 4 0.0000 0.0000 0.0000 36.5028 0.0000 0.0000
# 5 0.0000 0.0000 0.0000 0.0000 30.2726 0.0000
# 6 0.0000 0.0000 0.0000 0.0000 0.0000 -40.2626
#
#
#
# Elastic Compliance Matrix: (Units=1/GPa)
#
#
# Indices 1 2 3 4 5 6 
#
# 1 0.012934 -0.002752 -0.003196 0.000000 0.000000 0.000000
# 2 -0.002752 0.011177 -0.002298 0.000000 0.000000 0.000000
# 3 -0.003196 -0.002298 0.014548 0.000000 0.000000 0.000000
# 4 0.000000 0.000000 0.000000 0.027395 0.000000 0.000000
# 5 0.000000 0.000000 0.000000 0.000000 0.033033 0.000000
# 6 0.000000 0.000000 0.000000 0.000000 0.000000 -0.024837
#
#
# Mechanical properties :
#
#
# Convention : Reuss Voigt Hill
#
# Bulk Modulus (GPa) = 45.10967 45.70574 45.40770
# Shear Modulus (GPa) = 50.95250 18.27106 34.61178
#
# Velocity S-wave (km/s) = 4.99343 2.99018 4.11555
# Velocity P-wave (km/s) = 7.43779 5.85562 6.69362
#
# Compressibility (1/GPa) = 0.02216820
#
# Stress axis : x y z
#
# Youngs Moduli (GPa) = 77.31373 89.46922 68.73939
#
# Poissons Ratio (x) = 0.24620 0.21967
# Poissons Ratio (y) = 0.21275 0.15796
# Poissons Ratio (z) = 0.24707 0.20560
#
# Static dielectric constant tensor:
#      x y z
#    x 3.862710 0.000000 0.000000 
#    y 0.000000 3.853510 0.000000 
#    z 0.000000 0.000000 3.935830 
# 
# 
# High freq. dielectric constant tensor:
#      x y z
#    x 1.801740 0.000000 0.000000 
#    y 0.000000 1.806980 0.000000 
#    z 0.000000 0.000000 1.794030 
# 
# From -- ./inp_files/12446.got.cif
#   From: 2010.03.12/outbox.cif.g09.slc.cpg/sg38_7_cif.got.tgz:12446.got - 2010.04.14 02:38:36.
