data_PCOD8180288
_publ_section_title
;
Structure prediction by ZEFSAII (Michael W. Deem and Ramdas Pophale) SiO2 
 PCOD8180288
Probable space group: A M M 2
;
_chemical_formula_sum "Si O2"
_cell_formula_units_Z 64
_cell_length_a 9.067440
_cell_length_b 20.533734
_cell_length_c 19.567693
_cell_angle_alpha 90.000000
_cell_angle_beta 90.000000
_cell_angle_gamma 90.000000
_cell_volume 3643.277471
_symmetry_space_group_name_H-M "A M M 2"
_symmetry_group_IT_number 38
_symmetry_cell_setting 'orthorhombic'
loop_
_space_group_symop_operation_xyz
x,y,z
-x,-y,z
-x,y,z
x,-y,z
x,1/2+y,1/2+z
-x,1/2-y,1/2+z
-x,1/2+y,1/2+z
x,1/2-y,1/2+z
loop_
_atom_site_type_symbol
_atom_site_label
_atom_site_fract_x
_atom_site_fract_y
_atom_site_fract_z
Si Si1 0.173925 0.314359 0.817970
Si Si2 0.172457 0.378467 0.178255
Si Si3 0.832910 0.120151 0.524096
Si Si4 0.830690 0.725746 0.524740
Si Si5 0.670402 0.071940 0.804336
Si Si6 0.330771 0.925373 0.396445
Si Si7 0.173040 0.765756 0.173790
Si Si8 0.325144 0.693566 0.392273
O O1 0.232754 0.382631 0.845401
O O2 0.210959 0.312985 0.736891
O O3 0.250793 0.254735 0.855745
O O4 0.000000 0.308897 0.831529
O O5 0.205308 0.401807 0.101092
O O6 0.250254 0.425948 0.231284
O O7 0.239086 0.305773 0.188949
O O8 0.000000 0.379998 0.193846
O O9 0.814159 0.197143 0.514916
O O10 0.722154 0.083039 0.474192
O O11 0.000000 0.100010 0.505682
O O12 0.770907 0.706154 0.600817
O O13 0.728658 0.688865 0.470381
O O14 0.000000 0.704152 0.513890
O O15 0.500000 0.084156 0.790181
O O16 0.729252 0.127140 0.856007
O O17 0.698637 0.000000 0.836034
O O18 0.500000 0.902856 0.391526
O O19 0.312245 0.000000 0.373996
O O20 0.000000 0.754922 0.163807
O O21 0.500000 0.702166 0.390294
#
# Coordination Sequence:
#
# PCOD8180288 Si02
#       8
#     8   8   8   8   8   8   8   8
#     4  11  20  34  58  81 102 134 173 216 263 311
#     4   9  17  32  52  76 105 136 175 216 255 304
#     4   9  18  32  52  76 104 140 176 212 255 306
#     4   9  17  32  54  79 105 134 167 211 262 312
#     4  10  22  37  50  70 106 147 180 213 258 309
#     4  11  24  38  51  73 108 144 176 215 258 303
#     4   8  16  31  53  80 106 130 164 211 263 309
#     4  11  21  33  52  79 106 136 176 219 259 304
#
# _framework density 17.566600000000001
#
# number of rings (size 3 to 8) (size 9 to 14) (size 15 to 20)
#    0.000    2.250    2.500    2.625    0.000    2.750 
#    0.000    5.625    0.000    0.750    0.000    3.500 
#    0.000    0.000    0.000    0.000    0.000    0.000 
#
# Total GULP energy -396737.550012 kJ/mol
# GULP energy per Si atom -12398.048438 kJ/mol
# Density = 1.752662 g / cm^3
# Si number density = 17.566600 Si / 1000 Ang^3
#
#
#
# Elastic Constant Matrix: (Units=GPa)
#
#
# Indices 1 2 3 4 5 6 
#
# 1 65.0580 35.9137 46.1609 0.0000 0.0000 0.0000
# 2 35.9137 81.9232 53.6254 0.0000 0.0000 0.0000
# 3 46.1609 53.6254 124.8254 0.0000 0.0000 0.0000
# 4 0.0000 0.0000 0.0000 23.5018 0.0000 0.0000
# 5 0.0000 0.0000 0.0000 0.0000 17.4049 0.0000
# 6 0.0000 0.0000 0.0000 0.0000 0.0000 18.8905
#
#
#
# Elastic Compliance Matrix: (Units=1/GPa)
#
#
# Indices 1 2 3 4 5 6 
#
# 1 0.022938 -0.006265 -0.005791 0.000000 0.000000 0.000000
# 2 -0.006265 0.018693 -0.005714 0.000000 0.000000 0.000000
# 3 -0.005791 -0.005714 0.012608 0.000000 0.000000 0.000000
# 4 0.000000 0.000000 0.000000 0.042550 0.000000 0.000000
# 5 0.000000 0.000000 0.000000 0.000000 0.057455 0.000000
# 6 0.000000 0.000000 0.000000 0.000000 0.000000 0.052937
#
#
# Mechanical properties :
#
#
# Convention : Reuss Voigt Hill
#
# Bulk Modulus (GPa) = 53.47887 60.35630 56.91758
# Shear Modulus (GPa) = 20.08404 21.03321 20.55863
#
# Velocity S-wave (km/s) = 3.38495 3.46402 3.42471
# Velocity P-wave (km/s) = 6.76659 7.10157 6.93611
#
# Compressibility (1/GPa) = 0.01869897
#
# Stress axis : x y z
#
# Youngs Moduli (GPa) = 43.59495 53.49539 79.31776
#
# Poissons Ratio (x) = 0.33515 0.45935
# Poissons Ratio (y) = 0.27312 0.45321
# Poissons Ratio (z) = 0.25247 0.30566
#
# Static dielectric constant tensor:
#      x y z
#    x 3.153160 0.000000 0.000000 
#    y 0.000000 3.093930 0.000000 
#    z 0.000000 0.000000 3.518090 
# 
# 
# High freq. dielectric constant tensor:
#      x y z
#    x 1.669790 0.000000 0.000000 
#    y 0.000000 1.653590 0.000000 
#    z 0.000000 0.000000 1.685480 
# 
# From -- ./inp_files/20039.got.cif
#   From: 2010.03.12/outbox.cif.g09.slc.cpg/sg38_11_cif.got.tgz:20039.got - 2010.04.14 02:38:36.
