data_PCOD8180431
_publ_section_title
;
Structure prediction by ZEFSAII (Michael W. Deem and Ramdas Pophale) SiO2 
 PCOD8180431
Probable space group: A M M 2
;
_chemical_formula_sum "Si O2"
_cell_formula_units_Z 56
_cell_length_a 21.462339
_cell_length_b 8.726526
_cell_length_c 15.372762
_cell_angle_alpha 90.000000
_cell_angle_beta 90.000000
_cell_angle_gamma 90.000000
_cell_volume 2879.190103
_symmetry_space_group_name_H-M "A M M 2"
_symmetry_group_IT_number 38
_symmetry_cell_setting 'orthorhombic'
loop_
_space_group_symop_operation_xyz
x,y,z
-x,-y,z
-x,y,z
x,-y,z
x,1/2+y,1/2+z
-x,1/2-y,1/2+z
-x,1/2+y,1/2+z
x,1/2-y,1/2+z
loop_
_atom_site_type_symbol
_atom_site_label
_atom_site_fract_x
_atom_site_fract_y
_atom_site_fract_z
Si Si1 0.348171 0.320166 0.657930
Si Si2 0.426955 0.176417 0.806025
Si Si3 0.000000 0.822284 0.558855
Si Si4 0.000000 0.678823 0.263188
Si Si5 0.569015 0.181704 0.001283
Si Si6 0.870435 0.820791 0.307424
Si Si7 0.131040 0.320405 0.002539
Si Si8 0.787066 0.681062 0.159283
O O1 0.338551 0.500000 0.649892
O O2 0.389004 0.285348 0.742445
O O3 0.382794 0.252716 0.572328
O O4 0.281868 0.243247 0.666849
O O5 0.500000 0.200800 0.789908
O O6 0.408401 0.000000 0.789589
O O7 0.409184 0.227021 0.904251
O O8 0.937476 0.745780 0.518810
O O9 0.000000 0.794454 0.660996
O O10 0.000000 0.000000 0.534416
O O11 0.940427 0.760154 0.304000
O O12 0.000000 0.500000 0.286972
O O13 0.500000 0.249771 0.020069
O O14 0.565057 0.000000 0.008418
O O15 0.845444 0.788080 0.405048
O O16 0.826145 0.730331 0.242870
O O17 0.868989 0.000000 0.285045
O O18 0.124988 0.500000 0.021348
O O19 0.180498 0.252291 0.071756
O O20 0.784210 0.500000 0.157401
#
# Coordination Sequence:
#
# PCOD8180431 Si02
#       8
#     8   8   4   4   8   8   8   8
#     4  11  22  36  56  83 115 149 188 233 281 328
#     4   9  18  35  59  86 115 148 186 227 275 334
#     4   9  15  31  59  84 107 141 182 218 267 332
#     4  11  20  35  61  88 117 151 186 222 275 342
#     4   8  16  33  57  83 112 146 183 227 280 331
#     4  11  22  38  61  88 114 142 186 239 287 328
#     4   9  19  36  60  83 108 147 186 228 282 340
#     4  11  23  41  59  78 110 154 195 230 278 339
#
# _framework density 19.449912999999999
#
# number of rings (size 3 to 8) (size 9 to 14) (size 15 to 20)
#    0.000    2.143    1.429    3.214    0.000    3.143 
#    0.000    7.143    0.000    1.714    0.000    0.000 
#    0.000    0.000    0.000    0.000    0.000    0.000 
#
# Total GULP energy -347180.748110 kJ/mol
# GULP energy per Si atom -12399.312432 kJ/mol
# Density = 1.940564 g / cm^3
# Si number density = 19.449913 Si / 1000 Ang^3
#
#
#
# Elastic Constant Matrix: (Units=GPa)
#
#
# Indices 1 2 3 4 5 6 
#
# 1 116.7772 27.9459 73.6028 0.0000 0.0000 0.0000
# 2 27.9459 45.8161 26.2811 0.0000 0.0000 0.0000
# 3 73.6028 26.2811 119.1460 0.0000 0.0000 0.0000
# 4 0.0000 0.0000 0.0000 25.9230 0.0000 0.0000
# 5 0.0000 0.0000 0.0000 0.0000 14.3374 0.0000
# 6 0.0000 0.0000 0.0000 0.0000 0.0000 14.6000
#
#
#
# Elastic Compliance Matrix: (Units=1/GPa)
#
#
# Indices 1 2 3 4 5 6 
#
# 1 0.014731 -0.004311 -0.008150 0.000000 0.000000 0.000000
# 2 -0.004311 0.026250 -0.003127 0.000000 0.000000 0.000000
# 3 -0.008150 -0.003127 0.014117 0.000000 0.000000 0.000000
# 4 0.000000 0.000000 0.000000 0.038576 0.000000 0.000000
# 5 0.000000 0.000000 0.000000 0.000000 0.069748 0.000000
# 6 0.000000 0.000000 0.000000 0.000000 0.000000 0.068493
#
#
# Mechanical properties :
#
#
# Convention : Reuss Voigt Hill
#
# Bulk Modulus (GPa) = 41.80006 59.71098 50.75552
# Shear Modulus (GPa) = 18.44583 21.23273 19.83928
#
# Velocity S-wave (km/s) = 3.08291 3.30762 3.19724
# Velocity P-wave (km/s) = 5.84895 6.73451 6.30729
#
# Compressibility (1/GPa) = 0.02392341
#
# Stress axis : x y z
#
# Youngs Moduli (GPa) = 67.88206 38.09587 70.83555
#
# Poissons Ratio (x) = 0.16422 0.57727
# Poissons Ratio (y) = 0.29263 0.22151
# Poissons Ratio (z) = 0.55321 0.11913
#
# Static dielectric constant tensor:
#      x y z
#    x 3.716880 0.000000 0.000000 
#    y 0.000000 3.246400 0.000000 
#    z 0.000000 0.000000 3.767330 
# 
# 
# High freq. dielectric constant tensor:
#      x y z
#    x 1.759210 0.000000 0.000000 
#    y 0.000000 1.727100 0.000000 
#    z 0.000000 0.000000 1.772990 
# 
# From -- ./inp_files/15546.got.cif
#   From: 2010.03.12/outbox.cif.g09.slc.cpg/sg38_8_cif.got.tgz:15546.got - 2010.04.14 02:38:36.
