data_PCOD8180557
_publ_section_title
;
Structure prediction by ZEFSAII (Michael W. Deem and Ramdas Pophale) SiO2 
 PCOD8180557
Probable space group: A M M 2
;
_chemical_formula_sum "Si O2"
_cell_formula_units_Z 64
_cell_length_a 18.971355
_cell_length_b 19.537371
_cell_length_c 10.317270
_cell_angle_alpha 90.000000
_cell_angle_beta 90.000000
_cell_angle_gamma 90.000000
_cell_volume 3824.100263
_symmetry_space_group_name_H-M "A M M 2"
_symmetry_group_IT_number 38
_symmetry_cell_setting 'orthorhombic'
loop_
_space_group_symop_operation_xyz
x,y,z
-x,-y,z
-x,y,z
x,-y,z
x,1/2+y,1/2+z
-x,1/2-y,1/2+z
-x,1/2+y,1/2+z
x,1/2-y,1/2+z
loop_
_atom_site_type_symbol
_atom_site_label
_atom_site_fract_x
_atom_site_fract_y
_atom_site_fract_z
Si Si1 0.307766 0.577703 0.379430
Si Si2 0.919428 0.418268 0.729581
Si Si3 0.840247 0.918697 0.481869
Si Si4 0.581367 0.692360 0.081340
Si Si5 0.692234 0.422297 0.079731
Si Si6 0.920857 0.418230 0.229581
Si Si7 0.418633 0.307640 0.377821
Si Si8 0.159753 0.418697 0.477293
O O1 0.329236 0.500000 0.414264
O O2 0.284269 0.582529 0.229581
O O3 0.374736 0.624495 0.409870
O O4 0.241864 0.602734 0.467047
O O5 0.919985 0.500000 0.729581
O O6 0.876889 0.389273 0.853040
O O7 0.876889 0.389273 0.606122
O O8 0.000000 0.391077 0.729581
O O9 0.758136 0.897266 0.492114
O O10 0.882535 0.888145 0.603335
O O11 0.845524 0.000000 0.483997
O O12 0.500000 0.673118 0.060363
O O13 0.625264 0.624495 0.049292
O O14 0.594749 0.717351 0.229581
O O15 0.605344 0.750000 0.979581
O O16 0.670764 0.500000 0.044897
O O17 0.918901 0.500000 0.229581
O O18 0.882535 0.388145 0.355826
O O19 0.000000 0.390446 0.229581
O O20 0.500000 0.326882 0.398799
O O21 0.154476 0.500000 0.475165
#
# Coordination Sequence:
#
# PCOD8180557 Si02
#       8
#     8   8   8   8   8   8   8   8
#     4   9  16  28  47  70  96 124 155 193 233 275
#     4   9  16  24  34  52  84 123 156 184 221 273
#     4   9  15  24  36  55  85 118 149 186 228 268
#     4   9  18  33  52  72  95 123 155 192 231 273
#     4   9  16  28  47  70  96 124 155 193 233 275
#     4   9  14  20  34  54  78 113 150 180 221 273
#     4   9  18  33  52  72  95 123 155 192 231 273
#     4   9  15  24  36  55  85 118 149 186 228 268
#
# _framework density 16.735962000000001
#
# number of rings (size 3 to 8) (size 9 to 14) (size 15 to 20)
#    0.000    3.000    1.250    0.750    0.000    3.500 
#    2.250    2.500    0.000    0.000    0.000    3.500 
#    0.000    6.000    0.000    0.000    0.000    0.000 
#
# Total GULP energy -396670.181275 kJ/mol
# GULP energy per Si atom -12395.943165 kJ/mol
# Density = 1.669787 g / cm^3
# Si number density = 16.735962 Si / 1000 Ang^3
#
#
#
# Elastic Constant Matrix: (Units=GPa)
#
#
# Indices 1 2 3 4 5 6 
#
# 1 117.1271 51.1267 66.5716 0.0000 0.0000 0.0000
# 2 51.1267 50.6333 36.0855 0.0000 0.0000 0.0000
# 3 66.5716 36.0855 121.3711 0.0000 0.0000 0.0000
# 4 0.0000 0.0000 0.0000 14.5079 0.0000 0.0000
# 5 0.0000 0.0000 0.0000 0.0000 29.7233 0.0000
# 6 0.0000 0.0000 0.0000 0.0000 0.0000 3.2485
#
#
#
# Elastic Compliance Matrix: (Units=1/GPa)
#
#
# Indices 1 2 3 4 5 6 
#
# 1 0.017854 -0.014020 -0.005625 0.000000 0.000000 0.000000
# 2 -0.014020 0.036068 -0.003034 0.000000 0.000000 0.000000
# 3 -0.005625 -0.003034 0.012226 0.000000 0.000000 0.000000
# 4 0.000000 0.000000 0.000000 0.068928 0.000000 0.000000
# 5 0.000000 0.000000 0.000000 0.000000 0.033644 0.000000
# 6 0.000000 0.000000 0.000000 0.000000 0.000000 0.307833
#
#
# Mechanical properties :
#
#
# Convention : Reuss Voigt Hill
#
# Bulk Modulus (GPa) = 48.09462 66.29989 57.19725
# Shear Modulus (GPa) = 9.45462 18.51911 13.98687
#
# Velocity S-wave (km/s) = 2.37940 3.33009 2.89405
# Velocity P-wave (km/s) = 6.02896 7.38154 6.73927
#
# Compressibility (1/GPa) = 0.02079235
#
# Stress axis : x y z
#
# Youngs Moduli (GPa) = 56.00869 27.72512 81.79014
#
# Poissons Ratio (x) = 0.38870 0.46005
# Poissons Ratio (y) = 0.78522 0.24815
# Poissons Ratio (z) = 0.31504 0.08412
#
# Static dielectric constant tensor:
#      x y z
#    x 3.228090 0.000000 0.000000 
#    y 0.000000 2.584820 0.000000 
#    z 0.000000 0.000000 3.345120 
# 
# 
# High freq. dielectric constant tensor:
#      x y z
#    x 1.657510 0.000000 0.000000 
#    y 0.000000 1.577130 0.000000 
#    z 0.000000 0.000000 1.646250 
# 
# From -- ./inp_files/6519.got.cif
#   From: 2010.03.12/outbox.cif.g09.slc.cpg/sg38_4_cif.got.tgz:6519.got - 2010.04.14 02:38:36.
