data_PCOD8180833
_publ_section_title
;
Structure prediction by ZEFSAII (Michael W. Deem and Ramdas Pophale) SiO2 
 PCOD8180833
Probable space group: A B M 2
;
_chemical_formula_sum "Si O2"
_cell_formula_units_Z 64
_cell_length_a 16.330371
_cell_length_b 21.521149
_cell_length_c 8.870744
_cell_angle_alpha 90.000000
_cell_angle_beta 90.000000
_cell_angle_gamma 90.000000
_cell_volume 3117.608320
_symmetry_space_group_name_H-M "A B M 2"
_symmetry_group_IT_number 39
_symmetry_cell_setting 'orthorhombic'
loop_
_space_group_symop_operation_xyz
x,y,z
-x,-y,z
-x,1/2+y,z
x,1/2-y,z
x,1/2+y,1/2+z
-x,1/2-y,1/2+z
-x,y,1/2+z
x,-y,1/2+z
loop_
_atom_site_type_symbol
_atom_site_label
_atom_site_fract_x
_atom_site_fract_y
_atom_site_fract_z
Si Si1 0.905951 0.321650 0.505790
Si Si2 0.252970 0.144573 0.841963
Si Si3 0.496386 0.107349 0.514702
Si Si4 0.335436 0.455676 0.045229
Si Si5 0.214444 0.175357 0.522589
Si Si6 0.668539 0.079226 0.883733
Si Si7 0.941850 0.676627 0.329756
Si Si8 0.425720 0.182930 0.781205
O O1 0.928496 0.250000 0.519372
O O2 0.811576 0.327852 0.459803
O O3 0.919979 0.353832 0.668322
O O4 0.971106 0.350919 0.387640
O O5 0.206753 0.139505 0.682069
O O6 0.328243 0.189635 0.801334
O O7 0.289384 0.082266 0.914178
O O8 0.565854 0.054443 0.538019
O O9 0.429543 0.086278 0.391439
O O10 0.450727 0.127401 0.668208
O O11 0.539646 0.168266 0.446815
O O12 0.305408 0.439009 0.213592
O O13 0.310632 0.526275 0.007307
O O14 0.229304 0.250000 0.534475
O O15 0.288010 0.144189 0.426535
O O16 0.128735 0.159058 0.446490
O O17 0.946849 0.750000 0.310231
O O18 0.458708 0.250000 0.726317
#
# Coordination Sequence:
#
# PCOD8180833 Si02
#       8
#     8   8   8   8   8   8   8   8
#     4  10  18  33  56  86 126 167 211 259 310 375
#     4  11  22  37  59  89 122 164 208 257 314 371
#     4  11  23  39  60  85 117 160 209 262 310 373
#     4  11  26  42  62  89 117 162 213 264 316 366
#     4  11  22  38  62  93 128 164 204 254 319 379
#     4  12  24  42  64  85 119 158 210 264 311 373
#     4   9  19  33  55  88 126 168 208 254 312 374
#     4  11  22  38  57  87 126 166 206 255 323 381
#
# _framework density 20.528556999999999
#
# number of rings (size 3 to 8) (size 9 to 14) (size 15 to 20)
#    0.000    1.250    2.500    4.125    1.750    3.500 
#    0.000    1.250    0.000    0.750    0.000    5.250 
#    0.000    0.000    0.000    0.000    0.000    0.000 
#
# Total GULP energy -396565.856113 kJ/mol
# GULP energy per Si atom -12392.683004 kJ/mol
# Density = 2.048183 g / cm^3
# Si number density = 20.528557 Si / 1000 Ang^3
#
#
#
# Elastic Constant Matrix: (Units=GPa)
#
#
# Indices 1 2 3 4 5 6 
#
# 1 105.8698 21.0749 53.4939 0.0000 0.0000 0.0000
# 2 21.0749 61.9028 21.6883 0.0000 0.0000 0.0000
# 3 53.4939 21.6883 126.3204 0.0000 0.0000 0.0000
# 4 0.0000 0.0000 0.0000 27.1161 0.0000 0.0000
# 5 0.0000 0.0000 0.0000 0.0000 36.6215 0.0000
# 6 0.0000 0.0000 0.0000 0.0000 0.0000 16.1028
#
#
#
# Elastic Compliance Matrix: (Units=1/GPa)
#
#
# Indices 1 2 3 4 5 6 
#
# 1 0.012378 -0.002530 -0.004808 0.000000 0.000000 0.000000
# 2 -0.002530 0.017705 -0.001969 0.000000 0.000000 0.000000
# 3 -0.004808 -0.001969 0.010290 0.000000 0.000000 0.000000
# 4 0.000000 0.000000 0.000000 0.036879 0.000000 0.000000
# 5 0.000000 0.000000 0.000000 0.000000 0.027306 0.000000
# 6 0.000000 0.000000 0.000000 0.000000 0.000000 0.062101
#
#
# Mechanical properties :
#
#
# Convention : Reuss Voigt Hill
#
# Bulk Modulus (GPa) = 45.95166 54.06746 50.00956
# Shear Modulus (GPa) = 25.97053 29.15714 27.56383
#
# Velocity S-wave (km/s) = 3.56067 3.77280 3.66827
# Velocity P-wave (km/s) = 6.27195 6.73599 6.50811
#
# Compressibility (1/GPa) = 0.02176200
#
# Stress axis : x y z
#
# Youngs Moduli (GPa) = 80.78622 56.48013 97.17917
#
# Poissons Ratio (x) = 0.14289 0.46720
# Poissons Ratio (y) = 0.20438 0.19130
# Poissons Ratio (z) = 0.38839 0.11118
#
# Static dielectric constant tensor:
#      x y z
#    x 3.765510 0.000000 0.000000 
#    y 0.000000 3.324790 0.000000 
#    z 0.000000 0.000000 3.944800 
# 
# 
# High freq. dielectric constant tensor:
#      x y z
#    x 1.802040 0.000000 0.000000 
#    y 0.000000 1.760580 0.000000 
#    z 0.000000 0.000000 1.821950 
# 
# From -- ./inp_files/3536.got.cif
#   From: 2010.03.12/outbox.cif.g09.slc.cpg/sg39_2_cif.got.tgz:3536.got - 2010.04.14 02:53:20.
