data_PCOD8180880
_publ_section_title
;
Structure prediction by ZEFSAII (Michael W. Deem and Ramdas Pophale) SiO2 
 PCOD8180880
Probable space group: A B M 2
;
_chemical_formula_sum "Si O2"
_cell_formula_units_Z 56
_cell_length_a 15.240587
_cell_length_b 9.066592
_cell_length_c 25.263757
_cell_angle_alpha 90.000000
_cell_angle_beta 90.000000
_cell_angle_gamma 90.000000
_cell_volume 3490.950595
_symmetry_space_group_name_H-M "A B M 2"
_symmetry_group_IT_number 39
_symmetry_cell_setting 'orthorhombic'
loop_
_space_group_symop_operation_xyz
x,y,z
-x,-y,z
-x,1/2+y,z
x,1/2-y,z
x,1/2+y,1/2+z
-x,1/2-y,1/2+z
-x,y,1/2+z
x,-y,1/2+z
loop_
_atom_site_type_symbol
_atom_site_label
_atom_site_fract_x
_atom_site_fract_y
_atom_site_fract_z
Si Si1 0.405982 0.424316 0.857380
Si Si2 0.741241 0.576585 0.061297
Si Si3 0.592179 0.078691 0.639545
Si Si4 0.084988 0.584107 0.936439
Si Si5 0.915363 0.583881 0.562487
Si Si6 0.258359 0.421193 0.940139
Si Si7 0.406790 0.922598 0.756378
O O1 0.500000 0.500000 0.867832
O O2 0.418352 0.250000 0.849931
O O3 0.344375 0.461986 0.906939
O O4 0.358127 0.494334 0.805021
O O5 0.755526 0.750000 0.068428
O O6 0.660471 0.518091 0.096414
O O7 0.828272 0.497333 0.082704
O O8 0.721469 0.533810 0.000621
O O9 0.573443 0.250000 0.630704
O O10 0.634727 0.052198 0.698129
O O11 0.500000 0.000000 0.631315
O O12 0.083393 0.750000 0.914452
O O13 0.174507 0.507475 0.917022
O O14 0.000000 0.500000 0.913220
O O15 0.081609 0.581057 0.999451
O O16 0.915728 0.750000 0.584307
O O17 0.000000 0.500000 0.585787
O O18 0.234542 0.250000 0.935990
O O19 0.415388 0.750000 0.769607
O O20 0.500000 0.000000 0.754526
#
# Coordination Sequence:
#
# PCOD8180880 Si02
#       7
#     8   8   8   8   8   8   8
#     4  10  19  30  44  63  86 114 146 180 215 252
#     4   9  17  30  44  61  88 118 144 174 211 254
#     4   9  18  30  45  64  86 113 145 179 216 253
#     4   9  16  26  42  62  85 112 143 177 212 249
#     4   9  16  26  41  62  85 112 144 177 211 249
#     4   9  18  30  43  61  88 118 146 174 209 254
#     4   9  16  28  45  63  81 105 141 183 220 253
#
# _framework density 16.041474999999998
#
# number of rings (size 3 to 8) (size 9 to 14) (size 15 to 20)
#    0.000    2.857    0.000    2.571    0.000    6.286 
#    0.000    0.000    0.000    0.000    0.000    1.000 
#    0.000    6.857    0.000    0.000    0.000    0.000 
#
# Total GULP energy -347038.902961 kJ/mol
# GULP energy per Si atom -12394.246534 kJ/mol
# Density = 1.600496 g / cm^3
# Si number density = 16.041475 Si / 1000 Ang^3
#
#
#
# Elastic Constant Matrix: (Units=GPa)
#
#
# Indices 1 2 3 4 5 6 
#
# 1 119.9726 60.1210 57.7734 0.0000 0.0000 0.0000
# 2 60.1210 91.6921 40.2710 0.0000 0.0000 0.0000
# 3 57.7734 40.2710 75.8662 0.0000 0.0000 0.0000
# 4 0.0000 0.0000 0.0000 17.4097 0.0000 0.0000
# 5 0.0000 0.0000 0.0000 0.0000 2.5031 0.0000
# 6 0.0000 0.0000 0.0000 0.0000 0.0000 28.5983
#
#
#
# Elastic Compliance Matrix: (Units=1/GPa)
#
#
# Indices 1 2 3 4 5 6 
#
# 1 0.015714 -0.006582 -0.008472 0.000000 0.000000 0.000000
# 2 -0.006582 0.016979 -0.004000 0.000000 0.000000 0.000000
# 3 -0.008472 -0.004000 0.021756 0.000000 0.000000 0.000000
# 4 0.000000 0.000000 0.000000 0.057439 0.000000 0.000000
# 5 0.000000 0.000000 0.000000 0.000000 0.399507 0.000000
# 6 0.000000 0.000000 0.000000 0.000000 0.000000 0.034967
#
#
# Mechanical properties :
#
#
# Convention : Reuss Voigt Hill
#
# Bulk Modulus (GPa) = 61.20171 67.09572 64.14872
# Shear Modulus (GPa) = 8.47576 18.32658 13.40117
#
# Velocity S-wave (km/s) = 2.30111 3.38368 2.89348
# Velocity P-wave (km/s) = 6.73017 7.56194 7.15815
#
# Compressibility (1/GPa) = 0.01633941
#
# Stress axis : x y z
#
# Youngs Moduli (GPa) = 63.63940 58.89729 45.96386
#
# Poissons Ratio (x) = 0.38767 0.38942
# Poissons Ratio (y) = 0.41888 0.18386
# Poissons Ratio (z) = 0.53917 0.23560
#
# Static dielectric constant tensor:
#      x y z
#    x 2.974270 0.000000 0.000000 
#    y 0.000000 3.186200 0.000000 
#    z 0.000000 0.000000 3.279230 
# 
# 
# High freq. dielectric constant tensor:
#      x y z
#    x 1.602380 0.000000 0.000000 
#    y 0.000000 1.628710 0.000000 
#    z 0.000000 0.000000 1.584600 
# 
# From -- ./inp_files/14938.got.cif
#   From: 2010.03.12/outbox.cif.g09.slc.cpg/sg39_8_cif.got.tgz:14938.got - 2010.04.14 02:53:20.
