data_PCOD8180052
_publ_section_title
;
Structure prediction by ZEFSAII (Michael W. Deem and Ramdas Pophale) SiO2 
 PCOD8180052
Probable space group: A M M 2
;
_chemical_formula_sum "Si O2"
_cell_formula_units_Z 64
_cell_length_a 19.775491
_cell_length_b 9.102349
_cell_length_c 18.541728
_cell_angle_alpha 90.000000
_cell_angle_beta 90.000000
_cell_angle_gamma 90.000000
_cell_volume 3337.574466
_symmetry_space_group_name_H-M "A M M 2"
_symmetry_group_IT_number 38
_symmetry_cell_setting 'orthorhombic'
loop_
_space_group_symop_operation_xyz
x,y,z
-x,-y,z
-x,y,z
x,-y,z
x,1/2+y,1/2+z
-x,1/2-y,1/2+z
-x,1/2+y,1/2+z
x,1/2-y,1/2+z
loop_
_atom_site_type_symbol
_atom_site_label
_atom_site_fract_x
_atom_site_fract_y
_atom_site_fract_z
Si Si1 0.680309 0.168562 0.830400
Si Si2 0.815311 0.173062 0.575290
Si Si3 0.421709 0.829382 0.425380
Si Si4 0.190344 0.830305 0.926405
Si Si5 0.683783 0.170408 0.664210
Si Si6 0.078740 0.170864 0.170310
Si Si7 0.578294 0.828450 0.070993
Si Si8 0.922518 0.169272 0.815198
O O1 0.619384 0.270241 0.857240
O O2 0.747853 0.204219 0.873802
O O3 0.695223 0.206066 0.747694
O O4 0.658168 0.000000 0.840092
O O5 0.802520 0.225539 0.494429
O O6 0.751041 0.219942 0.622746
O O7 0.881762 0.250732 0.606005
O O8 0.827030 0.000000 0.576450
O O9 0.500000 0.797730 0.409684
O O10 0.396992 0.746521 0.497141
O O11 0.406866 0.000000 0.436808
O O12 0.121542 0.789216 0.884686
O O13 0.189821 0.000000 0.951168
O O14 0.620179 0.264046 0.637296
O O15 0.667804 0.000000 0.650529
O O16 0.101363 0.235206 0.247294
O O17 0.000000 0.201529 0.156672
O O18 0.096169 0.000000 0.169596
O O19 0.500000 0.793570 0.086074
O O20 0.592423 0.000000 0.063547
O O21 0.000000 0.201977 0.835749
O O22 0.910948 0.000000 0.793453
#
# Coordination Sequence:
#
# PCOD8180052 Si02
#       8
#     8   8   8   8   8   8   8   8
#     4  10  21  37  57  80 109 145 183 226 274 326
#     4  11  23  38  57  82 112 146 186 230 275 326
#     4  10  21  37  57  81 110 143 180 225 275 327
#     4  10  21  37  56  81 113 146 183 227 274 324
#     4  10  22  39  58  82 112 146 185 228 275 328
#     4  10  21  37  58  84 113 145 183 227 274 326
#     4  10  21  37  58  84 113 146 185 227 272 325
#     4   9  18  35  59  83 110 146 183 221 269 324
#
# _framework density 19.175602999999999
#
# number of rings (size 3 to 8) (size 9 to 14) (size 15 to 20)
#    0.000    2.000    0.000    3.000    0.000    9.750 
#    0.000    5.000    0.000    0.000    0.000    0.000 
#    0.000    0.000    0.000    0.000    0.000    0.000 
#
# Total GULP energy -397008.854487 kJ/mol
# GULP energy per Si atom -12406.526703 kJ/mol
# Density = 1.913196 g / cm^3
# Si number density = 19.175603 Si / 1000 Ang^3
#
#
#
# Elastic Constant Matrix: (Units=GPa)
#
#
# Indices 1 2 3 4 5 6 
#
# 1 91.4906 56.0291 66.4752 0.0000 0.0000 0.0000
# 2 56.0291 91.0994 63.3005 0.0000 0.0000 0.0000
# 3 66.4752 63.3005 139.8926 0.0000 0.0000 0.0000
# 4 0.0000 0.0000 0.0000 38.4836 0.0000 0.0000
# 5 0.0000 0.0000 0.0000 0.0000 40.1406 0.0000
# 6 0.0000 0.0000 0.0000 0.0000 0.0000 28.9537
#
#
#
# Elastic Compliance Matrix: (Units=1/GPa)
#
#
# Indices 1 2 3 4 5 6 
#
# 1 0.020358 -0.008458 -0.005846 0.000000 0.000000 0.000000
# 2 -0.008458 0.019525 -0.004816 0.000000 0.000000 0.000000
# 3 -0.005846 -0.004816 0.012106 0.000000 0.000000 0.000000
# 4 0.000000 0.000000 0.000000 0.025985 0.000000 0.000000
# 5 0.000000 0.000000 0.000000 0.000000 0.024912 0.000000
# 6 0.000000 0.000000 0.000000 0.000000 0.000000 0.034538
#
#
# Mechanical properties :
#
#
# Convention : Reuss Voigt Hill
#
# Bulk Modulus (GPa) = 72.73948 77.12137 74.93042
# Shear Modulus (GPa) = 27.73949 30.62743 29.18346
#
# Velocity S-wave (km/s) = 3.80755 4.00084 3.90539
# Velocity P-wave (km/s) = 7.57269 7.85163 7.71342
#
# Compressibility (1/GPa) = 0.01374769
#
# Stress axis : x y z
#
# Youngs Moduli (GPa) = 49.12093 51.21515 82.60604
#
# Poissons Ratio (x) = 0.43320 0.48295
# Poissons Ratio (y) = 0.41548 0.39782
# Poissons Ratio (z) = 0.28718 0.24664
#
# Static dielectric constant tensor:
#      x y z
#    x 3.574830 0.000000 0.000000 
#    y 0.000000 3.518410 0.000000 
#    z 0.000000 0.000000 3.453800 
# 
# 
# High freq. dielectric constant tensor:
#      x y z
#    x 1.754030 0.000000 0.000000 
#    y 0.000000 1.747750 0.000000 
#    z 0.000000 0.000000 1.747290 
# 
# From -- ./inp_files/18957.got.cif
#   From: 2010.03.12/outbox.cif.g09.slc.cpg/sg38_10_cif.got.tgz:18957.got - 2010.04.14 02:38:36.
