data_PCOD8180281
_publ_section_title
;
Structure prediction by ZEFSAII (Michael W. Deem and Ramdas Pophale) SiO2 
 PCOD8180281
Probable space group: A M M 2
;
_chemical_formula_sum "Si O2"
_cell_formula_units_Z 64
_cell_length_a 8.817016
_cell_length_b 30.368053
_cell_length_c 14.356299
_cell_angle_alpha 90.000000
_cell_angle_beta 90.000000
_cell_angle_gamma 90.000000
_cell_volume 3843.979584
_symmetry_space_group_name_H-M "A M M 2"
_symmetry_group_IT_number 38
_symmetry_cell_setting 'orthorhombic'
loop_
_space_group_symop_operation_xyz
x,y,z
-x,-y,z
-x,y,z
x,-y,z
x,1/2+y,1/2+z
-x,1/2-y,1/2+z
-x,1/2+y,1/2+z
x,1/2-y,1/2+z
loop_
_atom_site_type_symbol
_atom_site_label
_atom_site_fract_x
_atom_site_fract_y
_atom_site_fract_z
Si Si1 0.671738 0.366999 0.703330
Si Si2 0.822885 0.226648 0.879173
Si Si3 0.175863 0.133725 0.548724
Si Si4 0.328705 0.683653 0.891632
Si Si5 0.177107 0.282785 0.168884
Si Si6 0.680317 0.798300 0.060485
Si Si7 0.322552 0.450660 0.011912
Si Si8 0.680548 0.451701 0.799520
O O1 0.500000 0.378476 0.677179
O O2 0.679812 0.332468 0.786774
O O3 0.746043 0.341218 0.615868
O O4 0.751926 0.413298 0.733085
O O5 0.788002 0.276766 0.906590
O O6 0.762426 0.217130 0.775138
O O7 0.000000 0.217373 0.887939
O O8 0.736821 0.196230 0.954375
O O9 0.277145 0.144687 0.458821
O O10 0.210166 0.168257 0.630935
O O11 0.230013 0.084304 0.575932
O O12 0.000000 0.134160 0.522323
O O13 0.500000 0.698839 0.916183
O O14 0.262251 0.246974 0.106526
O O15 0.000000 0.270862 0.166109
O O16 0.500000 0.797498 0.065036
O O17 0.500000 0.440243 0.018678
O O18 0.288805 0.500000 0.048877
O O19 0.262996 0.446524 0.905449
O O20 0.500000 0.446873 0.801403
O O21 0.728286 0.500000 0.760841
#
# Coordination Sequence:
#
# PCOD8180281 Si02
#       8
#     8   8   8   8   8   8   8   8
#     4   9  17  28  44  70  98 124 161 198 233 282
#     4  11  22  36  49  66  96 131 168 206 244 289
#     4  11  21  32  47  71  99 131 165 203 245 287
#     4  11  19  30  48  70  98 130 164 201 240 285
#     4  10  22  36  49  67  95 129 167 205 242 291
#     4  11  21  32  49  72  97 126 163 205 244 290
#     4   9  17  30  49  72  98 129 162 197 239 292
#     4   8  13  24  44  68  94 123 154 190 233 281
#
# _framework density 16.649412000000002
#
# number of rings (size 3 to 8) (size 9 to 14) (size 15 to 20)
#    0.000    2.000    3.750    2.250    0.000    1.250 
#    0.000    0.000    0.000    0.000    0.000    0.875 
#    0.000    3.000    0.000    0.000    0.000    0.000 
#
# Total GULP energy -396626.074504 kJ/mol
# GULP energy per Si atom -12394.564828 kJ/mol
# Density = 1.661152 g / cm^3
# Si number density = 16.649412 Si / 1000 Ang^3
#
#
#
# Elastic Constant Matrix: (Units=GPa)
#
#
# Indices 1 2 3 4 5 6 
#
# 1 42.0526 22.7611 26.3104 0.0000 0.0000 0.0000
# 2 22.7611 104.5733 29.2989 0.0000 0.0000 0.0000
# 3 26.3104 29.2989 73.5768 0.0000 0.0000 0.0000
# 4 0.0000 0.0000 0.0000 23.4481 0.0000 0.0000
# 5 0.0000 0.0000 0.0000 0.0000 19.9443 0.0000
# 6 0.0000 0.0000 0.0000 0.0000 0.0000 17.3874
#
#
#
# Elastic Compliance Matrix: (Units=1/GPa)
#
#
# Indices 1 2 3 4 5 6 
#
# 1 0.032237 -0.004262 -0.009830 0.000000 0.000000 0.000000
# 2 -0.004262 0.011327 -0.002986 0.000000 0.000000 0.000000
# 3 -0.009830 -0.002986 0.018296 0.000000 0.000000 0.000000
# 4 0.000000 0.000000 0.000000 0.042647 0.000000 0.000000
# 5 0.000000 0.000000 0.000000 0.000000 0.050140 0.000000
# 6 0.000000 0.000000 0.000000 0.000000 0.000000 0.057513
#
#
# Mechanical properties :
#
#
# Convention : Reuss Voigt Hill
#
# Bulk Modulus (GPa) = 36.09889 41.88262 38.99075
# Shear Modulus (GPa) = 19.56547 21.61144 20.58845
#
# Velocity S-wave (km/s) = 3.43176 3.60673 3.52033
# Velocity P-wave (km/s) = 6.11813 6.52341 6.32401
#
# Compressibility (1/GPa) = 0.02770168
#
# Stress axis : x y z
#
# Youngs Moduli (GPa) = 31.02008 88.28371 54.65768
#
# Poissons Ratio (x) = 0.37630 0.53731
# Poissons Ratio (y) = 0.13222 0.16323
# Poissons Ratio (z) = 0.30494 0.26365
#
# Static dielectric constant tensor:
#      x y z
#    x 2.944010 0.000000 0.000000 
#    y 0.000000 3.332970 0.000000 
#    z 0.000000 0.000000 3.130840 
# 
# 
# High freq. dielectric constant tensor:
#      x y z
#    x 1.624670 0.000000 0.000000 
#    y 0.000000 1.639010 0.000000 
#    z 0.000000 0.000000 1.613900 
# 
# From -- ./inp_files/13062.got.cif
#   From: 2010.03.12/outbox.cif.g09.slc.cpg/sg38_7_cif.got.tgz:13062.got - 2010.04.14 02:38:36.
