data_PCOD8180794
_publ_section_title
;
Structure prediction by ZEFSAII (Michael W. Deem and Ramdas Pophale) SiO2 
 PCOD8180794
Probable space group: A B M 2
;
_chemical_formula_sum "Si O2"
_cell_formula_units_Z 60
_cell_length_a 15.298019
_cell_length_b 9.685182
_cell_length_c 22.011764
_cell_angle_alpha 90.000000
_cell_angle_beta 90.000000
_cell_angle_gamma 90.000000
_cell_volume 3261.353164
_symmetry_space_group_name_H-M "A B M 2"
_symmetry_group_IT_number 39
_symmetry_cell_setting 'orthorhombic'
loop_
_space_group_symop_operation_xyz
x,y,z
-x,-y,z
-x,1/2+y,z
x,1/2-y,z
x,1/2+y,1/2+z
-x,1/2-y,1/2+z
-x,y,1/2+z
x,-y,1/2+z
loop_
_atom_site_type_symbol
_atom_site_label
_atom_site_fract_x
_atom_site_fract_y
_atom_site_fract_z
Si Si1 0.749073 0.087885 0.936260
Si Si2 0.074856 0.096011 0.117417
Si Si3 0.245504 0.414513 0.187481
Si Si4 0.587876 0.085328 0.146163
Si Si5 0.889820 0.102965 0.481232
Si Si6 0.827341 0.589753 0.314533
Si Si7 0.000000 0.500000 0.377963
Si Si8 0.420334 0.092512 0.505081
O O1 0.762595 0.250000 0.942159
O O2 0.761572 0.034997 0.867104
O O3 0.823515 0.022795 0.977871
O O4 0.656394 0.040829 0.961376
O O5 0.058602 0.250000 0.142870
O O6 0.173459 0.051580 0.135801
O O7 0.061189 0.089280 0.045162
O O8 0.000000 0.000000 0.147456
O O9 0.269650 0.250000 0.187745
O O10 0.331398 0.508229 0.178314
O O11 0.202066 0.471272 0.250020
O O12 0.580880 0.250000 0.163945
O O13 0.605738 0.070621 0.074742
O O14 0.500000 0.000000 0.163979
O O15 0.839178 0.250000 0.479872
O O16 0.957782 0.109887 0.424748
O O17 0.814974 0.750000 0.307864
O O18 0.927248 0.560571 0.332825
O O19 0.445532 0.250000 0.492329
O O20 0.500000 0.000000 0.484788
#
# Coordination Sequence:
#
# PCOD8180794 Si02
#       8
#     8   8   8   8   8   8   4   8
#     4   9  18  33  52  74 102 137 172 209 258 312
#     4  10  21  34  50  75 107 142 179 222 271 319
#     4  10  21  37  54  76 109 145 184 225 268 314
#     4  10  20  36  59  85 109 136 174 217 271 326
#     4  10  19  31  49  75 102 130 170 219 266 311
#     4   9  19  34  52  72 100 142 182 217 259 308
#     4  10  18  32  52  74 100 138 176 222 262 318
#     4   9  18  32  53  81 108 133 164 207 260 318
#
# _framework density 18.397272000000001
#
# number of rings (size 3 to 8) (size 9 to 14) (size 15 to 20)
#    0.000    2.400    0.667    1.600    0.933    2.667 
#    0.000    4.000    0.000    1.600    0.000    0.000 
#    0.000    0.000    0.000    0.000    0.000    0.000 
#
# Total GULP energy -371720.868294 kJ/mol
# GULP energy per Si atom -12390.695610 kJ/mol
# Density = 1.835540 g / cm^3
# Si number density = 18.397272 Si / 1000 Ang^3
#
#
#
# Elastic Constant Matrix: (Units=GPa)
#
#
# Indices 1 2 3 4 5 6 
#
# 1 141.5132 58.4466 53.4569 0.0000 0.0000 0.0000
# 2 58.4466 66.9627 26.7663 0.0000 0.0000 0.0000
# 3 53.4569 26.7663 72.4374 0.0000 0.0000 0.0000
# 4 0.0000 0.0000 0.0000 16.8879 0.0000 0.0000
# 5 0.0000 0.0000 0.0000 0.0000 27.2743 0.0000
# 6 0.0000 0.0000 0.0000 0.0000 0.0000 35.6631
#
#
#
# Elastic Compliance Matrix: (Units=1/GPa)
#
#
# Indices 1 2 3 4 5 6 
#
# 1 0.013187 -0.008941 -0.006428 0.000000 0.000000 0.000000
# 2 -0.008941 0.023583 -0.002116 0.000000 0.000000 0.000000
# 3 -0.006428 -0.002116 0.019331 0.000000 0.000000 0.000000
# 4 0.000000 0.000000 0.000000 0.059214 0.000000 0.000000
# 5 0.000000 0.000000 0.000000 0.000000 0.036665 0.000000
# 6 0.000000 0.000000 0.000000 0.000000 0.000000 0.028040
#
#
# Mechanical properties :
#
#
# Convention : Reuss Voigt Hill
#
# Bulk Modulus (GPa) = 47.32359 62.02810 54.67585
# Shear Modulus (GPa) = 22.51902 25.44795 23.98348
#
# Velocity S-wave (km/s) = 3.50243 3.72324 3.61452
# Velocity P-wave (km/s) = 6.49115 7.22997 6.87050
#
# Compressibility (1/GPa) = 0.02113111
#
# Stress axis : x y z
#
# Youngs Moduli (GPa) = 75.82988 42.40289 51.73072
#
# Poissons Ratio (x) = 0.37911 0.33254
# Poissons Ratio (y) = 0.67798 0.10947
# Poissons Ratio (z) = 0.48745 0.08973
#
# Static dielectric constant tensor:
#      x y z
#    x 3.520840 0.000000 0.000000 
#    y 0.000000 3.437590 0.000000 
#    z 0.000000 0.000000 3.546230 
# 
# 
# High freq. dielectric constant tensor:
#      x y z
#    x 1.707960 0.000000 0.000000 
#    y 0.000000 1.709560 0.000000 
#    z 0.000000 0.000000 1.706260 
# 
# From -- ./inp_files/16079.got.cif
#   From: 2010.03.12/outbox.cif.g09.slc.cpg/sg39_9_cif.got.tgz:16079.got - 2010.04.14 02:53:20.
