data_PCOD8180677
_publ_section_title
;
Structure prediction by ZEFSAII (Michael W. Deem and Ramdas Pophale) SiO2 
 PCOD8180677
Probable space group: A B M 2
;
_chemical_formula_sum "Si O2"
_cell_formula_units_Z 64
_cell_length_a 20.767978
_cell_length_b 8.771138
_cell_length_c 18.426029
_cell_angle_alpha 90.000000
_cell_angle_beta 90.000000
_cell_angle_gamma 90.000000
_cell_volume 3356.463350
_symmetry_space_group_name_H-M "A B M 2"
_symmetry_group_IT_number 39
_symmetry_cell_setting 'orthorhombic'
loop_
_space_group_symop_operation_xyz
x,y,z
-x,-y,z
-x,1/2+y,z
x,1/2-y,z
x,1/2+y,1/2+z
-x,1/2-y,1/2+z
-x,y,1/2+z
x,-y,1/2+z
loop_
_atom_site_type_symbol
_atom_site_label
_atom_site_fract_x
_atom_site_fract_y
_atom_site_fract_z
Si Si1 0.436229 0.070913 0.034200
Si Si2 0.065733 0.070379 0.031368
Si Si3 0.190277 0.070500 0.944939
Si Si4 0.693765 0.428432 0.031177
Si Si5 0.703165 0.424895 0.199284
Si Si6 0.560892 0.072991 0.191195
Si Si7 0.934082 0.429588 0.695678
Si Si8 0.812398 0.071193 0.789341
O O1 0.438319 0.250000 0.024549
O O2 0.500000 0.000000 0.995820
O O3 0.370352 0.007982 0.999098
O O4 0.435945 0.023003 0.117798
O O5 0.058906 0.250000 0.029101
O O6 0.077990 0.012209 0.113532
O O7 0.124009 0.014196 0.981275
O O8 0.000000 0.000000 0.999916
O O9 0.200633 0.250000 0.955208
O O10 0.188894 0.028898 0.861073
O O11 0.247160 0.981602 0.983362
O O12 0.683434 0.250000 0.023351
O O13 0.706128 0.472584 0.114932
O O14 0.725685 0.250000 0.209472
O O15 0.630070 0.445182 0.230471
O O16 0.748659 0.538281 0.243030
O O17 0.548141 0.250000 0.173374
O O18 0.500000 0.000000 0.236177
O O19 0.941030 0.250000 0.697585
O O20 0.874454 0.483846 0.744188
O O21 0.000000 0.500000 0.727210
O O22 0.815072 0.250000 0.807775
#
# Coordination Sequence:
#
# PCOD8180677 Si02
#       8
#     8   8   8   8   8   8   8   8
#     4  10  17  27  46  74 107 140 175 218 268 317
#     4   9  19  36  58  82 107 137 174 217 264 317
#     4  11  23  38  55  77 108 144 181 221 268 320
#     4  10  20  35  55  80 108 139 179 224 271 322
#     4   9  19  34  53  78 107 139 176 219 266 318
#     4   9  16  27  45  73 106 137 173 218 267 317
#     4   9  19  36  57  81 106 134 172 215 261 313
#     4  11  23  37  54  77 107 142 181 222 263 314
#
# _framework density 19.067691
#
# number of rings (size 3 to 8) (size 9 to 14) (size 15 to 20)
#    0.000    2.250    0.000    4.875    0.000    6.500 
#    0.000    5.000    0.000    0.750    0.000    3.500 
#    0.000    0.000    0.000    0.000    0.000    0.000 
#
# Total GULP energy -396742.946193 kJ/mol
# GULP energy per Si atom -12398.217069 kJ/mol
# Density = 1.902429 g / cm^3
# Si number density = 19.067691 Si / 1000 Ang^3
#
#
#
# Elastic Constant Matrix: (Units=GPa)
#
#
# Indices 1 2 3 4 5 6 
#
# 1 165.5360 45.1500 51.8447 0.0000 0.0000 0.0000
# 2 45.1500 71.6146 24.0703 0.0000 0.0000 0.0000
# 3 51.8447 24.0703 63.3484 0.0000 0.0000 0.0000
# 4 0.0000 0.0000 0.0000 22.2843 0.0000 0.0000
# 5 0.0000 0.0000 0.0000 0.0000 -2.7781 0.0000
# 6 0.0000 0.0000 0.0000 0.0000 0.0000 38.3826
#
#
#
# Elastic Compliance Matrix: (Units=1/GPa)
#
#
# Indices 1 2 3 4 5 6 
#
# 1 0.008870 -0.003614 -0.005886 0.000000 0.000000 0.000000
# 2 -0.003614 0.017480 -0.003684 0.000000 0.000000 0.000000
# 3 -0.005886 -0.003684 0.022003 0.000000 0.000000 0.000000
# 4 0.000000 0.000000 0.000000 0.044875 0.000000 0.000000
# 5 0.000000 0.000000 0.000000 0.000000 -0.359964 0.000000
# 6 0.000000 0.000000 0.000000 0.000000 0.000000 0.026053
#
#
# Mechanical properties :
#
#
# Convention : Reuss Voigt Hill
#
# Bulk Modulus (GPa) = 45.48641 60.29210 52.88925
# Shear Modulus (GPa) = -24.15631 23.54006 -0.30813
#
# Velocity S-wave (km/s) = -3.56318 3.51743 -0.40243
# Velocity P-wave (km/s) = 2.64173 6.94155 5.25185
#
# Compressibility (1/GPa) = 0.02198459
#
# Stress axis : x y z
#
# Youngs Moduli (GPa) = 112.73708 57.20711 45.44839
#
# Poissons Ratio (x) = 0.20674 0.26752
# Poissons Ratio (y) = 0.40742 0.16745
# Poissons Ratio (z) = 0.66360 0.21077
#
# Static dielectric constant tensor:
#      x y z
#    x 4.128840 0.000000 0.000000 
#    y 0.000000 3.473180 0.000000 
#    z 0.000000 0.000000 3.169010 
# 
# 
# High freq. dielectric constant tensor:
#      x y z
#    x 1.766660 0.000000 0.000000 
#    y 0.000000 1.746600 0.000000 
#    z 0.000000 0.000000 1.696210 
# 
# From -- ./inp_files/13105.got.cif
#   From: 2010.03.12/outbox.cif.g09.slc.cpg/sg39_7_cif.got.tgz:13105.got - 2010.04.14 02:53:20.
