data_PCOD8180581
_publ_section_title
;
Structure prediction by ZEFSAII (Michael W. Deem and Ramdas Pophale) SiO2 
 PCOD8180581
Probable space group: A B M 2
;
_chemical_formula_sum "Si O2"
_cell_formula_units_Z 48
_cell_length_a 25.712722
_cell_length_b 15.320433
_cell_length_c 5.364251
_cell_angle_alpha 90.000000
_cell_angle_beta 90.000000
_cell_angle_gamma 90.000000
_cell_volume 2113.139582
_symmetry_space_group_name_H-M "A B M 2"
_symmetry_group_IT_number 39
_symmetry_cell_setting 'orthorhombic'
loop_
_space_group_symop_operation_xyz
x,y,z
-x,-y,z
-x,1/2+y,z
x,1/2-y,z
x,1/2+y,1/2+z
-x,1/2-y,1/2+z
-x,y,1/2+z
x,-y,1/2+z
loop_
_atom_site_type_symbol
_atom_site_label
_atom_site_fract_x
_atom_site_fract_y
_atom_site_fract_z
Si Si1 0.187676 0.098114 0.343310
Si Si2 0.689159 0.401904 0.845379
Si Si3 0.021496 0.597732 0.342096
Si Si4 0.469205 0.147713 0.846516
Si Si5 0.144702 0.902383 0.343325
Si Si6 0.353875 0.097332 0.845353
O O1 0.249256 0.100612 0.347541
O O2 0.165312 0.145513 0.592011
O O3 0.166803 0.999871 0.339135
O O4 0.166537 0.145537 0.092185
O O5 0.668851 0.500427 0.843808
O O6 0.667362 0.354391 0.595558
O O7 0.666910 0.354390 0.094274
O O8 0.083096 0.597853 0.348229
O O9 0.000000 0.500000 0.336033
O O10 0.999166 0.645487 0.590426
O O11 0.456226 0.250000 0.846492
O O12 0.499999 0.121039 0.596510
O O13 0.415984 0.094024 0.846669
#
# Coordination Sequence:
#
# PCOD8180581 Si02
#       6
#     8   8   8   8   8   8
#     4  10  16  25  36  51  73  98 129 162 206 252
#     4  10  19  30  45  67  92 114 136 174 223 257
#     4  10  16  22  28  39  59  85 124 175 220 238
#     4  10  21  37  54  70  89 115 146 176 204 241
#     4  10  16  22  33  46  63  96 132 167 213 247
#     4  10  18  32  48  67  90 114 139 168 213 257
#
# _framework density 22.715017
#
# number of rings (size 3 to 8) (size 9 to 14) (size 15 to 20)
#    0.000    2.000    0.000   11.000    0.000    0.000 
#    0.000   10.000    0.000    0.000    0.000    0.000 
#    0.000    0.000    0.000    0.000    0.000    0.000 
#
# Total GULP energy -297397.457929 kJ/mol
# GULP energy per Si atom -12391.560747 kJ/mol
# Density = 2.266332 g / cm^3
# Si number density = 22.715017 Si / 1000 Ang^3
#
#
#
# Elastic Constant Matrix: (Units=GPa)
#
#
# Indices 1 2 3 4 5 6 
#
# 1 177.7225 2.7649 52.3276 0.0000 0.0000 0.0000
# 2 2.7649 9.6827 -0.3526 0.0000 0.0000 0.0000
# 3 52.3276 -0.3526 255.9459 0.0000 0.0000 0.0000
# 4 0.0000 0.0000 0.0000 -4.1962 0.0000 0.0000
# 5 0.0000 0.0000 0.0000 0.0000 53.4680 0.0000
# 6 0.0000 0.0000 0.0000 0.0000 0.0000 -3.7279
#
#
#
# Elastic Compliance Matrix: (Units=1/GPa)
#
#
# Indices 1 2 3 4 5 6 
#
# 1 0.006017 -0.001763 -0.001233 0.000000 0.000000 0.000000
# 2 -0.001763 0.103799 0.000503 0.000000 0.000000 0.000000
# 3 -0.001233 0.000503 0.004160 0.000000 0.000000 0.000000
# 4 0.000000 0.000000 0.000000 -0.238309 0.000000 0.000000
# 5 0.000000 0.000000 0.000000 0.000000 0.018703 0.000000
# 6 0.000000 0.000000 0.000000 0.000000 0.000000 -0.268251
#
#
# Mechanical properties :
#
#
# Convention : Reuss Voigt Hill
#
# Bulk Modulus (GPa) = 9.17503 61.42567 35.30035
# Shear Modulus (GPa) = -15.03459 35.01619 9.99080
#
# Velocity S-wave (km/s) = -2.57549 3.93051 2.09949
# Velocity P-wave (km/s) = 2.19003 6.90645 4.63157
#
# Compressibility (1/GPa) = 0.10899152
#
# Stress axis : x y z
#
# Youngs Moduli (GPa) = 166.19302 9.63399 240.39768
#
# Poissons Ratio (x) = 0.01699 0.29632
# Poissons Ratio (y) = 0.29301 -0.12102
# Poissons Ratio (z) = 0.20485 -0.00485
#
# Static dielectric constant tensor:
#      x y z
#    x 3.991500 0.000000 0.000000 
#    y 0.000000 3.272820 0.000000 
#    z 0.000000 0.000000 41.878270 
# 
# 
# High freq. dielectric constant tensor:
#      x y z
#    x 1.910310 0.000000 0.000000 
#    y 0.000000 1.805600 0.000000 
#    z 0.000000 0.000000 1.949920 
# 
# From -- ./inp_files/1027.got.cif
#   From: 2010.03.12/outbox.cif.g09.slc.cpg/sg39_1_cif.got.tgz:1027.got - 2010.04.14 02:53:20.
