data_PCOD8180635
_publ_section_title
;
Structure prediction by ZEFSAII (Michael W. Deem and Ramdas Pophale) SiO2 
 PCOD8180635
Probable space group: A B M 2
;
_chemical_formula_sum "Si O2"
_cell_formula_units_Z 64
_cell_length_a 21.125843
_cell_length_b 8.881708
_cell_length_c 19.368804
_cell_angle_alpha 90.000000
_cell_angle_beta 90.000000
_cell_angle_gamma 90.000000
_cell_volume 3634.237818
_symmetry_space_group_name_H-M "A B M 2"
_symmetry_group_IT_number 39
_symmetry_cell_setting 'orthorhombic'
loop_
_space_group_symop_operation_xyz
x,y,z
-x,-y,z
-x,1/2+y,z
x,1/2-y,z
x,1/2+y,1/2+z
-x,1/2-y,1/2+z
-x,y,1/2+z
x,-y,1/2+z
loop_
_atom_site_type_symbol
_atom_site_label
_atom_site_fract_x
_atom_site_fract_y
_atom_site_fract_z
Si Si1 0.435365 0.072505 0.819460
Si Si2 0.807971 0.073988 0.426333
Si Si3 0.940439 0.916069 0.907567
Si Si4 0.808480 0.072649 0.071167
Si Si5 0.679136 0.929721 0.075325
Si Si6 0.566118 0.571726 0.660847
Si Si7 0.936440 0.577907 0.072441
Si Si8 0.328874 0.575938 0.418148
O O1 0.440981 0.250000 0.827682
O O2 0.421789 0.029166 0.740478
O O3 0.379747 0.000347 0.866953
O O4 0.500000 0.000000 0.846221
O O5 0.813263 0.250000 0.451994
O O6 0.870264 0.034173 0.379979
O O7 0.741825 0.050754 0.385961
O O8 0.807184 0.961596 0.490264
O O9 0.954506 0.750000 0.883409
O O10 0.937123 0.934553 0.989789
O O11 0.000000 0.000000 0.874245
O O12 0.807013 0.250000 0.085343
O O13 0.745757 0.995766 0.104184
O O14 0.873727 0.004418 0.102548
O O15 0.681038 0.750000 0.080959
O O16 0.622377 0.996705 0.119046
O O17 0.668319 0.985683 0.996362
O O18 0.500000 0.500000 0.635577
O O19 0.564426 0.750000 0.648226
O O20 0.935663 0.750000 0.097105
O O21 0.000000 0.500000 0.102096
O O22 0.345682 0.750000 0.420877
#
# Coordination Sequence:
#
# PCOD8180635 Si02
#       8
#     8   8   8   8   8   8   8   8
#     4   9  18  33  51  69  90 116 146 182 223 268
#     4   8  14  25  38  53  78 112 148 183 221 265
#     4   8  13  19  29  46  70 103 140 176 212 254
#     4  10  17  25  38  58  85 116 150 187 228 273
#     4  10  19  32  49  68  93 123 154 189 229 273
#     4  10  20  34  51  70  92 118 148 183 225 273
#     4   9  15  23  34  51  77 112 152 189 227 270
#     4   8  15  29  48  67  87 116 151 185 223 266
#
# _framework density 17.610294
#
# number of rings (size 3 to 8) (size 9 to 14) (size 15 to 20)
#    0.000    3.000    0.000    3.750    0.000    4.000 
#    0.000    4.375    0.000    0.000    0.000    0.000 
#    0.000    1.000    0.000    6.500    0.000   11.125 
#
# Total GULP energy -396423.960086 kJ/mol
# GULP energy per Si atom -12388.248753 kJ/mol
# Density = 1.757021 g / cm^3
# Si number density = 17.610294 Si / 1000 Ang^3
#
#
#
# Elastic Constant Matrix: (Units=GPa)
#
#
# Indices 1 2 3 4 5 6 
#
# 1 220.1866 65.9545 53.0106 0.0000 0.0000 0.0000
# 2 65.9545 87.5586 19.2408 0.0000 0.0000 0.0000
# 3 53.0106 19.2408 32.7685 0.0000 0.0000 0.0000
# 4 0.0000 0.0000 0.0000 9.3248 0.0000 0.0000
# 5 0.0000 0.0000 0.0000 0.0000 -0.2246 0.0000
# 6 0.0000 0.0000 0.0000 0.0000 0.0000 35.7435
#
#
#
# Elastic Compliance Matrix: (Units=1/GPa)
#
#
# Indices 1 2 3 4 5 6 
#
# 1 0.008437 -0.003853 -0.011387 0.000000 0.000000 0.000000
# 2 -0.003853 0.014873 -0.002499 0.000000 0.000000 0.000000
# 3 -0.011387 -0.002499 0.050405 0.000000 0.000000 0.000000
# 4 0.000000 0.000000 0.000000 0.107240 0.000000 0.000000
# 5 0.000000 0.000000 0.000000 0.000000 -4.452709 0.000000
# 6 0.000000 0.000000 0.000000 0.000000 0.000000 0.027977
#
#
# Mechanical properties :
#
#
# Convention : Reuss Voigt Hill
#
# Bulk Modulus (GPa) = 26.15296 68.54729 47.35012
# Shear Modulus (GPa) = -1.19174 22.45595 10.63211
#
# Velocity S-wave (km/s) = -0.82353 3.57481 2.45979
# Velocity P-wave (km/s) = 3.73884 7.48653 5.91722
#
# Compressibility (1/GPa) = 0.03823658
#
# Stress axis : x y z
#
# Youngs Moduli (GPa) = 118.52379 67.23771 19.83933
#
# Poissons Ratio (x) = 0.25908 0.22590
# Poissons Ratio (y) = 0.45670 0.04958
# Poissons Ratio (z) = 1.34957 0.16805
#
# Static dielectric constant tensor:
#      x y z
#    x 3.922170 0.000000 0.000000 
#    y 0.000000 3.195200 0.000000 
#    z 0.000000 0.000000 2.760890 
# 
# 
# High freq. dielectric constant tensor:
#      x y z
#    x 1.713830 0.000000 0.000000 
#    y 0.000000 1.674510 0.000000 
#    z 0.000000 0.000000 1.602800 
# 
# From -- ./inp_files/15076.got.cif
#   From: 2010.03.12/outbox.cif.g09.slc.cpg/sg39_8_cif.got.tgz:15076.got - 2010.04.14 02:53:20.
