data_PCOD8180660
_publ_section_title
;
Structure prediction by ZEFSAII (Michael W. Deem and Ramdas Pophale) SiO2 
 PCOD8180660
Probable space group: A B M 2
;
_chemical_formula_sum "Si O2"
_cell_formula_units_Z 56
_cell_length_a 19.767085
_cell_length_b 8.776784
_cell_length_c 15.556984
_cell_angle_alpha 90.000000
_cell_angle_beta 90.000000
_cell_angle_gamma 90.000000
_cell_volume 2699.003484
_symmetry_space_group_name_H-M "A B M 2"
_symmetry_group_IT_number 39
_symmetry_cell_setting 'orthorhombic'
loop_
_space_group_symop_operation_xyz
x,y,z
-x,-y,z
-x,1/2+y,z
x,1/2-y,z
x,1/2+y,1/2+z
-x,1/2-y,1/2+z
-x,y,1/2+z
x,-y,1/2+z
loop_
_atom_site_type_symbol
_atom_site_label
_atom_site_fract_x
_atom_site_fract_y
_atom_site_fract_z
Si Si1 0.935905 0.427950 0.884530
Si Si2 0.795629 0.928165 0.575290
Si Si3 0.573526 0.569794 0.973767
Si Si4 0.657917 0.928322 0.809308
Si Si5 0.660105 0.430008 0.634917
Si Si6 0.212598 0.076101 0.374363
Si Si7 0.932655 0.929538 0.070616
O O1 0.947505 0.250000 0.906008
O O2 0.863688 0.448260 0.836839
O O3 0.000000 0.500000 0.831363
O O4 0.932954 0.525369 0.971105
O O5 0.798916 0.750000 0.592451
O O6 0.786284 0.965667 0.474863
O O7 0.734121 0.998904 0.627627
O O8 0.864407 0.002455 0.612316
O O9 0.500000 0.500000 0.970961
O O10 0.567556 0.750000 0.975070
O O11 0.614918 0.513531 0.890650
O O12 0.612010 0.509929 0.058581
O O13 0.649568 0.750000 0.794586
O O14 0.629198 0.014890 0.725576
O O15 0.736828 0.966010 0.824084
O O16 0.666319 0.250000 0.632047
O O17 0.236032 0.250000 0.360040
O O18 0.933064 0.750000 0.083651
O O19 0.000000 0.000000 0.115370
#
# Coordination Sequence:
#
# PCOD8180660 Si02
#       7
#     8   8   8   8   8   8   8
#     4   9  16  26  42  71 108 148 199 249 304 360
#     4  10  19  33  55  83 115 155 202 251 306 362
#     4  10  24  44  67  94 126 160 199 242 295 358
#     4  11  23  40  62  92 124 159 204 248 296 357
#     4  11  23  41  63  92 125 161 203 248 300 360
#     4   9  18  32  53  81 114 155 200 248 301 359
#     4  10  17  26  43  71 109 152 199 252 305 359
#
# _framework density 20.748398999999999
#
# number of rings (size 3 to 8) (size 9 to 14) (size 15 to 20)
#    0.000    2.000    1.429    4.714    0.000    5.714 
#    0.000    2.857    0.000    0.857    0.000    4.000 
#    0.000    0.000    0.000    0.000    0.000    0.000 
#
# Total GULP energy -347153.565056 kJ/mol
# GULP energy per Si atom -12398.341609 kJ/mol
# Density = 2.070118 g / cm^3
# Si number density = 20.748399 Si / 1000 Ang^3
#
#
#
# Elastic Constant Matrix: (Units=GPa)
#
#
# Indices 1 2 3 4 5 6 
#
# 1 157.6242 48.7828 56.0461 0.0000 0.0000 0.0000
# 2 48.7828 99.5798 37.9146 0.0000 0.0000 0.0000
# 3 56.0461 37.9146 99.7598 0.0000 0.0000 0.0000
# 4 0.0000 0.0000 0.0000 25.8248 0.0000 0.0000
# 5 0.0000 0.0000 0.0000 0.0000 9.7682 0.0000
# 6 0.0000 0.0000 0.0000 0.0000 0.0000 41.2568
#
#
#
# Elastic Compliance Matrix: (Units=1/GPa)
#
#
# Indices 1 2 3 4 5 6 
#
# 1 0.008527 -0.002752 -0.003745 0.000000 0.000000 0.000000
# 2 -0.002752 0.012629 -0.003254 0.000000 0.000000 0.000000
# 3 -0.003745 -0.003254 0.013365 0.000000 0.000000 0.000000
# 4 0.000000 0.000000 0.000000 0.038722 0.000000 0.000000
# 5 0.000000 0.000000 0.000000 0.000000 0.102373 0.000000
# 6 0.000000 0.000000 0.000000 0.000000 0.000000 0.024238
#
#
# Mechanical properties :
#
#
# Convention : Reuss Voigt Hill
#
# Bulk Modulus (GPa) = 66.57705 71.38340 68.98022
# Shear Modulus (GPa) = 22.28530 29.65132 25.96831
#
# Velocity S-wave (km/s) = 3.28086 3.78443 3.54161
# Velocity P-wave (km/s) = 6.81979 7.31949 7.07405
#
# Compressibility (1/GPa) = 0.01502019
#
# Stress axis : x y z
#
# Youngs Moduli (GPa) = 117.26926 79.18241 74.82369
#
# Poissons Ratio (x) = 0.21787 0.28022
# Poissons Ratio (y) = 0.32267 0.24347
# Poissons Ratio (z) = 0.43918 0.25765
#
# Static dielectric constant tensor:
#      x y z
#    x 3.926520 0.000000 0.000000 
#    y 0.000000 3.690960 0.000000 
#    z 0.000000 0.000000 3.585100 
# 
# 
# High freq. dielectric constant tensor:
#      x y z
#    x 1.822420 0.000000 0.000000 
#    y 0.000000 1.814480 0.000000 
#    z 0.000000 0.000000 1.782290 
# 
# From -- ./inp_files/10370.got.cif
#   From: 2010.03.12/outbox.cif.g09.slc.cpg/sg39_6_cif.got.tgz:10370.got - 2010.04.14 02:53:20.
