data_PCOD8180996
_publ_section_title
;
Structure prediction by ZEFSAII (Michael W. Deem and Ramdas Pophale) SiO2 
 PCOD8180996
Probable space group: A B M 2
;
_chemical_formula_sum "Si O2"
_cell_formula_units_Z 64
_cell_length_a 18.725484
_cell_length_b 8.752990
_cell_length_c 20.892644
_cell_angle_alpha 90.000000
_cell_angle_beta 90.000000
_cell_angle_gamma 90.000000
_cell_volume 3424.387383
_symmetry_space_group_name_H-M "A B M 2"
_symmetry_group_IT_number 39
_symmetry_cell_setting 'orthorhombic'
loop_
_space_group_symop_operation_xyz
x,y,z
-x,-y,z
-x,1/2+y,z
x,1/2-y,z
x,1/2+y,1/2+z
-x,1/2-y,1/2+z
-x,y,1/2+z
x,-y,1/2+z
loop_
_atom_site_type_symbol
_atom_site_label
_atom_site_fract_x
_atom_site_fract_y
_atom_site_fract_z
Si Si1 0.333157 0.918400 0.148630
Si Si2 0.178063 0.433009 0.501435
Si Si3 0.164605 0.916972 0.137342
Si Si4 0.837443 0.566933 0.775101
Si Si5 0.923354 0.068357 0.888458
Si Si6 0.315975 0.070996 0.277462
Si Si7 0.423483 0.069559 0.388526
Si Si8 0.662176 0.932094 0.509252
O O1 0.366000 0.750000 0.162731
O O2 0.249405 0.900025 0.139247
O O3 0.362796 0.985825 0.080708
O O4 0.349942 0.028704 0.208336
O O5 0.177899 0.250000 0.504948
O O6 0.146129 0.498984 0.569489
O O7 0.129425 0.492215 0.443754
O O8 0.258658 0.493937 0.491263
O O9 0.128685 0.750000 0.136903
O O10 0.141268 0.997882 0.203824
O O11 0.839921 0.750000 0.777016
O O12 0.895586 0.495344 0.821481
O O13 0.757692 0.515016 0.792750
O O14 0.926973 0.250000 0.885786
O O15 0.000000 0.000000 0.903870
O O16 0.300341 0.250000 0.280114
O O17 0.371414 0.018727 0.331440
O O18 0.430515 0.250000 0.390980
O O19 0.392689 0.005625 0.455962
O O20 0.500000 0.000000 0.374754
O O21 0.664533 0.750000 0.508398
#
# Coordination Sequence:
#
# PCOD8180996 Si02
#       8
#     8   8   8   8   8   8   8   8
#     4   8  14  27  50  76  99 124 158 202 249 299
#     4   8  14  28  52  76  96 123 161 202 245 294
#     4   7  12  25  48  76  98 120 156 200 243 289
#     4  10  19  33  55  79 102 130 166 206 249 300
#     4  11  22  35  51  72 102 137 170 207 248 292
#     4  10  19  32  52  77 103 130 164 207 253 300
#     4  10  21  35  50  70  99 136 174 211 251 296
#     4   8  14  29  53  76  95 122 164 207 249 298
#
# _framework density 18.689473
#
# number of rings (size 3 to 8) (size 9 to 14) (size 15 to 20)
#    0.000    3.000    0.000    4.125    0.000    3.000 
#    0.000    1.875    0.000   22.500    0.000    0.000 
#    0.000    0.000    0.000    0.000    0.000    0.000 
#
# Total GULP energy -396465.840362 kJ/mol
# GULP energy per Si atom -12389.557511 kJ/mol
# Density = 1.864694 g / cm^3
# Si number density = 18.689473 Si / 1000 Ang^3
#
#
#
# Elastic Constant Matrix: (Units=GPa)
#
#
# Indices 1 2 3 4 5 6 
#
# 1 55.9514 13.8816 23.9777 0.0000 0.0000 0.0000
# 2 13.8816 38.1864 18.8918 0.0000 0.0000 0.0000
# 3 23.9777 18.8918 118.6939 0.0000 0.0000 0.0000
# 4 0.0000 0.0000 0.0000 22.1934 0.0000 0.0000
# 5 0.0000 0.0000 0.0000 0.0000 9.1350 0.0000
# 6 0.0000 0.0000 0.0000 0.0000 0.0000 22.0987
#
#
#
# Elastic Compliance Matrix: (Units=1/GPa)
#
#
# Indices 1 2 3 4 5 6 
#
# 1 0.020735 -0.005932 -0.003244 0.000000 0.000000 0.000000
# 2 -0.005932 0.030123 -0.003596 0.000000 0.000000 0.000000
# 3 -0.003244 -0.003596 0.009653 0.000000 0.000000 0.000000
# 4 0.000000 0.000000 0.000000 0.045059 0.000000 0.000000
# 5 0.000000 0.000000 0.000000 0.000000 0.109469 0.000000
# 6 0.000000 0.000000 0.000000 0.000000 0.000000 0.045252
#
#
# Mechanical properties :
#
#
# Convention : Reuss Voigt Hill
#
# Bulk Modulus (GPa) = 28.60029 36.25933 32.42981
# Shear Modulus (GPa) = 16.80728 21.09080 18.94904
#
# Velocity S-wave (km/s) = 3.00207 3.36294 3.18762
# Velocity P-wave (km/s) = 5.22998 5.87556 5.56214
#
# Compressibility (1/GPa) = 0.03496469
#
# Stress axis : x y z
#
# Youngs Moduli (GPa) = 48.22783 33.19728 103.59665
#
# Poissons Ratio (x) = 0.19694 0.33612
# Poissons Ratio (y) = 0.28611 0.37254
# Poissons Ratio (z) = 0.15647 0.11938
#
# Static dielectric constant tensor:
#      x y z
#    x 3.177010 0.000000 0.000000 
#    y 0.000000 3.064020 0.000000 
#    z 0.000000 0.000000 4.154310 
# 
# 
# High freq. dielectric constant tensor:
#      x y z
#    x 1.688240 0.000000 0.000000 
#    y 0.000000 1.686960 0.000000 
#    z 0.000000 0.000000 1.754330 
# 
# From -- ./inp_files/15074.got.cif
#   From: 2010.03.12/outbox.cif.g09.slc.cpg/sg39_8_cif.got.tgz:15074.got - 2010.04.14 02:53:20.
