data_PCOD8180102
_publ_section_title
;
Structure prediction by ZEFSAII (Michael W. Deem and Ramdas Pophale) SiO2 
 PCOD8180102
Probable space group: A M M 2
;
_chemical_formula_sum "Si O2"
_cell_formula_units_Z 48
_cell_length_a 9.474134
_cell_length_b 7.840303
_cell_length_c 33.349510
_cell_angle_alpha 90.000000
_cell_angle_beta 90.000000
_cell_angle_gamma 90.000000
_cell_volume 2477.204312
_symmetry_space_group_name_H-M "A M M 2"
_symmetry_group_IT_number 38
_symmetry_cell_setting 'orthorhombic'
loop_
_space_group_symop_operation_xyz
x,y,z
-x,-y,z
-x,y,z
x,-y,z
x,1/2+y,1/2+z
-x,1/2-y,1/2+z
-x,1/2+y,1/2+z
x,1/2-y,1/2+z
loop_
_atom_site_type_symbol
_atom_site_label
_atom_site_fract_x
_atom_site_fract_y
_atom_site_fract_z
Si Si1 0.666763 0.500000 0.622850
Si Si2 0.165743 0.000000 0.204665
Si Si3 0.159539 0.701451 0.405270
Si Si4 0.161151 0.190247 0.760973
Si Si5 0.659934 0.305532 0.832843
Si Si6 0.836233 0.804214 0.995787
Si Si7 0.338521 0.310387 0.067682
O O1 0.500000 0.500000 0.631049
O O2 0.746950 0.500000 0.664376
O O3 0.716289 0.331109 0.598954
O O4 0.210782 0.830384 0.228874
O O5 0.000000 0.000000 0.194832
O O6 0.174082 0.500000 0.400701
O O7 0.269053 0.793569 0.376303
O O8 0.195924 0.757596 0.450612
O O9 0.000000 0.758067 0.394504
O O10 0.255303 0.194560 0.800749
O O11 0.000000 0.227899 0.773806
O O12 0.175736 0.000000 0.742256
O O13 0.500000 0.236797 0.835605
O O14 0.662720 0.500000 0.818349
O O15 0.747638 0.691897 0.026485
O O16 0.000000 0.779947 0.005722
O O17 0.791034 0.000000 0.000954
O O18 0.500000 0.270459 0.056869
O O19 0.321690 0.500000 0.086622
#
# Coordination Sequence:
#
# PCOD8180102 Si02
#       7
#     4   4   8   8   8   8   8
#     4  10  22  40  60  84 118 154 188 232 286 342
#     4  10  22  40  62  90 118 146 186 236 286 340
#     4   9  19  35  54  78 109 148 193 239 287 340
#     4  10  21  39  63  87 113 149 189 230 283 344
#     4  11  23  36  52  79 115 152 193 237 283 336
#     4   9  18  34  56  81 111 148 192 240 289 338
#     4  10  21  37  58  84 114 152 194 232 279 342
#
# _framework density 19.376683
#
# number of rings (size 3 to 8) (size 9 to 14) (size 15 to 20)
#    0.000    2.167    1.667    2.000    0.000    7.333 
#    0.000    5.000    0.000    0.000    0.000    0.000 
#    0.000    0.000    0.000    0.000    0.000    0.000 
#
# Total GULP energy -297636.287647 kJ/mol
# GULP energy per Si atom -12401.511985 kJ/mol
# Density = 1.933258 g / cm^3
# Si number density = 19.376683 Si / 1000 Ang^3
#
#
#
# Elastic Constant Matrix: (Units=GPa)
#
#
# Indices 1 2 3 4 5 6 
#
# 1 85.4495 38.0024 64.8647 0.0000 0.0000 0.0000
# 2 38.0024 112.2873 55.3966 0.0000 0.0000 0.0000
# 3 64.8647 55.3966 127.5988 0.0000 0.0000 0.0000
# 4 0.0000 0.0000 0.0000 24.2352 0.0000 0.0000
# 5 0.0000 0.0000 0.0000 0.0000 -3.9303 0.0000
# 6 0.0000 0.0000 0.0000 0.0000 0.0000 22.8757
#
#
#
# Elastic Compliance Matrix: (Units=1/GPa)
#
#
# Indices 1 2 3 4 5 6 
#
# 1 0.019464 -0.002171 -0.008952 0.000000 0.000000 0.000000
# 2 -0.002171 0.011575 -0.003922 0.000000 0.000000 0.000000
# 3 -0.008952 -0.003922 0.014090 0.000000 0.000000 0.000000
# 4 0.000000 0.000000 0.000000 0.041262 0.000000 0.000000
# 5 0.000000 0.000000 0.000000 0.000000 -0.254433 0.000000
# 6 0.000000 0.000000 0.000000 0.000000 0.000000 0.043715
#
#
# Mechanical properties :
#
#
# Convention : Reuss Voigt Hill
#
# Bulk Modulus (GPa) = 66.48844 71.31810 68.90327
# Shear Modulus (GPa) = -56.03843 19.77424 -18.13210
#
# Velocity S-wave (km/s) = -5.38362 3.19802 -3.06235
# Velocity P-wave (km/s) = 2.06308 7.10792 4.80969
#
# Compressibility (1/GPa) = 0.01504021
#
# Stress axis : x y z
#
# Youngs Moduli (GPa) = 51.37789 86.39126 70.97060
#
# Poissons Ratio (x) = 0.18755 0.63532
# Poissons Ratio (y) = 0.11154 0.27833
# Poissons Ratio (z) = 0.45993 0.33881
#
# Static dielectric constant tensor:
#      x y z
#    x 3.480650 0.000000 0.000000 
#    y 0.000000 3.625720 0.000000 
#    z 0.000000 0.000000 3.360490 
# 
# 
# High freq. dielectric constant tensor:
#      x y z
#    x 1.748330 0.000000 0.000000 
#    y 0.000000 1.762300 0.000000 
#    z 0.000000 0.000000 1.741650 
# 
# From -- ./inp_files/24337.got.cif
#   From: 2010.03.12/outbox.cif.g09.slc.cpg/sg38_13_cif.got.tgz:24337.got - 2010.04.14 02:38:36.
