data_PCOD8180789
_publ_section_title
;
Structure prediction by ZEFSAII (Michael W. Deem and Ramdas Pophale) SiO2 
 PCOD8180789
Probable space group: A B M 2
;
_chemical_formula_sum "Si O2"
_cell_formula_units_Z 60
_cell_length_a 25.134454
_cell_length_b 9.522939
_cell_length_c 13.753690
_cell_angle_alpha 90.000000
_cell_angle_beta 90.000000
_cell_angle_gamma 90.000000
_cell_volume 3291.998959
_symmetry_space_group_name_H-M "A B M 2"
_symmetry_group_IT_number 39
_symmetry_cell_setting 'orthorhombic'
loop_
_space_group_symop_operation_xyz
x,y,z
-x,-y,z
-x,1/2+y,z
x,1/2-y,z
x,1/2+y,1/2+z
-x,1/2-y,1/2+z
-x,y,1/2+z
x,-y,1/2+z
loop_
_atom_site_type_symbol
_atom_site_label
_atom_site_fract_x
_atom_site_fract_y
_atom_site_fract_z
Si Si1 0.853915 0.910348 0.271400
Si Si2 0.584799 0.406694 0.261090
Si Si3 0.664568 0.917171 0.605415
Si Si4 0.123640 0.912377 0.989362
Si Si5 0.947788 0.085856 0.622809
Si Si6 0.500000 0.000000 0.616758
Si Si7 0.409900 0.910397 0.476272
Si Si8 0.215571 0.588648 0.139399
O O1 0.835027 0.750000 0.267470
O O2 0.865649 0.959296 0.380015
O O3 0.907678 0.933707 0.211676
O O4 0.805416 0.001767 0.231090
O O5 0.601396 0.250000 0.284524
O O6 0.634612 0.474404 0.202695
O O7 0.533593 0.403516 0.190486
O O8 0.575217 0.472954 0.368456
O O9 0.657474 0.750000 0.592394
O O10 0.725773 0.962972 0.611025
O O11 0.638198 0.992478 0.513026
O O12 0.104972 0.750000 0.997093
O O13 0.178129 0.937327 0.047096
O O14 0.077186 0.014078 0.027298
O O15 0.960209 0.250000 0.602561
O O16 0.000000 0.000000 0.652411
O O17 0.461090 0.912915 0.546848
O O18 0.390173 0.750000 0.472959
O O19 0.216337 0.750000 0.171593
#
# Coordination Sequence:
#
# PCOD8180789 Si02
#       8
#     8   8   8   8   8   4   8   8
#     4   9  19  34  52  75 102 131 165 207 252 293
#     4   9  18  32  48  68  97 128 158 198 246 294
#     4   9  19  35  51  71 102 135 163 199 249 297
#     4   9  18  34  53  74 101 132 168 209 250 295
#     4  10  20  34  51  73 101 132 166 204 248 296
#     4  10  18  32  50  70  96 126 160 202 246 296
#     4  10  20  33  51  74  96 125 165 203 243 293
#     4   9  18  33  53  74  99 133 169 203 245 297
#
# _framework density 18.226006999999999
#
# number of rings (size 3 to 8) (size 9 to 14) (size 15 to 20)
#    0.000    2.667    0.000    1.200    0.000    3.733 
#    0.000    4.667    0.000    0.000    0.000    0.000 
#    0.000    0.000    0.000    0.000    0.000    0.000 
#
# Total GULP energy -371865.501524 kJ/mol
# GULP energy per Si atom -12395.516717 kJ/mol
# Density = 1.818452 g / cm^3
# Si number density = 18.226007 Si / 1000 Ang^3
#
#
#
# Elastic Constant Matrix: (Units=GPa)
#
#
# Indices 1 2 3 4 5 6 
#
# 1 97.6910 34.9462 34.5025 0.0000 0.0000 0.0000
# 2 34.9462 65.5221 35.8866 0.0000 0.0000 0.0000
# 3 34.5025 35.8866 131.4539 0.0000 0.0000 0.0000
# 4 0.0000 0.0000 0.0000 25.2513 0.0000 0.0000
# 5 0.0000 0.0000 0.0000 0.0000 13.4989 0.0000
# 6 0.0000 0.0000 0.0000 0.0000 0.0000 29.5166
#
#
#
# Elastic Compliance Matrix: (Units=1/GPa)
#
#
# Indices 1 2 3 4 5 6 
#
# 1 0.012997 -0.005954 -0.001786 0.000000 0.000000 0.000000
# 2 -0.005954 0.020673 -0.004081 0.000000 0.000000 0.000000
# 3 -0.001786 -0.004081 0.009190 0.000000 0.000000 0.000000
# 4 0.000000 0.000000 0.000000 0.039602 0.000000 0.000000
# 5 0.000000 0.000000 0.000000 0.000000 0.074080 0.000000
# 6 0.000000 0.000000 0.000000 0.000000 0.000000 0.033879
#
#
# Mechanical properties :
#
#
# Convention : Reuss Voigt Hill
#
# Bulk Modulus (GPa) = 52.03345 56.14863 54.09104
# Shear Modulus (GPa) = 22.67900 26.27547 24.47724
#
# Velocity S-wave (km/s) = 3.53132 3.80102 3.66865
# Velocity P-wave (km/s) = 6.72592 7.08078 6.90563
#
# Compressibility (1/GPa) = 0.01921840
#
# Stress axis : x y z
#
# Youngs Moduli (GPa) = 76.94142 48.37323 108.81332
#
# Poissons Ratio (x) = 0.28800 0.19433
# Poissons Ratio (y) = 0.45809 0.44406
# Poissons Ratio (z) = 0.13741 0.19741
#
# Static dielectric constant tensor:
#      x y z
#    x 3.347500 0.000000 0.000000 
#    y 0.000000 3.254060 0.000000 
#    z 0.000000 0.000000 3.549410 
# 
# 
# High freq. dielectric constant tensor:
#      x y z
#    x 1.703920 0.000000 0.000000 
#    y 0.000000 1.694360 0.000000 
#    z 0.000000 0.000000 1.712760 
# 
# From -- ./inp_files/10531.got.cif
#   From: 2010.03.12/outbox.cif.g09.slc.cpg/sg39_6_cif.got.tgz:10531.got - 2010.04.14 02:53:20.
