data_PCOD8180867
_publ_section_title
;
Structure prediction by ZEFSAII (Michael W. Deem and Ramdas Pophale) SiO2 
 PCOD8180867
Probable space group: A B M 2
;
_chemical_formula_sum "Si O2"
_cell_formula_units_Z 36
_cell_length_a 9.397098
_cell_length_b 13.674232
_cell_length_c 12.691416
_cell_angle_alpha 90.000000
_cell_angle_beta 90.000000
_cell_angle_gamma 90.000000
_cell_volume 1630.822819
_symmetry_space_group_name_H-M "A B M 2"
_symmetry_group_IT_number 39
_symmetry_cell_setting 'orthorhombic'
loop_
_space_group_symop_operation_xyz
x,y,z
-x,-y,z
-x,1/2+y,z
x,1/2-y,z
x,1/2+y,1/2+z
-x,1/2-y,1/2+z
-x,y,1/2+z
x,-y,1/2+z
loop_
_atom_site_type_symbol
_atom_site_label
_atom_site_fract_x
_atom_site_fract_y
_atom_site_fract_z
Si Si1 0.767924 0.363041 0.007950
Si Si2 0.134356 0.861007 0.330600
Si Si3 0.655028 0.031857 0.187284
Si Si4 0.819844 0.142345 0.764574
Si Si5 0.000000 0.500000 0.488931
O O1 0.776851 0.250000 0.040620
O O2 0.640936 0.417615 0.071298
O O3 0.757594 0.375771 0.882538
O O4 0.911143 0.417952 0.052661
O O5 0.150897 0.750000 0.374258
O O6 0.274168 0.887395 0.263512
O O7 0.989703 0.868146 0.262423
O O8 0.119518 0.940765 0.422328
O O9 0.500000 0.000000 0.227619
O O10 0.753890 0.935243 0.183942
O O11 0.773661 0.250000 0.726656
#
# Coordination Sequence:
#
# PCOD8180867 Si02
#       5
#     8   8   8   8   4
#     4  10  22  40  63  91 126 165 206 258 317 373
#     4  10  19  38  65  94 123 158 210 267 315 366
#     4  12  24  38  61  90 136 169 207 253 320 385
#     4   9  20  42  67  88 120 166 215 266 314 367
#     4  10  18  38  70  94 126 160 218 266 320 366
#
# _framework density 22.074746000000001
#
# number of rings (size 3 to 8) (size 9 to 14) (size 15 to 20)
#    0.000    1.778    4.444    2.667    3.111    2.667 
#    0.000    1.111    0.000    0.000    0.000    0.000 
#    0.000    0.000    0.000    0.000    0.000    0.000 
#
# Total GULP energy -223032.019482 kJ/mol
# GULP energy per Si atom -12390.667749 kJ/mol
# Density = 2.202450 g / cm^3
# Si number density = 22.074746 Si / 1000 Ang^3
#
#
#
# Elastic Constant Matrix: (Units=GPa)
#
#
# Indices 1 2 3 4 5 6 
#
# 1 95.6081 43.0244 23.7186 0.0000 0.0000 0.0000
# 2 43.0244 188.3230 34.7025 0.0000 0.0000 0.0000
# 3 23.7186 34.7025 57.2648 0.0000 0.0000 0.0000
# 4 0.0000 0.0000 0.0000 35.1933 0.0000 0.0000
# 5 0.0000 0.0000 0.0000 0.0000 20.7663 0.0000
# 6 0.0000 0.0000 0.0000 0.0000 0.0000 23.0660
#
#
#
# Elastic Compliance Matrix: (Units=1/GPa)
#
#
# Indices 1 2 3 4 5 6 
#
# 1 0.012364 -0.002118 -0.003838 0.000000 0.000000 0.000000
# 2 -0.002118 0.006340 -0.002965 0.000000 0.000000 0.000000
# 3 -0.003838 -0.002965 0.020849 0.000000 0.000000 0.000000
# 4 0.000000 0.000000 0.000000 0.028414 0.000000 0.000000
# 5 0.000000 0.000000 0.000000 0.000000 0.048155 0.000000
# 6 0.000000 0.000000 0.000000 0.000000 0.000000 0.043354
#
#
# Mechanical properties :
#
#
# Convention : Reuss Voigt Hill
#
# Bulk Modulus (GPa) = 46.05625 60.45410 53.25518
# Shear Modulus (GPa) = 27.09209 31.78850 29.44030
#
# Velocity S-wave (km/s) = 3.50707 3.79890 3.65590
# Velocity P-wave (km/s) = 6.10806 6.83284 6.48059
#
# Compressibility (1/GPa) = 0.02171258
#
# Stress axis : x y z
#
# Youngs Moduli (GPa) = 80.87727 157.72414 47.96335
#
# Poissons Ratio (x) = 0.33399 0.18408
# Poissons Ratio (y) = 0.17126 0.14222
# Poissons Ratio (z) = 0.31041 0.46767
#
# Static dielectric constant tensor:
#      x y z
#    x 3.613010 0.000000 0.000000 
#    y 0.000000 4.450670 0.000000 
#    z 0.000000 0.000000 3.626070 
# 
# 
# High freq. dielectric constant tensor:
#      x y z
#    x 1.823990 0.000000 0.000000 
#    y 0.000000 1.903870 0.000000 
#    z 0.000000 0.000000 1.837610 
# 
# From -- ./inp_files/7998.got.cif
#   From: 2010.03.12/outbox.cif.g09.slc.cpg/sg39_4_cif.got.tgz:7998.got - 2010.04.14 02:53:20.
