data_PCOD8180429
_publ_section_title
;
Structure prediction by ZEFSAII (Michael W. Deem and Ramdas Pophale) SiO2 
 PCOD8180429
Probable space group: A M M 2
;
_chemical_formula_sum "Si O2"
_cell_formula_units_Z 64
_cell_length_a 8.814097
_cell_length_b 19.554133
_cell_length_c 20.758210
_cell_angle_alpha 90.000000
_cell_angle_beta 90.000000
_cell_angle_gamma 90.000000
_cell_volume 3577.719529
_symmetry_space_group_name_H-M "A M M 2"
_symmetry_group_IT_number 38
_symmetry_cell_setting 'orthorhombic'
loop_
_space_group_symop_operation_xyz
x,y,z
-x,-y,z
-x,y,z
x,-y,z
x,1/2+y,1/2+z
-x,1/2-y,1/2+z
-x,1/2+y,1/2+z
x,1/2-y,1/2+z
loop_
_atom_site_type_symbol
_atom_site_label
_atom_site_fract_x
_atom_site_fract_y
_atom_site_fract_z
Si Si1 0.176940 0.077276 0.608930
Si Si2 0.323728 0.577418 0.497500
Si Si3 0.178588 0.791825 0.946863
Si Si4 0.319564 0.784372 0.190210
Si Si5 0.319851 0.073850 0.144389
Si Si6 0.320940 0.708154 0.062520
Si Si7 0.320993 0.704718 0.314489
Si Si8 0.824397 0.077752 0.757468
O O1 0.272815 0.128726 0.564552
O O2 0.223270 0.087494 0.683252
O O3 0.000000 0.092268 0.599449
O O4 0.215831 0.000000 0.587174
O O5 0.500000 0.597374 0.490859
O O6 0.295254 0.500000 0.473414
O O7 0.225669 0.628984 0.454886
O O8 0.268609 0.585543 0.570978
O O9 0.240960 0.766453 0.878159
O O10 0.000000 0.784711 0.948283
O O11 0.247764 0.744150 0.001486
O O12 0.500000 0.782057 0.189928
O O13 0.259650 0.863073 0.187487
O O14 0.259283 0.744244 0.127502
O O15 0.257180 0.749843 0.255005
O O16 0.500000 0.071727 0.145728
O O17 0.256907 0.000000 0.169446
O O18 0.500000 0.714680 0.056067
O O19 0.500000 0.711485 0.322653
O O20 0.278575 0.625801 0.301897
O O21 0.000000 0.097022 0.767217
O O22 0.794004 0.000000 0.779032
#
# Coordination Sequence:
#
# PCOD8180429 Si02
#       8
#     8   8   8   8   8   8   8   8
#     4   9  18  33  54  82 115 146 177 217 270 330
#     4   9  17  32  55  80 107 141 178 217 264 319
#     4  12  25  38  52  75 108 149 187 225 275 328
#     4   9  17  30  52  81 107 132 171 221 272 314
#     4   8  13  25  50  81 108 131 160 205 262 317
#     4  11  20  35  58  83 109 138 181 235 274 318
#     4  11  22  36  53  76 106 143 182 226 272 320
#     4   9  18  33  52  76 109 145 179 217 262 320
#
# _framework density 17.888490000000001
#
# number of rings (size 3 to 8) (size 9 to 14) (size 15 to 20)
#    0.000    2.250    2.500    3.375    0.000    1.250 
#    0.000    1.250    0.000    0.750    0.000    1.750 
#    0.000    0.000    0.000    0.000    0.000    0.000 
#
# Total GULP energy -396753.128325 kJ/mol
# GULP energy per Si atom -12398.535260 kJ/mol
# Density = 1.784777 g / cm^3
# Si number density = 17.888490 Si / 1000 Ang^3
#
#
#
# Elastic Constant Matrix: (Units=GPa)
#
#
# Indices 1 2 3 4 5 6 
#
# 1 69.8532 36.5068 43.2760 0.0000 0.0000 0.0000
# 2 36.5068 117.8690 64.8186 0.0000 0.0000 0.0000
# 3 43.2760 64.8186 119.0246 0.0000 0.0000 0.0000
# 4 0.0000 0.0000 0.0000 24.0184 0.0000 0.0000
# 5 0.0000 0.0000 0.0000 0.0000 21.5238 0.0000
# 6 0.0000 0.0000 0.0000 0.0000 0.0000 24.8074
#
#
#
# Elastic Compliance Matrix: (Units=1/GPa)
#
#
# Indices 1 2 3 4 5 6 
#
# 1 0.019197 -0.003008 -0.005342 0.000000 0.000000 0.000000
# 2 -0.003008 0.012582 -0.005758 0.000000 0.000000 0.000000
# 3 -0.005342 -0.005758 0.013480 0.000000 0.000000 0.000000
# 4 0.000000 0.000000 0.000000 0.041635 0.000000 0.000000
# 5 0.000000 0.000000 0.000000 0.000000 0.046460 0.000000
# 6 0.000000 0.000000 0.000000 0.000000 0.000000 0.040310
#
#
# Mechanical properties :
#
#
# Convention : Reuss Voigt Hill
#
# Bulk Modulus (GPa) = 58.67619 66.21661 62.44640
# Shear Modulus (GPa) = 24.08916 24.87962 24.48439
#
# Velocity S-wave (km/s) = 3.67363 3.73341 3.70364
# Velocity P-wave (km/s) = 7.13206 7.46198 7.29889
#
# Compressibility (1/GPa) = 0.01704269
#
# Stress axis : x y z
#
# Youngs Moduli (GPa) = 52.09075 79.47630 74.18595
#
# Poissons Ratio (x) = 0.23909 0.39627
# Poissons Ratio (y) = 0.15671 0.42719
# Poissons Ratio (z) = 0.27825 0.45765
#
# Static dielectric constant tensor:
#      x y z
#    x 3.022540 0.000000 0.000000 
#    y 0.000000 3.601000 0.000000 
#    z 0.000000 0.000000 3.221360 
# 
# 
# High freq. dielectric constant tensor:
#      x y z
#    x 1.669650 0.000000 0.000000 
#    y 0.000000 1.698730 0.000000 
#    z 0.000000 0.000000 1.670650 
# 
# From -- ./inp_files/20260.got.cif
#   From: 2010.03.12/outbox.cif.g09.slc.cpg/sg38_11_cif.got.tgz:20260.got - 2010.04.14 02:38:36.
