data_PCOD8180198
_publ_section_title
;
Structure prediction by ZEFSAII (Michael W. Deem and Ramdas Pophale) SiO2 
 PCOD8180198
Probable space group: A M M 2
;
_chemical_formula_sum "Si O2"
_cell_formula_units_Z 48
_cell_length_a 8.698164
_cell_length_b 14.452638
_cell_length_c 20.192642
_cell_angle_alpha 90.000000
_cell_angle_beta 90.000000
_cell_angle_gamma 90.000000
_cell_volume 2538.445610
_symmetry_space_group_name_H-M "A M M 2"
_symmetry_group_IT_number 38
_symmetry_cell_setting 'orthorhombic'
loop_
_space_group_symop_operation_xyz
x,y,z
-x,-y,z
-x,y,z
x,-y,z
x,1/2+y,1/2+z
-x,1/2-y,1/2+z
-x,1/2+y,1/2+z
x,1/2-y,1/2+z
loop_
_atom_site_type_symbol
_atom_site_label
_atom_site_fract_x
_atom_site_fract_y
_atom_site_fract_z
Si Si1 0.179230 0.309958 0.392200
Si Si2 0.321470 0.678914 0.528139
Si Si3 0.679678 0.189473 0.648747
Si Si4 0.179211 0.309469 0.765232
Si Si5 0.318609 0.000000 0.228412
Si Si6 0.821001 0.500000 0.584734
Si Si7 0.182398 0.000000 0.828720
Si Si8 0.182138 0.000000 0.679316
O O1 0.276014 0.281107 0.456534
O O2 0.210154 0.232400 0.337304
O O3 0.241319 0.408988 0.366432
O O4 0.000000 0.316179 0.410149
O O5 0.500000 0.651619 0.530833
O O6 0.281421 0.756419 0.581781
O O7 0.218687 0.589010 0.541281
O O8 0.500000 0.177054 0.659599
O O9 0.745547 0.244402 0.710809
O O10 0.757741 0.089951 0.641289
O O11 0.251714 0.410727 0.764770
O O12 0.000000 0.315766 0.748782
O O13 0.277714 0.000000 0.151295
O O14 0.500000 0.000000 0.235391
O O15 0.000000 0.500000 0.603157
O O16 0.248095 0.000000 0.754174
O O17 0.000000 0.000000 0.824161
O O18 0.000000 0.000000 0.678558
#
# Coordination Sequence:
#
# PCOD8180198 Si02
#       8
#     8   8   8   8   4   4   4   4
#     4  10  21  38  61  89 123 158 199 246 298 360
#     4  11  24  40  59  88 126 161 199 248 304 365
#     4  11  23  39  60  88 124 159 197 249 303 358
#     4  11  22  39  64  91 119 158 205 252 299 359
#     4  12  24  39  60  91 126 158 200 254 307 360
#     4  12  23  37  62  90 122 161 202 251 304 360
#     4   9  17  34  57  87 120 150 185 243 300 346
#     4  11  21  38  63  90 120 153 201 250 293 354
#
# _framework density 18.909209000000001
#
# number of rings (size 3 to 8) (size 9 to 14) (size 15 to 20)
#    0.000    1.167    3.333    3.750    0.000    4.000 
#    0.000    0.833    0.000    0.000    0.000    0.000 
#    0.000    0.000    0.000    0.000    0.000    0.000 
#
# Total GULP energy -297748.967424 kJ/mol
# GULP energy per Si atom -12406.206976 kJ/mol
# Density = 1.886617 g / cm^3
# Si number density = 18.909209 Si / 1000 Ang^3
#
#
#
# Elastic Constant Matrix: (Units=GPa)
#
#
# Indices 1 2 3 4 5 6 
#
# 1 68.2295 49.5391 42.4601 0.0000 0.0000 0.0000
# 2 49.5391 147.8064 52.7849 0.0000 0.0000 0.0000
# 3 42.4601 52.7849 112.9836 0.0000 0.0000 0.0000
# 4 0.0000 0.0000 0.0000 14.3216 0.0000 0.0000
# 5 0.0000 0.0000 0.0000 0.0000 29.4055 0.0000
# 6 0.0000 0.0000 0.0000 0.0000 0.0000 31.9489
#
#
#
# Elastic Compliance Matrix: (Units=1/GPa)
#
#
# Indices 1 2 3 4 5 6 
#
# 1 0.022169 -0.005347 -0.005833 0.000000 0.000000 0.000000
# 2 -0.005347 0.009410 -0.002387 0.000000 0.000000 0.000000
# 3 -0.005833 -0.002387 0.012158 0.000000 0.000000 0.000000
# 4 0.000000 0.000000 0.000000 0.069825 0.000000 0.000000
# 5 0.000000 0.000000 0.000000 0.000000 0.034007 0.000000
# 6 0.000000 0.000000 0.000000 0.000000 0.000000 0.031300
#
#
# Mechanical properties :
#
#
# Convention : Reuss Voigt Hill
#
# Bulk Modulus (GPa) = 60.23020 68.73198 64.48109
# Shear Modulus (GPa) = 23.63652 27.41757 25.52705
#
# Velocity S-wave (km/s) = 3.53937 3.81196 3.67819
# Velocity P-wave (km/s) = 6.97311 7.47008 7.22587
#
# Compressibility (1/GPa) = 0.01660297
#
# Stress axis : x y z
#
# Youngs Moduli (GPa) = 45.10872 106.26859 82.24969
#
# Poissons Ratio (x) = 0.56821 0.47977
# Poissons Ratio (y) = 0.24119 0.19632
# Poissons Ratio (z) = 0.26312 0.25365
#
# Static dielectric constant tensor:
#      x y z
#    x 3.491030 0.000000 0.000000 
#    y 0.000000 3.635620 0.000000 
#    z 0.000000 0.000000 3.471010 
# 
# 
# High freq. dielectric constant tensor:
#      x y z
#    x 1.739610 0.000000 0.000000 
#    y 0.000000 1.739660 0.000000 
#    z 0.000000 0.000000 1.734080 
# 
# From -- ./inp_files/16769.got.cif
#   From: 2010.03.12/outbox.cif.g09.slc.cpg/sg38_9_cif.got.tgz:16769.got - 2010.04.14 02:38:36.
