data_PCOD8180903
_publ_section_title
;
Structure prediction by ZEFSAII (Michael W. Deem and Ramdas Pophale) SiO2 
 PCOD8180903
Probable space group: A B M 2
;
_chemical_formula_sum "Si O2"
_cell_formula_units_Z 64
_cell_length_a 19.249718
_cell_length_b 8.911288
_cell_length_c 20.336533
_cell_angle_alpha 90.000000
_cell_angle_beta 90.000000
_cell_angle_gamma 90.000000
_cell_volume 3488.524417
_symmetry_space_group_name_H-M "A B M 2"
_symmetry_group_IT_number 39
_symmetry_cell_setting 'orthorhombic'
loop_
_space_group_symop_operation_xyz
x,y,z
-x,-y,z
-x,1/2+y,z
x,1/2-y,z
x,1/2+y,1/2+z
-x,1/2-y,1/2+z
-x,y,1/2+z
x,-y,1/2+z
loop_
_atom_site_type_symbol
_atom_site_label
_atom_site_fract_x
_atom_site_fract_y
_atom_site_fract_z
Si Si1 0.790455 0.427258 0.272410
Si Si2 0.573706 0.574148 0.339167
Si Si3 0.656993 0.574605 0.464872
Si Si4 0.575283 0.573417 0.596174
Si Si5 0.068374 0.419446 0.271410
Si Si6 0.931897 0.581745 0.427756
Si Si7 0.208603 0.073659 0.924313
Si Si8 0.659054 0.072318 0.711955
O O1 0.785938 0.250000 0.262469
O O2 0.865243 0.485224 0.248406
O O3 0.777684 0.473080 0.348449
O O4 0.735118 0.508450 0.226015
O O5 0.500000 0.500000 0.343171
O O6 0.563391 0.750000 0.344662
O O7 0.619578 0.514796 0.399440
O O8 0.609468 0.525826 0.271747
O O9 0.674087 0.750000 0.461030
O O10 0.606487 0.536298 0.525001
O O11 0.729720 0.487338 0.470416
O O12 0.500000 0.500000 0.603403
O O13 0.567793 0.750000 0.608617
O O14 0.628793 0.503986 0.647457
O O15 0.073228 0.250000 0.243859
O O16 0.064100 0.417014 0.349574
O O17 0.000000 0.500000 0.242268
O O18 0.929692 0.750000 0.455900
O O19 0.862919 0.495918 0.451069
O O20 0.000000 0.500000 0.456848
O O21 0.202623 0.250000 0.931731
O O22 0.663321 0.250000 0.702392
#
# Coordination Sequence:
#
# PCOD8180903 Si02
#       8
#     8   8   8   8   8   8   8   8
#     4  10  19  31  49  76 108 141 179 224 271 321
#     4  10  21  35  54  78 103 133 171 214 265 320
#     4  10  21  38  56  77 106 141 178 220 270 323
#     4  11  24  41  60  80 107 141 179 224 272 326
#     4   9  16  26  42  67 102 143 181 219 265 317
#     4   9  16  26  42  66 102 143 180 219 263 316
#     4  10  19  30  49  77 107 140 178 223 269 319
#     4  11  22  37  57  79 107 142 179 223 271 324
#
# _framework density 18.345865
#
# number of rings (size 3 to 8) (size 9 to 14) (size 15 to 20)
#    0.000    2.000    1.250    3.000    0.000    7.500 
#    0.000    0.000    0.000    0.000    0.000    0.875 
#    0.000    6.000    0.000    0.000    0.000    0.000 
#
# Total GULP energy -396885.959139 kJ/mol
# GULP energy per Si atom -12402.686223 kJ/mol
# Density = 1.830411 g / cm^3
# Si number density = 18.345865 Si / 1000 Ang^3
#
#
#
# Elastic Constant Matrix: (Units=GPa)
#
#
# Indices 1 2 3 4 5 6 
#
# 1 135.2793 50.4176 10.2378 0.0000 0.0000 0.0000
# 2 50.4176 87.5853 27.5002 0.0000 0.0000 0.0000
# 3 10.2378 27.5002 30.9451 0.0000 0.0000 0.0000
# 4 0.0000 0.0000 0.0000 20.9595 0.0000 0.0000
# 5 0.0000 0.0000 0.0000 0.0000 15.5612 0.0000
# 6 0.0000 0.0000 0.0000 0.0000 0.0000 44.0456
#
#
#
# Elastic Compliance Matrix: (Units=1/GPa)
#
#
# Indices 1 2 3 4 5 6 
#
# 1 0.009537 -0.006240 0.002391 0.000000 0.000000 0.000000
# 2 -0.006240 0.019920 -0.015638 0.000000 0.000000 0.000000
# 3 0.002391 -0.015638 0.045421 0.000000 0.000000 0.000000
# 4 0.000000 0.000000 0.000000 0.047711 0.000000 0.000000
# 5 0.000000 0.000000 0.000000 0.000000 0.064262 0.000000
# 6 0.000000 0.000000 0.000000 0.000000 0.000000 0.022704
#
#
# Mechanical properties :
#
#
# Convention : Reuss Voigt Hill
#
# Bulk Modulus (GPa) = 27.85293 47.79121 37.82207
# Shear Modulus (GPa) = 19.19405 27.15686 23.17546
#
# Velocity S-wave (km/s) = 3.23806 3.85160 3.55808
# Velocity P-wave (km/s) = 5.40325 6.77396 6.12706
#
# Compressibility (1/GPa) = 0.03590286
#
# Stress axis : x y z
#
# Youngs Moduli (GPa) = 104.85501 50.20177 22.01620
#
# Poissons Ratio (x) = 0.31328 -0.05263
# Poissons Ratio (y) = 0.65434 0.34428
# Poissons Ratio (z) = -0.25066 0.78503
#
# Static dielectric constant tensor:
#      x y z
#    x 3.519370 0.000000 0.000000 
#    y 0.000000 3.492960 0.000000 
#    z 0.000000 0.000000 3.098620 
# 
# 
# High freq. dielectric constant tensor:
#      x y z
#    x 1.729840 0.000000 0.000000 
#    y 0.000000 1.724010 0.000000 
#    z 0.000000 0.000000 1.662470 
# 
# From -- ./inp_files/16325.got.cif
#   From: 2010.03.12/outbox.cif.g09.slc.cpg/sg39_9_cif.got.tgz:16325.got - 2010.04.14 02:53:20.
