data_PCOD8180403
_publ_section_title
;
Structure prediction by ZEFSAII (Michael W. Deem and Ramdas Pophale) SiO2 
 PCOD8180403
Probable space group: A M M 2
;
_chemical_formula_sum "Si O2"
_cell_formula_units_Z 40
_cell_length_a 15.494335
_cell_length_b 13.431453
_cell_length_c 7.693577
_cell_angle_alpha 90.000000
_cell_angle_beta 90.000000
_cell_angle_gamma 90.000000
_cell_volume 1601.121329
_symmetry_space_group_name_H-M "A M M 2"
_symmetry_group_IT_number 38
_symmetry_cell_setting 'orthorhombic'
loop_
_space_group_symop_operation_xyz
x,y,z
-x,-y,z
-x,y,z
x,-y,z
x,1/2+y,1/2+z
-x,1/2-y,1/2+z
-x,1/2+y,1/2+z
x,1/2-y,1/2+z
loop_
_atom_site_type_symbol
_atom_site_label
_atom_site_fract_x
_atom_site_fract_y
_atom_site_fract_z
Si Si1 0.630099 0.889965 0.186220
Si Si2 0.177555 0.889426 0.087907
Si Si3 0.096159 0.619218 0.924793
Si Si4 0.406160 0.313482 0.306500
Si Si5 0.774949 0.118424 0.717441
O O1 0.732837 0.891914 0.190691
O O2 0.596100 0.807337 0.321177
O O3 0.594667 0.000000 0.235962
O O4 0.598368 0.862110 0.994401
O O5 0.113364 0.838718 0.228774
O O6 0.143501 0.000000 0.048043
O O7 0.187019 0.836231 0.899639
O O8 0.105637 0.500000 0.923275
O O9 0.000000 0.651677 0.981673
O O10 0.165621 0.662586 0.063579
O O11 0.500000 0.343976 0.225764
O O12 0.324553 0.347879 0.188465
O O13 0.775651 0.000000 0.725214
#
# Coordination Sequence:
#
# PCOD8180403 Si02
#       5
#     8   8   8   8   8
#     4  10  23  43  65  94 134 176 225 287 346 406
#     4   8  16  33  55  81 118 168 214 265 338 397
#     4   9  17  30  55  92 129 170 223 278 337 409
#     4  11  23  39  64  96 128 176 231 278 341 411
#     4   9  19  35  57  89 131 176 222 280 343 403
#
# _framework density 24.982493000000002
#
# number of rings (size 3 to 8) (size 9 to 14) (size 15 to 20)
#    0.000    2.600    0.000    2.400    2.800    3.600 
#    0.000    5.000    0.000    6.000    0.000    0.000 
#    0.000    0.000    0.000    0.000    0.000    0.000 
#
# Total GULP energy -247778.271448 kJ/mol
# GULP energy per Si atom -12388.913572 kJ/mol
# Density = 2.492563 g / cm^3
# Si number density = 24.982493 Si / 1000 Ang^3
#
#
#
# Elastic Constant Matrix: (Units=GPa)
#
#
# Indices 1 2 3 4 5 6 
#
# 1 184.8123 20.2931 84.8699 0.0000 0.0000 0.0000
# 2 20.2931 64.7040 20.4079 0.0000 0.0000 0.0000
# 3 84.8699 20.4079 95.4721 0.0000 0.0000 0.0000
# 4 0.0000 0.0000 0.0000 30.2102 0.0000 0.0000
# 5 0.0000 0.0000 0.0000 0.0000 31.9062 0.0000
# 6 0.0000 0.0000 0.0000 0.0000 0.0000 1.6821
#
#
#
# Elastic Compliance Matrix: (Units=1/GPa)
#
#
# Indices 1 2 3 4 5 6 
#
# 1 0.009150 -0.000326 -0.008064 0.000000 0.000000 0.000000
# 2 -0.000326 0.016584 -0.003255 0.000000 0.000000 0.000000
# 3 -0.008064 -0.003255 0.018339 0.000000 0.000000 0.000000
# 4 0.000000 0.000000 0.000000 0.033101 0.000000 0.000000
# 5 0.000000 0.000000 0.000000 0.000000 0.031342 0.000000
# 6 0.000000 0.000000 0.000000 0.000000 0.000000 0.594492
#
#
# Mechanical properties :
#
#
# Convention : Reuss Voigt Hill
#
# Bulk Modulus (GPa) = 48.11871 66.23669 57.17770
# Shear Modulus (GPa) = 6.81918 27.38753 17.10336
#
# Velocity S-wave (km/s) = 1.65394 3.31459 2.61935
# Velocity P-wave (km/s) = 4.79063 6.42024 5.66434
#
# Compressibility (1/GPa) = 0.02078194
#
# Stress axis : x y z
#
# Youngs Moduli (GPa) = 109.29047 60.29927 54.52975
#
# Poissons Ratio (x) = 0.01967 0.43973
# Poissons Ratio (y) = 0.03565 0.17749
# Poissons Ratio (z) = 0.88133 0.19627
#
# Static dielectric constant tensor:
#      x y z
#    x 4.639000 0.000000 0.000000 
#    y 0.000000 4.493770 0.000000 
#    z 0.000000 0.000000 4.458880 
# 
# 
# High freq. dielectric constant tensor:
#      x y z
#    x 1.986860 0.000000 0.000000 
#    y 0.000000 1.990410 0.000000 
#    z 0.000000 0.000000 1.980600 
# 
# From -- ./inp_files/5234.got.cif
#   From: 2010.03.12/outbox.cif.g09.slc.cpg/sg38_3_cif.got.tgz:5234.got - 2010.04.14 02:38:36.
