data_PCOD8180153
_publ_section_title
;
Structure prediction by ZEFSAII (Michael W. Deem and Ramdas Pophale) SiO2 
 PCOD8180153
Probable space group: A M M 2
;
_chemical_formula_sum "Si O2"
_cell_formula_units_Z 48
_cell_length_a 9.019525
_cell_length_b 18.129215
_cell_length_c 14.946100
_cell_angle_alpha 90.000000
_cell_angle_beta 90.000000
_cell_angle_gamma 90.000000
_cell_volume 2443.940058
_symmetry_space_group_name_H-M "A M M 2"
_symmetry_group_IT_number 38
_symmetry_cell_setting 'orthorhombic'
loop_
_space_group_symop_operation_xyz
x,y,z
-x,-y,z
-x,y,z
x,-y,z
x,1/2+y,1/2+z
-x,1/2-y,1/2+z
-x,1/2+y,1/2+z
x,1/2-y,1/2+z
loop_
_atom_site_type_symbol
_atom_site_label
_atom_site_fract_x
_atom_site_fract_y
_atom_site_fract_z
Si Si1 0.176305 0.500000 0.164611
Si Si2 0.832294 0.611825 0.476804
Si Si3 0.671016 0.146831 0.610287
Si Si4 0.325167 0.500000 0.355270
Si Si5 0.669811 0.745668 0.945767
Si Si6 0.325894 0.224118 0.242349
Si Si7 0.167070 0.919201 0.177746
O O1 0.232304 0.426822 0.114585
O O2 0.241071 0.500000 0.262852
O O3 0.000000 0.500000 0.166367
O O4 0.722003 0.573094 0.407618
O O5 0.777286 0.694803 0.490030
O O6 0.823756 0.572011 0.571299
O O7 0.000000 0.609412 0.439091
O O8 0.500000 0.128888 0.634102
O O9 0.685389 0.173583 0.507640
O O10 0.733986 0.208828 0.680107
O O11 0.500000 0.500000 0.339198
O O12 0.500000 0.773641 0.946530
O O13 0.725178 0.732564 0.844768
O O14 0.500000 0.223020 0.232412
O O15 0.273477 0.144210 0.211551
O O16 0.000000 0.899063 0.207015
O O17 0.212606 0.000000 0.216899
#
# Coordination Sequence:
#
# PCOD8180153 Si02
#       7
#     4   8   8   4   8   8   8
#     4  12  26  42  62  89 120 157 206 255 308 366
#     4  11  21  36  59  89 123 155 195 247 304 365
#     4  10  21  40  63  87 123 162 200 251 307 363
#     4  12  24  38  60  89 122 159 198 247 310 372
#     4  10  21  38  61  90 119 157 206 250 301 363
#     4  10  21  38  62  90 117 152 202 251 295 356
#     4  10  21  38  58  84 123 160 191 239 301 357
#
# _framework density 19.640416999999999
#
# number of rings (size 3 to 8) (size 9 to 14) (size 15 to 20)
#    0.000    1.500    2.500    3.000    0.000    4.333 
#    1.500    0.000    0.000    0.000    0.000    0.000 
#    0.000    0.000    0.000    0.000    0.000    0.000 
#
# Total GULP energy -297601.802777 kJ/mol
# GULP energy per Si atom -12400.075116 kJ/mol
# Density = 1.959571 g / cm^3
# Si number density = 19.640417 Si / 1000 Ang^3
#
#
#
# Elastic Constant Matrix: (Units=GPa)
#
#
# Indices 1 2 3 4 5 6 
#
# 1 77.1131 52.0385 29.6584 0.0000 0.0000 0.0000
# 2 52.0385 133.1992 37.6449 0.0000 0.0000 0.0000
# 3 29.6584 37.6449 91.3963 0.0000 0.0000 0.0000
# 4 0.0000 0.0000 0.0000 26.9532 0.0000 0.0000
# 5 0.0000 0.0000 0.0000 0.0000 24.6139 0.0000
# 6 0.0000 0.0000 0.0000 0.0000 0.0000 -19.4011
#
#
#
# Elastic Compliance Matrix: (Units=1/GPa)
#
#
# Indices 1 2 3 4 5 6 
#
# 1 0.018514 -0.006264 -0.003428 0.000000 0.000000 0.000000
# 2 -0.006264 0.010616 -0.002340 0.000000 0.000000 0.000000
# 3 -0.003428 -0.002340 0.013017 0.000000 0.000000 0.000000
# 4 0.000000 0.000000 0.000000 0.037101 0.000000 0.000000
# 5 0.000000 0.000000 0.000000 0.000000 0.040627 0.000000
# 6 0.000000 0.000000 0.000000 0.000000 0.000000 -0.051544
#
#
# Mechanical properties :
#
#
# Convention : Reuss Voigt Hill
#
# Bulk Modulus (GPa) = 55.29823 60.04358 57.67090
# Shear Modulus (GPa) = 50.80082 18.59099 34.69590
#
# Velocity S-wave (km/s) = 5.09133 3.07997 4.20760
# Velocity P-wave (km/s) = 7.92329 6.57922 7.28233
#
# Compressibility (1/GPa) = 0.01808376
#
# Stress axis : x y z
#
# Youngs Moduli (GPa) = 54.01458 94.19601 76.82029
#
# Poissons Ratio (x) = 0.59006 0.26331
# Poissons Ratio (y) = 0.33836 0.17975
# Poissons Ratio (z) = 0.18514 0.22041
#
# Static dielectric constant tensor:
#      x y z
#    x 3.502750 0.000000 0.000000 
#    y 0.000000 3.605120 0.000000 
#    z 0.000000 0.000000 3.638760 
# 
# 
# High freq. dielectric constant tensor:
#      x y z
#    x 1.758850 0.000000 0.000000 
#    y 0.000000 1.773060 0.000000 
#    z 0.000000 0.000000 1.760750 
# 
# From -- ./inp_files/12106.got.cif
#   From: 2010.03.12/outbox.cif.g09.slc.cpg/sg38_7_cif.got.tgz:12106.got - 2010.04.14 02:38:36.
