data_PCOD8180799
_publ_section_title
;
Structure prediction by ZEFSAII (Michael W. Deem and Ramdas Pophale) SiO2 
 PCOD8180799
Probable space group: A B M 2
;
_chemical_formula_sum "Si O2"
_cell_formula_units_Z 52
_cell_length_a 20.906981
_cell_length_b 9.593596
_cell_length_c 13.796589
_cell_angle_alpha 90.000000
_cell_angle_beta 90.000000
_cell_angle_gamma 90.000000
_cell_volume 2767.225029
_symmetry_space_group_name_H-M "A B M 2"
_symmetry_group_IT_number 39
_symmetry_cell_setting 'orthorhombic'
loop_
_space_group_symop_operation_xyz
x,y,z
-x,-y,z
-x,1/2+y,z
x,1/2-y,z
x,1/2+y,1/2+z
-x,1/2-y,1/2+z
-x,y,1/2+z
x,-y,1/2+z
loop_
_atom_site_type_symbol
_atom_site_label
_atom_site_fract_x
_atom_site_fract_y
_atom_site_fract_z
Si Si1 0.500000 0.000000 0.570431
Si Si2 0.607940 0.590422 0.429784
Si Si3 0.938646 0.914073 0.435772
Si Si4 0.696093 0.585321 0.058112
Si Si5 0.601669 0.905807 0.214781
Si Si6 0.843858 0.409872 0.553074
Si Si7 0.056273 0.905741 0.711871
O O1 0.453455 0.086680 0.500431
O O2 0.540231 0.095851 0.644103
O O3 0.631317 0.750000 0.426797
O O4 0.665815 0.494317 0.466794
O O5 0.590407 0.528598 0.322014
O O6 0.945450 0.750000 0.461543
O O7 0.930576 0.941399 0.322592
O O8 0.874816 0.980414 0.479723
O O9 0.000000 0.000000 0.475323
O O10 0.683456 0.750000 0.044439
O O11 0.661638 0.527463 0.156145
O O12 0.770354 0.549371 0.065702
O O13 0.620998 0.750000 0.238397
O O14 0.851663 0.250000 0.515789
O O15 0.877281 0.429591 0.656908
O O16 0.030647 0.750000 0.699193
O O17 0.000000 0.000000 0.667429
#
# Coordination Sequence:
#
# PCOD8180799 Si02
#       7
#     4   8   8   8   8   8   8
#     4  10  18  32  52  80 110 134 164 210 258 304
#     4  10  20  34  55  80 104 134 174 215 251 298
#     4  10  20  34  53  78 106 135 169 213 261 308
#     4   9  20  37  53  72 104 141 173 209 257 309
#     4   9  18  33  52  74 103 139 171 204 254 308
#     4  10  20  35  54  75 101 137 176 212 255 307
#     4   9  19  34  52  75 103 134 169 209 257 311
#
# _framework density 18.791388000000001
#
# number of rings (size 3 to 8) (size 9 to 14) (size 15 to 20)
#    0.000    2.462    0.000    1.846    0.000    4.923 
#    0.000    6.923    0.000    0.000    0.000    0.000 
#    0.000    0.000    0.000    0.000    0.000    0.000 
#
# Total GULP energy -322231.793280 kJ/mol
# GULP energy per Si atom -12393.530511 kJ/mol
# Density = 1.874862 g / cm^3
# Si number density = 18.791388 Si / 1000 Ang^3
#
#
#
# Elastic Constant Matrix: (Units=GPa)
#
#
# Indices 1 2 3 4 5 6 
#
# 1 151.2003 52.0241 67.9263 0.0000 0.0000 0.0000
# 2 52.0241 79.7335 46.0164 0.0000 0.0000 0.0000
# 3 67.9263 46.0164 132.5897 0.0000 0.0000 0.0000
# 4 0.0000 0.0000 0.0000 21.5879 0.0000 0.0000
# 5 0.0000 0.0000 0.0000 0.0000 4.1095 0.0000
# 6 0.0000 0.0000 0.0000 0.0000 0.0000 30.0329
#
#
#
# Elastic Compliance Matrix: (Units=1/GPa)
#
#
# Indices 1 2 3 4 5 6 
#
# 1 0.009642 -0.004302 -0.003447 0.000000 0.000000 0.000000
# 2 -0.004302 0.017603 -0.003905 0.000000 0.000000 0.000000
# 3 -0.003447 -0.003905 0.010663 0.000000 0.000000 0.000000
# 4 0.000000 0.000000 0.000000 0.046322 0.000000 0.000000
# 5 0.000000 0.000000 0.000000 0.000000 0.243337 0.000000
# 6 0.000000 0.000000 0.000000 0.000000 0.000000 0.033297
#
#
# Mechanical properties :
#
#
# Convention : Reuss Voigt Hill
#
# Bulk Modulus (GPa) = 68.49280 77.27301 72.88291
# Shear Modulus (GPa) = 12.85218 24.31650 18.58434
#
# Velocity S-wave (km/s) = 2.61806 3.60116 3.14822
# Velocity P-wave (km/s) = 6.75775 7.64865 7.21696
#
# Compressibility (1/GPa) = 0.01460007
#
# Stress axis : x y z
#
# Youngs Moduli (GPa) = 103.70766 56.80971 93.78097
#
# Poissons Ratio (x) = 0.24441 0.32324
# Poissons Ratio (y) = 0.44618 0.36622
# Poissons Ratio (z) = 0.35746 0.22185
#
# Static dielectric constant tensor:
#      x y z
#    x 3.432410 0.000000 0.000000 
#    y 0.000000 3.345390 0.000000 
#    z 0.000000 0.000000 3.744930 
# 
# 
# High freq. dielectric constant tensor:
#      x y z
#    x 1.723890 0.000000 0.000000 
#    y 0.000000 1.716760 0.000000 
#    z 0.000000 0.000000 1.741770 
# 
# From -- ./inp_files/10302.got.cif
#   From: 2010.03.12/outbox.cif.g09.slc.cpg/sg39_6_cif.got.tgz:10302.got - 2010.04.14 02:53:20.
