data_PCOD8180508
_publ_section_title
;
Structure prediction by ZEFSAII (Michael W. Deem and Ramdas Pophale) SiO2 
 PCOD8180508
Probable space group: A M M 2
;
_chemical_formula_sum "Si O2"
_cell_formula_units_Z 56
_cell_length_a 14.090249
_cell_length_b 9.205591
_cell_length_c 20.637349
_cell_angle_alpha 90.000000
_cell_angle_beta 90.000000
_cell_angle_gamma 90.000000
_cell_volume 2676.851333
_symmetry_space_group_name_H-M "A M M 2"
_symmetry_group_IT_number 38
_symmetry_cell_setting 'orthorhombic'
loop_
_space_group_symop_operation_xyz
x,y,z
-x,-y,z
-x,y,z
x,-y,z
x,1/2+y,1/2+z
-x,1/2-y,1/2+z
-x,1/2+y,1/2+z
x,1/2-y,1/2+z
loop_
_atom_site_type_symbol
_atom_site_label
_atom_site_fract_x
_atom_site_fract_y
_atom_site_fract_z
Si Si1 0.608929 0.670844 0.665640
Si Si2 0.888177 0.334254 0.597936
Si Si3 0.612635 0.158536 0.021360
Si Si4 0.605103 0.333232 0.899767
Si Si5 0.887967 0.164541 0.951472
Si Si6 0.794309 0.668649 0.836338
Si Si7 0.783256 0.827500 0.710502
O O1 0.500000 0.716127 0.677534
O O2 0.622362 0.500000 0.680308
O O3 0.644320 0.708685 0.592774
O O4 0.675479 0.767311 0.711196
O O5 0.862785 0.500000 0.617344
O O6 0.851248 0.302876 0.524742
O O7 0.839223 0.224179 0.647309
O O8 0.000000 0.308877 0.601555
O O9 0.500000 0.150976 0.022363
O O10 0.655477 0.000000 0.006381
O O11 0.648560 0.262589 0.964771
O O12 0.500000 0.271008 0.880743
O O13 0.594984 0.500000 0.917131
O O14 0.680004 0.308283 0.842259
O O15 0.843234 0.278119 0.901943
O O16 0.000000 0.184354 0.949963
O O17 0.860499 0.000000 0.931668
O O18 0.819667 0.500000 0.825844
O O19 0.831913 0.761117 0.775166
O O20 0.784516 0.000000 0.714275
#
# Coordination Sequence:
#
# PCOD8180508 Si02
#       7
#     8   8   8   8   8   8   8
#     4   9  19  37  59  83 116 160 206 250 300 358
#     4   9  20  42  70  95 120 155 198 244 301 368
#     4   8  15  29  51  79 107 141 188 237 287 342
#     4   9  19  35  54  79 114 154 196 243 292 343
#     4   9  20  41  68  95 121 151 191 243 303 364
#     4  11  24  40  59  86 121 162 207 247 297 358
#     4  12  26  40  58  88 125 163 206 253 303 357
#
# _framework density 20.920100000000001
#
# number of rings (size 3 to 8) (size 9 to 14) (size 15 to 20)
#    0.000    2.429    0.000    3.429    2.000    4.286 
#    0.000    4.286    0.000    0.000    0.000    0.000 
#    0.000    0.000    0.000    0.000    0.000    0.000 
#
# Total GULP energy -347114.779487 kJ/mol
# GULP energy per Si atom -12396.956410 kJ/mol
# Density = 2.087248 g / cm^3
# Si number density = 20.920100 Si / 1000 Ang^3
#
#
#
# Elastic Constant Matrix: (Units=GPa)
#
#
# Indices 1 2 3 4 5 6 
#
# 1 40.1680 38.8830 34.8275 0.0000 0.0000 0.0000
# 2 38.8830 121.6478 71.6540 0.0000 0.0000 0.0000
# 3 34.8275 71.6540 119.2485 0.0000 0.0000 0.0000
# 4 0.0000 0.0000 0.0000 38.4781 0.0000 0.0000
# 5 0.0000 0.0000 0.0000 0.0000 21.6968 0.0000
# 6 0.0000 0.0000 0.0000 0.0000 0.0000 27.7660
#
#
#
# Elastic Compliance Matrix: (Units=1/GPa)
#
#
# Indices 1 2 3 4 5 6 
#
# 1 0.038619 -0.008823 -0.005977 0.000000 0.000000 0.000000
# 2 -0.008823 0.014740 -0.006280 0.000000 0.000000 0.000000
# 3 -0.005977 -0.006280 0.013905 0.000000 0.000000 0.000000
# 4 0.000000 0.000000 0.000000 0.025989 0.000000 0.000000
# 5 0.000000 0.000000 0.000000 0.000000 0.046090 0.000000
# 6 0.000000 0.000000 0.000000 0.000000 0.000000 0.036015
#
#
# Mechanical properties :
#
#
# Convention : Reuss Voigt Hill
#
# Bulk Modulus (GPa) = 39.83600 63.53258 51.68429
# Shear Modulus (GPa) = 22.13504 26.63482 24.38493
#
# Velocity S-wave (km/s) = 3.25634 3.57202 3.41782
# Velocity P-wave (km/s) = 5.76382 6.88822 6.35095
#
# Compressibility (1/GPa) = 0.02510292
#
# Stress axis : x y z
#
# Youngs Moduli (GPa) = 25.89396 67.84398 71.91641
#
# Poissons Ratio (x) = 0.59860 0.42987
# Poissons Ratio (y) = 0.22847 0.45163
# Poissons Ratio (z) = 0.15478 0.42605
#
# Static dielectric constant tensor:
#      x y z
#    x 3.817490 0.000000 0.000000 
#    y 0.000000 3.691020 0.000000 
#    z 0.000000 0.000000 3.848970 
# 
# 
# High freq. dielectric constant tensor:
#      x y z
#    x 1.822760 0.000000 0.000000 
#    y 0.000000 1.800270 0.000000 
#    z 0.000000 0.000000 1.820570 
# 
# From -- ./inp_files/21023.got.cif
#   From: 2010.03.12/outbox.cif.g09.slc.cpg/sg38_11_cif.got.tgz:21023.got - 2010.04.14 02:38:36.
