data_PCOD8180964
_publ_section_title
;
Structure prediction by ZEFSAII (Michael W. Deem and Ramdas Pophale) SiO2 
 PCOD8180964
Probable space group: A B M 2
;
_chemical_formula_sum "Si O2"
_cell_formula_units_Z 64
_cell_length_a 14.261640
_cell_length_b 8.632620
_cell_length_c 31.436893
_cell_angle_alpha 90.000000
_cell_angle_beta 90.000000
_cell_angle_gamma 90.000000
_cell_volume 3870.363101
_symmetry_space_group_name_H-M "A B M 2"
_symmetry_group_IT_number 39
_symmetry_cell_setting 'orthorhombic'
loop_
_space_group_symop_operation_xyz
x,y,z
-x,-y,z
-x,1/2+y,z
x,1/2-y,z
x,1/2+y,1/2+z
-x,1/2-y,1/2+z
-x,y,1/2+z
x,-y,1/2+z
loop_
_atom_site_type_symbol
_atom_site_label
_atom_site_fract_x
_atom_site_fract_y
_atom_site_fract_z
Si Si1 0.785162 0.067323 0.409130
Si Si2 0.897660 0.568039 0.330714
Si Si3 0.598709 0.933015 0.377710
Si Si4 0.898965 0.569503 0.578672
Si Si5 0.895487 0.066454 0.986316
Si Si6 0.405808 0.428982 0.785986
Si Si7 0.791740 0.929483 0.752717
Si Si8 0.896962 0.933042 0.670145
O O1 0.778663 0.250000 0.405180
O O2 0.850856 0.006095 0.371805
O O3 0.681286 0.997214 0.407165
O O4 0.827676 0.018932 0.454015
O O5 0.903853 0.750000 0.337945
O O6 0.837175 0.532742 0.289167
O O7 0.000000 0.500000 0.323908
O O8 0.596903 0.750000 0.380817
O O9 0.500000 0.000000 0.394292
O O10 0.618519 0.982976 0.329404
O O11 0.912452 0.750000 0.581506
O O12 0.850517 0.528260 0.533428
O O13 0.853308 0.513964 0.623826
O O14 0.000000 0.500000 0.576380
O O15 0.898256 0.250000 0.977442
O O16 0.000000 0.000000 0.981468
O O17 0.500000 0.500000 0.765101
O O18 0.422808 0.250000 0.797319
O O19 0.320609 0.451108 0.753167
O O20 0.818580 0.750000 0.760701
O O21 0.827602 0.991521 0.707154
O O22 0.905699 0.750000 0.672649
O O23 0.000000 0.000000 0.677873
#
# Coordination Sequence:
#
# PCOD8180964 Si02
#       8
#     8   8   8   8   8   8   8   8
#     4  12  23  36  51  71  98 129 165 204 244 291
#     4  12  24  36  49  66  95 133 169 201 238 286
#     4  11  21  35  54  75  97 126 161 203 247 292
#     4   8  15  28  47  68  94 124 160 201 243 289
#     4  10  19  32  49  72  99 130 165 204 247 295
#     4  10  19  32  50  70  95 126 162 206 248 288
#     4  10  20  33  49  70  98 129 164 202 243 290
#     4   9  17  30  47  70  97 129 163 199 241 288
#
# _framework density 16.535914999999999
#
# number of rings (size 3 to 8) (size 9 to 14) (size 15 to 20)
#    0.000    1.750    1.250    5.625    0.000    2.500 
#    0.000    0.000    0.000    0.000    0.000    0.875 
#    0.000    2.000    0.000    0.000    0.000    0.000 
#
# Total GULP energy -396605.410586 kJ/mol
# GULP energy per Si atom -12393.919081 kJ/mol
# Density = 1.649828 g / cm^3
# Si number density = 16.535915 Si / 1000 Ang^3
#
#
#
# Elastic Constant Matrix: (Units=GPa)
#
#
# Indices 1 2 3 4 5 6 
#
# 1 99.7350 36.2345 51.0909 0.0000 0.0000 0.0000
# 2 36.2345 99.7657 36.2138 0.0000 0.0000 0.0000
# 3 51.0909 36.2138 120.3951 0.0000 0.0000 0.0000
# 4 0.0000 0.0000 0.0000 2468.5729 0.0000 0.0000
# 5 0.0000 0.0000 0.0000 0.0000 9.2172 0.0000
# 6 0.0000 0.0000 0.0000 0.0000 0.0000 26.4812
#
#
#
# Elastic Compliance Matrix: (Units=1/GPa)
#
#
# Indices 1 2 3 4 5 6 
#
# 1 0.013670 -0.003210 -0.004835 0.000000 0.000000 0.000000
# 2 -0.003210 0.012006 -0.002249 0.000000 0.000000 0.000000
# 3 -0.004835 -0.002249 0.011034 0.000000 0.000000 0.000000
# 4 0.000000 0.000000 0.000000 0.000405 0.000000 0.000000
# 5 0.000000 0.000000 0.000000 0.000000 0.108493 0.000000
# 6 0.000000 0.000000 0.000000 0.000000 0.000000 0.037763
#
#
# Mechanical properties :
#
#
# Convention : Reuss Voigt Hill
#
# Bulk Modulus (GPa) = 62.02936 62.99713 62.51325
# Shear Modulus (GPa) = 23.88544 513.94471 268.91507
#
# Velocity S-wave (km/s) = 3.80473 17.64879 12.76628
# Velocity P-wave (km/s) = 7.54285 21.29522 15.97468
#
# Compressibility (1/GPa) = 0.01612140
#
# Stress axis : x y z
#
# Youngs Moduli (GPa) = 73.15465 83.29439 90.62491
#
# Poissons Ratio (x) = 0.26734 0.43821
# Poissons Ratio (y) = 0.23479 0.20383
# Poissons Ratio (z) = 0.35374 0.18734
#
# Static dielectric constant tensor:
#      x y z
#    x 3.253840 0.000000 0.000000 
#    y 0.000000 -21.408830 0.000000 
#    z 0.000000 0.000000 3.593980 
# 
# 
# High freq. dielectric constant tensor:
#      x y z
#    x 1.616440 0.000000 0.000000 
#    y 0.000000 1.651500 0.000000 
#    z 0.000000 0.000000 1.631620 
# 
# From -- ./inp_files/18010.got.cif
#   From: 2010.03.12/outbox.cif.g09.slc.cpg/sg39_10_cif.got.tgz:18010.got - 2010.04.14 02:53:20.
