data_PCOD8180283
_publ_section_title
;
Structure prediction by ZEFSAII (Michael W. Deem and Ramdas Pophale) SiO2 
 PCOD8180283
Probable space group: A M M 2
;
_chemical_formula_sum "Si O2"
_cell_formula_units_Z 56
_cell_length_a 14.649932
_cell_length_b 19.454993
_cell_length_c 10.244104
_cell_angle_alpha 90.000000
_cell_angle_beta 90.000000
_cell_angle_gamma 90.000000
_cell_volume 2919.716382
_symmetry_space_group_name_H-M "A M M 2"
_symmetry_group_IT_number 38
_symmetry_cell_setting 'orthorhombic'
loop_
_space_group_symop_operation_xyz
x,y,z
-x,-y,z
-x,y,z
x,-y,z
x,1/2+y,1/2+z
-x,1/2-y,1/2+z
-x,1/2+y,1/2+z
x,1/2-y,1/2+z
loop_
_atom_site_type_symbol
_atom_site_label
_atom_site_fract_x
_atom_site_fract_y
_atom_site_fract_z
Si Si1 0.754495 0.422379 0.227800
Si Si2 0.605622 0.304632 0.521777
Si Si3 0.257457 0.423900 0.529965
Si Si4 0.892269 0.813550 0.662806
Si Si5 0.894880 0.077261 0.233540
Si Si6 0.893807 0.289626 0.876998
Si Si7 0.605435 0.187043 0.722776
O O1 0.745667 0.500000 0.174132
O O2 0.772091 0.421038 0.380987
O O3 0.841974 0.386625 0.161982
O O4 0.661636 0.382018 0.193727
O O5 0.500000 0.322523 0.544970
O O6 0.662158 0.371363 0.564304
O O7 0.636654 0.242931 0.616119
O O8 0.623737 0.284767 0.369987
O O9 0.294116 0.500000 0.566302
O O10 0.165246 0.406732 0.607127
O O11 0.849460 0.766561 0.779018
O O12 0.868425 0.774360 0.526905
O O13 0.000000 0.827864 0.672881
O O14 0.865264 0.131979 0.343928
O O15 0.000000 0.087390 0.191195
O O16 0.878359 0.000000 0.287783
O O17 0.000000 0.281190 0.851374
O O18 0.500000 0.167487 0.704578
#
# Coordination Sequence:
#
# PCOD8180283 Si02
#       7
#     8   8   8   8   8   8   8
#     4  10  22  36  53  80 109 142 184 222 266 320
#     4   9  18  34  57  82 106 137 175 217 268 321
#     4   9  19  34  52  80 112 142 179 221 265 315
#     4  10  22  37  55  80 109 142 179 223 270 316
#     4   9  18  33  53  76 106 144 182 218 259 313
#     4   9  20  36  54  77 104 139 182 222 264 314
#     4   9  19  36  58  81 106 138 176 221 268 317
#
# _framework density 19.179945
#
# number of rings (size 3 to 8) (size 9 to 14) (size 15 to 20)
#    0.000    2.714    0.000    0.000    4.000    3.143 
#    0.000    5.714    0.000    0.000    0.000    4.000 
#    0.000    0.000    0.000    0.000    0.000    0.000 
#
# Total GULP energy -347127.460919 kJ/mol
# GULP energy per Si atom -12397.409319 kJ/mol
# Density = 1.913629 g / cm^3
# Si number density = 19.179945 Si / 1000 Ang^3
#
#
#
# Elastic Constant Matrix: (Units=GPa)
#
#
# Indices 1 2 3 4 5 6 
#
# 1 65.4977 52.8335 44.1930 0.0000 0.0000 0.0000
# 2 52.8335 137.8389 65.8142 0.0000 0.0000 0.0000
# 3 44.1930 65.8142 83.7239 0.0000 0.0000 0.0000
# 4 0.0000 0.0000 0.0000 30.4366 0.0000 0.0000
# 5 0.0000 0.0000 0.0000 0.0000 21.0158 0.0000
# 6 0.0000 0.0000 0.0000 0.0000 0.0000 33.6817
#
#
#
# Elastic Compliance Matrix: (Units=1/GPa)
#
#
# Indices 1 2 3 4 5 6 
#
# 1 0.026063 -0.005477 -0.009452 0.000000 0.000000 0.000000
# 2 -0.005477 0.012765 -0.007143 0.000000 0.000000 0.000000
# 3 -0.009452 -0.007143 0.022548 0.000000 0.000000 0.000000
# 4 0.000000 0.000000 0.000000 0.032855 0.000000 0.000000
# 5 0.000000 0.000000 0.000000 0.000000 0.047583 0.000000
# 6 0.000000 0.000000 0.000000 0.000000 0.000000 0.029690
#
#
# Mechanical properties :
#
#
# Convention : Reuss Voigt Hill
#
# Bulk Modulus (GPa) = 58.03122 68.08241 63.05681
# Shear Modulus (GPa) = 22.58431 25.30816 23.94623
#
# Velocity S-wave (km/s) = 3.43519 3.63645 3.53725
# Velocity P-wave (km/s) = 6.78645 7.29420 7.04490
#
# Compressibility (1/GPa) = 0.01723210
#
# Stress axis : x y z
#
# Youngs Moduli (GPa) = 38.36844 78.33979 44.34911
#
# Poissons Ratio (x) = 0.42906 0.41918
# Poissons Ratio (y) = 0.21014 0.31680
# Poissons Ratio (z) = 0.36265 0.55961
#
# Static dielectric constant tensor:
#      x y z
#    x 3.370940 0.000000 0.000000 
#    y 0.000000 3.667260 0.000000 
#    z 0.000000 0.000000 3.523090 
# 
# 
# High freq. dielectric constant tensor:
#      x y z
#    x 1.739330 0.000000 0.000000 
#    y 0.000000 1.746250 0.000000 
#    z 0.000000 0.000000 1.739070 
# 
# From -- ./inp_files/5730.got.cif
#   From: 2010.03.12/outbox.cif.g09.slc.cpg/sg38_3_cif.got.tgz:5730.got - 2010.04.14 02:38:36.
