data_PCOD8180170
_publ_section_title
;
Structure prediction by ZEFSAII (Michael W. Deem and Ramdas Pophale) SiO2 
 PCOD8180170
Probable space group: A M M 2
;
_chemical_formula_sum "Si O2"
_cell_formula_units_Z 40
_cell_length_a 8.608481
_cell_length_b 25.337278
_cell_length_c 9.424332
_cell_angle_alpha 90.000000
_cell_angle_beta 90.000000
_cell_angle_gamma 90.000000
_cell_volume 2055.592663
_symmetry_space_group_name_H-M "A M M 2"
_symmetry_group_IT_number 38
_symmetry_cell_setting 'orthorhombic'
loop_
_space_group_symop_operation_xyz
x,y,z
-x,-y,z
-x,y,z
x,-y,z
x,1/2+y,1/2+z
-x,1/2-y,1/2+z
-x,1/2+y,1/2+z
x,1/2-y,1/2+z
loop_
_atom_site_type_symbol
_atom_site_label
_atom_site_fract_x
_atom_site_fract_y
_atom_site_fract_z
Si Si1 0.320317 0.708857 0.364640
Si Si2 0.182536 0.000000 0.059203
Si Si3 0.817252 0.902620 0.877209
Si Si4 0.321962 0.000000 0.365822
Si Si5 0.821797 0.207024 0.565548
Si Si6 0.822975 0.587731 0.051487
O O1 0.500000 0.718479 0.397953
O O2 0.271974 0.650833 0.417210
O O3 0.217484 0.751936 0.444027
O O4 0.289767 0.716448 0.198511
O O5 0.221388 0.000000 0.223815
O O6 0.248012 0.052338 0.982129
O O7 0.000000 0.000000 0.036984
O O8 0.780030 0.919973 0.716511
O O9 0.000000 0.891961 0.895365
O O10 0.288080 0.948071 0.457136
O O11 0.500000 0.000000 0.320326
O O12 0.796308 0.148160 0.504766
O O13 0.000000 0.213334 0.615622
O O14 0.000000 0.569923 0.024531
#
# Coordination Sequence:
#
# PCOD8180170 Si02
#       6
#     8   4   8   4   8   8
#     4  11  22  36  57  87 119 148 181 231 287 334
#     4  10  21  38  60  82 108 144 187 232 274 322
#     4   9  19  38  62  84 106 142 190 232 273 331
#     4  12  25  36  52  82 118 148 177 222 282 336
#     4  10  21  39  61  83 110 150 194 232 272 330
#     4   9  19  38  62  82 104 140 188 232 270 322
#
# _framework density 19.459106999999999
#
# number of rings (size 3 to 8) (size 9 to 14) (size 15 to 20)
#    0.000    2.000    0.000    5.100    0.000    8.000 
#    0.000    3.000    0.000    0.000    0.000    0.000 
#    0.000    0.000    0.000    0.000    0.000    0.000 
#
# Total GULP energy -248077.449886 kJ/mol
# GULP energy per Si atom -12403.872494 kJ/mol
# Density = 1.941482 g / cm^3
# Si number density = 19.459107 Si / 1000 Ang^3
#
#
#
# Elastic Constant Matrix: (Units=GPa)
#
#
# Indices 1 2 3 4 5 6 
#
# 1 51.4373 28.4478 11.3219 0.0000 0.0000 0.0000
# 2 28.4478 128.3499 60.0349 0.0000 0.0000 0.0000
# 3 11.3219 60.0349 75.3054 0.0000 0.0000 0.0000
# 4 0.0000 0.0000 0.0000 36.4197 0.0000 0.0000
# 5 0.0000 0.0000 0.0000 0.0000 24.3403 0.0000
# 6 0.0000 0.0000 0.0000 0.0000 0.0000 23.2864
#
#
#
# Elastic Compliance Matrix: (Units=1/GPa)
#
#
# Indices 1 2 3 4 5 6 
#
# 1 0.022198 -0.005356 0.000933 0.000000 0.000000 0.000000
# 2 -0.005356 0.013717 -0.010130 0.000000 0.000000 0.000000
# 3 0.000933 -0.010130 0.021215 0.000000 0.000000 0.000000
# 4 0.000000 0.000000 0.000000 0.027458 0.000000 0.000000
# 5 0.000000 0.000000 0.000000 0.000000 0.041084 0.000000
# 6 0.000000 0.000000 0.000000 0.000000 0.000000 0.042943
#
#
# Mechanical properties :
#
#
# Convention : Reuss Voigt Hill
#
# Bulk Modulus (GPa) = 35.68538 50.52245 43.10391
# Shear Modulus (GPa) = 24.14730 27.16181 25.65456
#
# Velocity S-wave (km/s) = 3.52650 3.74015 3.63489
# Velocity P-wave (km/s) = 5.91270 6.68366 6.30997
#
# Compressibility (1/GPa) = 0.02802268
#
# Stress axis : x y z
#
# Youngs Moduli (GPa) = 45.04869 72.90458 47.13713
#
# Poissons Ratio (x) = 0.39050 -0.04397
# Poissons Ratio (y) = 0.24130 0.47749
# Poissons Ratio (z) = -0.04202 0.73851
#
# Static dielectric constant tensor:
#      x y z
#    x 3.364330 0.000000 0.000000 
#    y 0.000000 3.707670 0.000000 
#    z 0.000000 0.000000 3.359650 
# 
# 
# High freq. dielectric constant tensor:
#      x y z
#    x 1.749530 0.000000 0.000000 
#    y 0.000000 1.771270 0.000000 
#    z 0.000000 0.000000 1.749160 
# 
# From -- ./inp_files/3336.got.cif
#   From: 2010.03.12/outbox.cif.g09.slc.cpg/sg38_2_cif.got.tgz:3336.got - 2010.04.14 02:38:36.
