data_PCOD8180258
_publ_section_title
;
Structure prediction by ZEFSAII (Michael W. Deem and Ramdas Pophale) SiO2 
 PCOD8180258
Probable space group: A M M 2
;
_chemical_formula_sum "Si O2"
_cell_formula_units_Z 40
_cell_length_a 11.678471
_cell_length_b 17.451331
_cell_length_c 10.023233
_cell_angle_alpha 90.000000
_cell_angle_beta 90.000000
_cell_angle_gamma 90.000000
_cell_volume 2042.783628
_symmetry_space_group_name_H-M "A M M 2"
_symmetry_group_IT_number 38
_symmetry_cell_setting 'orthorhombic'
loop_
_space_group_symop_operation_xyz
x,y,z
-x,-y,z
-x,y,z
x,-y,z
x,1/2+y,1/2+z
-x,1/2-y,1/2+z
-x,1/2+y,1/2+z
x,1/2-y,1/2+z
loop_
_atom_site_type_symbol
_atom_site_label
_atom_site_fract_x
_atom_site_fract_y
_atom_site_fract_z
Si Si1 0.000000 0.211667 0.472430
Si Si2 0.631443 0.413044 0.240230
Si Si3 0.634341 0.823994 0.003333
Si Si4 0.758711 0.589357 0.726461
Si Si5 0.247163 0.337426 0.003482
Si Si6 0.000000 0.838567 0.183650
O O1 0.110285 0.163976 0.518793
O O2 0.000000 0.294188 0.543046
O O3 0.000000 0.220266 0.310463
O O4 0.500000 0.399883 0.200149
O O5 0.652380 0.500000 0.287875
O O6 0.667184 0.355856 0.358177
O O7 0.708065 0.396847 0.111991
O O8 0.500000 0.808559 0.017221
O O9 0.701869 0.746184 0.030569
O O10 0.672115 0.886876 0.110350
O O11 0.746845 0.500000 0.753832
O O12 0.717157 0.634283 0.857609
O O13 0.889085 0.607887 0.687704
#
# Coordination Sequence:
#
# PCOD8180258 Si02
#       6
#     4   8   8   8   8   4
#     4  10  22  36  62  90 118 150 194 250 292 340
#     4  10  22  40  60  85 121 158 193 241 297 348
#     4  11  23  39  60  88 119 156 202 246 290 347
#     4  11  23  39  62  90 122 156 194 246 300 354
#     4  11  22  39  62  89 117 155 201 241 293 353
#     4  10  21  40  60  90 119 154 194 242 295 354
#
# _framework density 19.581123999999999
#
# number of rings (size 3 to 8) (size 9 to 14) (size 15 to 20)
#    0.000    1.400    2.000    3.300    2.800    4.400 
#    0.000    1.500    0.000    0.000    0.000    0.000 
#    0.000    0.000    0.000    0.000    0.000    0.000 
#
# Total GULP energy -248108.344378 kJ/mol
# GULP energy per Si atom -12405.417219 kJ/mol
# Density = 1.953656 g / cm^3
# Si number density = 19.581124 Si / 1000 Ang^3
#
#
#
# Elastic Constant Matrix: (Units=GPa)
#
#
# Indices 1 2 3 4 5 6 
#
# 1 91.5258 23.0587 45.5868 0.0000 0.0000 0.0000
# 2 23.0587 83.5647 18.1366 0.0000 0.0000 0.0000
# 3 45.5868 18.1366 83.2601 0.0000 0.0000 0.0000
# 4 0.0000 0.0000 0.0000 34.9086 0.0000 0.0000
# 5 0.0000 0.0000 0.0000 0.0000 34.0632 0.0000
# 6 0.0000 0.0000 0.0000 0.0000 0.0000 23.6187
#
#
#
# Elastic Compliance Matrix: (Units=1/GPa)
#
#
# Indices 1 2 3 4 5 6 
#
# 1 0.015528 -0.002561 -0.007944 0.000000 0.000000 0.000000
# 2 -0.002561 0.012983 -0.001426 0.000000 0.000000 0.000000
# 3 -0.007944 -0.001426 0.016671 0.000000 0.000000 0.000000
# 4 0.000000 0.000000 0.000000 0.028646 0.000000 0.000000
# 5 0.000000 0.000000 0.000000 0.000000 0.029357 0.000000
# 6 0.000000 0.000000 0.000000 0.000000 0.000000 0.042339
#
#
# Mechanical properties :
#
#
# Convention : Reuss Voigt Hill
#
# Bulk Modulus (GPa) = 46.90439 47.99053 47.44746
# Shear Modulus (GPa) = 28.32991 29.95601 29.14296
#
# Velocity S-wave (km/s) = 3.80780 3.91556 3.86206
# Velocity P-wave (km/s) = 6.58319 6.70850 6.64614
#
# Compressibility (1/GPa) = 0.02131996
#
# Stress axis : x y z
#
# Youngs Moduli (GPa) = 64.40102 77.02471 59.98541
#
# Poissons Ratio (x) = 0.19723 0.47652
# Poissons Ratio (y) = 0.16490 0.08554
# Poissons Ratio (z) = 0.51160 0.10984
#
# Static dielectric constant tensor:
#      x y z
#    x 3.699990 0.000000 0.000000 
#    y 0.000000 3.436010 0.000000 
#    z 0.000000 0.000000 3.640940 
# 
# 
# High freq. dielectric constant tensor:
#      x y z
#    x 1.770770 0.000000 0.000000 
#    y 0.000000 1.759910 0.000000 
#    z 0.000000 0.000000 1.771550 
# 
# From -- ./inp_files/4324.got.cif
#   From: 2010.03.12/outbox.cif.g09.slc.cpg/sg38_3_cif.got.tgz:4324.got - 2010.04.14 02:38:36.
