data_PCOD8180827
_publ_section_title
;
Structure prediction by ZEFSAII (Michael W. Deem and Ramdas Pophale) SiO2 
 PCOD8180827
Probable space group: A B M 2
;
_chemical_formula_sum "Si O2"
_cell_formula_units_Z 64
_cell_length_a 14.532334
_cell_length_b 8.796239
_cell_length_c 25.204771
_cell_angle_alpha 90.000000
_cell_angle_beta 90.000000
_cell_angle_gamma 90.000000
_cell_volume 3221.922930
_symmetry_space_group_name_H-M "A B M 2"
_symmetry_group_IT_number 39
_symmetry_cell_setting 'orthorhombic'
loop_
_space_group_symop_operation_xyz
x,y,z
-x,-y,z
-x,1/2+y,z
x,1/2-y,z
x,1/2+y,1/2+z
-x,1/2-y,1/2+z
-x,y,1/2+z
x,-y,1/2+z
loop_
_atom_site_type_symbol
_atom_site_label
_atom_site_fract_x
_atom_site_fract_y
_atom_site_fract_z
Si Si1 0.215890 0.426178 0.779850
Si Si2 0.593653 0.930486 0.514445
Si Si3 0.367363 0.579648 0.624906
Si Si4 0.090535 0.429640 0.197890
Si Si5 0.898524 0.070495 0.381756
Si Si6 0.780649 0.432282 0.482416
Si Si7 0.590978 0.072810 0.236924
Si Si8 0.161550 0.582113 0.592795
O O1 0.193362 0.250000 0.770583
O O2 0.178088 0.521743 0.731118
O O3 0.167240 0.483182 0.833715
O O4 0.325540 0.456095 0.778554
O O5 0.593467 0.750000 0.509716
O O6 0.500000 0.000000 0.489541
O O7 0.597138 0.979307 0.575939
O O8 0.678985 0.996053 0.479940
O O9 0.409935 0.750000 0.621326
O O10 0.395203 0.503253 0.679815
O O11 0.258516 0.591197 0.622286
O O12 0.084387 0.250000 0.197351
O O13 0.097077 0.496611 0.137283
O O14 0.000000 0.500000 0.224998
O O15 0.911000 0.250000 0.382330
O O16 0.844780 0.014703 0.434135
O O17 0.000000 0.000000 0.377783
O O18 0.768842 0.250000 0.485306
O O19 0.830685 0.499561 0.535644
O O20 0.576813 0.250000 0.227331
O O21 0.500000 0.000000 0.263509
O O22 0.123102 0.750000 0.581248
#
# Coordination Sequence:
#
# PCOD8180827 Si02
#       8
#     8   8   8   8   8   8   8   8
#     4  10  22  40  59  83 114 150 193 242 288 342
#     4  11  21  34  54  84 119 157 198 237 283 339
#     4  10  18  33  54  79 114 155 197 235 280 336
#     4  11  21  34  53  81 113 149 187 231 287 349
#     4  10  22  41  65  88 113 147 193 244 295 345
#     4   9  19  38  60  83 114 151 191 242 292 340
#     4  11  22  35  54  81 115 151 194 238 288 344
#     4   8  16  31  52  77 109 147 184 224 279 337
#
# _framework density 19.863916
#
# number of rings (size 3 to 8) (size 9 to 14) (size 15 to 20)
#    0.000    2.000    1.250    3.750    0.000    3.000 
#    0.000    1.250    0.000    1.500    0.000    0.000 
#    0.000    0.000    0.000    0.000    0.000    0.000 
#
# Total GULP energy -396580.780928 kJ/mol
# GULP energy per Si atom -12393.149404 kJ/mol
# Density = 1.981870 g / cm^3
# Si number density = 19.863916 Si / 1000 Ang^3
#
#
#
# Elastic Constant Matrix: (Units=GPa)
#
#
# Indices 1 2 3 4 5 6 
#
# 1 134.8249 47.4488 70.1465 0.0000 0.0000 0.0000
# 2 47.4488 83.8428 38.3334 0.0000 0.0000 0.0000
# 3 70.1465 38.3334 119.2637 0.0000 0.0000 0.0000
# 4 0.0000 0.0000 0.0000 20.9549 0.0000 0.0000
# 5 0.0000 0.0000 0.0000 0.0000 23.6188 0.0000
# 6 0.0000 0.0000 0.0000 0.0000 0.0000 31.9692
#
#
#
# Elastic Compliance Matrix: (Units=1/GPa)
#
#
# Indices 1 2 3 4 5 6 
#
# 1 0.011779 -0.004101 -0.005610 0.000000 0.000000 0.000000
# 2 -0.004101 0.015410 -0.002541 0.000000 0.000000 0.000000
# 3 -0.005610 -0.002541 0.012501 0.000000 0.000000 0.000000
# 4 0.000000 0.000000 0.000000 0.047721 0.000000 0.000000
# 5 0.000000 0.000000 0.000000 0.000000 0.042339 0.000000
# 6 0.000000 0.000000 0.000000 0.000000 0.000000 0.031280
#
#
# Mechanical properties :
#
#
# Convention : Reuss Voigt Hill
#
# Bulk Modulus (GPa) = 65.84971 72.19876 69.02424
# Shear Modulus (GPa) = 26.23351 27.44209 26.83780
#
# Velocity S-wave (km/s) = 3.63803 3.72089 3.67970
# Velocity P-wave (km/s) = 7.13228 7.40848 7.27169
#
# Compressibility (1/GPa) = 0.01518610
#
# Stress axis : x y z
#
# Youngs Moduli (GPa) = 84.89672 64.89415 79.99430
#
# Poissons Ratio (x) = 0.26614 0.44875
# Poissons Ratio (y) = 0.34818 0.20325
# Poissons Ratio (z) = 0.47625 0.16488
#
# Static dielectric constant tensor:
#      x y z
#    x 3.881510 0.000000 0.000000 
#    y 0.000000 3.483450 0.000000 
#    z 0.000000 0.000000 3.593920 
# 
# 
# High freq. dielectric constant tensor:
#      x y z
#    x 1.785900 0.000000 0.000000 
#    y 0.000000 1.762130 0.000000 
#    z 0.000000 0.000000 1.757120 
# 
# From -- ./inp_files/16198.got.cif
#   From: 2010.03.12/outbox.cif.g09.slc.cpg/sg39_9_cif.got.tgz:16198.got - 2010.04.14 02:53:20.
