data_PCOD8180305
_publ_section_title
;
Structure prediction by ZEFSAII (Michael W. Deem and Ramdas Pophale) SiO2 
 PCOD8180305
Probable space group: A M M 2
;
_chemical_formula_sum "Si O2"
_cell_formula_units_Z 34
_cell_length_a 11.931606
_cell_length_b 11.588160
_cell_length_c 14.425635
_cell_angle_alpha 90.000000
_cell_angle_beta 90.000000
_cell_angle_gamma 90.000000
_cell_volume 1994.565608
_symmetry_space_group_name_H-M "A M M 2"
_symmetry_group_IT_number 38
_symmetry_cell_setting 'orthorhombic'
loop_
_space_group_symop_operation_xyz
x,y,z
-x,-y,z
-x,y,z
x,-y,z
x,1/2+y,1/2+z
-x,1/2-y,1/2+z
-x,1/2+y,1/2+z
x,1/2-y,1/2+z
loop_
_atom_site_type_symbol
_atom_site_label
_atom_site_fract_x
_atom_site_fract_y
_atom_site_fract_z
Si Si1 0.629067 0.632811 0.793010
Si Si2 0.000000 0.500000 0.383039
Si Si3 0.783009 0.232348 0.142238
Si Si4 0.123707 0.500000 0.562435
Si Si5 0.000000 0.870992 0.704412
Si Si6 0.375045 0.364485 0.005243
O O1 0.500000 0.653852 0.765978
O O2 0.661591 0.500000 0.775458
O O3 0.706999 0.714908 0.732335
O O4 0.650956 0.666784 0.899069
O O5 0.109976 0.500000 0.449792
O O6 0.000000 0.386009 0.316949
O O7 0.892643 0.301011 0.171716
O O8 0.809768 0.111557 0.094517
O O9 0.716901 0.306076 0.067943
O O10 0.000000 0.500000 0.609333
O O11 0.000000 0.000000 0.659103
O O12 0.500000 0.320446 0.031078
O O13 0.368221 0.500000 0.020820
#
# Coordination Sequence:
#
# PCOD8180305 Si02
#       6
#     8   2   8   4   4   8
#     4   9  19  35  55  82 111 142 182 226 273 322
#     4   8  22  42  50  74 114 150 178 226 280 318
#     4  12  20  36  59  83 108 144 190 222 271 336
#     4  10  22  38  53  80 115 144 178 227 277 320
#     4  10  23  36  57  79 107 143 184 223 275 319
#     4   9  20  37  56  80 111 145 180 228 279 319
#
# _framework density 17.046317999999999
#
# number of rings (size 3 to 8) (size 9 to 14) (size 15 to 20)
#    0.706    1.412    2.353    2.824    3.294    0.000 
#    0.000    0.000    0.000    0.000    0.000    0.000 
#    0.000    0.000    0.000    0.000    0.000    0.000 
#
# Total GULP energy -210739.851081 kJ/mol
# GULP energy per Si atom -12396.461828 kJ/mol
# Density = 1.700752 g / cm^3
# Si number density = 17.046318 Si / 1000 Ang^3
#
#
#
# Elastic Constant Matrix: (Units=GPa)
#
#
# Indices 1 2 3 4 5 6 
#
# 1 115.0557 43.7352 73.5539 0.0000 0.0000 0.0000
# 2 43.7352 65.6834 56.8307 0.0000 0.0000 0.0000
# 3 73.5539 56.8307 110.8430 0.0000 0.0000 0.0000
# 4 0.0000 0.0000 0.0000 21.2347 0.0000 0.0000
# 5 0.0000 0.0000 0.0000 0.0000 -49.4465 0.0000
# 6 0.0000 0.0000 0.0000 0.0000 0.0000 29.3654
#
#
#
# Elastic Compliance Matrix: (Units=1/GPa)
#
#
# Indices 1 2 3 4 5 6 
#
# 1 0.015325 -0.002526 -0.008874 0.000000 0.000000 0.000000
# 2 -0.002526 0.027779 -0.012567 0.000000 0.000000 0.000000
# 3 -0.008874 -0.012567 0.021354 0.000000 0.000000 0.000000
# 4 0.000000 0.000000 0.000000 0.047093 0.000000 0.000000
# 5 0.000000 0.000000 0.000000 0.000000 -0.020224 0.000000
# 6 0.000000 0.000000 0.000000 0.000000 0.000000 0.034054
#
#
# Mechanical properties :
#
#
# Convention : Reuss Voigt Hill
#
# Bulk Modulus (GPa) = 60.51721 71.09131 65.80426
# Shear Modulus (GPa) = 27.96065 8.06152 18.01109
#
# Velocity S-wave (km/s) = 4.05442 2.17703 3.25406
# Velocity P-wave (km/s) = 7.58265 6.93647 7.26674
#
# Compressibility (1/GPa) = 0.01652423
#
# Stress axis : x y z
#
# Youngs Moduli (GPa) = 65.25355 35.99791 46.82990
#
# Poissons Ratio (x) = 0.09092 0.41559
# Poissons Ratio (y) = 0.16481 0.58850
# Poissons Ratio (z) = 0.57909 0.45238
#
# Static dielectric constant tensor:
#      x y z
#    x 3.220280 0.000000 0.000000 
#    y 0.000000 3.083760 0.000000 
#    z 0.000000 0.000000 3.140980 
# 
# 
# High freq. dielectric constant tensor:
#      x y z
#    x 1.663270 0.000000 0.000000 
#    y 0.000000 1.652370 0.000000 
#    z 0.000000 0.000000 1.659430 
# 
# From -- ./inp_files/13458.got.cif
#   From: 2010.03.12/outbox.cif.g09.slc.cpg/sg38_7_cif.got.tgz:13458.got - 2010.04.14 02:38:36.
