data_PCOD8180039
_publ_section_title
;
Structure prediction by ZEFSAII (Michael W. Deem and Ramdas Pophale) SiO2 
 PCOD8180039
Probable space group: A M M 2
;
_chemical_formula_sum "Si O2"
_cell_formula_units_Z 64
_cell_length_a 8.983280
_cell_length_b 14.519252
_cell_length_c 27.701351
_cell_angle_alpha 90.000000
_cell_angle_beta 90.000000
_cell_angle_gamma 90.000000
_cell_volume 3613.101231
_symmetry_space_group_name_H-M "A M M 2"
_symmetry_group_IT_number 38
_symmetry_cell_setting 'orthorhombic'
loop_
_space_group_symop_operation_xyz
x,y,z
-x,-y,z
-x,y,z
x,-y,z
x,1/2+y,1/2+z
-x,1/2-y,1/2+z
-x,1/2+y,1/2+z
x,1/2-y,1/2+z
loop_
_atom_site_type_symbol
_atom_site_label
_atom_site_fract_x
_atom_site_fract_y
_atom_site_fract_z
Si Si1 0.176720 0.284047 0.169460
Si Si2 0.674398 0.101185 0.139349
Si Si3 0.673652 0.606546 0.253315
Si Si4 0.335558 0.149548 0.577172
Si Si5 0.828438 0.599518 0.986438
Si Si6 0.828071 0.605970 0.352758
Si Si7 0.175236 0.791485 0.947064
Si Si8 0.337409 0.351878 0.536643
O O1 0.232727 0.178226 0.167672
O O2 0.230633 0.328454 0.218999
O O3 0.241291 0.346109 0.126251
O O4 0.000000 0.284541 0.166703
O O5 0.500000 0.128968 0.141184
O O6 0.725747 0.093383 0.083073
O O7 0.701585 0.000000 0.162807
O O8 0.500000 0.629942 0.248057
O O9 0.706215 0.500000 0.240804
O O10 0.725404 0.629154 0.307348
O O11 0.500000 0.109247 0.588884
O O12 0.253992 0.087513 0.537560
O O13 0.350986 0.248218 0.553815
O O14 0.808157 0.500000 0.959528
O O15 0.768902 0.685125 0.953976
O O16 0.000000 0.619217 0.998270
O O17 0.810496 0.500000 0.368619
O O18 0.766791 0.670221 0.396061
O O19 0.000000 0.627855 0.340137
O O20 0.000000 0.798663 0.948056
O O21 0.231993 0.857776 0.990100
O O22 0.500000 0.390026 0.521679
#
# Coordination Sequence:
#
# PCOD8180039 Si02
#       8
#     8   8   8   8   8   8   8   8
#     4  11  21  33  52  76 102 131 164 204 250 300
#     4   9  18  33  51  72 103 141 175 207 243 283
#     4  10  21  37  56  76  96 121 158 203 252 307
#     4   9  17  30  46  65  93 128 165 202 239 280
#     4   9  17  29  45  67  97 132 167 200 236 282
#     4   9  18  33  51  71  95 121 152 195 248 299
#     4   9  17  29  46  68  95 127 160 196 242 292
#     4   8  15  27  43  65  93 126 163 199 234 272
#
# _framework density 17.713315000000001
#
# number of rings (size 3 to 8) (size 9 to 14) (size 15 to 20)
#    0.000    2.750    0.000    2.625    0.000    5.750 
#    0.000    0.000    0.000    0.750    0.000    1.750 
#    0.000    0.000    0.000    0.000    0.000    0.000 
#
# Total GULP energy -396579.641715 kJ/mol
# GULP energy per Si atom -12393.113804 kJ/mol
# Density = 1.767300 g / cm^3
# Si number density = 17.713315 Si / 1000 Ang^3
#
#
#
# Elastic Constant Matrix: (Units=GPa)
#
#
# Indices 1 2 3 4 5 6 
#
# 1 84.2473 36.9148 46.2581 0.0000 0.0000 0.0000
# 2 36.9148 89.3625 51.9434 0.0000 0.0000 0.0000
# 3 46.2581 51.9434 100.9367 0.0000 0.0000 0.0000
# 4 0.0000 0.0000 0.0000 23.3109 0.0000 0.0000
# 5 0.0000 0.0000 0.0000 0.0000 26.6671 0.0000
# 6 0.0000 0.0000 0.0000 0.0000 0.0000 17.3815
#
#
#
# Elastic Compliance Matrix: (Units=1/GPa)
#
#
# Indices 1 2 3 4 5 6 
#
# 1 0.016583 -0.003471 -0.005813 0.000000 0.000000 0.000000
# 2 -0.003471 0.016693 -0.007000 0.000000 0.000000 0.000000
# 3 -0.005813 -0.007000 0.016174 0.000000 0.000000 0.000000
# 4 0.000000 0.000000 0.000000 0.042898 0.000000 0.000000
# 5 0.000000 0.000000 0.000000 0.000000 0.037499 0.000000
# 6 0.000000 0.000000 0.000000 0.000000 0.000000 0.057533
#
#
# Mechanical properties :
#
#
# Convention : Reuss Voigt Hill
#
# Bulk Modulus (GPa) = 59.23842 60.53102 59.88472
# Shear Modulus (GPa) = 22.16561 22.76725 22.46643
#
# Velocity S-wave (km/s) = 3.54128 3.58902 3.56523
# Velocity P-wave (km/s) = 7.08776 7.17088 7.12945
#
# Compressibility (1/GPa) = 0.01688094
#
# Stress axis : x y z
#
# Youngs Moduli (GPa) = 60.30377 59.90575 61.82936
#
# Poissons Ratio (x) = 0.20793 0.35944
# Poissons Ratio (y) = 0.20932 0.43279
# Poissons Ratio (z) = 0.35057 0.41932
#
# Static dielectric constant tensor:
#      x y z
#    x 3.400790 0.000000 0.000000 
#    y 0.000000 3.535460 0.000000 
#    z 0.000000 0.000000 3.208740 
# 
# 
# High freq. dielectric constant tensor:
#      x y z
#    x 1.683630 0.000000 0.000000 
#    y 0.000000 1.681790 0.000000 
#    z 0.000000 0.000000 1.660050 
# 
# From -- ./inp_files/22261.got.cif
#   From: 2010.03.12/outbox.cif.g09.slc.cpg/sg38_12_cif.got.tgz:22261.got - 2010.04.14 02:38:36.
