data_PCOD8180874
_publ_section_title
;
Structure prediction by ZEFSAII (Michael W. Deem and Ramdas Pophale) SiO2 
 PCOD8180874
Probable space group: A B M 2
;
_chemical_formula_sum "Si O2"
_cell_formula_units_Z 56
_cell_length_a 17.773188
_cell_length_b 9.145621
_cell_length_c 19.215499
_cell_angle_alpha 90.000000
_cell_angle_beta 90.000000
_cell_angle_gamma 90.000000
_cell_volume 3123.418669
_symmetry_space_group_name_H-M "A B M 2"
_symmetry_group_IT_number 39
_symmetry_cell_setting 'orthorhombic'
loop_
_space_group_symop_operation_xyz
x,y,z
-x,-y,z
-x,1/2+y,z
x,1/2-y,z
x,1/2+y,1/2+z
-x,1/2-y,1/2+z
-x,y,1/2+z
x,-y,1/2+z
loop_
_atom_site_type_symbol
_atom_site_label
_atom_site_fract_x
_atom_site_fract_y
_atom_site_fract_z
Si Si1 0.577495 0.916894 0.238570
Si Si2 0.755533 0.081239 0.479198
Si Si3 0.297780 0.416114 0.132233
Si Si4 0.297630 0.577712 0.848078
Si Si5 0.921951 0.424921 0.521677
Si Si6 0.931589 0.414298 0.163672
Si Si7 0.212063 0.911572 0.242480
O O1 0.558050 0.750000 0.252688
O O2 0.617961 0.937334 0.163349
O O3 0.630221 0.973886 0.302327
O O4 0.500000 0.000000 0.238260
O O5 0.750427 0.250000 0.458349
O O6 0.710412 0.051709 0.550748
O O7 0.844528 0.035540 0.480019
O O8 0.706051 0.989643 0.424626
O O9 0.271083 0.250000 0.148772
O O10 0.246099 0.531779 0.170575
O O11 0.294308 0.750000 0.854278
O O12 0.224900 0.520023 0.806584
O O13 0.932429 0.250000 0.523550
O O14 0.905387 0.487885 0.598211
O O15 0.000000 0.500000 0.492219
O O16 0.951599 0.250000 0.137114
O O17 0.875725 0.404229 0.228083
O O18 0.000000 0.500000 0.198475
O O19 0.244209 0.750000 0.259762
#
# Coordination Sequence:
#
# PCOD8180874 Si02
#       7
#     8   8   8   8   8   8   8
#     4   9  19  36  58  82 107 138 174 213 263 321
#     4  10  20  35  55  79 109 145 181 223 270 317
#     4   9  18  34  55  79 107 137 171 213 264 313
#     4  10  22  37  55  78 107 142 179 219 265 319
#     4  10  19  31  50  75 105 143 181 222 273 318
#     4  10  19  29  46  73 102 134 175 223 270 316
#     4  10  19  32  51  76 102 133 176 221 262 314
#
# _framework density 17.929072999999999
#
# number of rings (size 3 to 8) (size 9 to 14) (size 15 to 20)
#    0.000    2.286    1.429    3.429    0.000    6.286 
#    0.000    1.429    0.000    3.429    0.000    0.000 
#    0.000    0.000    0.000    0.000    0.000    0.000 
#
# Total GULP energy -346897.691003 kJ/mol
# GULP energy per Si atom -12389.203250 kJ/mol
# Density = 1.788827 g / cm^3
# Si number density = 17.929073 Si / 1000 Ang^3
#
#
#
# Elastic Constant Matrix: (Units=GPa)
#
#
# Indices 1 2 3 4 5 6 
#
# 1 103.5619 48.0635 52.5336 0.0000 0.0000 0.0000
# 2 48.0635 87.5748 45.8049 0.0000 0.0000 0.0000
# 3 52.5336 45.8049 101.3312 0.0000 0.0000 0.0000
# 4 0.0000 0.0000 0.0000 31.0491 0.0000 0.0000
# 5 0.0000 0.0000 0.0000 0.0000 19.9530 0.0000
# 6 0.0000 0.0000 0.0000 0.0000 0.0000 30.4607
#
#
#
# Elastic Compliance Matrix: (Units=1/GPa)
#
#
# Indices 1 2 3 4 5 6 
#
# 1 0.014818 -0.005389 -0.005247 0.000000 0.000000 0.000000
# 2 -0.005389 0.016914 -0.004852 0.000000 0.000000 0.000000
# 3 -0.005247 -0.004852 0.014782 0.000000 0.000000 0.000000
# 4 0.000000 0.000000 0.000000 0.032207 0.000000 0.000000
# 5 0.000000 0.000000 0.000000 0.000000 0.050118 0.000000
# 6 0.000000 0.000000 0.000000 0.000000 0.000000 0.032829
#
#
# Mechanical properties :
#
#
# Convention : Reuss Voigt Hill
#
# Bulk Modulus (GPa) = 64.35036 65.03020 64.69028
# Shear Modulus (GPa) = 25.27517 26.03027 25.65272
#
# Velocity S-wave (km/s) = 3.75871 3.81444 3.78668
# Velocity P-wave (km/s) = 7.40316 7.46656 7.43493
#
# Compressibility (1/GPa) = 0.01553993
#
# Stress axis : x y z
#
# Youngs Moduli (GPa) = 67.48408 59.12261 67.65034
#
# Poissons Ratio (x) = 0.31859 0.35493
# Poissons Ratio (y) = 0.36364 0.32824
# Poissons Ratio (z) = 0.35406 0.28687
#
# Static dielectric constant tensor:
#      x y z
#    x 3.372180 0.000000 0.000000 
#    y 0.000000 3.501280 0.000000 
#    z 0.000000 0.000000 3.199810 
# 
# 
# High freq. dielectric constant tensor:
#      x y z
#    x 1.683700 0.000000 0.000000 
#    y 0.000000 1.706830 0.000000 
#    z 0.000000 0.000000 1.673740 
# 
# From -- ./inp_files/14928.got.cif
#   From: 2010.03.12/outbox.cif.g09.slc.cpg/sg39_8_cif.got.tgz:14928.got - 2010.04.14 02:53:20.
