data_PCOD8180906
_publ_section_title
;
Structure prediction by ZEFSAII (Michael W. Deem and Ramdas Pophale) SiO2 
 PCOD8180906
Probable space group: A B M 2
;
_chemical_formula_sum "Si O2"
_cell_formula_units_Z 60
_cell_length_a 12.458839
_cell_length_b 17.787042
_cell_length_c 14.396741
_cell_angle_alpha 90.000000
_cell_angle_beta 90.000000
_cell_angle_gamma 90.000000
_cell_volume 3190.402639
_symmetry_space_group_name_H-M "A B M 2"
_symmetry_group_IT_number 39
_symmetry_cell_setting 'orthorhombic'
loop_
_space_group_symop_operation_xyz
x,y,z
-x,-y,z
-x,1/2+y,z
x,1/2-y,z
x,1/2+y,1/2+z
-x,1/2-y,1/2+z
-x,y,1/2+z
x,-y,1/2+z
loop_
_atom_site_type_symbol
_atom_site_label
_atom_site_fract_x
_atom_site_fract_y
_atom_site_fract_z
Si Si1 0.569529 0.835063 0.629910
Si Si2 0.122885 0.509888 0.855141
Si Si3 0.289611 0.043668 0.708742
Si Si4 0.258164 0.473465 0.016544
Si Si5 0.221983 0.334813 0.318077
Si Si6 0.401524 0.401458 0.432555
Si Si7 0.330101 0.164557 0.126064
Si Si8 0.500000 0.000000 0.299600
O O1 0.606219 0.750000 0.626483
O O2 0.661450 0.873384 0.692560
O O3 0.556415 0.867163 0.526819
O O4 0.449641 0.847985 0.669070
O O5 0.197235 0.461058 0.785413
O O6 0.140766 0.599986 0.849823
O O7 0.000000 0.500000 0.828499
O O8 0.146989 0.475707 0.957877
O O9 0.393000 0.993539 0.736719
O O10 0.238459 0.015409 0.613319
O O11 0.300285 0.389503 0.039418
O O12 0.341312 0.519095 0.952011
O O13 0.174519 0.250000 0.330469
O O14 0.326843 0.340364 0.382429
O O15 0.248331 0.350084 0.210232
O O16 0.499461 0.424898 0.364453
O O17 0.321011 0.250000 0.088585
#
# Coordination Sequence:
#
# PCOD8180906 Si02
#       8
#     8   8   8   8   8   8   8   4
#     4  10  21  33  51  87 128 165 193 235 301 368
#     4  11  24  42  62  89 114 156 212 264 313 363
#     4  11  21  36  61  85 120 156 198 248 300 374
#     4  10  19  38  55  84 115 156 195 245 302 359
#     4  10  19  37  60  83 111 150 199 248 296 350
#     4  10  19  30  55  83 121 154 196 239 280 361
#     4  10  19  34  55  84 122 157 194 237 294 365
#     4  12  18  32  58  94 118 154 200 238 304 350
#
# _framework density 18.806404000000001
#
# number of rings (size 3 to 8) (size 9 to 14) (size 15 to 20)
#    0.000    1.600    4.000    2.800    0.000    2.667 
#    0.000    2.667    0.000    0.000    0.000    0.000 
#    0.000    0.000    0.000    0.000    0.000    0.000 
#
# Total GULP energy -371808.445013 kJ/mol
# GULP energy per Si atom -12393.614834 kJ/mol
# Density = 1.876360 g / cm^3
# Si number density = 18.806404 Si / 1000 Ang^3
#
#
#
# Elastic Constant Matrix: (Units=GPa)
#
#
# Indices 1 2 3 4 5 6 
#
# 1 95.6337 32.8362 35.5959 0.0000 0.0000 0.0000
# 2 32.8362 120.1398 33.9117 0.0000 0.0000 0.0000
# 3 35.5959 33.9117 89.2983 0.0000 0.0000 0.0000
# 4 0.0000 0.0000 0.0000 28.6748 0.0000 0.0000
# 5 0.0000 0.0000 0.0000 0.0000 16.7957 0.0000
# 6 0.0000 0.0000 0.0000 0.0000 0.0000 16.4299
#
#
#
# Elastic Compliance Matrix: (Units=1/GPa)
#
#
# Indices 1 2 3 4 5 6 
#
# 1 0.012826 -0.002310 -0.004235 0.000000 0.000000 0.000000
# 2 -0.002310 0.009739 -0.002778 0.000000 0.000000 0.000000
# 3 -0.004235 -0.002778 0.013942 0.000000 0.000000 0.000000
# 4 0.000000 0.000000 0.000000 0.034874 0.000000 0.000000
# 5 0.000000 0.000000 0.000000 0.000000 0.059539 0.000000
# 6 0.000000 0.000000 0.000000 0.000000 0.000000 0.060864
#
#
# Mechanical properties :
#
#
# Convention : Reuss Voigt Hill
#
# Bulk Modulus (GPa) = 55.98958 56.63991 56.31475
# Shear Modulus (GPa) = 23.10704 25.89529 24.50117
#
# Velocity S-wave (km/s) = 3.50906 3.71474 3.61336
# Velocity P-wave (km/s) = 6.80104 6.97006 6.88607
#
# Compressibility (1/GPa) = 0.01786047
#
# Stress axis : x y z
#
# Youngs Moduli (GPa) = 77.96520 102.67932 71.72782
#
# Poissons Ratio (x) = 0.23720 0.30380
# Poissons Ratio (y) = 0.18011 0.19923
# Poissons Ratio (z) = 0.33022 0.28521
#
# Static dielectric constant tensor:
#      x y z
#    x 3.072830 0.000000 0.000000 
#    y 0.000000 3.542450 0.000000 
#    z 0.000000 0.000000 3.657540 
# 
# 
# High freq. dielectric constant tensor:
#      x y z
#    x 1.684510 0.000000 0.000000 
#    y 0.000000 1.732220 0.000000 
#    z 0.000000 0.000000 1.741330 
# 
# From -- ./inp_files/9410.got.cif
#   From: 2010.03.12/outbox.cif.g09.slc.cpg/sg39_5_cif.got.tgz:9410.got - 2010.04.14 02:53:20.
