data_PCOD8180602
_publ_section_title
;
Structure prediction by ZEFSAII (Michael W. Deem and Ramdas Pophale) SiO2 
 PCOD8180602
Probable space group: A B M 2
;
_chemical_formula_sum "Si O2"
_cell_formula_units_Z 36
_cell_length_a 16.521337
_cell_length_b 26.415206
_cell_length_c 5.303349
_cell_angle_alpha 90.000000
_cell_angle_beta 90.000000
_cell_angle_gamma 90.000000
_cell_volume 2314.458510
_symmetry_space_group_name_H-M "A B M 2"
_symmetry_group_IT_number 39
_symmetry_cell_setting 'orthorhombic'
loop_
_space_group_symop_operation_xyz
x,y,z
-x,-y,z
-x,1/2+y,z
x,1/2-y,z
x,1/2+y,1/2+z
-x,1/2-y,1/2+z
-x,y,1/2+z
x,-y,1/2+z
loop_
_atom_site_type_symbol
_atom_site_label
_atom_site_fract_x
_atom_site_fract_y
_atom_site_fract_z
Si Si1 0.791731 0.806129 0.253440
Si Si2 0.053068 0.750000 0.753504
Si Si3 0.448064 0.636685 0.236316
Si Si4 0.716488 0.309803 0.253423
Si Si5 0.590548 0.521457 0.730786
O O1 0.751589 0.750000 0.253738
O O2 0.889804 0.800302 0.253366
O O3 0.759743 0.834231 0.505883
O O4 0.759703 0.834196 0.001025
O O5 0.999919 0.750000 0.503676
O O6 0.507156 0.644663 0.471733
O O7 0.378316 0.678338 0.254211
O O8 0.407855 0.581623 0.248684
O O9 0.731694 0.250000 0.253671
O O10 0.500000 0.500000 0.710654
O O11 0.635271 0.502520 0.475307
#
# Coordination Sequence:
#
# PCOD8180602 Si02
#       5
#     8   4   8   8   8
#     4   8  17  30  44  58  88 117 134 172 215 260
#     4  10  16  26  50  74  80 102 154 182 194 246
#     4  12  21  29  45  64  75 109 164 196 218 263
#     4  10  19  33  42  55  87 125 145 177 223 254
#     4  10  16  30  45  57  80  98 125 200 253 263
#
# _framework density 15.554394
#
# number of rings (size 3 to 8) (size 9 to 14) (size 15 to 20)
#    0.667    1.333    4.444    2.667    0.000    0.889 
#    0.000    0.000    0.000    0.000    0.000    0.000 
#    0.000    0.000    0.000    0.000    0.000   77.778 
#
# Total GULP energy -223021.192702 kJ/mol
# GULP energy per Si atom -12390.066261 kJ/mol
# Density = 1.551899 g / cm^3
# Si number density = 15.554394 Si / 1000 Ang^3
#
#
#
# Elastic Constant Matrix: (Units=GPa)
#
#
# Indices 1 2 3 4 5 6 
#
# 1 68.1523 9.2298 39.5766 0.0000 0.0000 0.0000
# 2 9.2298 12.4492 12.4546 0.0000 0.0000 0.0000
# 3 39.5766 12.4546 154.0408 0.0000 0.0000 0.0000
# 4 0.0000 0.0000 0.0000 11.9704 0.0000 0.0000
# 5 0.0000 0.0000 0.0000 0.0000 30.7363 0.0000
# 6 0.0000 0.0000 0.0000 0.0000 0.0000 1.5050
#
#
#
# Elastic Compliance Matrix: (Units=1/GPa)
#
#
# Indices 1 2 3 4 5 6 
#
# 1 0.018246 -0.009616 -0.003910 0.000000 0.000000 0.000000
# 2 -0.009616 0.092463 -0.005005 0.000000 0.000000 0.000000
# 3 -0.003910 -0.005005 0.007901 0.000000 0.000000 0.000000
# 4 0.000000 0.000000 0.000000 0.083540 0.000000 0.000000
# 5 0.000000 0.000000 0.000000 0.000000 0.032535 0.000000
# 6 0.000000 0.000000 0.000000 0.000000 0.000000 0.664449
#
#
# Mechanical properties :
#
#
# Convention : Reuss Voigt Hill
#
# Bulk Modulus (GPa) = 12.26277 39.68493 25.97385
# Shear Modulus (GPa) = 5.19007 20.40109 12.79558
#
# Velocity S-wave (km/s) = 1.82865 3.62553 2.87127
# Velocity P-wave (km/s) = 3.51561 6.56467 5.26567
#
# Compressibility (1/GPa) = 0.08154768
#
# Stress axis : x y z
#
# Youngs Moduli (GPa) = 54.80643 10.81512 126.56378
#
# Poissons Ratio (x) = 0.10399 0.49491
# Poissons Ratio (y) = 0.52699 0.63350
# Poissons Ratio (z) = 0.21431 0.05413
#
# Static dielectric constant tensor:
#      x y z
#    x 1.769580 0.000000 0.000000 
#    y 0.000000 2.598480 0.000000 
#    z 0.000000 0.000000 4.480570 
# 
# 
# High freq. dielectric constant tensor:
#      x y z
#    x 1.553220 0.000000 0.000000 
#    y 0.000000 1.541960 0.000000 
#    z 0.000000 0.000000 1.639380 
# 
# From -- ./inp_files/784.got.cif
#   From: 2010.03.12/outbox.cif.g09.slc.cpg/sg39_1_cif.got.tgz:784.got - 2010.04.14 02:53:20.
