data_PCOD8180336
_publ_section_title
;
Structure prediction by ZEFSAII (Michael W. Deem and Ramdas Pophale) SiO2 
 PCOD8180336
Probable space group: A M M 2
;
_chemical_formula_sum "Si O2"
_cell_formula_units_Z 48
_cell_length_a 26.370287
_cell_length_b 8.981196
_cell_length_c 10.037157
_cell_angle_alpha 90.000000
_cell_angle_beta 90.000000
_cell_angle_gamma 90.000000
_cell_volume 2377.167303
_symmetry_space_group_name_H-M "A M M 2"
_symmetry_group_IT_number 38
_symmetry_cell_setting 'orthorhombic'
loop_
_space_group_symop_operation_xyz
x,y,z
-x,-y,z
-x,y,z
x,-y,z
x,1/2+y,1/2+z
-x,1/2-y,1/2+z
-x,1/2+y,1/2+z
x,1/2-y,1/2+z
loop_
_atom_site_type_symbol
_atom_site_label
_atom_site_fract_x
_atom_site_fract_y
_atom_site_fract_z
Si Si1 0.278565 0.173376 0.897300
Si Si2 0.115506 0.328053 0.579857
Si Si3 0.058157 0.828333 0.347698
Si Si4 0.383013 0.671865 0.846924
Si Si5 0.778779 0.673463 0.130402
Si Si6 0.441038 0.829435 0.617489
O O1 0.332757 0.230430 0.850768
O O2 0.237946 0.205682 0.781357
O O3 0.282574 0.000000 0.928731
O O4 0.261807 0.255164 0.031161
O O5 0.130056 0.500000 0.563726
O O6 0.091871 0.273236 0.442280
O O7 0.074959 0.301362 0.696171
O O8 0.166046 0.239851 0.611648
O O9 0.000000 0.778485 0.359594
O O10 0.065414 0.000000 0.388856
O O11 0.367405 0.500000 0.834469
O O12 0.415422 0.717880 0.719841
O O13 0.417157 0.702483 0.974663
O O14 0.780555 0.500000 0.098378
O O15 0.500000 0.791235 0.608070
O O16 0.431909 0.000000 0.661960
#
# Coordination Sequence:
#
# PCOD8180336 Si02
#       6
#     8   8   8   8   8   8
#     4  11  24  41  62  89 119 154 197 242 292 350
#     4  11  23  39  61  89 119 153 196 243 291 347
#     4  10  22  40  61  87 120 157 197 242 292 346
#     4  11  23  39  61  89 120 155 196 242 293 349
#     4  11  24  41  61  87 119 155 196 242 293 349
#     4  10  22  40  60  85 119 156 196 243 291 343
#
# _framework density 20.192098999999999
#
# number of rings (size 3 to 8) (size 9 to 14) (size 15 to 20)
#    0.000    1.333    0.000    5.000    0.000   14.000 
#    0.000    0.000    0.000    0.000    0.000    0.000 
#    0.000    0.000    0.000    0.000    0.000    0.000 
#
# Total GULP energy -297784.212142 kJ/mol
# GULP energy per Si atom -12407.675506 kJ/mol
# Density = 2.014614 g / cm^3
# Si number density = 20.192099 Si / 1000 Ang^3
#
#
#
# Elastic Constant Matrix: (Units=GPa)
#
#
# Indices 1 2 3 4 5 6 
#
# 1 101.7710 36.9976 10.6825 0.0000 0.0000 0.0000
# 2 36.9976 96.5888 54.4402 0.0000 0.0000 0.0000
# 3 10.6825 54.4402 78.6129 0.0000 0.0000 0.0000
# 4 0.0000 0.0000 0.0000 37.5367 0.0000 0.0000
# 5 0.0000 0.0000 0.0000 0.0000 40.5350 0.0000
# 6 0.0000 0.0000 0.0000 0.0000 0.0000 34.6243
#
#
#
# Elastic Compliance Matrix: (Units=1/GPa)
#
#
# Indices 1 2 3 4 5 6 
#
# 1 0.011704 -0.005883 0.002484 0.000000 0.000000 0.000000
# 2 -0.005883 0.019938 -0.013008 0.000000 0.000000 0.000000
# 3 0.002484 -0.013008 0.021391 0.000000 0.000000 0.000000
# 4 0.000000 0.000000 0.000000 0.026641 0.000000 0.000000
# 5 0.000000 0.000000 0.000000 0.000000 0.024670 0.000000
# 6 0.000000 0.000000 0.000000 0.000000 0.000000 0.028881
#
#
# Mechanical properties :
#
#
# Convention : Reuss Voigt Hill
#
# Bulk Modulus (GPa) = 49.45918 53.46816 51.46367
# Shear Modulus (GPa) = 28.93856 34.19602 31.56729
#
# Velocity S-wave (km/s) = 3.78982 4.11972 3.95821
# Velocity P-wave (km/s) = 6.61043 7.01190 6.81412
#
# Compressibility (1/GPa) = 0.02021869
#
# Stress axis : x y z
#
# Youngs Moduli (GPa) = 85.44124 50.15483 46.74810
#
# Poissons Ratio (x) = 0.29506 -0.11610
# Poissons Ratio (y) = 0.50264 0.60810
# Poissons Ratio (z) = -0.21220 0.65241
#
# Static dielectric constant tensor:
#      x y z
#    x 3.825810 0.000000 0.000000 
#    y 0.000000 3.767940 0.000000 
#    z 0.000000 0.000000 3.769120 
# 
# 
# High freq. dielectric constant tensor:
#      x y z
#    x 1.805340 0.000000 0.000000 
#    y 0.000000 1.796960 0.000000 
#    z 0.000000 0.000000 1.801070 
# 
# From -- ./inp_files/7033.got.cif
#   From: 2010.03.12/outbox.cif.g09.slc.cpg/sg38_4_cif.got.tgz:7033.got - 2010.04.14 02:38:36.
