data_PCOD8180712
_publ_section_title
;
Structure prediction by ZEFSAII (Michael W. Deem and Ramdas Pophale) SiO2 
 PCOD8180712
Probable space group: A B M 2
;
_chemical_formula_sum "Si O2"
_cell_formula_units_Z 64
_cell_length_a 12.766628
_cell_length_b 30.304320
_cell_length_c 9.904326
_cell_angle_alpha 90.000000
_cell_angle_beta 90.000000
_cell_angle_gamma 90.000000
_cell_volume 3831.825064
_symmetry_space_group_name_H-M "A B M 2"
_symmetry_group_IT_number 39
_symmetry_cell_setting 'orthorhombic'
loop_
_space_group_symop_operation_xyz
x,y,z
-x,-y,z
-x,1/2+y,z
x,1/2-y,z
x,1/2+y,1/2+z
-x,1/2-y,1/2+z
-x,y,1/2+z
x,-y,1/2+z
loop_
_atom_site_type_symbol
_atom_site_label
_atom_site_fract_x
_atom_site_fract_y
_atom_site_fract_z
Si Si1 0.412413 0.301170 0.838190
Si Si2 0.591184 0.197171 0.644232
Si Si3 0.793843 0.646766 0.128565
Si Si4 0.032477 0.409416 0.484166
Si Si5 0.018451 0.143564 0.732445
Si Si6 0.167626 0.549627 0.582907
Si Si7 0.180633 0.699173 0.360607
Si Si8 0.877101 0.987604 0.356639
O O1 0.436701 0.250000 0.836203
O O2 0.495825 0.321899 0.734137
O O3 0.293379 0.311044 0.790743
O O4 0.430343 0.318294 0.990632
O O5 0.608291 0.250000 0.653613
O O6 0.695723 0.172042 0.695162
O O7 0.893531 0.652002 0.227407
O O8 0.765694 0.594981 0.099071
O O9 0.830334 0.669798 0.992293
O O10 0.966888 0.390403 0.356874
O O11 0.127426 0.440118 0.433240
O O12 0.070309 0.372506 0.590871
O O13 0.954385 0.437594 0.578543
O O14 0.084475 0.187881 0.761962
O O15 0.190980 0.522637 0.444458
O O16 0.180640 0.517551 0.712707
O O17 0.174970 0.750000 0.403681
O O18 0.000000 0.000000 0.341410
#
# Coordination Sequence:
#
# PCOD8180712 Si02
#       8
#     8   8   8   8   8   8   8   8
#     4   8  16  32  52  72  91 122 165 213 254 290
#     4   9  17  33  55  73  98 128 165 211 259 297
#     4  10  19  33  50  71 103 139 165 207 246 305
#     4  10  18  31  46  65  95 136 166 205 242 288
#     4  11  19  33  48  68 104 138 171 205 242 298
#     4  10  19  28  45  68  97 128 166 201 246 296
#     4  10  20  34  51  69 100 141 176 206 252 302
#     4  10  18  28  45  67  91 132 163 199 244 297
#
# _framework density 16.702223
#
# number of rings (size 3 to 8) (size 9 to 14) (size 15 to 20)
#    0.000    2.250    5.000    2.250    1.750    1.000 
#    2.250    0.000    0.000    0.000    0.000    0.000 
#    0.000   21.000    0.000    0.000    0.000    0.000 
#
# Total GULP energy -396445.957783 kJ/mol
# GULP energy per Si atom -12388.936181 kJ/mol
# Density = 1.666421 g / cm^3
# Si number density = 16.702223 Si / 1000 Ang^3
#
#
#
# Elastic Constant Matrix: (Units=GPa)
#
#
# Indices 1 2 3 4 5 6 
#
# 1 71.9629 30.0848 31.8983 0.0000 0.0000 0.0000
# 2 30.0848 69.4734 37.5659 0.0000 0.0000 0.0000
# 3 31.8983 37.5659 88.7045 0.0000 0.0000 0.0000
# 4 0.0000 0.0000 0.0000 25.2280 0.0000 0.0000
# 5 0.0000 0.0000 0.0000 0.0000 19.9828 0.0000
# 6 0.0000 0.0000 0.0000 0.0000 0.0000 11.6092
#
#
#
# Elastic Compliance Matrix: (Units=1/GPa)
#
#
# Indices 1 2 3 4 5 6 
#
# 1 0.018063 -0.005590 -0.004128 0.000000 0.000000 0.000000
# 2 -0.005590 0.020399 -0.006629 0.000000 0.000000 0.000000
# 3 -0.004128 -0.006629 0.015565 0.000000 0.000000 0.000000
# 4 0.000000 0.000000 0.000000 0.039639 0.000000 0.000000
# 5 0.000000 0.000000 0.000000 0.000000 0.050043 0.000000
# 6 0.000000 0.000000 0.000000 0.000000 0.000000 0.086139
#
#
# Mechanical properties :
#
#
# Convention : Reuss Voigt Hill
#
# Bulk Modulus (GPa) = 46.87468 47.69321 47.28394
# Shear Modulus (GPa) = 18.54243 20.07010 19.30627
#
# Velocity S-wave (km/s) = 3.33555 3.47023 3.40356
# Velocity P-wave (km/s) = 6.55442 6.68384 6.61944
#
# Compressibility (1/GPa) = 0.02133348
#
# Stress axis : x y z
#
# Youngs Moduli (GPa) = 55.36259 49.02231 64.24613
#
# Poissons Ratio (x) = 0.27402 0.26522
# Poissons Ratio (y) = 0.30946 0.42587
# Poissons Ratio (z) = 0.22855 0.32496
#
# Static dielectric constant tensor:
#      x y z
#    x 2.900650 0.000000 0.000000 
#    y 0.000000 3.232090 0.000000 
#    z 0.000000 0.000000 3.331370 
# 
# 
# High freq. dielectric constant tensor:
#      x y z
#    x 1.590820 0.000000 0.000000 
#    y 0.000000 1.635770 0.000000 
#    z 0.000000 0.000000 1.649110 
# 
# From -- ./inp_files/3581.got.cif
#   From: 2010.03.12/outbox.cif.g09.slc.cpg/sg39_2_cif.got.tgz:3581.got - 2010.04.14 02:53:20.
