data_PCOD8180049
_publ_section_title
;
Structure prediction by ZEFSAII (Michael W. Deem and Ramdas Pophale) SiO2 
 PCOD8180049
Probable space group: A M M 2
;
_chemical_formula_sum "Si O2"
_cell_formula_units_Z 56
_cell_length_a 21.375303
_cell_length_b 8.625572
_cell_length_c 15.483044
_cell_angle_alpha 90.000000
_cell_angle_beta 90.000000
_cell_angle_gamma 90.000000
_cell_volume 2854.674084
_symmetry_space_group_name_H-M "A M M 2"
_symmetry_group_IT_number 38
_symmetry_cell_setting 'orthorhombic'
loop_
_space_group_symop_operation_xyz
x,y,z
-x,-y,z
-x,y,z
x,-y,z
x,1/2+y,1/2+z
-x,1/2-y,1/2+z
-x,1/2+y,1/2+z
x,1/2-y,1/2+z
loop_
_atom_site_type_symbol
_atom_site_label
_atom_site_fract_x
_atom_site_fract_y
_atom_site_fract_z
Si Si1 0.350225 0.316386 0.658800
Si Si2 0.428941 0.316555 0.819161
Si Si3 0.000000 0.818581 0.552826
Si Si4 0.000000 0.682631 0.254726
Si Si5 0.570909 0.183605 0.998782
Si Si6 0.869389 0.818355 0.300191
Si Si7 0.131390 0.318058 0.994287
Si Si8 0.786319 0.682396 0.151449
O O1 0.354582 0.500000 0.658845
O O2 0.385618 0.250061 0.742904
O O3 0.384957 0.249491 0.574231
O O4 0.279030 0.266775 0.661030
O O5 0.500000 0.260839 0.802361
O O6 0.425323 0.500000 0.823909
O O7 0.403028 0.248478 0.908663
O O8 0.062559 0.743545 0.511036
O O9 0.000000 0.782574 0.653730
O O10 0.000000 0.000000 0.533806
O O11 0.059329 0.764162 0.297323
O O12 0.000000 0.500000 0.274270
O O13 0.500000 0.241864 0.015147
O O14 0.573176 0.000000 0.996251
O O15 0.844962 0.782934 0.397453
O O16 0.828433 0.719583 0.234312
O O17 0.864048 0.000000 0.278417
O O18 0.125463 0.500000 0.011327
O O19 0.180534 0.252355 0.064531
O O20 0.775178 0.500000 0.146590
#
# Coordination Sequence:
#
# PCOD8180049 Si02
#       8
#     8   8   4   4   8   8   8   8
#     4  10  21  37  56  79 111 149 187 226 276 332
#     4   9  18  34  57  83 111 145 185 226 272 333
#     4   9  15  31  59  82 105 139 178 216 265 324
#     4  11  20  35  61  88 117 147 180 226 281 332
#     4   9  18  34  57  84 113 144 181 230 283 327
#     4  11  22  38  61  86 111 143 188 233 277 329
#     4   9  19  36  59  81 105 145 185 221 272 336
#     4  11  23  40  58  79 110 150 191 230 277 330
#
# _framework density 19.616949999999999
#
# number of rings (size 3 to 8) (size 9 to 14) (size 15 to 20)
#    0.000    2.143    1.429    1.929    0.000    5.143 
#    0.000    7.143    0.000    4.286    0.000    0.000 
#    0.000    0.000    0.000    0.000    0.000    0.000 
#
# Total GULP energy -347209.589095 kJ/mol
# GULP energy per Si atom -12400.342468 kJ/mol
# Density = 1.957230 g / cm^3
# Si number density = 19.616950 Si / 1000 Ang^3
#
#
#
# Elastic Constant Matrix: (Units=GPa)
#
#
# Indices 1 2 3 4 5 6 
#
# 1 110.8725 -2.7586 63.4513 0.0000 0.0000 0.0000
# 2 -2.7586 13.9531 11.8444 0.0000 0.0000 0.0000
# 3 63.4513 11.8444 141.9062 0.0000 0.0000 0.0000
# 4 0.0000 0.0000 0.0000 27.9220 0.0000 0.0000
# 5 0.0000 0.0000 0.0000 0.0000 12.6275 0.0000
# 6 0.0000 0.0000 0.0000 0.0000 0.0000 25.0835
#
#
#
# Elastic Compliance Matrix: (Units=1/GPa)
#
#
# Indices 1 2 3 4 5 6 
#
# 1 0.012904 0.008017 -0.006439 0.000000 0.000000 0.000000
# 2 0.008017 0.082115 -0.010439 0.000000 0.000000 0.000000
# 3 -0.006439 -0.010439 0.010797 0.000000 0.000000 0.000000
# 4 0.000000 0.000000 0.000000 0.035814 0.000000 0.000000
# 5 0.000000 0.000000 0.000000 0.000000 0.079192 0.000000
# 6 0.000000 0.000000 0.000000 0.000000 0.000000 0.039867
#
#
# Mechanical properties :
#
#
# Convention : Reuss Voigt Hill
#
# Bulk Modulus (GPa) = 11.35137 45.75621 28.55379
# Shear Modulus (GPa) = 16.24566 26.07292 21.15929
#
# Velocity S-wave (km/s) = 2.88087 3.64964 3.28780
# Velocity P-wave (km/s) = 4.10670 6.41368 5.38518
#
# Compressibility (1/GPa) = 0.08809506
#
# Stress axis : x y z
#
# Youngs Moduli (GPa) = 77.49686 12.17806 92.61645
#
# Poissons Ratio (x) = -0.09763 0.59635
# Poissons Ratio (y) = -0.62129 0.96678
# Poissons Ratio (z) = 0.49899 0.12712
#
# Static dielectric constant tensor:
#      x y z
#    x 3.660420 0.000000 0.000000 
#    y 0.000000 3.271420 0.000000 
#    z 0.000000 0.000000 3.830680 
# 
# 
# High freq. dielectric constant tensor:
#      x y z
#    x 1.763140 0.000000 0.000000 
#    y 0.000000 1.736610 0.000000 
#    z 0.000000 0.000000 1.781020 
# 
# From -- ./inp_files/15549.got.cif
#   From: 2010.03.12/outbox.cif.g09.slc.cpg/sg38_8_cif.got.tgz:15549.got - 2010.04.14 02:38:36.
