data_PCOD8180472
_publ_section_title
;
Structure prediction by ZEFSAII (Michael W. Deem and Ramdas Pophale) SiO2 
 PCOD8180472
Probable space group: A M M 2
;
_chemical_formula_sum "Si O2"
_cell_formula_units_Z 64
_cell_length_a 20.732733
_cell_length_b 8.961115
_cell_length_c 18.750197
_cell_angle_alpha 90.000000
_cell_angle_beta 90.000000
_cell_angle_gamma 90.000000
_cell_volume 3483.569188
_symmetry_space_group_name_H-M "A M M 2"
_symmetry_group_IT_number 38
_symmetry_cell_setting 'orthorhombic'
loop_
_space_group_symop_operation_xyz
x,y,z
-x,-y,z
-x,y,z
x,-y,z
x,1/2+y,1/2+z
-x,1/2-y,1/2+z
-x,1/2+y,1/2+z
x,1/2-y,1/2+z
loop_
_atom_site_type_symbol
_atom_site_label
_atom_site_fract_x
_atom_site_fract_y
_atom_site_fract_z
Si Si1 0.706570 0.326839 0.026890
Si Si2 0.179079 0.323475 0.931508
Si Si3 0.179940 0.823868 0.778562
Si Si4 0.302050 0.323595 0.188676
Si Si5 0.570435 0.325921 0.685696
Si Si6 0.074570 0.171788 0.186436
Si Si7 0.925245 0.170801 0.022446
Si Si8 0.568466 0.329401 0.037612
O O1 0.723375 0.500000 0.030341
O O2 0.709011 0.263307 0.107775
O O3 0.634384 0.297122 0.993364
O O4 0.760405 0.254064 0.976035
O O5 0.183250 0.500000 0.922512
O O6 0.179642 0.251073 0.854786
O O7 0.113833 0.282082 0.972315
O O8 0.242934 0.766447 0.736381
O O9 0.116214 0.778871 0.735834
O O10 0.180440 0.000000 0.787914
O O11 0.307227 0.500000 0.189566
O O12 0.369105 0.259424 0.221611
O O13 0.500000 0.286634 0.720702
O O14 0.584198 0.500000 0.692389
O O15 0.567033 0.282097 0.603239
O O16 0.090260 0.208852 0.104398
O O17 0.000000 0.204363 0.203018
O O18 0.091072 0.000000 0.203202
O O19 0.000000 0.197627 0.006060
O O20 0.906368 0.000000 0.005672
O O21 0.500000 0.309783 0.994390
O O22 0.573483 0.500000 0.066609
#
# Coordination Sequence:
#
# PCOD8180472 Si02
#       8
#     8   8   8   8   8   8   8   8
#     4   8  15  29  49  73  97 124 164 208 247 292
#     4  11  22  35  52  74 104 140 174 211 254 302
#     4  11  23  37  53  75 104 138 177 218 257 301
#     4   9  18  33  52  72  96 130 171 211 252 303
#     4   9  16  25  41  70 103 128 156 201 254 303
#     4   9  19  37  60  84 108 134 166 206 255 310
#     4   9  19  37  59  81 105 131 162 205 253 302
#     4   8  13  24  44  68  95 127 162 201 246 297
#
# _framework density 18.371962
#
# number of rings (size 3 to 8) (size 9 to 14) (size 15 to 20)
#    0.000    2.750    0.000    3.375    0.000    4.250 
#    0.000    7.500    0.000    0.750    0.000    1.750 
#    0.000    0.000    0.000    0.000    0.000    0.000 
#
# Total GULP energy -396518.717694 kJ/mol
# GULP energy per Si atom -12391.209928 kJ/mol
# Density = 1.833015 g / cm^3
# Si number density = 18.371962 Si / 1000 Ang^3
#
#
#
# Elastic Constant Matrix: (Units=GPa)
#
#
# Indices 1 2 3 4 5 6 
#
# 1 149.7267 44.6484 70.8051 0.0000 0.0000 0.0000
# 2 44.6484 49.7203 33.8368 0.0000 0.0000 0.0000
# 3 70.8051 33.8368 88.0383 0.0000 0.0000 0.0000
# 4 0.0000 0.0000 0.0000 -6.0189 0.0000 0.0000
# 5 0.0000 0.0000 0.0000 0.0000 4.3651 0.0000
# 6 0.0000 0.0000 0.0000 0.0000 0.0000 27.5060
#
#
#
# Elastic Compliance Matrix: (Units=1/GPa)
#
#
# Indices 1 2 3 4 5 6 
#
# 1 0.011834 -0.005620 -0.007358 0.000000 0.000000 0.000000
# 2 -0.005620 0.029905 -0.006974 0.000000 0.000000 0.000000
# 3 -0.007358 -0.006974 0.019957 0.000000 0.000000 0.000000
# 4 0.000000 0.000000 0.000000 -0.166143 0.000000 0.000000
# 5 0.000000 0.000000 0.000000 0.000000 0.229088 0.000000
# 6 0.000000 0.000000 0.000000 0.000000 0.000000 0.036356
#
#
# Mechanical properties :
#
#
# Convention : Reuss Voigt Hill
#
# Bulk Modulus (GPa) = 45.88683 65.11842 55.50262
# Shear Modulus (GPa) = 24.01960 14.38346 19.20153
#
# Velocity S-wave (km/s) = 3.61973 2.80108 3.23639
# Velocity P-wave (km/s) = 6.51926 6.78106 6.65145
#
# Compressibility (1/GPa) = 0.02179275
#
# Stress axis : x y z
#
# Youngs Moduli (GPa) = 84.50210 33.43913 50.10872
#
# Poissons Ratio (x) = 0.18792 0.36868
# Poissons Ratio (y) = 0.47487 0.34947
# Poissons Ratio (z) = 0.62174 0.23321
#
# Static dielectric constant tensor:
#      x y z
#    x 3.891130 0.000000 0.000000 
#    y 0.000000 3.215870 0.000000 
#    z 0.000000 0.000000 3.093250 
# 
# 
# High freq. dielectric constant tensor:
#      x y z
#    x 1.739710 0.000000 0.000000 
#    y 0.000000 1.699720 0.000000 
#    z 0.000000 0.000000 1.668340 
# 
# From -- ./inp_files/18929.got.cif
#   From: 2010.03.12/outbox.cif.g09.slc.cpg/sg38_10_cif.got.tgz:18929.got - 2010.04.14 02:38:36.
