data_PCOD8180382
_publ_section_title
;
Structure prediction by ZEFSAII (Michael W. Deem and Ramdas Pophale) SiO2 
 PCOD8180382
Probable space group: A M M 2
;
_chemical_formula_sum "Si O2"
_cell_formula_units_Z 56
_cell_length_a 21.200031
_cell_length_b 13.775001
_cell_length_c 8.814437
_cell_angle_alpha 90.000000
_cell_angle_beta 90.000000
_cell_angle_gamma 90.000000
_cell_volume 2574.083988
_symmetry_space_group_name_H-M "A M M 2"
_symmetry_group_IT_number 38
_symmetry_cell_setting 'orthorhombic'
loop_
_space_group_symop_operation_xyz
x,y,z
-x,-y,z
-x,y,z
x,-y,z
x,1/2+y,1/2+z
-x,1/2-y,1/2+z
-x,1/2+y,1/2+z
x,1/2-y,1/2+z
loop_
_atom_site_type_symbol
_atom_site_label
_atom_site_fract_x
_atom_site_fract_y
_atom_site_fract_z
Si Si1 0.312490 0.613821 0.768000
Si Si2 0.000000 0.105853 0.041410
Si Si3 0.196152 0.222533 0.395441
Si Si4 0.593989 0.887719 0.772361
Si Si5 0.569669 0.703221 0.942113
Si Si6 0.279841 0.893322 0.931233
Si Si7 0.894233 0.747586 0.645037
Si Si8 0.000000 0.104628 0.687834
O O1 0.322302 0.500000 0.782993
O O2 0.248977 0.641697 0.860406
O O3 0.374646 0.663187 0.836285
O O4 0.306680 0.647308 0.592327
O O5 0.000000 0.093002 0.864862
O O6 0.064736 0.159026 0.083112
O O7 0.000000 0.000000 0.120551
O O8 0.225066 0.328077 0.363976
O O9 0.172383 0.223873 0.567877
O O10 0.129604 0.211647 0.308439
O O11 0.567165 0.820809 0.911534
O O12 0.581034 0.830063 0.615742
O O13 0.668254 0.895649 0.799612
O O14 0.566544 0.000000 0.771927
O O15 0.500000 0.662889 0.896304
O O16 0.251793 0.000000 0.961089
O O17 0.936849 0.842108 0.639059
O O18 0.000000 0.000000 0.607017
#
# Coordination Sequence:
#
# PCOD8180382 Si02
#       8
#     8   4   8   8   8   8   8   4
#     4  11  25  44  68 100 137 179 232 292 354 421
#     4  10  22  43  68  93 130 181 223 262 324 398
#     4  12  23  41  66  98 135 170 222 279 344 404
#     4  11  25  46  72 103 139 182 234 292 357 426
#     4  12  26  45  72 103 140 186 235 291 359 430
#     4  10  23  43  68  95 131 178 224 280 351 420
#     4  11  24  40  66 100 131 173 220 275 329 398
#     4  10  22  43  66  95 136 173 219 268 322 398
#
# _framework density 21.755310000000001
#
# number of rings (size 3 to 8) (size 9 to 14) (size 15 to 20)
#    0.000    1.000    4.286    1.714    2.000    4.286 
#    0.000    2.143    0.000    8.571    0.000    0.000 
#    0.000    0.000    0.000    0.000    0.000    0.000 
#
# Total GULP energy -346907.404640 kJ/mol
# GULP energy per Si atom -12389.550166 kJ/mol
# Density = 2.170579 g / cm^3
# Si number density = 21.755310 Si / 1000 Ang^3
#
#
#
# Elastic Constant Matrix: (Units=GPa)
#
#
# Indices 1 2 3 4 5 6 
#
# 1 129.7083 45.7185 20.0644 0.0000 0.0000 0.0000
# 2 45.7185 147.6453 49.1322 0.0000 0.0000 0.0000
# 3 20.0644 49.1322 67.3671 0.0000 0.0000 0.0000
# 4 0.0000 0.0000 0.0000 33.1970 0.0000 0.0000
# 5 0.0000 0.0000 0.0000 0.0000 22.4879 0.0000
# 6 0.0000 0.0000 0.0000 0.0000 0.0000 -0.4687
#
#
#
# Elastic Compliance Matrix: (Units=1/GPa)
#
#
# Indices 1 2 3 4 5 6 
#
# 1 0.008689 -0.002416 -0.000826 0.000000 0.000000 0.000000
# 2 -0.002416 0.009615 -0.006293 0.000000 0.000000 0.000000
# 3 -0.000826 -0.006293 0.019680 0.000000 0.000000 0.000000
# 4 0.000000 0.000000 0.000000 0.030123 0.000000 0.000000
# 5 0.000000 0.000000 0.000000 0.000000 0.044468 0.000000
# 6 0.000000 0.000000 0.000000 0.000000 0.000000 -2.133561
#
#
# Mechanical properties :
#
#
# Convention : Reuss Voigt Hill
#
# Bulk Modulus (GPa) = 52.87038 63.83897 58.35467
# Shear Modulus (GPa) = -2.50550 26.36363 11.92907
#
# Velocity S-wave (km/s) = -1.07432 3.48490 2.34418
# Velocity P-wave (km/s) = 4.77663 6.75282 5.84879
#
# Compressibility (1/GPa) = 0.01891418
#
# Stress axis : x y z
#
# Youngs Moduli (GPa) = 115.09036 104.00279 50.81369
#
# Poissons Ratio (x) = 0.25123 0.04198
# Poissons Ratio (y) = 0.27801 0.31977
# Poissons Ratio (z) = 0.09508 0.65449
#
# Static dielectric constant tensor:
#      x y z
#    x 3.974890 0.000000 0.000000 
#    y 0.000000 4.521380 0.000000 
#    z 0.000000 0.000000 3.987110 
# 
# 
# High freq. dielectric constant tensor:
#      x y z
#    x 1.864980 0.000000 0.000000 
#    y 0.000000 1.856750 0.000000 
#    z 0.000000 0.000000 1.854200 
# 
# From -- ./inp_files/6768.got.cif
#   From: 2010.03.12/outbox.cif.g09.slc.cpg/sg38_4_cif.got.tgz:6768.got - 2010.04.14 02:38:36.
