data_PCOD8180990
_publ_section_title
;
Structure prediction by ZEFSAII (Michael W. Deem and Ramdas Pophale) SiO2 
 PCOD8180990
Probable space group: A B M 2
;
_chemical_formula_sum "Si O2"
_cell_formula_units_Z 56
_cell_length_a 19.709142
_cell_length_b 8.660018
_cell_length_c 15.943884
_cell_angle_alpha 90.000000
_cell_angle_beta 90.000000
_cell_angle_gamma 90.000000
_cell_volume 2721.326427
_symmetry_space_group_name_H-M "A B M 2"
_symmetry_group_IT_number 39
_symmetry_cell_setting 'orthorhombic'
loop_
_space_group_symop_operation_xyz
x,y,z
-x,-y,z
-x,1/2+y,z
x,1/2-y,z
x,1/2+y,1/2+z
-x,1/2-y,1/2+z
-x,y,1/2+z
x,-y,1/2+z
loop_
_atom_site_type_symbol
_atom_site_label
_atom_site_fract_x
_atom_site_fract_y
_atom_site_fract_z
Si Si1 0.153548 0.566757 0.042130
Si Si2 0.926338 0.567885 0.380973
Si Si3 0.156171 0.570325 0.228899
Si Si4 0.566961 0.932206 0.218429
Si Si5 0.568426 0.431899 0.035683
Si Si6 0.708895 0.071344 0.973721
Si Si7 0.712518 0.573303 0.282277
O O1 0.157638 0.750000 0.032102
O O2 0.128292 0.522648 0.135925
O O3 0.104127 0.501569 0.968883
O O4 0.229692 0.498757 0.028347
O O5 0.931471 0.750000 0.385594
O O6 0.881012 0.526217 0.300533
O O7 0.000000 0.500000 0.366745
O O8 0.143665 0.750000 0.245588
O O9 0.236746 0.534250 0.229268
O O10 0.559311 0.750000 0.203471
O O11 0.634146 0.973398 0.270489
O O12 0.500000 0.000000 0.265923
O O13 0.572100 0.023136 0.132107
O O14 0.500000 0.500000 0.993585
O O15 0.565198 0.250000 0.023559
O O16 0.635829 0.505712 0.992856
O O17 0.700549 0.250000 0.996283
O O18 0.730985 0.047089 0.878507
O O19 0.724176 0.750000 0.254700
#
# Coordination Sequence:
#
# PCOD8180990 Si02
#       7
#     8   8   8   8   8   8   8
#     4   9  19  37  63  88 118 158 199 239 291 351
#     4  11  23  43  67  91 125 162 195 240 291 352
#     4  11  22  38  63  96 124 156 201 247 294 352
#     4  10  20  33  51  75 107 147 193 245 298 356
#     4  10  19  32  52  74 104 145 190 243 297 354
#     4   9  17  33  56  79 106 148 194 235 290 349
#     4  10  20  36  57  81 113 155 198 243 299 357
#
# _framework density 20.578201
#
# number of rings (size 3 to 8) (size 9 to 14) (size 15 to 20)
#    0.000    2.000    1.429    3.429    0.000    3.429 
#    0.000    5.714    0.000    0.000    0.000    0.000 
#    0.000    0.000    0.000    0.000    0.000    0.000 
#
# Total GULP energy -347061.719909 kJ/mol
# GULP energy per Si atom -12395.061425 kJ/mol
# Density = 2.053136 g / cm^3
# Si number density = 20.578201 Si / 1000 Ang^3
#
#
#
# Elastic Constant Matrix: (Units=GPa)
#
#
# Indices 1 2 3 4 5 6 
#
# 1 128.6847 24.9302 47.7823 0.0000 0.0000 0.0000
# 2 24.9302 46.9874 21.9876 0.0000 0.0000 0.0000
# 3 47.7823 21.9876 92.0162 0.0000 0.0000 0.0000
# 4 0.0000 0.0000 0.0000 21.2112 0.0000 0.0000
# 5 0.0000 0.0000 0.0000 0.0000 27.1336 0.0000
# 6 0.0000 0.0000 0.0000 0.0000 0.0000 31.9924
#
#
#
# Elastic Compliance Matrix: (Units=1/GPa)
#
#
# Indices 1 2 3 4 5 6 
#
# 1 0.010051 -0.003254 -0.004441 0.000000 0.000000 0.000000
# 2 -0.003254 0.025015 -0.004288 0.000000 0.000000 0.000000
# 3 -0.004441 -0.004288 0.014199 0.000000 0.000000 0.000000
# 4 0.000000 0.000000 0.000000 0.047145 0.000000 0.000000
# 5 0.000000 0.000000 0.000000 0.000000 0.036855 0.000000
# 6 0.000000 0.000000 0.000000 0.000000 0.000000 0.031257
#
#
# Mechanical properties :
#
#
# Convention : Reuss Voigt Hill
#
# Bulk Modulus (GPa) = 39.52915 50.78762 45.15838
# Shear Modulus (GPa) = 25.39097 27.60000 26.49548
#
# Velocity S-wave (km/s) = 3.51647 3.66625 3.59214
# Velocity P-wave (km/s) = 5.97816 6.53113 6.26075
#
# Compressibility (1/GPa) = 0.02529779
#
# Stress axis : x y z
#
# Youngs Moduli (GPa) = 99.49718 39.97560 70.42970
#
# Poissons Ratio (x) = 0.13009 0.31281
# Poissons Ratio (y) = 0.32378 0.30198
# Poissons Ratio (z) = 0.44191 0.17140
#
# Static dielectric constant tensor:
#      x y z
#    x 4.250920 0.000000 0.000000 
#    y 0.000000 3.433500 0.000000 
#    z 0.000000 0.000000 3.715740 
# 
# 
# High freq. dielectric constant tensor:
#      x y z
#    x 1.818860 0.000000 0.000000 
#    y 0.000000 1.774580 0.000000 
#    z 0.000000 0.000000 1.802160 
# 
# From -- ./inp_files/10359.got.cif
#   From: 2010.03.12/outbox.cif.g09.slc.cpg/sg39_6_cif.got.tgz:10359.got - 2010.04.14 02:53:20.
