data_PCOD8180127
_publ_section_title
;
Structure prediction by ZEFSAII (Michael W. Deem and Ramdas Pophale) SiO2 
 PCOD8180127
Probable space group: A M M 2
;
_chemical_formula_sum "Si O2"
_cell_formula_units_Z 64
_cell_length_a 8.614117
_cell_length_b 30.751794
_cell_length_c 12.025977
_cell_angle_alpha 90.000000
_cell_angle_beta 90.000000
_cell_angle_gamma 90.000000
_cell_volume 3185.675913
_symmetry_space_group_name_H-M "A M M 2"
_symmetry_group_IT_number 38
_symmetry_cell_setting 'orthorhombic'
loop_
_space_group_symop_operation_xyz
x,y,z
-x,-y,z
-x,y,z
x,-y,z
x,1/2+y,1/2+z
-x,1/2-y,1/2+z
-x,1/2+y,1/2+z
x,1/2-y,1/2+z
loop_
_atom_site_type_symbol
_atom_site_label
_atom_site_fract_x
_atom_site_fract_y
_atom_site_fract_z
Si Si1 0.677281 0.951258 0.437570
Si Si2 0.815585 0.548459 0.471058
Si Si3 0.182618 0.373658 0.070047
Si Si4 0.179605 0.800715 0.986764
Si Si5 0.183109 0.625305 0.317903
Si Si6 0.679031 0.334071 0.706707
Si Si7 0.818681 0.203654 0.414058
Si Si8 0.181495 0.426088 0.714046
O O1 0.500000 0.935693 0.444259
O O2 0.779598 0.918943 0.510845
O O3 0.730268 0.952101 0.309722
O O4 0.697187 0.000000 0.485323
O O5 0.763037 0.500000 0.434385
O O6 0.746272 0.583948 0.385253
O O7 0.752906 0.558280 0.594931
O O8 0.000000 0.552425 0.474014
O O9 0.256209 0.373054 0.194132
O O10 0.000000 0.368812 0.079916
O O11 0.246139 0.332697 0.999735
O O12 0.224394 0.829864 0.880149
O O13 0.214132 0.750757 0.963505
O O14 0.000000 0.808618 0.019422
O O15 0.289555 0.814066 0.086922
O O16 0.000000 0.619001 0.309395
O O17 0.500000 0.347662 0.715840
O O18 0.722921 0.298871 0.799995
O O19 0.788329 0.375160 0.728996
O O20 0.000000 0.196894 0.388729
O O21 0.000000 0.435768 0.725777
#
# Coordination Sequence:
#
# PCOD8180127 Si02
#       8
#     8   8   8   8   8   8   8   8
#     4  11  24  40  58  84 120 159 195 238 299 363
#     4   9  17  30  53  86 118 146 183 239 299 345
#     4  10  21  37  59  87 115 151 200 249 294 347
#     4  10  21  39  64  90 118 154 198 247 296 348
#     4   9  18  34  56  86 119 149 190 245 296 342
#     4  12  24  38  60  89 125 160 194 239 299 361
#     4  10  22  38  62  90 117 154 203 251 292 345
#     4  11  20  36  61  88 117 152 201 249 294 344
#
# _framework density 20.089929999999999
#
# number of rings (size 3 to 8) (size 9 to 14) (size 15 to 20)
#    0.000    1.750    2.500    2.250    1.750    2.500 
#    0.000    1.875    0.000    0.000    0.000    0.000 
#    0.000    0.000    0.000    0.000    0.000    0.000 
#
# Total GULP energy -396869.696341 kJ/mol
# GULP energy per Si atom -12402.178011 kJ/mol
# Density = 2.004420 g / cm^3
# Si number density = 20.089930 Si / 1000 Ang^3
#
#
#
# Elastic Constant Matrix: (Units=GPa)
#
#
# Indices 1 2 3 4 5 6 
#
# 1 19.1056 12.6398 12.2885 0.0000 0.0000 0.0000
# 2 12.6398 122.2657 41.7399 0.0000 0.0000 0.0000
# 3 12.2885 41.7399 132.1513 0.0000 0.0000 0.0000
# 4 0.0000 0.0000 0.0000 21.8245 0.0000 0.0000
# 5 0.0000 0.0000 0.0000 0.0000 12.5867 0.0000
# 6 0.0000 0.0000 0.0000 0.0000 0.0000 12.6788
#
#
#
# Elastic Compliance Matrix: (Units=1/GPa)
#
#
# Indices 1 2 3 4 5 6 
#
# 1 0.057939 -0.004652 -0.003918 0.000000 0.000000 0.000000
# 2 -0.004652 0.009541 -0.002581 0.000000 0.000000 0.000000
# 3 -0.003918 -0.002581 0.008747 0.000000 0.000000 0.000000
# 4 0.000000 0.000000 0.000000 0.045820 0.000000 0.000000
# 5 0.000000 0.000000 0.000000 0.000000 0.079449 0.000000
# 6 0.000000 0.000000 0.000000 0.000000 0.000000 0.078872
#
#
# Mechanical properties :
#
#
# Convention : Reuss Voigt Hill
#
# Bulk Modulus (GPa) = 18.54470 45.20656 31.87563
# Shear Modulus (GPa) = 15.59361 23.20828 19.40094
#
# Velocity S-wave (km/s) = 2.78904 3.40254 3.11095
# Velocity P-wave (km/s) = 4.42974 6.16338 5.36702
#
# Compressibility (1/GPa) = 0.05392376
#
# Stress axis : x y z
#
# Youngs Moduli (GPa) = 17.25963 104.81166 114.32985
#
# Poissons Ratio (x) = 0.48759 0.44798
# Poissons Ratio (y) = 0.08029 0.29508
# Poissons Ratio (z) = 0.06763 0.27051
#
# Static dielectric constant tensor:
#      x y z
#    x 3.251870 0.000000 0.000000 
#    y 0.000000 3.801600 0.000000 
#    z 0.000000 0.000000 3.879700 
# 
# 
# High freq. dielectric constant tensor:
#      x y z
#    x 1.746240 0.000000 0.000000 
#    y 0.000000 1.795190 0.000000 
#    z 0.000000 0.000000 1.790510 
# 
# From -- ./inp_files/8533.got.cif
#   From: 2010.03.12/outbox.cif.g09.slc.cpg/sg38_5_cif.got.tgz:8533.got - 2010.04.14 02:38:36.
