data_PCOD8180436
_publ_section_title
;
Structure prediction by ZEFSAII (Michael W. Deem and Ramdas Pophale) SiO2 
 PCOD8180436
Probable space group: A M M 2
;
_chemical_formula_sum "Si O2"
_cell_formula_units_Z 56
_cell_length_a 8.965493
_cell_length_b 29.899706
_cell_length_c 13.549505
_cell_angle_alpha 90.000000
_cell_angle_beta 90.000000
_cell_angle_gamma 90.000000
_cell_volume 3632.156253
_symmetry_space_group_name_H-M "A M M 2"
_symmetry_group_IT_number 38
_symmetry_cell_setting 'orthorhombic'
loop_
_space_group_symop_operation_xyz
x,y,z
-x,-y,z
-x,y,z
x,-y,z
x,1/2+y,1/2+z
-x,1/2-y,1/2+z
-x,1/2+y,1/2+z
x,1/2-y,1/2+z
loop_
_atom_site_type_symbol
_atom_site_label
_atom_site_fract_x
_atom_site_fract_y
_atom_site_fract_z
Si Si1 0.821432 0.595897 0.608930
Si Si2 0.163699 0.500000 0.603524
Si Si3 0.163691 0.000000 0.338213
Si Si4 0.174719 0.817717 0.996531
Si Si5 0.173916 0.314818 0.926763
Si Si6 0.829065 0.232362 0.624642
Si Si7 0.324338 0.767339 0.826882
Si Si8 0.177983 0.904533 0.330243
O O1 0.757117 0.547109 0.572684
O O2 0.764990 0.634652 0.535826
O O3 0.764447 0.606471 0.719743
O O4 0.000000 0.594343 0.609392
O O5 0.148100 0.500000 0.720796
O O6 0.000000 0.500000 0.554774
O O7 0.244486 0.047118 0.367881
O O8 0.000000 0.000000 0.387337
O O9 0.207949 0.780952 0.080181
O O10 0.000000 0.818631 0.971815
O O11 0.261345 0.806449 0.896571
O O12 0.261190 0.280780 0.857060
O O13 0.230069 0.365011 0.903150
O O14 0.000000 0.308704 0.900928
O O15 0.203604 0.305098 0.041609
O O16 0.721581 0.221767 0.715215
O O17 0.000000 0.230284 0.660347
O O18 0.500000 0.766554 0.836301
O O19 0.000000 0.908817 0.328716
#
# Coordination Sequence:
#
# PCOD8180436 Si02
#       8
#     8   4   4   8   8   8   8   8
#     4   8  12  19  35  59  86 111 131 156 192 236
#     4   7  10  16  28  54  88 111 126 150 191 237
#     4   7  10  16  30  56  88 111 124 150 193 237
#     4   9  17  29  45  62  80 107 140 168 197 238
#     4   9  17  29  45  62  81 108 140 168 196 238
#     4   9  17  29  43  58  78 106 140 172 200 236
#     4  11  21  30  41  58  82 108 135 172 210 241
#     4   8  12  20  36  60  87 110 131 156 192 237
#
# _framework density 15.417839000000001
#
# number of rings (size 3 to 8) (size 9 to 14) (size 15 to 20)
#    0.000    3.286    0.000    4.714    0.000    4.571 
#    0.000    0.000    0.000    0.000    0.000    2.000 
#    0.000    9.143    0.000    0.000    0.000    0.000 
#
# Total GULP energy -346895.106157 kJ/mol
# GULP energy per Si atom -12389.110934 kJ/mol
# Density = 1.538275 g / cm^3
# Si number density = 15.417839 Si / 1000 Ang^3
#
#
#
# Elastic Constant Matrix: (Units=GPa)
#
#
# Indices 1 2 3 4 5 6 
#
# 1 40.9395 27.5776 32.1012 0.0000 0.0000 0.0000
# 2 27.5776 165.7237 63.9700 0.0000 0.0000 0.0000
# 3 32.1012 63.9700 83.9028 0.0000 0.0000 0.0000
# 4 0.0000 0.0000 0.0000 24.4810 0.0000 0.0000
# 5 0.0000 0.0000 0.0000 0.0000 4.8982 0.0000
# 6 0.0000 0.0000 0.0000 0.0000 0.0000 3.9765
#
#
#
# Elastic Compliance Matrix: (Units=1/GPa)
#
#
# Indices 1 2 3 4 5 6 
#
# 1 0.034995 -0.000928 -0.012681 0.000000 0.000000 0.000000
# 2 -0.000928 0.008575 -0.006183 0.000000 0.000000 0.000000
# 3 -0.012681 -0.006183 0.021484 0.000000 0.000000 0.000000
# 4 0.000000 0.000000 0.000000 0.040848 0.000000 0.000000
# 5 0.000000 0.000000 0.000000 0.000000 0.204158 0.000000
# 6 0.000000 0.000000 0.000000 0.000000 0.000000 0.251477
#
#
# Mechanical properties :
#
#
# Convention : Reuss Voigt Hill
#
# Bulk Modulus (GPa) = 39.26221 59.76263 49.51242
# Shear Modulus (GPa) = 8.20192 17.79896 13.00044
#
# Velocity S-wave (km/s) = 2.30896 3.40139 2.90695
# Velocity P-wave (km/s) = 5.71219 7.36696 6.59171
#
# Compressibility (1/GPa) = 0.02546978
#
# Stress axis : x y z
#
# Youngs Moduli (GPa) = 28.57526 116.61520 46.54546
#
# Poissons Ratio (x) = 0.10827 0.59026
# Poissons Ratio (y) = 0.02653 0.28778
# Poissons Ratio (z) = 0.36237 0.72101
#
# Static dielectric constant tensor:
#      x y z
#    x 2.521180 0.000000 0.000000 
#    y 0.000000 3.456650 0.000000 
#    z 0.000000 0.000000 2.747880 
# 
# 
# High freq. dielectric constant tensor:
#      x y z
#    x 1.545250 0.000000 0.000000 
#    y 0.000000 1.600510 0.000000 
#    z 0.000000 0.000000 1.560340 
# 
# From -- ./inp_files/13026.got.cif
#   From: 2010.03.12/outbox.cif.g09.slc.cpg/sg38_7_cif.got.tgz:13026.got - 2010.04.14 02:38:36.
