data_PCOD8180929
_publ_section_title
;
Structure prediction by ZEFSAII (Michael W. Deem and Ramdas Pophale) SiO2 
 PCOD8180929
Probable space group: A B M 2
;
_chemical_formula_sum "Si O2"
_cell_formula_units_Z 48
_cell_length_a 15.525962
_cell_length_b 9.042254
_cell_length_c 18.905710
_cell_angle_alpha 90.000000
_cell_angle_beta 90.000000
_cell_angle_gamma 90.000000
_cell_volume 2654.166804
_symmetry_space_group_name_H-M "A B M 2"
_symmetry_group_IT_number 39
_symmetry_cell_setting 'orthorhombic'
loop_
_space_group_symop_operation_xyz
x,y,z
-x,-y,z
-x,1/2+y,z
x,1/2-y,z
x,1/2+y,1/2+z
-x,1/2-y,1/2+z
-x,y,1/2+z
x,-y,1/2+z
loop_
_atom_site_type_symbol
_atom_site_label
_atom_site_fract_x
_atom_site_fract_y
_atom_site_fract_z
Si Si1 0.584455 0.582228 0.821250
Si Si2 0.757647 0.422954 0.822964
Si Si3 0.246778 0.578518 0.988300
Si Si4 0.086464 0.922106 0.078083
Si Si5 0.911711 0.423928 0.241693
Si Si6 0.583114 0.084274 0.489656
O O1 0.500000 0.500000 0.790673
O O2 0.587753 0.750000 0.792080
O O3 0.668377 0.493160 0.795436
O O4 0.580497 0.582779 0.905404
O O5 0.758091 0.250000 0.804237
O O6 0.769514 0.450919 0.906023
O O7 0.834828 0.505430 0.785063
O O8 0.262470 0.750000 0.003953
O O9 0.330573 0.494132 0.016877
O O10 0.165388 0.516649 0.031628
O O11 0.073300 0.750000 0.064825
O O12 0.105354 0.958359 0.159603
O O13 0.000000 0.000000 0.051309
O O14 0.917329 0.250000 0.257100
O O15 0.000000 0.500000 0.266885
O O16 0.581611 0.250000 0.519442
O O17 0.500000 0.000000 0.520451
#
# Coordination Sequence:
#
# PCOD8180929 Si02
#       6
#     8   8   8   8   8   8
#     4   9  16  27  44  68  98 130 163 197 236 283
#     4  10  19  31  49  74 102 129 159 198 242 286
#     4   9  18  32  49  72 100 127 158 198 241 282
#     4   9  19  35  53  71  93 125 162 199 239 285
#     4  10  20  35  53  71  94 126 163 200 240 289
#     4   9  16  26  43  68  97 129 161 194 234 281
#
# _framework density 18.084769999999999
#
# number of rings (size 3 to 8) (size 9 to 14) (size 15 to 20)
#    0.000    2.667    0.000    2.000    0.000    6.667 
#    0.000    1.667    0.000    1.000    0.000    4.667 
#    0.000    0.000    0.000    0.000    0.000    0.000 
#
# Total GULP energy -297627.249129 kJ/mol
# GULP energy per Si atom -12401.135380 kJ/mol
# Density = 1.804361 g / cm^3
# Si number density = 18.084770 Si / 1000 Ang^3
#
#
#
# Elastic Constant Matrix: (Units=GPa)
#
#
# Indices 1 2 3 4 5 6 
#
# 1 208.6782 97.5271 53.8635 0.0000 0.0000 0.0000
# 2 97.5271 126.2790 35.7105 0.0000 0.0000 0.0000
# 3 53.8635 35.7105 31.5535 0.0000 0.0000 0.0000
# 4 0.0000 0.0000 0.0000 15.6371 0.0000 0.0000
# 5 0.0000 0.0000 0.0000 0.0000 -6.5707 0.0000
# 6 0.0000 0.0000 0.0000 0.0000 0.0000 43.8338
#
#
#
# Elastic Compliance Matrix: (Units=1/GPa)
#
#
# Indices 1 2 3 4 5 6 
#
# 1 0.009886 -0.004210 -0.012111 0.000000 0.000000 0.000000
# 2 -0.004210 0.013439 -0.008023 0.000000 0.000000 0.000000
# 3 -0.012111 -0.008023 0.061446 0.000000 0.000000 0.000000
# 4 0.000000 0.000000 0.000000 0.063951 0.000000 0.000000
# 5 0.000000 0.000000 0.000000 0.000000 -0.152191 0.000000
# 6 0.000000 0.000000 0.000000 0.000000 0.000000 0.022813
#
#
# Mechanical properties :
#
#
# Convention : Reuss Voigt Hill
#
# Bulk Modulus (GPa) = 27.71377 82.30145 55.00761
# Shear Modulus (GPa) = 62.45393 22.54067 42.49730
#
# Velocity S-wave (km/s) = 5.88294 3.53425 4.85283
# Velocity P-wave (km/s) = 7.84238 7.89063 7.86654
#
# Compressibility (1/GPa) = 0.03608315
#
# Stress axis : x y z
#
# Youngs Moduli (GPa) = 101.15713 74.40859 16.27456
#
# Poissons Ratio (x) = 0.31326 0.19709
# Poissons Ratio (y) = 0.42588 0.13057
# Poissons Ratio (z) = 1.22507 0.59698
#
# Static dielectric constant tensor:
#      x y z
#    x 3.601380 0.000000 0.000000 
#    y 0.000000 3.491230 0.000000 
#    z 0.000000 0.000000 2.973920 
# 
# 
# High freq. dielectric constant tensor:
#      x y z
#    x 1.717820 0.000000 0.000000 
#    y 0.000000 1.712380 0.000000 
#    z 0.000000 0.000000 1.652490 
# 
# From -- ./inp_files/12642.got.cif
#   From: 2010.03.12/outbox.cif.g09.slc.cpg/sg39_7_cif.got.tgz:12642.got - 2010.04.14 02:53:20.
