data_PCOD8180502
_publ_section_title
;
Structure prediction by ZEFSAII (Michael W. Deem and Ramdas Pophale) SiO2 
 PCOD8180502
Probable space group: A M M 2
;
_chemical_formula_sum "Si O2"
_cell_formula_units_Z 48
_cell_length_a 8.510366
_cell_length_b 18.206482
_cell_length_c 14.851858
_cell_angle_alpha 90.000000
_cell_angle_beta 90.000000
_cell_angle_gamma 90.000000
_cell_volume 2301.203693
_symmetry_space_group_name_H-M "A M M 2"
_symmetry_group_IT_number 38
_symmetry_cell_setting 'orthorhombic'
loop_
_space_group_symop_operation_xyz
x,y,z
-x,-y,z
-x,y,z
x,-y,z
x,1/2+y,1/2+z
-x,1/2-y,1/2+z
-x,1/2+y,1/2+z
x,1/2-y,1/2+z
loop_
_atom_site_type_symbol
_atom_site_label
_atom_site_fract_x
_atom_site_fract_y
_atom_site_fract_z
Si Si1 0.820191 0.419928 0.931770
Si Si2 0.683781 0.723486 0.852264
Si Si3 0.822668 0.500000 0.440281
Si Si4 0.681365 0.380484 0.111402
Si Si5 0.176792 0.000000 0.728345
Si Si6 0.818609 0.234338 0.158636
Si Si7 0.314659 0.345651 0.495987
O O1 0.801243 0.500000 0.883407
O O2 0.767396 0.354461 0.867188
O O3 0.000000 0.407147 0.960162
O O4 0.712156 0.424676 0.020274
O O5 0.500000 0.713120 0.867552
O O6 0.718804 0.743747 0.749563
O O7 0.746116 0.787517 0.919877
O O8 0.827453 0.500000 0.333998
O O9 0.731514 0.572015 0.471473
O O10 0.000000 0.500000 0.479052
O O11 0.500000 0.358060 0.119772
O O12 0.729834 0.428084 0.197414
O O13 0.788807 0.308566 0.103376
O O14 0.000000 0.000000 0.688073
O O15 0.000000 0.223207 0.183285
O O16 0.761896 0.169105 0.093618
O O17 0.500000 0.339342 0.505104
#
# Coordination Sequence:
#
# PCOD8180502 Si02
#       7
#     8   8   4   8   4   8   8
#     4  11  23  40  64  94 132 171 213 263 322 385
#     4  11  24  43  69  98 131 170 220 271 326 388
#     4  11  25  43  65  94 129 170 217 267 327 388
#     4  12  23  37  61  93 130 168 213 263 323 387
#     4  11  23  39  61  94 131 168 213 265 327 392
#     4  12  25  42  67  95 129 171 220 270 324 389
#     4  11  24  44  69  96 131 171 217 271 327 387
#
# _framework density 20.858649
#
# number of rings (size 3 to 8) (size 9 to 14) (size 15 to 20)
#    0.000    0.667    2.500    6.000    0.000    7.000 
#    1.500    0.000    0.000    0.000    0.000    0.000 
#    0.000    0.000    0.000    0.000    0.000    0.000 
#
# Total GULP energy -297674.195542 kJ/mol
# GULP energy per Si atom -12403.091481 kJ/mol
# Density = 2.081117 g / cm^3
# Si number density = 20.858649 Si / 1000 Ang^3
#
#
#
# Elastic Constant Matrix: (Units=GPa)
#
#
# Indices 1 2 3 4 5 6 
#
# 1 95.1937 35.3495 23.8849 0.0000 0.0000 0.0000
# 2 35.3495 142.0778 30.6287 0.0000 0.0000 0.0000
# 3 23.8849 30.6287 82.0008 0.0000 0.0000 0.0000
# 4 0.0000 0.0000 0.0000 23.7486 0.0000 0.0000
# 5 0.0000 0.0000 0.0000 0.0000 33.6986 0.0000
# 6 0.0000 0.0000 0.0000 0.0000 0.0000 34.8681
#
#
#
# Elastic Compliance Matrix: (Units=1/GPa)
#
#
# Indices 1 2 3 4 5 6 
#
# 1 0.012064 -0.002441 -0.002602 0.000000 0.000000 0.000000
# 2 -0.002441 0.008149 -0.002333 0.000000 0.000000 0.000000
# 3 -0.002602 -0.002333 0.013824 0.000000 0.000000 0.000000
# 4 0.000000 0.000000 0.000000 0.042108 0.000000 0.000000
# 5 0.000000 0.000000 0.000000 0.000000 0.029675 0.000000
# 6 0.000000 0.000000 0.000000 0.000000 0.000000 0.028679
#
#
# Mechanical properties :
#
#
# Convention : Reuss Voigt Hill
#
# Bulk Modulus (GPa) = 51.85223 55.44427 53.64825
# Shear Modulus (GPa) = 32.11735 33.75699 32.93717
#
# Velocity S-wave (km/s) = 3.92824 4.02726 3.97806
# Velocity P-wave (km/s) = 6.74445 6.94721 6.84658
#
# Compressibility (1/GPa) = 0.01928557
#
# Stress axis : x y z
#
# Youngs Moduli (GPa) = 82.89020 122.72185 72.33623
#
# Poissons Ratio (x) = 0.29951 0.18825
# Poissons Ratio (y) = 0.20230 0.16874
# Poissons Ratio (z) = 0.21571 0.28628
#
# Static dielectric constant tensor:
#      x y z
#    x 3.850890 0.000000 0.000000 
#    y 0.000000 3.932310 0.000000 
#    z 0.000000 0.000000 3.617180 
# 
# 
# High freq. dielectric constant tensor:
#      x y z
#    x 1.827560 0.000000 0.000000 
#    y 0.000000 1.827370 0.000000 
#    z 0.000000 0.000000 1.807170 
# 
# From -- ./inp_files/12129.got.cif
#   From: 2010.03.12/outbox.cif.g09.slc.cpg/sg38_7_cif.got.tgz:12129.got - 2010.04.14 02:38:36.
