data_PCOD8180860
_publ_section_title
;
Structure prediction by ZEFSAII (Michael W. Deem and Ramdas Pophale) SiO2 
 PCOD8180860
Probable space group: A B M 2
;
_chemical_formula_sum "Si O2"
_cell_formula_units_Z 32
_cell_length_a 9.732126
_cell_length_b 10.319215
_cell_length_c 16.143408
_cell_angle_alpha 90.000000
_cell_angle_beta 90.000000
_cell_angle_gamma 90.000000
_cell_volume 1621.248574
_symmetry_space_group_name_H-M "A B M 2"
_symmetry_group_IT_number 39
_symmetry_cell_setting 'orthorhombic'
loop_
_space_group_symop_operation_xyz
x,y,z
-x,-y,z
-x,1/2+y,z
x,1/2-y,z
x,1/2+y,1/2+z
-x,1/2-y,1/2+z
-x,y,1/2+z
x,-y,1/2+z
loop_
_atom_site_type_symbol
_atom_site_label
_atom_site_fract_x
_atom_site_fract_y
_atom_site_fract_z
Si Si1 0.000000 0.000000 0.034240
Si Si2 0.500000 0.000000 0.002622
Si Si3 0.099231 0.250000 0.821006
Si Si4 0.922479 0.750000 0.634267
Si Si5 0.189784 0.750000 0.891861
Si Si6 0.351008 0.250000 0.559910
Si Si7 0.760055 0.522427 0.902435
O O1 0.011577 0.875743 0.092751
O O2 0.866463 0.988891 0.977543
O O3 0.443661 0.880648 0.058499
O O4 0.615214 0.939583 0.942544
O O5 0.032845 0.250000 0.730497
O O6 0.194833 0.374457 0.834527
O O7 0.976108 0.250000 0.888368
O O8 0.753786 0.750000 0.637406
O O9 0.248455 0.616326 0.853210
O O10 0.239065 0.750000 0.986686
#
# Coordination Sequence:
#
# PCOD8180860 Si02
#       7
#     4   4   4   4   4   4   8
#     4  12  20  42  64  88 118 164 204 256 294 356
#     4  10  20  36  68  86 118 158 216 242 298 350
#     4  12  23  36  59  94 124 159 190 253 314 356
#     4  12  26  37  59  96 133 148 202 262 311 355
#     4  10  18  36  59  85 117 153 195 256 283 346
#     4  10  19  41  57  95 118 158 205 261 280 369
#     4  11  20  38  65  89 113 162 208 244 291 364
#
# _framework density 19.737873
#
# number of rings (size 3 to 8) (size 9 to 14) (size 15 to 20)
#    0.000    1.000    7.500    1.500    3.500    0.000 
#    0.000    1.250    0.000    6.000    0.000    0.000 
#    0.000    0.000    0.000    0.000    0.000    0.000 
#
# Total GULP energy -198310.813634 kJ/mol
# GULP energy per Si atom -12394.425852 kJ/mol
# Density = 1.969295 g / cm^3
# Si number density = 19.737873 Si / 1000 Ang^3
#
#
#
# Elastic Constant Matrix: (Units=GPa)
#
#
# Indices 1 2 3 4 5 6 
#
# 1 99.5597 22.7232 15.6114 0.0000 0.0000 0.0000
# 2 22.7232 175.8010 37.0628 0.0000 0.0000 0.0000
# 3 15.6114 37.0628 65.2102 0.0000 0.0000 0.0000
# 4 0.0000 0.0000 0.0000 8.6392 0.0000 0.0000
# 5 0.0000 0.0000 0.0000 0.0000 15.0176 0.0000
# 6 0.0000 0.0000 0.0000 0.0000 0.0000 30.3262
#
#
#
# Elastic Compliance Matrix: (Units=1/GPa)
#
#
# Indices 1 2 3 4 5 6 
#
# 1 0.010573 -0.000946 -0.001993 0.000000 0.000000 0.000000
# 2 -0.000946 0.006547 -0.003495 0.000000 0.000000 0.000000
# 3 -0.001993 -0.003495 0.017798 0.000000 0.000000 0.000000
# 4 0.000000 0.000000 0.000000 0.115751 0.000000 0.000000
# 5 0.000000 0.000000 0.000000 0.000000 0.066589 0.000000
# 6 0.000000 0.000000 0.000000 0.000000 0.000000 0.032975
#
#
# Mechanical properties :
#
#
# Convention : Reuss Voigt Hill
#
# Bulk Modulus (GPa) = 45.35160 54.59619 49.97390
# Shear Modulus (GPa) = 18.48759 28.47483 23.48121
#
# Velocity S-wave (km/s) = 3.06380 3.80234 3.45288
# Velocity P-wave (km/s) = 5.96177 6.85549 6.42419
#
# Compressibility (1/GPa) = 0.02204994
#
# Stress axis : x y z
#
# Youngs Moduli (GPa) = 94.58260 152.73407 56.18473
#
# Poissons Ratio (x) = 0.14454 0.11199
# Poissons Ratio (y) = 0.08951 0.19635
# Poissons Ratio (z) = 0.18853 0.53376
#
# Static dielectric constant tensor:
#      x y z
#    x 3.747590 0.000000 0.000000 
#    y 0.000000 4.398720 0.000000 
#    z 0.000000 0.000000 3.130210 
# 
# 
# High freq. dielectric constant tensor:
#      x y z
#    x 1.770150 0.000000 0.000000 
#    y 0.000000 1.801020 0.000000 
#    z 0.000000 0.000000 1.718360 
# 
# From -- ./inp_files/7882.got.cif
#   From: 2010.03.12/outbox.cif.g09.slc.cpg/sg39_4_cif.got.tgz:7882.got - 2010.04.14 02:53:20.
