data_PCOD8180453
_publ_section_title
;
Structure prediction by ZEFSAII (Michael W. Deem and Ramdas Pophale) SiO2 
 PCOD8180453
Probable space group: A M M 2
;
_chemical_formula_sum "Si O2"
_cell_formula_units_Z 48
_cell_length_a 9.038592
_cell_length_b 13.624741
_cell_length_c 18.921848
_cell_angle_alpha 90.000000
_cell_angle_beta 90.000000
_cell_angle_gamma 90.000000
_cell_volume 2330.196725
_symmetry_space_group_name_H-M "A M M 2"
_symmetry_group_IT_number 38
_symmetry_cell_setting 'orthorhombic'
loop_
_space_group_symop_operation_xyz
x,y,z
-x,-y,z
-x,y,z
x,-y,z
x,1/2+y,1/2+z
-x,1/2-y,1/2+z
-x,1/2+y,1/2+z
x,1/2-y,1/2+z
loop_
_atom_site_type_symbol
_atom_site_label
_atom_site_fract_x
_atom_site_fract_y
_atom_site_fract_z
Si Si1 0.828064 0.610711 0.612970
Si Si2 0.329480 0.733347 0.495638
Si Si3 0.160104 0.608003 0.397796
Si Si4 0.325055 0.302667 0.740057
Si Si5 0.324859 0.109928 0.387749
Si Si6 0.832810 0.607491 0.231840
O O1 0.800709 0.500000 0.583750
O O2 0.769724 0.695246 0.559985
O O3 0.743883 0.617440 0.687484
O O4 0.000000 0.630790 0.625542
O O5 0.500000 0.729779 0.518860
O O6 0.301405 0.663878 0.428373
O O7 0.283550 0.840182 0.463591
O O8 0.162678 0.500000 0.431159
O O9 0.174460 0.601144 0.315114
O O10 0.000000 0.656499 0.418674
O O11 0.500000 0.308213 0.735848
O O12 0.266166 0.327901 0.819517
O O13 0.274527 0.196024 0.710042
O O14 0.500000 0.105178 0.380774
O O15 0.257241 0.000000 0.386834
O O16 0.782188 0.500000 0.201499
O O17 0.000000 0.630097 0.206136
#
# Coordination Sequence:
#
# PCOD8180453 Si02
#       6
#     8   8   8   8   8   8
#     4  11  25  43  61  84 118 160 201 243 299 366
#     4  11  21  35  57  86 115 149 194 245 299 352
#     4   9  17  30  50  77 112 151 185 225 281 340
#     4  11  21  37  62  91 122 156 197 248 303 357
#     4   9  19  36  58  86 119 152 189 239 299 358
#     4   9  18  33  54  82 118 158 196 236 287 347
#
# _framework density 20.599119999999999
#
# number of rings (size 3 to 8) (size 9 to 14) (size 15 to 20)
#    0.000    2.000    1.667    3.500    0.000    4.667 
#    0.000    2.500    0.000    8.000    0.000    0.000 
#    0.000    0.000    0.000    0.000    0.000    0.000 
#
# Total GULP energy -297341.960888 kJ/mol
# GULP energy per Si atom -12389.248370 kJ/mol
# Density = 2.055224 g / cm^3
# Si number density = 20.599120 Si / 1000 Ang^3
#
#
#
# Elastic Constant Matrix: (Units=GPa)
#
#
# Indices 1 2 3 4 5 6 
#
# 1 79.6929 40.0438 29.5670 0.0000 0.0000 0.0000
# 2 40.0438 120.6835 31.3116 0.0000 0.0000 0.0000
# 3 29.5670 31.3116 72.6352 0.0000 0.0000 0.0000
# 4 0.0000 0.0000 0.0000 23.1736 0.0000 0.0000
# 5 0.0000 0.0000 0.0000 0.0000 30.6397 0.0000
# 6 0.0000 0.0000 0.0000 0.0000 0.0000 30.7826
#
#
#
# Elastic Compliance Matrix: (Units=1/GPa)
#
#
# Indices 1 2 3 4 5 6 
#
# 1 0.016473 -0.004195 -0.004897 0.000000 0.000000 0.000000
# 2 -0.004195 0.010398 -0.002775 0.000000 0.000000 0.000000
# 3 -0.004897 -0.002775 0.016957 0.000000 0.000000 0.000000
# 4 0.000000 0.000000 0.000000 0.043153 0.000000 0.000000
# 5 0.000000 0.000000 0.000000 0.000000 0.032637 0.000000
# 6 0.000000 0.000000 0.000000 0.000000 0.000000 0.032486
#
#
# Mechanical properties :
#
#
# Convention : Reuss Voigt Hill
#
# Bulk Modulus (GPa) = 49.76600 52.76181 51.26390
# Shear Modulus (GPa) = 27.39186 28.39178 27.89182
#
# Velocity S-wave (km/s) = 3.65054 3.71658 3.68371
# Velocity P-wave (km/s) = 6.47922 6.63976 6.55998
#
# Compressibility (1/GPa) = 0.02009404
#
# Stress axis : x y z
#
# Youngs Moduli (GPa) = 60.70508 96.17156 58.97301
#
# Poissons Ratio (x) = 0.40348 0.28879
# Poissons Ratio (y) = 0.25468 0.16363
# Poissons Ratio (z) = 0.29727 0.26684
#
# Static dielectric constant tensor:
#      x y z
#    x 3.617000 0.000000 0.000000 
#    y 0.000000 4.284920 0.000000 
#    z 0.000000 0.000000 3.592630 
# 
# 
# High freq. dielectric constant tensor:
#      x y z
#    x 1.786850 0.000000 0.000000 
#    y 0.000000 1.810100 0.000000 
#    z 0.000000 0.000000 1.788540 
# 
# From -- ./inp_files/16648.got.cif
#   From: 2010.03.12/outbox.cif.g09.slc.cpg/sg38_9_cif.got.tgz:16648.got - 2010.04.14 02:38:36.
