data_PCOD8180485
_publ_section_title
;
Structure prediction by ZEFSAII (Michael W. Deem and Ramdas Pophale) SiO2 
 PCOD8180485
Probable space group: A M M 2
;
_chemical_formula_sum "Si O2"
_cell_formula_units_Z 56
_cell_length_a 12.750932
_cell_length_b 21.410820
_cell_length_c 9.710433
_cell_angle_alpha 90.000000
_cell_angle_beta 90.000000
_cell_angle_gamma 90.000000
_cell_volume 2651.025017
_symmetry_space_group_name_H-M "A M M 2"
_symmetry_group_IT_number 38
_symmetry_cell_setting 'orthorhombic'
loop_
_space_group_symop_operation_xyz
x,y,z
-x,-y,z
-x,y,z
x,-y,z
x,1/2+y,1/2+z
-x,1/2-y,1/2+z
-x,1/2+y,1/2+z
x,1/2-y,1/2+z
loop_
_atom_site_type_symbol
_atom_site_label
_atom_site_fract_x
_atom_site_fract_y
_atom_site_fract_z
Si Si1 0.707294 0.070537 0.799110
Si Si2 0.119269 0.429071 0.519636
Si Si3 0.878434 0.306196 0.685737
Si Si4 0.622966 0.430890 0.755749
Si Si5 0.615606 0.146402 0.003961
Si Si6 0.241116 0.743417 0.952238
Si Si7 0.376257 0.366989 0.039321
O O1 0.814760 0.084953 0.881735
O O2 0.610641 0.087189 0.901206
O O3 0.698114 0.109890 0.660867
O O4 0.697946 0.000000 0.752250
O O5 0.141703 0.500000 0.574433
O O6 0.142674 0.378415 0.640381
O O7 0.000000 0.421809 0.471295
O O8 0.809100 0.288297 0.818444
O O9 0.849025 0.257797 0.563989
O O10 0.000000 0.296338 0.722676
O O11 0.500000 0.433624 0.728337
O O12 0.671588 0.500000 0.728683
O O13 0.665846 0.378613 0.648216
O O14 0.647415 0.411512 0.910571
O O15 0.500000 0.175654 0.024441
O O16 0.695806 0.192521 0.925871
O O17 0.335873 0.701953 0.009989
O O18 0.500000 0.365924 0.076689
#
# Coordination Sequence:
#
# PCOD8180485 Si02
#       7
#     8   8   8   8   8   8   8
#     4  11  22  38  62  93 125 163 210 262 315 378
#     4   9  20  42  70  96 122 158 208 269 332 383
#     4  11  24  44  70  96 125 160 206 267 327 381
#     4   9  19  37  60  86 117 161 216 265 309 354
#     4  11  22  38  61  89 123 169 216 264 305 364
#     4  12  24  42  62  93 127 168 216 254 308 384
#     4  11  24  40  59  88 132 179 211 255 313 372
#
# _framework density 21.123904
#
# number of rings (size 3 to 8) (size 9 to 14) (size 15 to 20)
#    0.000    1.429    1.429    3.857    0.000    2.286 
#    0.000    5.714    0.000    0.000    0.000    0.000 
#    0.000    0.000    0.000    0.000    0.000    0.000 
#
# Total GULP energy -346979.418157 kJ/mol
# GULP energy per Si atom -12392.122077 kJ/mol
# Density = 2.107583 g / cm^3
# Si number density = 21.123904 Si / 1000 Ang^3
#
#
#
# Elastic Constant Matrix: (Units=GPa)
#
#
# Indices 1 2 3 4 5 6 
#
# 1 114.9435 58.2978 52.7464 0.0000 0.0000 0.0000
# 2 58.2978 118.7547 60.0969 0.0000 0.0000 0.0000
# 3 52.7464 60.0969 139.4503 0.0000 0.0000 0.0000
# 4 0.0000 0.0000 0.0000 26.8783 0.0000 0.0000
# 5 0.0000 0.0000 0.0000 0.0000 34.9260 0.0000
# 6 0.0000 0.0000 0.0000 0.0000 0.0000 19.0254
#
#
#
# Elastic Compliance Matrix: (Units=1/GPa)
#
#
# Indices 1 2 3 4 5 6 
#
# 1 0.012290 -0.004707 -0.002620 0.000000 0.000000 0.000000
# 2 -0.004707 0.012572 -0.003638 0.000000 0.000000 0.000000
# 3 -0.002620 -0.003638 0.009730 0.000000 0.000000 0.000000
# 4 0.000000 0.000000 0.000000 0.037205 0.000000 0.000000
# 5 0.000000 0.000000 0.000000 0.000000 0.028632 0.000000
# 6 0.000000 0.000000 0.000000 0.000000 0.000000 0.052561
#
#
# Mechanical properties :
#
#
# Convention : Reuss Voigt Hill
#
# Bulk Modulus (GPa) = 78.97590 79.49230 79.23410
# Shear Modulus (GPa) = 27.91114 29.63311 28.77213
#
# Velocity S-wave (km/s) = 3.63892 3.74949 3.69462
# Velocity P-wave (km/s) = 7.42454 7.51386 7.46933
#
# Compressibility (1/GPa) = 0.01266209
#
# Stress axis : x y z
#
# Youngs Moduli (GPa) = 81.36940 79.53908 102.77887
#
# Poissons Ratio (x) = 0.37441 0.26927
# Poissons Ratio (y) = 0.38303 0.37387
# Poissons Ratio (z) = 0.21318 0.28934
#
# Static dielectric constant tensor:
#      x y z
#    x 3.910240 0.000000 0.000000 
#    y 0.000000 4.002320 0.000000 
#    z 0.000000 0.000000 3.722810 
# 
# 
# High freq. dielectric constant tensor:
#      x y z
#    x 1.832420 0.000000 0.000000 
#    y 0.000000 1.839170 0.000000 
#    z 0.000000 0.000000 1.819650 
# 
# From -- ./inp_files/5708.got.cif
#   From: 2010.03.12/outbox.cif.g09.slc.cpg/sg38_3_cif.got.tgz:5708.got - 2010.04.14 02:38:36.
