data_PCOD8180482
_publ_section_title
;
Structure prediction by ZEFSAII (Michael W. Deem and Ramdas Pophale) SiO2 
 PCOD8180482
Probable space group: A M M 2
;
_chemical_formula_sum "Si O2"
_cell_formula_units_Z 48
_cell_length_a 13.980317
_cell_length_b 11.907332
_cell_length_c 15.266714
_cell_angle_alpha 90.000000
_cell_angle_beta 90.000000
_cell_angle_gamma 90.000000
_cell_volume 2541.423560
_symmetry_space_group_name_H-M "A M M 2"
_symmetry_group_IT_number 38
_symmetry_cell_setting 'orthorhombic'
loop_
_space_group_symop_operation_xyz
x,y,z
-x,-y,z
-x,y,z
x,-y,z
x,1/2+y,1/2+z
-x,1/2-y,1/2+z
-x,1/2+y,1/2+z
x,1/2-y,1/2+z
loop_
_atom_site_type_symbol
_atom_site_label
_atom_site_fract_x
_atom_site_fract_y
_atom_site_fract_z
Si Si1 0.891909 0.631693 0.084000
Si Si2 0.612763 0.000000 0.497033
Si Si3 0.612860 0.224914 0.212920
Si Si4 0.896811 0.367410 0.283335
Si Si5 0.700766 0.365977 0.362239
Si Si6 0.387172 0.000000 0.304835
Si Si7 0.297183 0.227749 0.534034
O O1 0.868860 0.500000 0.072840
O O2 0.878057 0.671466 0.184064
O O3 0.816881 0.705090 0.027839
O O4 0.000000 0.657642 0.052138
O O5 0.647698 0.889213 0.544920
O O6 0.500000 0.000000 0.496812
O O7 0.658882 0.000000 0.400688
O O8 0.500000 0.228922 0.193066
O O9 0.638341 0.328022 0.278242
O O10 0.648200 0.111473 0.258297
O O11 0.672648 0.214086 0.123941
O O12 0.902586 0.500000 0.282267
O O13 0.810759 0.329130 0.345793
O O14 0.000000 0.319145 0.316250
O O15 0.688229 0.500000 0.374142
O O16 0.668370 0.302500 0.451191
O O17 0.500000 0.000000 0.312802
#
# Coordination Sequence:
#
# PCOD8180482 Si02
#       7
#     8   4   8   8   8   4   8
#     4   9  17  32  57  88 116 147 195 248 291 341
#     4  11  22  38  59  84 112 149 203 246 281 343
#     4  11  24  41  61  84 115 157 197 241 295 349
#     4   8  15  32  56  80 111 150 189 232 283 343
#     4  11  24  39  58  90 122 152 196 243 293 351
#     4   9  20  42  62  78 110 155 198 236 290 353
#     4  12  23  37  61  89 119 155 194 244 297 350
#
# _framework density 18.887053000000002
#
# number of rings (size 3 to 8) (size 9 to 14) (size 15 to 20)
#    0.000    1.833    4.167    1.500    2.333    1.667 
#    0.000    0.000    0.000    0.000    0.000    1.167 
#    0.000    0.000    0.000    0.000    0.000    0.000 
#
# Total GULP energy -297463.035319 kJ/mol
# GULP energy per Si atom -12394.293138 kJ/mol
# Density = 1.884406 g / cm^3
# Si number density = 18.887053 Si / 1000 Ang^3
#
#
#
# Elastic Constant Matrix: (Units=GPa)
#
#
# Indices 1 2 3 4 5 6 
#
# 1 83.4874 13.6865 11.8462 0.0000 0.0000 0.0000
# 2 13.6865 61.1869 5.8639 0.0000 0.0000 0.0000
# 3 11.8462 5.8639 67.7501 0.0000 0.0000 0.0000
# 4 0.0000 0.0000 0.0000 11.3321 0.0000 0.0000
# 5 0.0000 0.0000 0.0000 0.0000 2.3715 0.0000
# 6 0.0000 0.0000 0.0000 0.0000 0.0000 20.3942
#
#
#
# Elastic Compliance Matrix: (Units=1/GPa)
#
#
# Indices 1 2 3 4 5 6 
#
# 1 0.012695 -0.002649 -0.001990 0.000000 0.000000 0.000000
# 2 -0.002649 0.017033 -0.001011 0.000000 0.000000 0.000000
# 3 -0.001990 -0.001011 0.015196 0.000000 0.000000 0.000000
# 4 0.000000 0.000000 0.000000 0.088245 0.000000 0.000000
# 5 0.000000 0.000000 0.000000 0.000000 0.421679 0.000000
# 6 0.000000 0.000000 0.000000 0.000000 0.000000 0.049034
#
#
# Mechanical properties :
#
#
# Convention : Reuss Voigt Hill
#
# Bulk Modulus (GPa) = 29.74207 30.57972 30.16089
# Shear Modulus (GPa) = 7.98226 18.88807 13.43517
#
# Velocity S-wave (km/s) = 2.05803 3.16579 2.66999
# Velocity P-wave (km/s) = 4.62913 5.43958 5.05063
#
# Compressibility (1/GPa) = 0.03362241
#
# Stress axis : x y z
#
# Youngs Moduli (GPa) = 78.77424 58.71042 65.80822
#
# Poissons Ratio (x) = 0.15551 0.13098
# Poissons Ratio (y) = 0.20866 0.06654
# Poissons Ratio (z) = 0.15679 0.05936
#
# Static dielectric constant tensor:
#      x y z
#    x 6.384930 0.000000 0.000000 
#    y 0.000000 3.271630 0.000000 
#    z 0.000000 0.000000 3.407280 
# 
# 
# High freq. dielectric constant tensor:
#      x y z
#    x 1.738050 0.000000 0.000000 
#    y 0.000000 1.712630 0.000000 
#    z 0.000000 0.000000 1.729690 
# 
# From -- ./inp_files/14495.got.cif
#   From: 2010.03.12/outbox.cif.g09.slc.cpg/sg38_8_cif.got.tgz:14495.got - 2010.04.14 02:38:36.
