data_PCOD8180742
_publ_section_title
;
Structure prediction by ZEFSAII (Michael W. Deem and Ramdas Pophale) SiO2 
 PCOD8180742
Probable space group: A B M 2
;
_chemical_formula_sum "Si O2"
_cell_formula_units_Z 44
_cell_length_a 11.516270
_cell_length_b 9.189041
_cell_length_c 23.432468
_cell_angle_alpha 90.000000
_cell_angle_beta 90.000000
_cell_angle_gamma 90.000000
_cell_volume 2479.705243
_symmetry_space_group_name_H-M "A B M 2"
_symmetry_group_IT_number 39
_symmetry_cell_setting 'orthorhombic'
loop_
_space_group_symop_operation_xyz
x,y,z
-x,-y,z
-x,1/2+y,z
x,1/2-y,z
x,1/2+y,1/2+z
-x,1/2-y,1/2+z
-x,y,1/2+z
x,-y,1/2+z
loop_
_atom_site_type_symbol
_atom_site_label
_atom_site_fract_x
_atom_site_fract_y
_atom_site_fract_z
Si Si1 0.207370 0.910234 0.366300
Si Si2 0.000000 0.500000 0.442080
Si Si3 0.190308 0.090619 0.528162
Si Si4 0.619158 0.916122 0.437730
Si Si5 0.124342 0.076271 0.134066
Si Si6 0.121333 0.420669 0.742343
O O1 0.260246 0.750000 0.374998
O O2 0.193600 0.943102 0.299571
O O3 0.084782 0.909773 0.400399
O O4 0.300836 0.026204 0.386727
O O5 0.082674 0.406535 0.483662
O O6 0.189341 0.250000 0.557439
O O7 0.311288 0.063843 0.496383
O O8 0.188678 0.964331 0.575468
O O9 0.590999 0.750000 0.424083
O O10 0.500000 0.000000 0.443155
O O11 0.116535 0.250000 0.139792
O O12 0.186446 0.003414 0.189558
O O13 0.000000 0.000000 0.130045
O O14 0.102563 0.250000 0.728358
O O15 0.000000 0.500000 0.751863
#
# Coordination Sequence:
#
# PCOD8180742 Si02
#       6
#     8   4   8   8   8   8
#     4  10  20  33  53  79 108 141 175 217 263 313
#     4  10  18  30  50  78 108 138 172 210 258 316
#     4  10  20  33  52  77 106 138 173 215 262 311
#     4  10  22  38  57  79 105 138 177 220 265 315
#     4  11  21  32  49  73 106 143 177 214 256 310
#     4  10  19  32  50  74 107 143 176 213 256 309
#
# _framework density 17.744043999999999
#
# number of rings (size 3 to 8) (size 9 to 14) (size 15 to 20)
#    0.000    1.818    1.818    4.364    0.000    5.818 
#    0.000    0.000    0.000    1.091    0.000    5.091 
#    0.000    0.000    0.000    0.000    0.000    0.000 
#
# Total GULP energy -272644.587627 kJ/mol
# GULP energy per Si atom -12392.935801 kJ/mol
# Density = 1.770366 g / cm^3
# Si number density = 17.744044 Si / 1000 Ang^3
#
#
#
# Elastic Constant Matrix: (Units=GPa)
#
#
# Indices 1 2 3 4 5 6 
#
# 1 88.6223 51.8758 35.3033 0.0000 0.0000 0.0000
# 2 51.8758 163.9012 73.8029 0.0000 0.0000 0.0000
# 3 35.3033 73.8029 119.0463 0.0000 0.0000 0.0000
# 4 0.0000 0.0000 0.0000 31.1554 0.0000 0.0000
# 5 0.0000 0.0000 0.0000 0.0000 11.1091 0.0000
# 6 0.0000 0.0000 0.0000 0.0000 0.0000 24.6524
#
#
#
# Elastic Compliance Matrix: (Units=1/GPa)
#
#
# Indices 1 2 3 4 5 6 
#
# 1 0.014176 -0.003598 -0.001973 0.000000 0.000000 0.000000
# 2 -0.003598 0.009377 -0.004746 0.000000 0.000000 0.000000
# 3 -0.001973 -0.004746 0.011928 0.000000 0.000000 0.000000
# 4 0.000000 0.000000 0.000000 0.032097 0.000000 0.000000
# 5 0.000000 0.000000 0.000000 0.000000 0.090016 0.000000
# 6 0.000000 0.000000 0.000000 0.000000 0.000000 0.040564
#
#
# Mechanical properties :
#
#
# Convention : Reuss Voigt Hill
#
# Bulk Modulus (GPa) = 67.36056 77.05930 72.20993
# Shear Modulus (GPa) = 22.34703 27.42256 24.88479
#
# Velocity S-wave (km/s) = 3.55267 3.93549 3.74897
# Velocity P-wave (km/s) = 7.40765 8.01082 7.71514
#
# Compressibility (1/GPa) = 0.01484548
#
# Stress axis : x y z
#
# Youngs Moduli (GPa) = 70.54081 106.63924 83.83779
#
# Poissons Ratio (x) = 0.38373 0.16542
# Poissons Ratio (y) = 0.25383 0.39793
# Poissons Ratio (z) = 0.13919 0.50616
#
# Static dielectric constant tensor:
#      x y z
#    x 2.960040 0.000000 0.000000 
#    y 0.000000 3.414490 0.000000 
#    z 0.000000 0.000000 3.809030 
# 
# 
# High freq. dielectric constant tensor:
#      x y z
#    x 1.642370 0.000000 0.000000 
#    y 0.000000 1.701940 0.000000 
#    z 0.000000 0.000000 1.697930 
# 
# From -- ./inp_files/15799.got.cif
#   From: 2010.03.12/outbox.cif.g09.slc.cpg/sg39_8_cif.got.tgz:15799.got - 2010.04.14 02:53:20.
