data_PCOD8180913
_publ_section_title
;
Structure prediction by ZEFSAII (Michael W. Deem and Ramdas Pophale) SiO2 
 PCOD8180913
Probable space group: A B M 2
;
_chemical_formula_sum "Si O2"
_cell_formula_units_Z 64
_cell_length_a 21.059943
_cell_length_b 8.963348
_cell_length_c 19.250948
_cell_angle_alpha 90.000000
_cell_angle_beta 90.000000
_cell_angle_gamma 90.000000
_cell_volume 3633.955213
_symmetry_space_group_name_H-M "A B M 2"
_symmetry_group_IT_number 39
_symmetry_cell_setting 'orthorhombic'
loop_
_space_group_symop_operation_xyz
x,y,z
-x,-y,z
-x,1/2+y,z
x,1/2-y,z
x,1/2+y,1/2+z
-x,1/2-y,1/2+z
-x,y,1/2+z
x,-y,1/2+z
loop_
_atom_site_type_symbol
_atom_site_label
_atom_site_fract_x
_atom_site_fract_y
_atom_site_fract_z
Si Si1 0.437291 0.578998 0.120350
Si Si2 0.560447 0.417407 0.954768
Si Si3 0.064790 0.574546 0.708711
Si Si4 0.176799 0.927633 0.455046
Si Si5 0.934524 0.426062 0.868759
Si Si6 0.314554 0.424536 0.107745
Si Si7 0.175732 0.922999 0.613264
Si Si8 0.302507 0.572598 0.959981
O O1 0.500000 0.500000 0.151604
O O2 0.435860 0.750000 0.144723
O O3 0.374220 0.494386 0.149730
O O4 0.438084 0.563257 0.037563
O O5 0.500000 0.500000 0.921524
O O6 0.548736 0.250000 0.932805
O O7 0.629246 0.469531 0.924421
O O8 0.057653 0.750000 0.698476
O O9 0.078329 0.534875 0.788572
O O10 0.122749 0.504848 0.663582
O O11 0.000000 0.500000 0.682281
O O12 0.176150 0.750000 0.448532
O O13 0.170499 0.984936 0.534644
O O14 0.120569 0.999200 0.412379
O O15 0.243383 0.990071 0.423111
O O16 0.936996 0.250000 0.882479
O O17 0.000000 0.500000 0.893728
O O18 0.327348 0.250000 0.092581
O O19 0.246457 0.447048 0.146251
O O20 0.306608 0.515472 0.037782
O O21 0.160486 0.750000 0.608796
O O22 0.292247 0.750000 0.959384
#
# Coordination Sequence:
#
# PCOD8180913 Si02
#       8
#     8   8   8   8   8   8   8   8
#     4   9  15  22  32  49  75 109 148 186 223 267
#     4   8  14  21  31  48  73 107 144 181 216 256
#     4   9  18  34  52  69  90 117 150 185 223 267
#     4  10  19  31  48  69  94 122 152 188 229 273
#     4  10  20  34  52  70  91 119 149 185 225 269
#     4   9  15  24  38  56  81 114 148 184 228 272
#     4   8  16  30  47  67  91 120 152 186 225 269
#     4   9  16  26  38  56  84 116 151 187 224 267
#
# _framework density 17.611666
#
# number of rings (size 3 to 8) (size 9 to 14) (size 15 to 20)
#    0.000    3.000    0.000    3.375    0.000    4.500 
#    0.000    5.000    0.000    0.000    0.000    0.000 
#    0.000    1.000    0.000    6.250    0.000   12.875 
#
# Total GULP energy -396450.260283 kJ/mol
# GULP energy per Si atom -12389.070634 kJ/mol
# Density = 1.757158 g / cm^3
# Si number density = 17.611666 Si / 1000 Ang^3
#
#
#
# Elastic Constant Matrix: (Units=GPa)
#
#
# Indices 1 2 3 4 5 6 
#
# 1 211.2411 66.2124 51.0689 0.0000 0.0000 0.0000
# 2 66.2124 62.2377 24.7500 0.0000 0.0000 0.0000
# 3 51.0689 24.7500 30.5729 0.0000 0.0000 0.0000
# 4 0.0000 0.0000 0.0000 9.5653 0.0000 0.0000
# 5 0.0000 0.0000 0.0000 0.0000 0.7914 0.0000
# 6 0.0000 0.0000 0.0000 0.0000 0.0000 38.6813
#
#
#
# Elastic Compliance Matrix: (Units=1/GPa)
#
#
# Indices 1 2 3 4 5 6 
#
# 1 0.008986 -0.005296 -0.010724 0.000000 0.000000 0.000000
# 2 -0.005296 0.026817 -0.012863 0.000000 0.000000 0.000000
# 3 -0.010724 -0.012863 0.061035 0.000000 0.000000 0.000000
# 4 0.000000 0.000000 0.000000 0.104545 0.000000 0.000000
# 5 0.000000 0.000000 0.000000 0.000000 1.263597 0.000000
# 6 0.000000 0.000000 0.000000 0.000000 0.000000 0.025852
#
#
# Mechanical properties :
#
#
# Convention : Reuss Voigt Hill
#
# Bulk Modulus (GPa) = 25.59333 65.34604 45.46969
# Shear Modulus (GPa) = 3.20180 20.60896 11.90538
#
# Velocity S-wave (km/s) = 1.34980 3.42451 2.60281
# Velocity P-wave (km/s) = 4.12224 7.26779 5.90820
#
# Compressibility (1/GPa) = 0.03907268
#
# Stress axis : x y z
#
# Youngs Moduli (GPa) = 111.27930 37.29024 16.38413
#
# Poissons Ratio (x) = 0.19748 0.17570
# Poissons Ratio (y) = 0.58932 0.21075
# Poissons Ratio (z) = 1.19333 0.47966
#
# Static dielectric constant tensor:
#      x y z
#    x 3.301560 0.000000 0.000000 
#    y 0.000000 3.306470 0.000000 
#    z 0.000000 0.000000 2.771040 
# 
# 
# High freq. dielectric constant tensor:
#      x y z
#    x 1.711790 0.000000 0.000000 
#    y 0.000000 1.681540 0.000000 
#    z 0.000000 0.000000 1.603740 
# 
# From -- ./inp_files/13141.got.cif
#   From: 2010.03.12/outbox.cif.g09.slc.cpg/sg39_7_cif.got.tgz:13141.got - 2010.04.14 02:53:20.
