data_PCOD8180806
_publ_section_title
;
Structure prediction by ZEFSAII (Michael W. Deem and Ramdas Pophale) SiO2 
 PCOD8180806
Probable space group: A B M 2
;
_chemical_formula_sum "Si O2"
_cell_formula_units_Z 64
_cell_length_a 14.628053
_cell_length_b 8.597696
_cell_length_c 24.796853
_cell_angle_alpha 90.000000
_cell_angle_beta 90.000000
_cell_angle_gamma 90.000000
_cell_volume 3118.639518
_symmetry_space_group_name_H-M "A B M 2"
_symmetry_group_IT_number 39
_symmetry_cell_setting 'orthorhombic'
loop_
_space_group_symop_operation_xyz
x,y,z
-x,-y,z
-x,1/2+y,z
x,1/2-y,z
x,1/2+y,1/2+z
-x,1/2-y,1/2+z
-x,y,1/2+z
x,-y,1/2+z
loop_
_atom_site_type_symbol
_atom_site_label
_atom_site_fract_x
_atom_site_fract_y
_atom_site_fract_z
Si Si1 0.787803 0.434592 0.822310
Si Si2 0.592834 0.432057 0.349331
Si Si3 0.898368 0.432327 0.718428
Si Si4 0.818056 0.927526 0.930998
Si Si5 0.093586 0.927172 0.537892
Si Si6 0.784199 0.431706 0.121836
Si Si7 0.365498 0.568059 0.960367
Si Si8 0.406813 0.066448 0.579908
O O1 0.787707 0.250000 0.826577
O O2 0.682650 0.491851 0.822329
O O3 0.841191 0.494913 0.769639
O O4 0.844639 0.507437 0.872280
O O5 0.500000 0.500000 0.322188
O O6 0.596966 0.250000 0.338902
O O7 0.586674 0.469571 0.413093
O O8 0.909889 0.250000 0.721917
O O9 0.839131 0.473674 0.666347
O O10 0.000000 0.500000 0.715977
O O11 0.781937 0.750000 0.925128
O O12 0.742021 0.039048 0.956269
O O13 0.902313 0.935164 0.972662
O O14 0.100623 0.750000 0.558314
O O15 0.174332 0.028575 0.563523
O O16 0.000000 0.000000 0.558693
O O17 0.793043 0.250000 0.134321
O O18 0.677922 0.484956 0.117959
O O19 0.386493 0.750000 0.952137
O O20 0.398186 0.504021 0.018453
O O21 0.409799 0.250000 0.577772
O O22 0.500000 0.000000 0.605723
#
# Coordination Sequence:
#
# PCOD8180806 Si02
#       8
#     8   8   8   8   8   8   8   8
#     4  10  22  40  62  88 120 156 199 249 303 358
#     4  11  21  34  55  86 123 163 206 247 296 353
#     4  11  25  45  69  94 117 152 199 251 307 363
#     4  10  20  34  55  85 120 159 198 241 298 354
#     4  11  23  37  57  86 120 159 198 243 299 362
#     4  11  23  42  64  88 120 157 200 251 303 355
#     4  10  18  32  53  81 119 161 203 244 291 348
#     4  10  22  36  56  86 119 159 200 242 293 351
#
# _framework density 20.52177
#
# number of rings (size 3 to 8) (size 9 to 14) (size 15 to 20)
#    0.000    1.500    1.250    5.625    0.000    7.000 
#    0.000    3.125    0.000    1.500    0.000    0.000 
#    0.000    0.000    0.000    0.000    0.000    0.000 
#
# Total GULP energy -396736.560101 kJ/mol
# GULP energy per Si atom -12398.017503 kJ/mol
# Density = 2.047506 g / cm^3
# Si number density = 20.521770 Si / 1000 Ang^3
#
#
#
# Elastic Constant Matrix: (Units=GPa)
#
#
# Indices 1 2 3 4 5 6 
#
# 1 139.7336 29.1966 56.7602 0.0000 0.0000 0.0000
# 2 29.1966 61.9804 23.8764 0.0000 0.0000 0.0000
# 3 56.7602 23.8764 102.5602 0.0000 0.0000 0.0000
# 4 0.0000 0.0000 0.0000 24.5571 0.0000 0.0000
# 5 0.0000 0.0000 0.0000 0.0000 20.5746 0.0000
# 6 0.0000 0.0000 0.0000 0.0000 0.0000 32.0485
#
#
#
# Elastic Compliance Matrix: (Units=1/GPa)
#
#
# Indices 1 2 3 4 5 6 
#
# 1 0.009635 -0.002729 -0.004697 0.000000 0.000000 0.000000
# 2 -0.002729 0.018497 -0.002796 0.000000 0.000000 0.000000
# 3 -0.004697 -0.002796 0.013001 0.000000 0.000000 0.000000
# 4 0.000000 0.000000 0.000000 0.040721 0.000000 0.000000
# 5 0.000000 0.000000 0.000000 0.000000 0.048604 0.000000
# 6 0.000000 0.000000 0.000000 0.000000 0.000000 0.031203
#
#
# Mechanical properties :
#
#
# Convention : Reuss Voigt Hill
#
# Bulk Modulus (GPa) = 48.33570 58.21561 53.27565
# Shear Modulus (GPa) = 26.45518 28.39878 27.42698
#
# Velocity S-wave (km/s) = 3.59434 3.72403 3.65976
# Velocity P-wave (km/s) = 6.38985 6.84986 6.62385
#
# Compressibility (1/GPa) = 0.02068864
#
# Stress axis : x y z
#
# Youngs Moduli (GPa) = 103.79326 54.06371 76.91992
#
# Poissons Ratio (x) = 0.14755 0.36127
# Poissons Ratio (y) = 0.28327 0.21504
# Poissons Ratio (z) = 0.48749 0.15115
#
# Static dielectric constant tensor:
#      x y z
#    x 4.303380 0.000000 0.000000 
#    y 0.000000 3.700930 0.000000 
#    z 0.000000 0.000000 3.681660 
# 
# 
# High freq. dielectric constant tensor:
#      x y z
#    x 1.807440 0.000000 0.000000 
#    y 0.000000 1.809320 0.000000 
#    z 0.000000 0.000000 1.783030 
# 
# From -- ./inp_files/16144.got.cif
#   From: 2010.03.12/outbox.cif.g09.slc.cpg/sg39_9_cif.got.tgz:16144.got - 2010.04.14 02:53:20.
