data_PCOD8180368
_publ_section_title
;
Structure prediction by ZEFSAII (Michael W. Deem and Ramdas Pophale) SiO2 
 PCOD8180368
Probable space group: A M M 2
;
_chemical_formula_sum "Si O2"
_cell_formula_units_Z 40
_cell_length_a 11.268300
_cell_length_b 8.853965
_cell_length_c 19.973573
_cell_angle_alpha 90.000000
_cell_angle_beta 90.000000
_cell_angle_gamma 90.000000
_cell_volume 1992.746077
_symmetry_space_group_name_H-M "A M M 2"
_symmetry_group_IT_number 38
_symmetry_cell_setting 'orthorhombic'
loop_
_space_group_symop_operation_xyz
x,y,z
-x,-y,z
-x,y,z
x,-y,z
x,1/2+y,1/2+z
-x,1/2-y,1/2+z
-x,1/2+y,1/2+z
x,1/2-y,1/2+z
loop_
_atom_site_type_symbol
_atom_site_label
_atom_site_fract_x
_atom_site_fract_y
_atom_site_fract_z
Si Si1 0.137762 0.171109 0.029150
Si Si2 0.750320 0.323173 0.150552
Si Si3 0.265287 0.824619 0.409507
Si Si4 0.500000 0.677578 0.443386
Si Si5 0.500000 0.824803 0.588549
Si Si6 0.136708 0.176516 0.274072
O O1 0.160245 0.230553 0.103657
O O2 0.000000 0.177550 0.013051
O O3 0.185731 0.000000 0.021967
O O4 0.205019 0.280661 0.978993
O O5 0.774825 0.500000 0.142550
O O6 0.614661 0.281955 0.132616
O O7 0.778393 0.272081 0.225786
O O8 0.387050 0.734022 0.401600
O O9 0.176977 0.784583 0.349242
O O10 0.296368 0.000000 0.412046
O O11 0.500000 0.500000 0.445245
O O12 0.500000 0.734636 0.519562
O O13 0.500000 0.000000 0.569119
O O14 0.000000 0.226425 0.266020
O O15 0.152287 0.000000 0.258371
#
# Coordination Sequence:
#
# PCOD8180368 Si02
#       6
#     8   8   8   4   4   8
#     4  11  23  38  59  90 125 161 207 262 315 371
#     4  11  23  39  63  91 123 164 209 258 313 372
#     4  11  23  41  65  91 123 165 211 258 312 371
#     4  12  24  39  64  95 127 163 205 257 318 373
#     4  10  22  41  62  89 125 163 205 259 310 367
#     4  10  23  43  64  89 125 166 208 257 313 373
#
# _framework density 20.072803
#
# number of rings (size 3 to 8) (size 9 to 14) (size 15 to 20)
#    0.000    1.200    2.000    3.900    0.000    8.400 
#    0.000    2.000    0.000    0.000    0.000    0.000 
#    0.000    0.000    0.000    0.000    0.000    0.000 
#
# Total GULP energy -248130.469077 kJ/mol
# GULP energy per Si atom -12406.523454 kJ/mol
# Density = 2.002712 g / cm^3
# Si number density = 20.072803 Si / 1000 Ang^3
#
#
#
# Elastic Constant Matrix: (Units=GPa)
#
#
# Indices 1 2 3 4 5 6 
#
# 1 110.5798 51.0404 27.8990 0.0000 0.0000 0.0000
# 2 51.0404 97.1926 36.0198 0.0000 0.0000 0.0000
# 3 27.8990 36.0198 80.3441 0.0000 0.0000 0.0000
# 4 0.0000 0.0000 0.0000 37.4016 0.0000 0.0000
# 5 0.0000 0.0000 0.0000 0.0000 38.8665 0.0000
# 6 0.0000 0.0000 0.0000 0.0000 0.0000 33.7999
#
#
#
# Elastic Compliance Matrix: (Units=1/GPa)
#
#
# Indices 1 2 3 4 5 6 
#
# 1 0.012111 -0.005758 -0.001624 0.000000 0.000000 0.000000
# 2 -0.005758 0.015077 -0.004760 0.000000 0.000000 0.000000
# 3 -0.001624 -0.004760 0.015144 0.000000 0.000000 0.000000
# 4 0.000000 0.000000 0.000000 0.026737 0.000000 0.000000
# 5 0.000000 0.000000 0.000000 0.000000 0.025729 0.000000
# 6 0.000000 0.000000 0.000000 0.000000 0.000000 0.029586
#
#
# Mechanical properties :
#
#
# Convention : Reuss Voigt Hill
#
# Bulk Modulus (GPa) = 55.40718 57.55945 56.48332
# Shear Modulus (GPa) = 32.32421 33.55742 32.94082
#
# Velocity S-wave (km/s) = 4.01727 4.09318 4.05540
# Velocity P-wave (km/s) = 7.01291 7.14678 7.08016
#
# Compressibility (1/GPa) = 0.01804820
#
# Stress axis : x y z
#
# Youngs Moduli (GPa) = 82.57146 66.32778 66.03177
#
# Poissons Ratio (x) = 0.38192 0.10723
# Poissons Ratio (y) = 0.47545 0.31429
# Poissons Ratio (z) = 0.13409 0.31570
#
# Static dielectric constant tensor:
#      x y z
#    x 3.920060 0.000000 0.000000 
#    y 0.000000 3.701160 0.000000 
#    z 0.000000 0.000000 3.543510 
# 
# 
# High freq. dielectric constant tensor:
#      x y z
#    x 1.796820 0.000000 0.000000 
#    y 0.000000 1.790110 0.000000 
#    z 0.000000 0.000000 1.782400 
# 
# From -- ./inp_files/20496.got.cif
#   From: 2010.03.12/outbox.cif.g09.slc.cpg/sg38_11_cif.got.tgz:20496.got - 2010.04.14 02:38:36.
