data_PCOD8180533
_publ_section_title
;
Structure prediction by ZEFSAII (Michael W. Deem and Ramdas Pophale) SiO2 
 PCOD8180533
Probable space group: A M M 2
;
_chemical_formula_sum "Si O2"
_cell_formula_units_Z 48
_cell_length_a 9.711812
_cell_length_b 9.420651
_cell_length_c 30.889573
_cell_angle_alpha 90.000000
_cell_angle_beta 90.000000
_cell_angle_gamma 90.000000
_cell_volume 2826.136192
_symmetry_space_group_name_H-M "A M M 2"
_symmetry_group_IT_number 38
_symmetry_cell_setting 'orthorhombic'
loop_
_space_group_symop_operation_xyz
x,y,z
-x,-y,z
-x,y,z
x,-y,z
x,1/2+y,1/2+z
-x,1/2-y,1/2+z
-x,1/2+y,1/2+z
x,1/2-y,1/2+z
loop_
_atom_site_type_symbol
_atom_site_label
_atom_site_fract_x
_atom_site_fract_y
_atom_site_fract_z
Si Si1 0.346712 0.168976 0.085570
Si Si2 0.663853 0.659737 0.911062
Si Si3 0.841203 0.665730 0.662974
Si Si4 0.340528 0.164736 0.828241
Si Si5 0.841445 0.335381 0.247141
Si Si6 0.663949 0.158488 0.990407
O O1 0.500000 0.228995 0.094762
O O2 0.244568 0.226658 0.122401
O O3 0.350638 0.000000 0.085752
O O4 0.293562 0.217391 0.037981
O O5 0.500000 0.658972 0.913047
O O6 0.722492 0.500000 0.909268
O O7 0.713240 0.744566 0.868794
O O8 0.724047 0.736993 0.953757
O O9 0.813223 0.500000 0.670415
O O10 0.791799 0.746785 0.705759
O O11 0.000000 0.697253 0.652940
O O12 0.500000 0.195678 0.817892
O O13 0.251658 0.213321 0.787210
O O14 0.316793 0.000000 0.839411
O O15 0.818888 0.500000 0.236435
O O16 0.000000 0.302383 0.258549
O O17 0.500000 0.151530 0.987880
O O18 0.723572 0.000000 0.982566
#
# Coordination Sequence:
#
# PCOD8180533 Si02
#       6
#     8   8   8   8   8   8
#     4   8  14  25  42  64  87 111 141 175 208 243
#     4   9  16  25  39  62  90 114 137 170 211 251
#     4   9  17  29  45  64  85 110 141 175 210 249
#     4   9  17  29  45  64  85 110 141 175 209 246
#     4   9  18  32  47  62  83 112 143 173 208 252
#     4   8  13  23  40  59  80 110 145 174 202 243
#
# _framework density 16.98432
#
# number of rings (size 3 to 8) (size 9 to 14) (size 15 to 20)
#    0.000    3.333    0.000    1.500    0.000    3.333 
#    0.000    0.833    0.000    2.000    0.000    4.667 
#    0.000    0.000    0.000    0.000    0.000    0.000 
#
# Total GULP energy -297521.934911 kJ/mol
# GULP energy per Si atom -12396.747288 kJ/mol
# Density = 1.694566 g / cm^3
# Si number density = 16.984320 Si / 1000 Ang^3
#
#
#
# Elastic Constant Matrix: (Units=GPa)
#
#
# Indices 1 2 3 4 5 6 
#
# 1 45.0054 27.8678 63.5042 0.0000 0.0000 0.0000
# 2 27.8678 71.6798 75.6373 0.0000 0.0000 0.0000
# 3 63.5042 75.6373 192.4881 0.0000 0.0000 0.0000
# 4 0.0000 0.0000 0.0000 30.3297 0.0000 0.0000
# 5 0.0000 0.0000 0.0000 0.0000 5.8894 0.0000
# 6 0.0000 0.0000 0.0000 0.0000 0.0000 12.2197
#
#
#
# Elastic Compliance Matrix: (Units=1/GPa)
#
#
# Indices 1 2 3 4 5 6 
#
# 1 0.041925 -0.002912 -0.012687 0.000000 0.000000 0.000000
# 2 -0.002912 0.024035 -0.008484 0.000000 0.000000 0.000000
# 3 -0.012687 -0.008484 0.012715 0.000000 0.000000 0.000000
# 4 0.000000 0.000000 0.000000 0.032971 0.000000 0.000000
# 5 0.000000 0.000000 0.000000 0.000000 0.169795 0.000000
# 6 0.000000 0.000000 0.000000 0.000000 0.000000 0.081835
#
#
# Mechanical properties :
#
#
# Convention : Reuss Voigt Hill
#
# Bulk Modulus (GPa) = 32.77768 71.46576 52.12172
# Shear Modulus (GPa) = 11.85926 19.16537 15.51231
#
# Velocity S-wave (km/s) = 2.64530 3.36283 3.02542
# Velocity P-wave (km/s) = 5.35452 7.56618 6.55431
#
# Compressibility (1/GPa) = 0.03050856
#
# Stress axis : x y z
#
# Youngs Moduli (GPa) = 23.85222 41.60547 78.65005
#
# Poissons Ratio (x) = 0.12115 0.99786
# Poissons Ratio (y) = 0.06945 0.66726
# Poissons Ratio (z) = 0.30262 0.35298
#
# Static dielectric constant tensor:
#      x y z
#    x 2.909250 0.000000 0.000000 
#    y 0.000000 3.114190 0.000000 
#    z 0.000000 0.000000 3.465190 
# 
# 
# High freq. dielectric constant tensor:
#      x y z
#    x 1.613140 0.000000 0.000000 
#    y 0.000000 1.636320 0.000000 
#    z 0.000000 0.000000 1.668230 
# 
# From -- ./inp_files/22421.got.cif
#   From: 2010.03.12/outbox.cif.g09.slc.cpg/sg38_12_cif.got.tgz:22421.got - 2010.04.14 02:38:36.
