data_PCOD8180549
_publ_section_title
;
Structure prediction by ZEFSAII (Michael W. Deem and Ramdas Pophale) SiO2 
 PCOD8180549
Probable space group: A M M 2
;
_chemical_formula_sum "Si O2"
_cell_formula_units_Z 64
_cell_length_a 9.470903
_cell_length_b 9.726836
_cell_length_c 40.872435
_cell_angle_alpha 90.000000
_cell_angle_beta 90.000000
_cell_angle_gamma 90.000000
_cell_volume 3765.247198
_symmetry_space_group_name_H-M "A M M 2"
_symmetry_group_IT_number 38
_symmetry_cell_setting 'orthorhombic'
loop_
_space_group_symop_operation_xyz
x,y,z
-x,-y,z
-x,y,z
x,-y,z
x,1/2+y,1/2+z
-x,1/2-y,1/2+z
-x,1/2+y,1/2+z
x,1/2-y,1/2+z
loop_
_atom_site_type_symbol
_atom_site_label
_atom_site_fract_x
_atom_site_fract_y
_atom_site_fract_z
Si Si1 0.667782 0.652198 0.522270
Si Si2 0.166480 0.343400 0.899450
Si Si3 0.843230 0.336784 0.826281
Si Si4 0.163583 0.841649 0.643554
Si Si5 0.664632 0.658683 0.080342
Si Si6 0.337697 0.338857 0.449279
Si Si7 0.658757 0.663590 0.767093
Si Si8 0.836321 0.659245 0.704863
O O1 0.500000 0.648540 0.522680
O O2 0.726792 0.500000 0.530350
O O3 0.725384 0.757629 0.549369
O O4 0.715591 0.697913 0.485959
O O5 0.215264 0.500000 0.905718
O O6 0.208118 0.296535 0.862665
O O7 0.243427 0.244268 0.924296
O O8 0.000000 0.329953 0.904421
O O9 0.851009 0.500000 0.823529
O O10 0.734850 0.276339 0.799502
O O11 0.000000 0.276794 0.819454
O O12 0.253084 0.792223 0.612469
O O13 0.211001 0.748414 0.673854
O O14 0.000000 0.819305 0.635139
O O15 0.195992 0.000000 0.652274
O O16 0.500000 0.688077 0.086206
O O17 0.694382 0.500000 0.072790
O O18 0.500000 0.295110 0.444588
O O19 0.318651 0.500000 0.442658
O O20 0.500000 0.722761 0.765516
O O21 0.656738 0.500000 0.768598
O O22 0.744583 0.712424 0.735312
O O23 0.806215 0.500000 0.696876
O O24 0.000000 0.683015 0.713610
#
# Coordination Sequence:
#
# PCOD8180549 Si02
#       8
#     8   8   8   8   8   8   8   8
#     4   8  15  29  47  66  89 117 149 184 222 266
#     4   9  18  31  47  70  97 123 156 197 236 276
#     4   8  14  26  43  62  88 121 151 181 222 270
#     4   9  18  32  47  63  87 118 147 176 215 262
#     4   9  17  29  46  67  88 112 145 182 219 262
#     4   9  18  32  49  69  94 125 159 193 232 280
#     4   9  16  25  40  65  93 116 142 181 225 264
#     4   9  17  29  45  64  86 114 147 180 215 258
#
# _framework density 16.997557
#
# number of rings (size 3 to 8) (size 9 to 14) (size 15 to 20)
#    0.000    3.250    0.000    1.875    0.000    4.000 
#    0.000    3.125    0.000    3.000    0.000    1.750 
#    0.000    0.000    0.000    0.000    0.000    0.000 
#
# Total GULP energy -396704.897998 kJ/mol
# GULP energy per Si atom -12397.028062 kJ/mol
# Density = 1.695887 g / cm^3
# Si number density = 16.997557 Si / 1000 Ang^3
#
#
#
# Elastic Constant Matrix: (Units=GPa)
#
#
# Indices 1 2 3 4 5 6 
#
# 1 67.3534 33.3905 73.3430 0.0000 0.0000 0.0000
# 2 33.3905 50.8387 67.3746 0.0000 0.0000 0.0000
# 3 73.3430 67.3746 174.9793 0.0000 0.0000 0.0000
# 4 0.0000 0.0000 0.0000 25.5993 0.0000 0.0000
# 5 0.0000 0.0000 0.0000 0.0000 30.3812 0.0000
# 6 0.0000 0.0000 0.0000 0.0000 0.0000 19.1552
#
#
#
# Elastic Compliance Matrix: (Units=1/GPa)
#
#
# Indices 1 2 3 4 5 6 
#
# 1 0.028132 -0.005820 -0.009551 0.000000 0.000000 0.000000
# 2 -0.005820 0.041370 -0.013490 0.000000 0.000000 0.000000
# 3 -0.009551 -0.013490 0.014913 0.000000 0.000000 0.000000
# 4 0.000000 0.000000 0.000000 0.039064 0.000000 0.000000
# 5 0.000000 0.000000 0.000000 0.000000 0.032915 0.000000
# 6 0.000000 0.000000 0.000000 0.000000 0.000000 0.052205
#
#
# Mechanical properties :
#
#
# Convention : Reuss Voigt Hill
#
# Bulk Modulus (GPa) = 37.46173 71.26527 54.36350
# Shear Modulus (GPa) = 18.16742 22.96470 20.56606
#
# Velocity S-wave (km/s) = 3.27284 3.67966 3.48220
# Velocity P-wave (km/s) = 6.03069 7.75055 6.94407
#
# Compressibility (1/GPa) = 0.02669391
#
# Stress axis : x y z
#
# Youngs Moduli (GPa) = 35.54610 24.17206 67.05784
#
# Poissons Ratio (x) = 0.14067 0.64047
# Poissons Ratio (y) = 0.20687 0.90461
# Poissons Ratio (z) = 0.33950 0.32608
#
# Static dielectric constant tensor:
#      x y z
#    x 3.201920 0.000000 0.000000 
#    y 0.000000 2.978710 0.000000 
#    z 0.000000 0.000000 3.389340 
# 
# 
# High freq. dielectric constant tensor:
#      x y z
#    x 1.641750 0.000000 0.000000 
#    y 0.000000 1.624730 0.000000 
#    z 0.000000 0.000000 1.666390 
# 
# From -- ./inp_files/24611.got.cif
#   From: 2010.03.12/outbox.cif.g09.slc.cpg/sg38_13_cif.got.tgz:24611.got - 2010.04.14 02:38:36.
