data_PCOD8180119
_publ_section_title
;
Structure prediction by ZEFSAII (Michael W. Deem and Ramdas Pophale) SiO2 
 PCOD8180119
Probable space group: A M M 2
;
_chemical_formula_sum "Si O2"
_cell_formula_units_Z 48
_cell_length_a 7.773570
_cell_length_b 18.882255
_cell_length_c 16.316963
_cell_angle_alpha 90.000000
_cell_angle_beta 90.000000
_cell_angle_gamma 90.000000
_cell_volume 2395.045127
_symmetry_space_group_name_H-M "A M M 2"
_symmetry_group_IT_number 38
_symmetry_cell_setting 'orthorhombic'
loop_
_space_group_symop_operation_xyz
x,y,z
-x,-y,z
-x,y,z
x,-y,z
x,1/2+y,1/2+z
-x,1/2-y,1/2+z
-x,1/2+y,1/2+z
x,1/2-y,1/2+z
loop_
_atom_site_type_symbol
_atom_site_label
_atom_site_fract_x
_atom_site_fract_y
_atom_site_fract_z
Si Si1 0.806188 0.334378 0.194510
Si Si2 0.204240 0.581541 0.525326
Si Si3 0.500000 0.419107 0.936949
Si Si4 0.799274 0.834592 0.359876
Si Si5 0.500000 0.919444 0.625682
Si Si6 0.797902 0.676829 0.673553
Si Si7 0.700444 0.320086 0.374334
O O1 0.675611 0.391531 0.162790
O O2 0.745366 0.258389 0.157999
O O3 0.807220 0.337823 0.293024
O O4 0.000000 0.351648 0.164935
O O5 0.272241 0.500000 0.525576
O O6 0.281007 0.623628 0.604923
O O7 0.265911 0.621704 0.444023
O O8 0.000000 0.581847 0.527870
O O9 0.500000 0.500000 0.913119
O O10 0.679438 0.389585 0.904974
O O11 0.500000 0.402734 0.031511
O O12 0.737894 0.840966 0.265401
O O13 0.764343 0.757833 0.400839
O O14 0.000000 0.854314 0.370790
O O15 0.500000 0.000000 0.649257
O O16 0.000000 0.669708 0.669639
O O17 0.500000 0.318339 0.352578
#
# Coordination Sequence:
#
# PCOD8180119 Si02
#       7
#     8   8   4   8   4   8   8
#     4  10  21  41  67  91 119 162 211 256 309 373
#     4  10  21  37  58  90 130 165 201 249 308 376
#     4  11  26  43  60  93 127 158 209 266 322 374
#     4  10  21  41  67  93 123 165 213 258 309 368
#     4  11  26  43  60  89 123 154 205 268 322 374
#     4   8  18  36  61  92 121 156 207 254 296 363
#     4  11  21  38  62  91 129 163 207 260 302 361
#
# _framework density 20.041376
#
# number of rings (size 3 to 8) (size 9 to 14) (size 15 to 20)
#    0.000    2.000    1.667    2.500    2.333    3.000 
#    1.500    3.333    0.000    0.000    0.000    0.000 
#    0.000    0.000    0.000    0.000    0.000    0.000 
#
# Total GULP energy -297499.445543 kJ/mol
# GULP energy per Si atom -12395.810231 kJ/mol
# Density = 1.999576 g / cm^3
# Si number density = 20.041376 Si / 1000 Ang^3
#
#
#
# Elastic Constant Matrix: (Units=GPa)
#
#
# Indices 1 2 3 4 5 6 
#
# 1 113.0736 65.1842 24.5818 0.0000 0.0000 0.0000
# 2 65.1842 177.6881 76.0123 0.0000 0.0000 0.0000
# 3 24.5818 76.0123 89.2086 0.0000 0.0000 0.0000
# 4 0.0000 0.0000 0.0000 25.2655 0.0000 0.0000
# 5 0.0000 0.0000 0.0000 0.0000 31.0572 0.0000
# 6 0.0000 0.0000 0.0000 0.0000 0.0000 29.6822
#
#
#
# Elastic Compliance Matrix: (Units=1/GPa)
#
#
# Indices 1 2 3 4 5 6 
#
# 1 0.011240 -0.004403 0.000655 0.000000 0.000000 0.000000
# 2 -0.004403 0.010581 -0.007802 0.000000 0.000000 0.000000
# 3 0.000655 -0.007802 0.017677 0.000000 0.000000 0.000000
# 4 0.000000 0.000000 0.000000 0.039580 0.000000 0.000000
# 5 0.000000 0.000000 0.000000 0.000000 0.032199 0.000000
# 6 0.000000 0.000000 0.000000 0.000000 0.000000 0.033690
#
#
# Mechanical properties :
#
#
# Convention : Reuss Voigt Hill
#
# Bulk Modulus (GPa) = 60.98908 79.05856 70.02382
# Shear Modulus (GPa) = 28.81274 31.48044 30.14659
#
# Velocity S-wave (km/s) = 3.79577 3.96760 3.88263
# Velocity P-wave (km/s) = 7.05040 7.77961 7.42396
#
# Compressibility (1/GPa) = 0.01639638
#
# Stress axis : x y z
#
# Youngs Moduli (GPa) = 88.96858 94.50921 56.56930
#
# Poissons Ratio (x) = 0.41617 -0.03705
# Poissons Ratio (y) = 0.39177 0.44138
# Poissons Ratio (z) = -0.05826 0.73740
#
# Static dielectric constant tensor:
#      x y z
#    x 3.565860 0.000000 0.000000 
#    y 0.000000 4.067640 0.000000 
#    z 0.000000 0.000000 3.799700 
# 
# 
# High freq. dielectric constant tensor:
#      x y z
#    x 1.785740 0.000000 0.000000 
#    y 0.000000 1.777200 0.000000 
#    z 0.000000 0.000000 1.782790 
# 
# From -- ./inp_files/12071.got.cif
#   From: 2010.03.12/outbox.cif.g09.slc.cpg/sg38_7_cif.got.tgz:12071.got - 2010.04.14 02:38:36.
