data_PCOD8180139
_publ_section_title
;
Structure prediction by ZEFSAII (Michael W. Deem and Ramdas Pophale) SiO2 
 PCOD8180139
Probable space group: A M M 2
;
_chemical_formula_sum "Si O2"
_cell_formula_units_Z 44
_cell_length_a 15.074219
_cell_length_b 10.456168
_cell_length_c 14.889900
_cell_angle_alpha 90.000000
_cell_angle_beta 90.000000
_cell_angle_gamma 90.000000
_cell_volume 2346.924691
_symmetry_space_group_name_H-M "A M M 2"
_symmetry_group_IT_number 38
_symmetry_cell_setting 'orthorhombic'
loop_
_space_group_symop_operation_xyz
x,y,z
-x,-y,z
-x,y,z
x,-y,z
x,1/2+y,1/2+z
-x,1/2-y,1/2+z
-x,1/2+y,1/2+z
x,1/2-y,1/2+z
loop_
_atom_site_type_symbol
_atom_site_label
_atom_site_fract_x
_atom_site_fract_y
_atom_site_fract_z
Si Si1 0.195151 0.245714 0.410640
Si Si2 0.500000 0.851876 0.785758
Si Si3 0.500000 0.646916 0.496674
Si Si4 0.691455 0.760052 0.736516
Si Si5 0.894992 0.500000 0.980349
Si Si6 0.199727 0.500000 0.171938
Si Si7 0.101832 0.000000 0.847629
Si Si8 0.314386 0.354381 0.557266
O O1 0.264499 0.219173 0.330280
O O2 0.130281 0.124788 0.421882
O O3 0.141038 0.373402 0.391783
O O4 0.245775 0.266061 0.504021
O O5 0.500000 0.833735 0.891358
O O6 0.587325 0.784625 0.747914
O O7 0.500000 0.000000 0.758481
O O8 0.500000 0.500000 0.525042
O O9 0.588811 0.707864 0.538379
O O10 0.704298 0.647039 0.663873
O O11 0.738117 0.880303 0.690942
O O12 0.000000 0.500000 0.998968
O O13 0.840765 0.500000 0.072934
O O14 0.117515 0.500000 0.240965
O O15 0.000000 0.000000 0.870160
O O16 0.308072 0.500000 0.521089
#
# Coordination Sequence:
#
# PCOD8180139 Si02
#       8
#     8   4   4   8   4   4   4   8
#     4  11  23  39  65  89 120 161 202 251 317 373
#     4  11  19  32  61  92 124 165 211 253 290 360
#     4   9  19  32  56  85 119 160 209 251 286 354
#     4  11  22  37  60  91 126 161 206 249 303 361
#     4  12  25  44  64  91 125 161 202 269 340 380
#     4  10  21  37  62  88 113 158 201 254 307 366
#     4  10  21  40  62  89 114 149 203 256 300 374
#     4  11  21  38  60  88 121 165 207 247 298 362
#
# _framework density 18.747938999999999
#
# number of rings (size 3 to 8) (size 9 to 14) (size 15 to 20)
#    0.000    1.273    5.455    1.364    1.273    0.000 
#    0.000    0.000    0.000    2.182    0.000    0.000 
#    0.000    0.000    0.000    0.000    0.000    0.000 
#
# Total GULP energy -272767.487501 kJ/mol
# GULP energy per Si atom -12398.522159 kJ/mol
# Density = 1.870527 g / cm^3
# Si number density = 18.747939 Si / 1000 Ang^3
#
#
#
# Elastic Constant Matrix: (Units=GPa)
#
#
# Indices 1 2 3 4 5 6 
#
# 1 122.1930 27.4594 17.3221 0.0000 0.0000 0.0000
# 2 27.4594 72.5764 -14.4425 0.0000 0.0000 0.0000
# 3 17.3221 -14.4425 -86.3016 0.0000 0.0000 0.0000
# 4 0.0000 0.0000 0.0000 372.7535 0.0000 0.0000
# 5 0.0000 0.0000 0.0000 0.0000 19.8992 0.0000
# 6 0.0000 0.0000 0.0000 0.0000 0.0000 3.1006
#
#
#
# Elastic Compliance Matrix: (Units=1/GPa)
#
#
# Indices 1 2 3 4 5 6 
#
# 1 0.008502 -0.002784 0.002172 0.000000 0.000000 0.000000
# 2 -0.002784 0.014246 -0.002943 0.000000 0.000000 0.000000
# 3 0.002172 -0.002943 -0.010659 0.000000 0.000000 0.000000
# 4 0.000000 0.000000 0.000000 0.002683 0.000000 0.000000
# 5 0.000000 0.000000 0.000000 0.000000 0.050253 0.000000
# 6 0.000000 0.000000 0.000000 0.000000 0.000000 0.322517
#
#
# Mechanical properties :
#
#
# Convention : Reuss Voigt Hill
#
# Bulk Modulus (GPa) = 200.83062 18.79397 109.81229
# Shear Modulus (GPa) = 12.61633 84.35926 48.48779
#
# Velocity S-wave (km/s) = 2.59693 6.71522 5.09109
# Velocity P-wave (km/s) = 10.78638 8.37687 9.65707
#
# Compressibility (1/GPa) = 0.00497932
#
# Stress axis : x y z
#
# Youngs Moduli (GPa) = 117.62613 70.19335 -93.81964
#
# Poissons Ratio (x) = 0.19544 0.20381
# Poissons Ratio (y) = 0.32750 -0.27611
# Poissons Ratio (z) = -0.25552 0.20658
#
# Static dielectric constant tensor:
#      x y z
#    x 3.494490 0.000000 0.000000 
#    y 0.000000 1.555820 0.000000 
#    z 0.000000 0.000000 3.487300 
# 
# 
# High freq. dielectric constant tensor:
#      x y z
#    x 1.734060 0.000000 0.000000 
#    y 0.000000 1.714290 0.000000 
#    z 0.000000 0.000000 1.737350 
# 
# From -- ./inp_files/14456.got.cif
#   From: 2010.03.12/outbox.cif.g09.slc.cpg/sg38_8_cif.got.tgz:14456.got - 2010.04.14 02:38:36.
