data_PCOD8180133
_publ_section_title
;
Structure prediction by ZEFSAII (Michael W. Deem and Ramdas Pophale) SiO2 
 PCOD8180133
Probable space group: A M M 2
;
_chemical_formula_sum "Si O2"
_cell_formula_units_Z 48
_cell_length_a 8.955567
_cell_length_b 17.084585
_cell_length_c 16.496545
_cell_angle_alpha 90.000000
_cell_angle_beta 90.000000
_cell_angle_gamma 90.000000
_cell_volume 2524.006781
_symmetry_space_group_name_H-M "A M M 2"
_symmetry_group_IT_number 38
_symmetry_cell_setting 'orthorhombic'
loop_
_space_group_symop_operation_xyz
x,y,z
-x,-y,z
-x,y,z
x,-y,z
x,1/2+y,1/2+z
-x,1/2-y,1/2+z
-x,1/2+y,1/2+z
x,1/2-y,1/2+z
loop_
_atom_site_type_symbol
_atom_site_label
_atom_site_fract_x
_atom_site_fract_y
_atom_site_fract_z
Si Si1 0.826908 0.591028 0.587850
Si Si2 0.324853 0.692122 0.721452
Si Si3 0.826997 0.189219 0.932531
Si Si4 0.674976 0.155485 0.403624
Si Si5 0.176035 0.649949 0.251417
Si Si6 0.677223 0.500000 0.172704
Si Si7 0.677357 0.500000 0.987254
O O1 0.789083 0.500000 0.583656
O O2 0.724053 0.628768 0.656038
O O3 0.783948 0.626942 0.500986
O O4 0.000000 0.606154 0.608751
O O5 0.500000 0.709334 0.713882
O O6 0.282856 0.656857 0.808960
O O7 0.235747 0.772531 0.706397
O O8 0.741939 0.269960 0.950044
O O9 0.780603 0.152978 0.846176
O O10 0.000000 0.209968 0.933004
O O11 0.500000 0.158793 0.417631
O O12 0.742887 0.076679 0.442570
O O13 0.258196 0.575979 0.215152
O O14 0.000000 0.642530 0.237345
O O15 0.500000 0.500000 0.180495
O O16 0.730311 0.500000 0.079799
O O17 0.500000 0.500000 0.980326
#
# Coordination Sequence:
#
# PCOD8180133 Si02
#       7
#     8   8   8   8   8   4   4
#     4  10  22  38  58  84 116 150 188 234 286 340
#     4  10  21  37  60  86 115 148 189 236 285 340
#     4   9  20  38  60  83 110 147 190 235 282 337
#     4   9  19  37  60  82 110 149 187 227 282 341
#     4  10  21  39  62  84 114 153 193 233 287 343
#     4  11  23  37  57  88 121 148 190 239 285 337
#     4   9  20  37  57  82 113 148 182 227 281 333
#
# _framework density 19.017382000000001
#
# number of rings (size 3 to 8) (size 9 to 14) (size 15 to 20)
#    0.000    2.333    0.000    1.250    4.667    2.333 
#    0.000    1.250    0.000    0.000    0.000    0.000 
#    0.000    0.000    0.000    0.000    0.000    0.000 
#
# Total GULP energy -297686.739324 kJ/mol
# GULP energy per Si atom -12403.614138 kJ/mol
# Density = 1.897410 g / cm^3
# Si number density = 19.017382 Si / 1000 Ang^3
#
#
#
# Elastic Constant Matrix: (Units=GPa)
#
#
# Indices 1 2 3 4 5 6 
#
# 1 56.5822 52.4352 41.0407 0.0000 0.0000 0.0000
# 2 52.4352 176.6833 83.0380 0.0000 0.0000 0.0000
# 3 41.0407 83.0380 102.2724 0.0000 0.0000 0.0000
# 4 0.0000 0.0000 0.0000 36.7478 0.0000 0.0000
# 5 0.0000 0.0000 0.0000 0.0000 28.0122 0.0000
# 6 0.0000 0.0000 0.0000 0.0000 0.0000 35.1376
#
#
#
# Elastic Compliance Matrix: (Units=1/GPa)
#
#
# Indices 1 2 3 4 5 6 
#
# 1 0.027196 -0.004757 -0.007051 0.000000 0.000000 0.000000
# 2 -0.004757 0.009984 -0.006198 0.000000 0.000000 0.000000
# 3 -0.007051 -0.006198 0.017639 0.000000 0.000000 0.000000
# 4 0.000000 0.000000 0.000000 0.027213 0.000000 0.000000
# 5 0.000000 0.000000 0.000000 0.000000 0.035699 0.000000
# 6 0.000000 0.000000 0.000000 0.000000 0.000000 0.028460
#
#
# Mechanical properties :
#
#
# Convention : Reuss Voigt Hill
#
# Bulk Modulus (GPa) = 53.16804 76.50733 64.83768
# Shear Modulus (GPa) = 26.52911 30.58112 28.55512
#
# Velocity S-wave (km/s) = 3.73901 4.01441 3.87916
# Velocity P-wave (km/s) = 6.83071 7.86161 7.36422
#
# Compressibility (1/GPa) = 0.01880829
#
# Stress axis : x y z
#
# Youngs Moduli (GPa) = 36.76962 100.15526 56.69167
#
# Poissons Ratio (x) = 0.47648 0.39973
# Poissons Ratio (y) = 0.17493 0.35135
# Poissons Ratio (z) = 0.25926 0.62072
#
# Static dielectric constant tensor:
#      x y z
#    x 3.387270 0.000000 0.000000 
#    y 0.000000 3.796610 0.000000 
#    z 0.000000 0.000000 3.597010 
# 
# 
# High freq. dielectric constant tensor:
#      x y z
#    x 1.731350 0.000000 0.000000 
#    y 0.000000 1.750280 0.000000 
#    z 0.000000 0.000000 1.744130 
# 
# From -- ./inp_files/12057.got.cif
#   From: 2010.03.12/outbox.cif.g09.slc.cpg/sg38_7_cif.got.tgz:12057.got - 2010.04.14 02:38:36.
