data_PCOD8180219
_publ_section_title
;
Structure prediction by ZEFSAII (Michael W. Deem and Ramdas Pophale) SiO2 
 PCOD8180219
Probable space group: A M M 2
;
_chemical_formula_sum "Si O2"
_cell_formula_units_Z 48
_cell_length_a 17.165297
_cell_length_b 8.833857
_cell_length_c 15.891041
_cell_angle_alpha 90.000000
_cell_angle_beta 90.000000
_cell_angle_gamma 90.000000
_cell_volume 2409.650382
_symmetry_space_group_name_H-M "A M M 2"
_symmetry_group_IT_number 38
_symmetry_cell_setting 'orthorhombic'
loop_
_space_group_symop_operation_xyz
x,y,z
-x,-y,z
-x,y,z
x,-y,z
x,1/2+y,1/2+z
-x,1/2-y,1/2+z
-x,1/2+y,1/2+z
x,1/2-y,1/2+z
loop_
_atom_site_type_symbol
_atom_site_label
_atom_site_fract_x
_atom_site_fract_y
_atom_site_fract_z
Si Si1 0.500000 0.164977 0.243011
Si Si2 0.500000 0.163360 0.432785
Si Si3 0.180526 0.673198 0.183803
Si Si4 0.356387 0.174337 0.669724
Si Si5 0.087833 0.179173 0.334412
Si Si6 0.811177 0.320698 0.991649
Si Si7 0.349351 0.176673 0.995288
O O1 0.500000 0.117631 0.337649
O O2 0.575983 0.268288 0.229992
O O3 0.500000 0.000000 0.193856
O O4 0.575926 0.261354 0.448454
O O5 0.500000 0.000000 0.482549
O O6 0.153132 0.500000 0.189112
O O7 0.270962 0.689806 0.211094
O O8 0.130530 0.766801 0.250129
O O9 0.167367 0.733279 0.087227
O O10 0.361012 0.286953 0.592199
O O11 0.370502 0.000000 0.642668
O O12 0.126425 0.235544 0.422242
O O13 0.000000 0.242331 0.333476
O O14 0.089349 0.000000 0.332725
O O15 0.802419 0.500000 0.993249
O O16 0.729072 0.253941 0.961138
O O17 0.342293 0.000000 0.979098
#
# Coordination Sequence:
#
# PCOD8180219 Si02
#       7
#     4   4   8   8   8   8   8
#     4  11  24  37  54  83 115 151 196 241 286 337
#     4  11  24  39  54  79 117 157 194 235 290 343
#     4   9  20  38  61  88 116 153 197 241 291 349
#     4  10  21  39  60  81 113 153 192 237 293 348
#     4  10  22  39  61  89 120 154 192 238 295 357
#     4   9  20  40  62  85 117 159 199 238 294 357
#     4  11  22  37  59  85 113 148 196 244 287 339
#
# _framework density 19.919902
#
# number of rings (size 3 to 8) (size 9 to 14) (size 15 to 20)
#    0.000    2.000    0.000    4.000    2.333    6.333 
#    0.000    1.667    0.000    0.000    0.000    0.000 
#    0.000    0.000    0.000    0.000    0.000    0.000 
#
# Total GULP energy -297460.665583 kJ/mol
# GULP energy per Si atom -12394.194399 kJ/mol
# Density = 1.987456 g / cm^3
# Si number density = 19.919902 Si / 1000 Ang^3
#
#
#
# Elastic Constant Matrix: (Units=GPa)
#
#
# Indices 1 2 3 4 5 6 
#
# 1 158.2644 41.9802 79.1933 0.0000 0.0000 0.0000
# 2 41.9802 55.3636 29.8785 0.0000 0.0000 0.0000
# 3 79.1933 29.8785 101.7712 0.0000 0.0000 0.0000
# 4 0.0000 0.0000 0.0000 27.2978 0.0000 0.0000
# 5 0.0000 0.0000 0.0000 0.0000 30.3360 0.0000
# 6 0.0000 0.0000 0.0000 0.0000 0.0000 35.5275
#
#
#
# Elastic Compliance Matrix: (Units=1/GPa)
#
#
# Indices 1 2 3 4 5 6 
#
# 1 0.011222 -0.004511 -0.007408 0.000000 0.000000 0.000000
# 2 -0.004511 0.023277 -0.003323 0.000000 0.000000 0.000000
# 3 -0.007408 -0.003323 0.016566 0.000000 0.000000 0.000000
# 4 0.000000 0.000000 0.000000 0.036633 0.000000 0.000000
# 5 0.000000 0.000000 0.000000 0.000000 0.032964 0.000000
# 6 0.000000 0.000000 0.000000 0.000000 0.000000 0.028147
#
#
# Mechanical properties :
#
#
# Convention : Reuss Voigt Hill
#
# Bulk Modulus (GPa) = 48.59128 68.61147 58.60137
# Shear Modulus (GPa) = 26.85947 29.58872 28.22409
#
# Velocity S-wave (km/s) = 3.67600 3.85825 3.76823
# Velocity P-wave (km/s) = 6.51641 7.37337 6.95810
#
# Compressibility (1/GPa) = 0.02057983
#
# Stress axis : x y z
#
# Youngs Moduli (GPa) = 89.11034 42.96153 60.36426
#
# Poissons Ratio (x) = 0.19382 0.44718
# Poissons Ratio (y) = 0.40201 0.20060
# Poissons Ratio (z) = 0.66013 0.14277
#
# Static dielectric constant tensor:
#      x y z
#    x 3.937000 0.000000 0.000000 
#    y 0.000000 3.544010 0.000000 
#    z 0.000000 0.000000 3.616270 
# 
# 
# High freq. dielectric constant tensor:
#      x y z
#    x 1.780840 0.000000 0.000000 
#    y 0.000000 1.777210 0.000000 
#    z 0.000000 0.000000 1.772460 
# 
# From -- ./inp_files/14986.got.cif
#   From: 2010.03.12/outbox.cif.g09.slc.cpg/sg38_8_cif.got.tgz:14986.got - 2010.04.14 02:38:36.
