data_PCOD8180113
_publ_section_title
;
Structure prediction by ZEFSAII (Michael W. Deem and Ramdas Pophale) SiO2 
 PCOD8180113
Probable space group: A M M 2
;
_chemical_formula_sum "Si O2"
_cell_formula_units_Z 56
_cell_length_a 14.384845
_cell_length_b 14.187845
_cell_length_c 13.988519
_cell_angle_alpha 90.000000
_cell_angle_beta 90.000000
_cell_angle_gamma 90.000000
_cell_volume 2854.916160
_symmetry_space_group_name_H-M "A M M 2"
_symmetry_group_IT_number 38
_symmetry_cell_setting 'orthorhombic'
loop_
_space_group_symop_operation_xyz
x,y,z
-x,-y,z
-x,y,z
x,-y,z
x,1/2+y,1/2+z
-x,1/2-y,1/2+z
-x,1/2+y,1/2+z
x,1/2-y,1/2+z
loop_
_atom_site_type_symbol
_atom_site_label
_atom_site_fract_x
_atom_site_fract_y
_atom_site_fract_z
Si Si1 0.102306 0.106568 0.654400
Si Si2 0.097584 0.890345 0.273272
Si Si3 0.608776 0.254406 0.610923
Si Si4 0.701820 0.236572 0.910052
Si Si5 0.298875 0.387487 0.754109
Si Si6 0.707047 0.891168 0.739603
Si Si7 0.897988 0.784489 0.461777
O O1 0.181344 0.125528 0.733483
O O2 0.119363 0.174004 0.565743
O O3 0.000000 0.124336 0.700488
O O4 0.110656 0.000000 0.616458
O O5 0.192893 0.857564 0.221914
O O6 0.103017 0.869020 0.385655
O O7 0.000000 0.845744 0.230668
O O8 0.090851 0.000000 0.260327
O O9 0.500000 0.238335 0.618119
O O10 0.636165 0.269431 0.501322
O O11 0.634537 0.347715 0.671962
O O12 0.658727 0.161361 0.651105
O O13 0.683111 0.336569 0.856182
O O14 0.672366 0.152143 0.839352
O O15 0.809855 0.218078 0.939165
O O16 0.312415 0.500000 0.765919
O O17 0.678719 0.000000 0.734939
O O18 0.000000 0.732834 0.457954
#
# Coordination Sequence:
#
# PCOD8180113 Si02
#       7
#     8   8   8   8   8   8   8
#     4   9  16  28  52  85 118 152 189 230 278 337
#     4   8  13  24  47  81 118 150 179 217 266 325
#     4  11  24  42  60  81 112 148 192 249 301 347
#     4  10  21  37  58  87 118 151 191 235 288 341
#     4   9  20  38  61  88 117 149 186 232 285 344
#     4  10  22  40  61  86 118 154 193 237 288 349
#     4   9  15  26  48  81 116 151 189 225 269 330
#
# _framework density 19.615286999999999
#
# number of rings (size 3 to 8) (size 9 to 14) (size 15 to 20)
#    0.000    2.571    1.429    0.429    0.000    6.857 
#    0.000    2.857    0.000    0.000    0.000    4.000 
#    0.000    0.000    0.000    0.000    0.000    0.000 
#
# Total GULP energy -346884.950129 kJ/mol
# GULP energy per Si atom -12388.748219 kJ/mol
# Density = 1.957064 g / cm^3
# Si number density = 19.615287 Si / 1000 Ang^3
#
#
#
# Elastic Constant Matrix: (Units=GPa)
#
#
# Indices 1 2 3 4 5 6 
#
# 1 114.1146 26.4093 38.2539 0.0000 0.0000 0.0000
# 2 26.4093 86.9095 32.9512 0.0000 0.0000 0.0000
# 3 38.2539 32.9512 89.2396 0.0000 0.0000 0.0000
# 4 0.0000 0.0000 0.0000 16.3142 0.0000 0.0000
# 5 0.0000 0.0000 0.0000 0.0000 21.7876 0.0000
# 6 0.0000 0.0000 0.0000 0.0000 0.0000 18.7564
#
#
#
# Elastic Compliance Matrix: (Units=1/GPa)
#
#
# Indices 1 2 3 4 5 6 
#
# 1 0.010450 -0.001717 -0.003845 0.000000 0.000000 0.000000
# 2 -0.001717 0.013662 -0.004308 0.000000 0.000000 0.000000
# 3 -0.003845 -0.004308 0.014445 0.000000 0.000000 0.000000
# 4 0.000000 0.000000 0.000000 0.061296 0.000000 0.000000
# 5 0.000000 0.000000 0.000000 0.000000 0.045898 0.000000
# 6 0.000000 0.000000 0.000000 0.000000 0.000000 0.053315
#
#
# Mechanical properties :
#
#
# Convention : Reuss Voigt Hill
#
# Bulk Modulus (GPa) = 53.15126 53.94361 53.54743
# Shear Modulus (GPa) = 22.21449 24.21492 23.21471
#
# Velocity S-wave (km/s) = 3.36893 3.51735 3.44394
# Velocity P-wave (km/s) = 6.50297 6.63748 6.57057
#
# Compressibility (1/GPa) = 0.01881423
#
# Stress axis : x y z
#
# Youngs Moduli (GPa) = 95.69746 73.19809 69.22854
#
# Poissons Ratio (x) = 0.12571 0.26620
# Poissons Ratio (y) = 0.16435 0.29825
# Poissons Ratio (z) = 0.36798 0.31536
#
# Static dielectric constant tensor:
#      x y z
#    x 4.202870 0.000000 0.000000 
#    y 0.000000 3.377870 0.000000 
#    z 0.000000 0.000000 3.340470 
# 
# 
# High freq. dielectric constant tensor:
#      x y z
#    x 1.770940 0.000000 0.000000 
#    y 0.000000 1.742780 0.000000 
#    z 0.000000 0.000000 1.745940 
# 
# From -- ./inp_files/10080.got.cif
#   From: 2010.03.12/outbox.cif.g09.slc.cpg/sg38_6_cif.got.tgz:10080.got - 2010.04.14 02:38:36.
