data_PCOD8180081
_publ_section_title
;
Structure prediction by ZEFSAII (Michael W. Deem and Ramdas Pophale) SiO2 
 PCOD8180081
Probable space group: A M M 2
;
_chemical_formula_sum "Si O2"
_cell_formula_units_Z 32
_cell_length_a 13.795079
_cell_length_b 7.703276
_cell_length_c 15.399531
_cell_angle_alpha 90.000000
_cell_angle_beta 90.000000
_cell_angle_gamma 90.000000
_cell_volume 1636.466596
_symmetry_space_group_name_H-M "A M M 2"
_symmetry_group_IT_number 38
_symmetry_cell_setting 'orthorhombic'
loop_
_space_group_symop_operation_xyz
x,y,z
-x,-y,z
-x,y,z
x,-y,z
x,1/2+y,1/2+z
-x,1/2-y,1/2+z
-x,1/2+y,1/2+z
x,1/2-y,1/2+z
loop_
_atom_site_type_symbol
_atom_site_label
_atom_site_fract_x
_atom_site_fract_y
_atom_site_fract_z
Si Si1 0.891238 0.000000 0.544580
Si Si2 0.716051 0.689662 0.306735
Si Si3 0.393886 0.695417 0.646148
Si Si4 0.890327 0.500000 0.250254
Si Si5 0.252027 0.292143 0.498852
O O1 0.844091 0.821596 0.510237
O O2 0.889492 0.000000 0.647624
O O3 0.000000 0.000000 0.508679
O O4 0.666794 0.500000 0.297161
O O5 0.660176 0.809995 0.238932
O O6 0.831744 0.671085 0.284435
O O7 0.703252 0.756475 0.404916
O O8 0.500000 0.787335 0.651569
O O9 0.410288 0.500000 0.616694
O O10 0.327080 0.779417 0.571453
O O11 0.000000 0.500000 0.287148
O O12 0.228828 0.500000 0.505716
#
# Coordination Sequence:
#
# PCOD8180081 Si02
#       5
#     4   8   8   4   8
#     4  11  22  38  60  87 116 153 197 234 287 345
#     4   9  19  36  59  82 110 150 184 233 286 339
#     4  10  21  37  57  82 114 150 192 239 290 344
#     4   9  18  36  58  83 112 145 189 236 285 339
#     4  10  21  39  60  84 119 153 189 240 287 338
#
# _framework density 19.554324000000001
#
# number of rings (size 3 to 8) (size 9 to 14) (size 15 to 20)
#    0.750    1.500    2.500    0.000    1.750    3.000 
#    0.000    2.500    0.000    0.000    0.000    0.000 
#    0.000    0.000    0.000    0.000    0.000    0.000 
#
# Total GULP energy -198215.106165 kJ/mol
# GULP energy per Si atom -12388.444135 kJ/mol
# Density = 1.950982 g / cm^3
# Si number density = 19.554324 Si / 1000 Ang^3
#
#
#
# Elastic Constant Matrix: (Units=GPa)
#
#
# Indices 1 2 3 4 5 6 
#
# 1 152.0855 37.1026 60.4031 0.0000 0.0000 0.0000
# 2 37.1026 55.0424 21.2422 0.0000 0.0000 0.0000
# 3 60.4031 21.2422 144.8928 0.0000 0.0000 0.0000
# 4 0.0000 0.0000 0.0000 18.4338 0.0000 0.0000
# 5 0.0000 0.0000 0.0000 0.0000 12.2591 0.0000
# 6 0.0000 0.0000 0.0000 0.0000 0.0000 20.4814
#
#
#
# Elastic Compliance Matrix: (Units=1/GPa)
#
#
# Indices 1 2 3 4 5 6 
#
# 1 0.008965 -0.004877 -0.003023 0.000000 0.000000 0.000000
# 2 -0.004877 0.021910 -0.001179 0.000000 0.000000 0.000000
# 3 -0.003023 -0.001179 0.008335 0.000000 0.000000 0.000000
# 4 0.000000 0.000000 0.000000 0.054248 0.000000 0.000000
# 5 0.000000 0.000000 0.000000 0.000000 0.081572 0.000000
# 6 0.000000 0.000000 0.000000 0.000000 0.000000 0.048825
#
#
# Mechanical properties :
#
#
# Convention : Reuss Voigt Hill
#
# Bulk Modulus (GPa) = 47.49875 65.50184 56.50030
# Shear Modulus (GPa) = 20.07792 25.78640 22.93216
#
# Velocity S-wave (km/s) = 3.20781 3.63534 3.42825
# Velocity P-wave (km/s) = 6.16956 7.15479 6.68036
#
# Compressibility (1/GPa) = 0.02105318
#
# Stress axis : x y z
#
# Youngs Moduli (GPa) = 111.53917 45.64077 119.98230
#
# Poissons Ratio (x) = 0.22259 0.36265
# Poissons Ratio (y) = 0.54396 0.14147
# Poissons Ratio (z) = 0.33713 0.05381
#
# Static dielectric constant tensor:
#      x y z
#    x 3.774830 0.000000 0.000000 
#    y 0.000000 3.247250 0.000000 
#    z 0.000000 0.000000 3.559040 
# 
# 
# High freq. dielectric constant tensor:
#      x y z
#    x 1.751440 0.000000 0.000000 
#    y 0.000000 1.736650 0.000000 
#    z 0.000000 0.000000 1.772320 
# 
# From -- ./inp_files/14133.got.cif
#   From: 2010.03.12/outbox.cif.g09.slc.cpg/sg38_8_cif.got.tgz:14133.got - 2010.04.14 02:38:36.
