data_PCOD8180777
_publ_section_title
;
Structure prediction by ZEFSAII (Michael W. Deem and Ramdas Pophale) SiO2 
 PCOD8180777
Probable space group: A B M 2
;
_chemical_formula_sum "Si O2"
_cell_formula_units_Z 48
_cell_length_a 9.116830
_cell_length_b 8.599006
_cell_length_c 31.257621
_cell_angle_alpha 90.000000
_cell_angle_beta 90.000000
_cell_angle_gamma 90.000000
_cell_volume 2450.462324
_symmetry_space_group_name_H-M "A B M 2"
_symmetry_group_IT_number 39
_symmetry_cell_setting 'orthorhombic'
loop_
_space_group_symop_operation_xyz
x,y,z
-x,-y,z
-x,1/2+y,z
x,1/2-y,z
x,1/2+y,1/2+z
-x,1/2-y,1/2+z
-x,y,1/2+z
x,-y,1/2+z
loop_
_atom_site_type_symbol
_atom_site_label
_atom_site_fract_x
_atom_site_fract_y
_atom_site_fract_z
Si Si1 0.162391 0.433912 0.120240
Si Si2 0.163007 0.565494 0.032820
Si Si3 0.838017 0.934246 0.946128
Si Si4 0.660819 0.565619 0.698587
Si Si5 0.661244 0.566096 0.863334
Si Si6 0.838840 0.066691 0.282030
O O1 0.151282 0.250000 0.118214
O O2 0.235020 0.497817 0.076095
O O3 0.269316 0.486186 0.157472
O O4 0.000000 0.500000 0.128159
O O5 0.165344 0.750000 0.034217
O O6 0.000000 0.500000 0.031467
O O7 0.238399 0.503602 0.989208
O O8 0.847458 0.750000 0.950002
O O9 0.738726 0.990088 0.906771
O O10 0.000000 0.000000 0.938762
O O11 0.500000 0.500000 0.705652
O O12 0.657391 0.750000 0.692428
O O13 0.754600 0.514012 0.739524
O O14 0.500000 0.500000 0.861229
O O15 0.652726 0.750000 0.861242
O O16 0.753129 0.499935 0.823209
O O17 0.849868 0.250000 0.284960
O O18 0.000000 0.000000 0.280805
#
# Coordination Sequence:
#
# PCOD8180777 Si02
#       6
#     8   8   8   8   8   8
#     4  11  21  36  58  84 114 148 189 235 282 332
#     4  10  18  31  53  81 111 144 185 231 281 330
#     4  10  19  33  54  81 111 144 186 231 277 328
#     4  11  23  39  58  83 115 150 188 229 280 336
#     4  10  22  38  56  81 113 148 185 226 274 329
#     4  10  22  39  60  86 113 144 185 230 275 327
#
# _framework density 19.588139999999999
#
# number of rings (size 3 to 8) (size 9 to 14) (size 15 to 20)
#    0.000    1.667    0.000    7.500    0.000    4.667 
#    0.000    0.833    0.000    2.000    0.000    0.000 
#    0.000    0.000    0.000    0.000    0.000    0.000 
#
# Total GULP energy -297619.088709 kJ/mol
# GULP energy per Si atom -12400.795363 kJ/mol
# Density = 1.954356 g / cm^3
# Si number density = 19.588140 Si / 1000 Ang^3
#
#
#
# Elastic Constant Matrix: (Units=GPa)
#
#
# Indices 1 2 3 4 5 6 
#
# 1 130.7074 39.7126 88.5875 0.0000 0.0000 0.0000
# 2 39.7126 105.0368 64.9519 0.0000 0.0000 0.0000
# 3 88.5875 64.9519 209.8873 0.0000 0.0000 0.0000
# 4 0.0000 0.0000 0.0000 27.0435 0.0000 0.0000
# 5 0.0000 0.0000 0.0000 0.0000 10.4391 0.0000
# 6 0.0000 0.0000 0.0000 0.0000 0.0000 31.9778
#
#
#
# Elastic Compliance Matrix: (Units=1/GPa)
#
#
# Indices 1 2 3 4 5 6 
#
# 1 0.010925 -0.001582 -0.004121 0.000000 0.000000 0.000000
# 2 -0.001582 0.012003 -0.003047 0.000000 0.000000 0.000000
# 3 -0.004121 -0.003047 0.007447 0.000000 0.000000 0.000000
# 4 0.000000 0.000000 0.000000 0.036978 0.000000 0.000000
# 5 0.000000 0.000000 0.000000 0.000000 0.095794 0.000000
# 6 0.000000 0.000000 0.000000 0.000000 0.000000 0.031272
#
#
# Mechanical properties :
#
#
# Convention : Reuss Voigt Hill
#
# Bulk Modulus (GPa) = 77.67542 92.45948 85.06745
# Shear Modulus (GPa) = 23.12585 30.71737 26.92161
#
# Velocity S-wave (km/s) = 3.43972 3.96430 3.71129
# Velocity P-wave (km/s) = 7.45090 8.26187 7.86684
#
# Compressibility (1/GPa) = 0.01287409
#
# Stress axis : x y z
#
# Youngs Moduli (GPa) = 91.53641 83.31590 134.28507
#
# Poissons Ratio (x) = 0.13179 0.55345
# Poissons Ratio (y) = 0.14479 0.40912
# Poissons Ratio (z) = 0.37726 0.25384
#
# Static dielectric constant tensor:
#      x y z
#    x 2.952700 0.000000 0.000000 
#    y 0.000000 3.610210 0.000000 
#    z 0.000000 0.000000 4.465510 
# 
# 
# High freq. dielectric constant tensor:
#      x y z
#    x 1.741140 0.000000 0.000000 
#    y 0.000000 1.771280 0.000000 
#    z 0.000000 0.000000 1.792650 
# 
# From -- ./inp_files/17615.got.cif
#   From: 2010.03.12/outbox.cif.g09.slc.cpg/sg39_9_cif.got.tgz:17615.got - 2010.04.14 02:53:20.
