data_PCOD8180623
_publ_section_title
;
Structure prediction by ZEFSAII (Michael W. Deem and Ramdas Pophale) SiO2 
 PCOD8180623
Probable space group: A B M 2
;
_chemical_formula_sum "Si O2"
_cell_formula_units_Z 64
_cell_length_a 21.204297
_cell_length_b 28.434298
_cell_length_c 5.295570
_cell_angle_alpha 90.000000
_cell_angle_beta 90.000000
_cell_angle_gamma 90.000000
_cell_volume 3192.854312
_symmetry_space_group_name_H-M "A B M 2"
_symmetry_group_IT_number 39
_symmetry_cell_setting 'orthorhombic'
loop_
_space_group_symop_operation_xyz
x,y,z
-x,-y,z
-x,1/2+y,z
x,1/2-y,z
x,1/2+y,1/2+z
-x,1/2-y,1/2+z
-x,y,1/2+z
x,-y,1/2+z
loop_
_atom_site_type_symbol
_atom_site_label
_atom_site_fract_x
_atom_site_fract_y
_atom_site_fract_z
Si Si1 0.478695 0.391586 0.644340
Si Si2 0.153896 0.371838 0.134447
Si Si3 0.366805 0.332154 0.644814
Si Si4 0.429666 0.198280 0.145069
Si Si5 0.037895 0.694895 0.661666
Si Si6 0.872040 0.977490 0.125020
Si Si7 0.766070 0.375343 0.139998
Si Si8 0.732429 0.982700 0.649052
O O1 0.500206 0.420073 0.394636
O O2 0.404016 0.382506 0.643533
O O3 0.515061 0.340616 0.645648
O O4 0.104158 0.330967 0.178012
O O5 0.117863 0.421668 0.124430
O O6 0.201539 0.371065 0.368803
O O7 0.188165 0.361635 0.869229
O O8 0.385287 0.304849 0.390944
O O9 0.292464 0.340129 0.644673
O O10 0.385140 0.305178 0.899779
O O11 0.461702 0.250000 0.144032
O O12 0.052425 0.750000 0.666135
O O13 0.002953 0.679931 0.404645
O O14 0.904068 0.000112 0.374525
O O15 0.797891 0.988859 0.116451
O O16 0.742171 0.427880 0.184303
O O17 0.694995 0.995567 0.390294
#
# Coordination Sequence:
#
# PCOD8180623 Si02
#       8
#     8   8   8   8   8   8   8   8
#     4   8  16  29  47  66  91 127 180 227 260 310
#     4  12  21  35  63  86 110 148 180 218 275 330
#     4  10  21  32  45  75 108 134 174 221 267 315
#     4  10  19  34  52  67  92 139 191 231 269 317
#     4  10  23  45  67  84 104 139 197 247 261 292
#     4  10  16  30  51  85 111 142 173 209 253 323
#     4  12  21  33  52  84 117 144 170 212 272 340
#     4  10  16  30  49  76 106 145 176 205 240 313
#
# _framework density 20.04476
#
# number of rings (size 3 to 8) (size 9 to 14) (size 15 to 20)
#    0.000    1.750    5.000    1.875    0.000    4.500 
#    0.000    3.750    0.000    2.250    0.000    0.000 
#    0.000   27.000    0.000    0.000    0.000    0.000 
#
# Total GULP energy -396610.436419 kJ/mol
# GULP energy per Si atom -12394.076138 kJ/mol
# Density = 1.999914 g / cm^3
# Si number density = 20.044760 Si / 1000 Ang^3
#
#
#
# Elastic Constant Matrix: (Units=GPa)
#
#
# Indices 1 2 3 4 5 6 
#
# 1 48.5094 23.8958 12.1544 0.0000 0.0000 0.0000
# 2 23.8958 38.5328 11.1446 0.0000 0.0000 0.0000
# 3 12.1544 11.1446 174.9419 0.0000 0.0000 0.0000
# 4 0.0000 0.0000 0.0000 25.6245 0.0000 0.0000
# 5 0.0000 0.0000 0.0000 0.0000 14.9053 0.0000
# 6 0.0000 0.0000 0.0000 0.0000 0.0000 -0.5477
#
#
#
# Elastic Compliance Matrix: (Units=1/GPa)
#
#
# Indices 1 2 3 4 5 6 
#
# 1 0.029824 -0.018231 -0.000911 0.000000 0.000000 0.000000
# 2 -0.018231 0.037584 -0.001128 0.000000 0.000000 0.000000
# 3 -0.000911 -0.001128 0.005851 0.000000 0.000000 0.000000
# 4 0.000000 0.000000 0.000000 0.039025 0.000000 0.000000
# 5 0.000000 0.000000 0.000000 0.000000 0.067090 0.000000
# 6 0.000000 0.000000 0.000000 0.000000 0.000000 -1.825804
#
#
# Mechanical properties :
#
#
# Convention : Reuss Voigt Hill
#
# Bulk Modulus (GPa) = 30.56273 39.59707 35.07990
# Shear Modulus (GPa) = -3.13483 22.31571 9.59044
#
# Velocity S-wave (km/s) = -1.25192 3.34023 2.18973
# Velocity P-wave (km/s) = 3.63189 5.88841 4.89203
#
# Compressibility (1/GPa) = 0.03271959
#
# Stress axis : x y z
#
# Youngs Moduli (GPa) = 33.53056 26.60702 170.90258
#
# Poissons Ratio (x) = 0.48508 0.15563
# Poissons Ratio (y) = 0.61131 0.19271
# Poissons Ratio (z) = 0.03053 0.03000
#
# Static dielectric constant tensor:
#      x y z
#    x 3.186770 0.000000 0.000000 
#    y 0.000000 3.308920 0.000000 
#    z 0.000000 0.000000 5.445350 
# 
# 
# High freq. dielectric constant tensor:
#      x y z
#    x 1.735870 0.000000 0.000000 
#    y 0.000000 1.748000 0.000000 
#    z 0.000000 0.000000 1.828840 
# 
# From -- ./inp_files/912.got.cif
#   From: 2010.03.12/outbox.cif.g09.slc.cpg/sg39_1_cif.got.tgz:912.got - 2010.04.14 02:53:20.
