data_PCOD8180966
_publ_section_title
;
Structure prediction by ZEFSAII (Michael W. Deem and Ramdas Pophale) SiO2 
 PCOD8180966
Probable space group: A B M 2
;
_chemical_formula_sum "Si O2"
_cell_formula_units_Z 64
_cell_length_a 14.250076
_cell_length_b 8.654346
_cell_length_c 31.318028
_cell_angle_alpha 90.000000
_cell_angle_beta 90.000000
_cell_angle_gamma 90.000000
_cell_volume 3862.298566
_symmetry_space_group_name_H-M "A B M 2"
_symmetry_group_IT_number 39
_symmetry_cell_setting 'orthorhombic'
loop_
_space_group_symop_operation_xyz
x,y,z
-x,-y,z
-x,1/2+y,z
x,1/2-y,z
x,1/2+y,1/2+z
-x,1/2-y,1/2+z
-x,y,1/2+z
x,-y,1/2+z
loop_
_atom_site_type_symbol
_atom_site_label
_atom_site_fract_x
_atom_site_fract_y
_atom_site_fract_z
Si Si1 0.401062 0.069557 0.708380
Si Si2 0.100918 0.570046 0.409356
Si Si3 0.401649 0.569391 0.108737
Si Si4 0.784374 0.432217 0.582695
Si Si5 0.895369 0.566742 0.816535
Si Si6 0.897091 0.432340 0.501198
Si Si7 0.898076 0.067793 0.160056
Si Si8 0.788270 0.067749 0.738779
O O1 0.400057 0.250000 0.718492
O O2 0.384673 0.035800 0.658583
O O3 0.500000 0.000000 0.723730
O O4 0.318455 0.988161 0.734411
O O5 0.086639 0.750000 0.411367
O O6 0.148676 0.527510 0.363901
O O7 0.147540 0.516965 0.454663
O O8 0.000000 0.500000 0.408027
O O9 0.500000 0.500000 0.093662
O O10 0.397886 0.750000 0.098501
O O11 0.324310 0.478474 0.081524
O O12 0.796704 0.250000 0.589682
O O13 0.828559 0.491676 0.538301
O O14 0.832031 0.522804 0.621168
O O15 0.898576 0.750000 0.807915
O O16 0.824547 0.483459 0.784823
O O17 0.000000 0.500000 0.810922
O O18 0.906719 0.250000 0.504340
O O19 0.000000 0.500000 0.508506
O O20 0.904847 0.250000 0.163382
O O21 0.856118 0.006024 0.203885
O O22 0.000000 0.000000 0.151649
O O23 0.792225 0.250000 0.733772
#
# Coordination Sequence:
#
# PCOD8180966 Si02
#       8
#     8   8   8   8   8   8   8   8
#     4  10  20  35  54  75  98 127 162 205 248 292
#     4   8  15  29  48  69  95 127 163 203 246 288
#     4  10  20  34  53  73  97 127 163 207 249 293
#     4  11  21  33  50  73 101 132 166 203 244 292
#     4  10  19  32  50  72 100 132 167 206 247 294
#     4   9  18  31  48  72 100 132 167 203 243 289
#     4  12  24  37  49  66  96 134 172 205 240 287
#     4  12  23  35  51  72  99 131 166 204 245 293
#
# _framework density 16.570443999999998
#
# number of rings (size 3 to 8) (size 9 to 14) (size 15 to 20)
#    0.000    1.750    1.250    4.500    0.000    3.500 
#    0.000    0.000    0.000    0.000    0.000    0.875 
#    0.000    4.000    0.000    0.000    0.000    0.000 
#
# Total GULP energy -396655.653310 kJ/mol
# GULP energy per Si atom -12395.489166 kJ/mol
# Density = 1.653273 g / cm^3
# Si number density = 16.570444 Si / 1000 Ang^3
#
#
#
# Elastic Constant Matrix: (Units=GPa)
#
#
# Indices 1 2 3 4 5 6 
#
# 1 101.0038 34.0532 46.6680 0.0000 0.0000 0.0000
# 2 34.0532 83.9270 35.5883 0.0000 0.0000 0.0000
# 3 46.6680 35.5883 111.5839 0.0000 0.0000 0.0000
# 4 0.0000 0.0000 0.0000 23.4169 0.0000 0.0000
# 5 0.0000 0.0000 0.0000 0.0000 11.2209 0.0000
# 6 0.0000 0.0000 0.0000 0.0000 0.0000 29.7565
#
#
#
# Elastic Compliance Matrix: (Units=1/GPa)
#
#
# Indices 1 2 3 4 5 6 
#
# 1 0.013085 -0.003456 -0.004370 0.000000 0.000000 0.000000
# 2 -0.003456 0.014691 -0.003240 0.000000 0.000000 0.000000
# 3 -0.004370 -0.003240 0.011823 0.000000 0.000000 0.000000
# 4 0.000000 0.000000 0.000000 0.042704 0.000000 0.000000
# 5 0.000000 0.000000 0.000000 0.000000 0.089119 0.000000
# 6 0.000000 0.000000 0.000000 0.000000 0.000000 0.033606
#
#
# Mechanical properties :
#
#
# Convention : Reuss Voigt Hill
#
# Bulk Modulus (GPa) = 57.25282 58.79263 58.02272
# Shear Modulus (GPa) = 21.46065 24.89254 23.17660
#
# Velocity S-wave (km/s) = 3.60268 3.88006 3.74394
# Velocity P-wave (km/s) = 7.20638 7.45859 7.33357
#
# Compressibility (1/GPa) = 0.01746639
#
# Stress axis : x y z
#
# Youngs Moduli (GPa) = 76.42279 68.06721 84.58009
#
# Poissons Ratio (x) = 0.23524 0.36965
# Poissons Ratio (y) = 0.26412 0.27406
# Poissons Ratio (z) = 0.33399 0.22055
#
# Static dielectric constant tensor:
#      x y z
#    x 3.114540 0.000000 0.000000 
#    y 0.000000 3.160480 0.000000 
#    z 0.000000 0.000000 3.620240 
# 
# 
# High freq. dielectric constant tensor:
#      x y z
#    x 1.617780 0.000000 0.000000 
#    y 0.000000 1.654750 0.000000 
#    z 0.000000 0.000000 1.634530 
# 
# From -- ./inp_files/17997.got.cif
#   From: 2010.03.12/outbox.cif.g09.slc.cpg/sg39_9_cif.got.tgz:17997.got - 2010.04.14 02:53:20.
