data_PCOD8180787
_publ_section_title
;
Structure prediction by ZEFSAII (Michael W. Deem and Ramdas Pophale) SiO2 
 PCOD8180787
Probable space group: A B M 2
;
_chemical_formula_sum "Si O2"
_cell_formula_units_Z 48
_cell_length_a 9.280287
_cell_length_b 10.094715
_cell_length_c 28.056566
_cell_angle_alpha 90.000000
_cell_angle_beta 90.000000
_cell_angle_gamma 90.000000
_cell_volume 2628.391074
_symmetry_space_group_name_H-M "A B M 2"
_symmetry_group_IT_number 39
_symmetry_cell_setting 'orthorhombic'
loop_
_space_group_symop_operation_xyz
x,y,z
-x,-y,z
-x,1/2+y,z
x,1/2-y,z
x,1/2+y,1/2+z
-x,1/2-y,1/2+z
-x,y,1/2+z
x,-y,1/2+z
loop_
_atom_site_type_symbol
_atom_site_label
_atom_site_fract_x
_atom_site_fract_y
_atom_site_fract_z
Si Si1 0.869164 0.099519 0.505250
Si Si2 0.134376 0.750000 0.341560
Si Si3 0.295381 0.750000 0.244845
Si Si4 0.371649 0.250000 0.262817
Si Si5 0.133034 0.099038 0.110097
Si Si6 0.204193 0.250000 0.359662
Si Si7 0.334215 0.514810 0.694085
Si Si8 0.170299 0.485754 0.907731
O O1 0.924121 0.250000 0.496290
O O2 0.794106 0.088353 0.557194
O O3 0.768305 0.058138 0.459988
O O4 0.000000 0.000000 0.507918
O O5 0.179202 0.750000 0.286775
O O6 0.202554 0.877548 0.367292
O O7 0.961223 0.750000 0.342722
O O8 0.455696 0.750000 0.266436
O O9 0.267102 0.622662 0.212023
O O10 0.310497 0.250000 0.315502
O O11 0.313834 0.120451 0.236162
O O12 0.078856 0.250000 0.118550
O O13 0.256448 0.062952 0.146891
O O14 0.000000 0.000000 0.116955
O O15 0.241733 0.377122 0.391805
O O16 0.500000 0.500000 0.679968
O O17 0.000000 0.500000 0.913965
#
# Coordination Sequence:
#
# PCOD8180787 Si02
#       8
#     8   4   4   4   8   4   8   8
#     4   9  17  30  50  76 107 139 169 208 261 318
#     4  10  18  32  49  76 100 132 171 218 257 306
#     4  10  22  34  55  76 102 136 187 220 263 322
#     4  10  20  38  53  74 102 144 179 220 265 320
#     4  10  21  36  56  84 112 139 176 226 275 317
#     4  10  20  30  51  74 106 134 171 212 265 304
#     4  10  21  38  57  76 104 146 185 219 267 327
#     4   9  17  29  47  75 104 135 168 207 255 314
#
# _framework density 18.262122999999999
#
# number of rings (size 3 to 8) (size 9 to 14) (size 15 to 20)
#    0.000    2.333    1.667    1.000    4.667    1.333 
#    0.000    0.000    0.000    2.000    0.000    0.000 
#    0.000    0.000    0.000    0.000    0.000    0.000 
#
# Total GULP energy -297484.311103 kJ/mol
# GULP energy per Si atom -12395.179629 kJ/mol
# Density = 1.822056 g / cm^3
# Si number density = 18.262123 Si / 1000 Ang^3
#
#
#
# Elastic Constant Matrix: (Units=GPa)
#
#
# Indices 1 2 3 4 5 6 
#
# 1 29.8369 24.7012 36.7272 0.0000 0.0000 0.0000
# 2 24.7012 159.0929 64.6009 0.0000 0.0000 0.0000
# 3 36.7272 64.6009 139.2917 0.0000 0.0000 0.0000
# 4 0.0000 0.0000 0.0000 30.4230 0.0000 0.0000
# 5 0.0000 0.0000 0.0000 0.0000 4.2455 0.0000
# 6 0.0000 0.0000 0.0000 0.0000 0.0000 12.2633
#
#
#
# Elastic Compliance Matrix: (Units=1/GPa)
#
#
# Indices 1 2 3 4 5 6 
#
# 1 0.050767 -0.003015 -0.011988 0.000000 0.000000 0.000000
# 2 -0.003015 0.007923 -0.002880 0.000000 0.000000 0.000000
# 3 -0.011988 -0.002880 0.011676 0.000000 0.000000 0.000000
# 4 0.000000 0.000000 0.000000 0.032870 0.000000 0.000000
# 5 0.000000 0.000000 0.000000 0.000000 0.235543 0.000000
# 6 0.000000 0.000000 0.000000 0.000000 0.000000 0.081544
#
#
# Mechanical properties :
#
#
# Convention : Reuss Voigt Hill
#
# Bulk Modulus (GPa) = 28.90012 64.47555 46.68784
# Shear Modulus (GPa) = 10.69243 22.86584 16.77913
#
# Velocity S-wave (km/s) = 2.42233 3.54233 3.03445
# Velocity P-wave (km/s) = 4.86653 7.21894 6.15614
#
# Compressibility (1/GPa) = 0.03460193
#
# Stress axis : x y z
#
# Youngs Moduli (GPa) = 19.69766 126.21475 85.64891
#
# Poissons Ratio (x) = 0.38048 1.02674
# Poissons Ratio (y) = 0.05938 0.24664
# Poissons Ratio (z) = 0.23613 0.36346
#
# Static dielectric constant tensor:
#      x y z
#    x 2.825270 0.000000 0.000000 
#    y 0.000000 3.780060 0.000000 
#    z 0.000000 0.000000 3.781590 
# 
# 
# High freq. dielectric constant tensor:
#      x y z
#    x 1.645970 0.000000 0.000000 
#    y 0.000000 1.735310 0.000000 
#    z 0.000000 0.000000 1.726920 
# 
# From -- ./inp_files/15605.got.cif
#   From: 2010.03.12/outbox.cif.g09.slc.cpg/sg39_8_cif.got.tgz:15605.got - 2010.04.14 02:53:20.
