data_PCOD8180236
_publ_section_title
;
Structure prediction by ZEFSAII (Michael W. Deem and Ramdas Pophale) SiO2 
 PCOD8180236
Probable space group: A M M 2
;
_chemical_formula_sum "Si O2"
_cell_formula_units_Z 48
_cell_length_a 8.669308
_cell_length_b 18.223602
_cell_length_c 14.886256
_cell_angle_alpha 90.000000
_cell_angle_beta 90.000000
_cell_angle_gamma 90.000000
_cell_volume 2351.820317
_symmetry_space_group_name_H-M "A M M 2"
_symmetry_group_IT_number 38
_symmetry_cell_setting 'orthorhombic'
loop_
_space_group_symop_operation_xyz
x,y,z
-x,-y,z
-x,y,z
x,-y,z
x,1/2+y,1/2+z
-x,1/2-y,1/2+z
-x,1/2+y,1/2+z
x,1/2-y,1/2+z
loop_
_atom_site_type_symbol
_atom_site_label
_atom_site_fract_x
_atom_site_fract_y
_atom_site_fract_z
Si Si1 0.683403 0.844260 0.421270
Si Si2 0.674308 0.580685 0.505812
Si Si3 0.820273 0.771554 0.060774
Si Si4 0.325672 0.111534 0.803942
Si Si5 0.679920 0.500000 0.989162
Si Si6 0.176759 0.000000 0.678229
Si Si7 0.818086 0.759889 0.267391
O O1 0.500000 0.842174 0.413144
O O2 0.730148 0.784671 0.496952
O O3 0.747630 0.925068 0.446769
O O4 0.759325 0.829849 0.323785
O O5 0.500000 0.601396 0.535145
O O6 0.720137 0.500000 0.545131
O O7 0.789165 0.643282 0.539207
O O8 0.682850 0.572140 0.398986
O O9 0.767400 0.761179 0.163687
O O10 0.000000 0.755632 0.048087
O O11 0.500000 0.108955 0.766004
O O12 0.211118 0.072529 0.734981
O O13 0.267979 0.193794 0.816986
O O14 0.500000 0.500000 0.972986
O O15 0.713366 0.500000 0.093722
O O16 0.000000 0.000000 0.647443
O O17 0.000000 0.752180 0.277673
#
# Coordination Sequence:
#
# PCOD8180236 Si02
#       7
#     8   8   8   8   4   4   8
#     4  11  23  42  67  92 123 164 211 263 313 367
#     4  10  21  39  62  89 121 158 202 250 304 361
#     4  11  24  41  63  92 127 163 205 255 310 375
#     4  11  21  37  61  89 123 160 203 253 307 369
#     4  10  24  44  64  89 122 163 214 263 311 369
#     4  12  24  36  58  93 128 163 202 253 319 379
#     4  11  24  41  62  92 125 163 208 255 313 376
#
# _framework density 20.409721999999999
#
# number of rings (size 3 to 8) (size 9 to 14) (size 15 to 20)
#    0.000    1.167    2.500    3.750    0.000    7.667 
#    1.500    0.000    0.000    0.000    0.000    0.000 
#    0.000    0.000    0.000    0.000    0.000    0.000 
#
# Total GULP energy -297620.285209 kJ/mol
# GULP energy per Si atom -12400.845217 kJ/mol
# Density = 2.036327 g / cm^3
# Si number density = 20.409722 Si / 1000 Ang^3
#
#
#
# Elastic Constant Matrix: (Units=GPa)
#
#
# Indices 1 2 3 4 5 6 
#
# 1 58.6739 24.5829 28.6325 0.0000 0.0000 0.0000
# 2 24.5829 127.9289 31.5101 0.0000 0.0000 0.0000
# 3 28.6325 31.5101 85.6223 0.0000 0.0000 0.0000
# 4 0.0000 0.0000 0.0000 24.6294 0.0000 0.0000
# 5 0.0000 0.0000 0.0000 0.0000 32.7187 0.0000
# 6 0.0000 0.0000 0.0000 0.0000 0.0000 26.1298
#
#
#
# Elastic Compliance Matrix: (Units=1/GPa)
#
#
# Indices 1 2 3 4 5 6 
#
# 1 0.021096 -0.002547 -0.006117 0.000000 0.000000 0.000000
# 2 -0.002547 0.008904 -0.002425 0.000000 0.000000 0.000000
# 3 -0.006117 -0.002425 0.014617 0.000000 0.000000 0.000000
# 4 0.000000 0.000000 0.000000 0.040602 0.000000 0.000000
# 5 0.000000 0.000000 0.000000 0.000000 0.030564 0.000000
# 6 0.000000 0.000000 0.000000 0.000000 0.000000 0.038271
#
#
# Mechanical properties :
#
#
# Convention : Reuss Voigt Hill
#
# Bulk Modulus (GPa) = 44.56673 49.07512 46.82093
# Shear Modulus (GPa) = 27.21683 29.19554 28.20618
#
# Velocity S-wave (km/s) = 3.65570 3.78626 3.72156
# Velocity P-wave (km/s) = 6.30098 6.57355 6.43871
#
# Compressibility (1/GPa) = 0.02243826
#
# Stress axis : x y z
#
# Youngs Moduli (GPa) = 47.40318 112.31470 68.41261
#
# Poissons Ratio (x) = 0.28607 0.41849
# Poissons Ratio (y) = 0.12074 0.16589
# Poissons Ratio (z) = 0.28997 0.27235
#
# Static dielectric constant tensor:
#      x y z
#    x 3.600360 0.000000 0.000000 
#    y 0.000000 3.944820 0.000000 
#    z 0.000000 0.000000 3.662850 
# 
# 
# High freq. dielectric constant tensor:
#      x y z
#    x 1.797310 0.000000 0.000000 
#    y 0.000000 1.810010 0.000000 
#    z 0.000000 0.000000 1.790870 
# 
# From -- ./inp_files/12086.got.cif
#   From: 2010.03.12/outbox.cif.g09.slc.cpg/sg38_7_cif.got.tgz:12086.got - 2010.04.14 02:38:36.
