data_PCOD8180621
_publ_section_title
;
Structure prediction by ZEFSAII (Michael W. Deem and Ramdas Pophale) SiO2 
 PCOD8180621
Probable space group: A B M 2
;
_chemical_formula_sum "Si O2"
_cell_formula_units_Z 28
_cell_length_a 8.020791
_cell_length_b 34.548963
_cell_length_c 5.164782
_cell_angle_alpha 90.000000
_cell_angle_beta 90.000000
_cell_angle_gamma 90.000000
_cell_volume 1431.212799
_symmetry_space_group_name_H-M "A B M 2"
_symmetry_group_IT_number 39
_symmetry_cell_setting 'orthorhombic'
loop_
_space_group_symop_operation_xyz
x,y,z
-x,-y,z
-x,1/2+y,z
x,1/2-y,z
x,1/2+y,1/2+z
-x,1/2-y,1/2+z
-x,y,1/2+z
x,-y,1/2+z
loop_
_atom_site_type_symbol
_atom_site_label
_atom_site_fract_x
_atom_site_fract_y
_atom_site_fract_z
Si Si1 0.607265 0.104680 0.418070
Si Si2 0.897683 0.250000 0.317668
Si Si3 0.684920 0.983106 0.934001
Si Si4 0.110576 0.167001 0.913030
O O1 0.535993 0.110427 0.705133
O O2 0.686990 0.062457 0.386035
O O3 0.749995 0.135403 0.364937
O O4 0.057165 0.250000 0.513214
O O5 0.802376 0.290281 0.382366
O O6 0.500000 0.000000 0.985703
O O7 0.778947 0.005233 0.699775
O O8 0.966412 0.162108 0.698218
#
# Coordination Sequence:
#
# PCOD8180621 Si02
#       4
#     8   4   8   8
#     4  12  21  33  56  86 107 136 184 230 265 310
#     4   8  16  34  58  74  98 148 188 198 246 344
#     4  10  16  30  49  75  96 137 183 215 241 316
#     4  10  21  38  57  80 110 144 178 219 268 323
#
# _framework density 19.563825999999999
#
# number of rings (size 3 to 8) (size 9 to 14) (size 15 to 20)
#    0.000    1.714    5.714    1.714    0.000    0.000 
#    0.000    1.429    0.000    5.143    0.000    0.000 
#    0.000    0.000    0.000    0.000    0.000    0.000 
#
# Total GULP energy -173489.410735 kJ/mol
# GULP energy per Si atom -12392.100767 kJ/mol
# Density = 1.951930 g / cm^3
# Si number density = 19.563826 Si / 1000 Ang^3
#
#
#
# Elastic Constant Matrix: (Units=GPa)
#
#
# Indices 1 2 3 4 5 6 
#
# 1 26.0048 42.8657 5.9916 0.0000 0.0000 0.0000
# 2 42.8657 170.9353 8.3346 0.0000 0.0000 0.0000
# 3 5.9916 8.3346 123.0149 0.0000 0.0000 0.0000
# 4 0.0000 0.0000 0.0000 29.2307 0.0000 0.0000
# 5 0.0000 0.0000 0.0000 0.0000 8.8981 0.0000
# 6 0.0000 0.0000 0.0000 0.0000 0.0000 36.0600
#
#
#
# Elastic Compliance Matrix: (Units=1/GPa)
#
#
# Indices 1 2 3 4 5 6 
#
# 1 0.066089 -0.016471 -0.002103 0.000000 0.000000 0.000000
# 2 -0.016471 0.009974 0.000126 0.000000 0.000000 0.000000
# 3 -0.002103 0.000126 0.008223 0.000000 0.000000 0.000000
# 4 0.000000 0.000000 0.000000 0.034211 0.000000 0.000000
# 5 0.000000 0.000000 0.000000 0.000000 0.112384 0.000000
# 6 0.000000 0.000000 0.000000 0.000000 0.000000 0.027732
#
#
# Mechanical properties :
#
#
# Convention : Reuss Voigt Hill
#
# Bulk Modulus (GPa) = 21.10070 48.25986 34.68028
# Shear Modulus (GPa) = 16.06148 32.35530 24.20839
#
# Velocity S-wave (km/s) = 2.86838 4.07115 3.52149
# Velocity P-wave (km/s) = 4.66681 6.84255 5.85660
#
# Compressibility (1/GPa) = 0.04739178
#
# Stress axis : x y z
#
# Youngs Moduli (GPa) = 15.13111 100.25682 121.61067
#
# Poissons Ratio (x) = 1.65130 0.25575
# Poissons Ratio (y) = 0.24922 -0.01538
# Poissons Ratio (z) = 0.03182 -0.01268
#
# Static dielectric constant tensor:
#      x y z
#    x 2.795630 0.000000 0.000000 
#    y 0.000000 3.900660 0.000000 
#    z 0.000000 0.000000 4.349980 
# 
# 
# High freq. dielectric constant tensor:
#      x y z
#    x 1.677960 0.000000 0.000000 
#    y 0.000000 1.785040 0.000000 
#    z 0.000000 0.000000 1.801250 
# 
# From -- ./inp_files/105.got.cif
#   From: 2010.03.12/outbox.cif.g09.slc.cpg/sg39_1_cif.got.tgz:105.got - 2010.04.14 02:53:20.
