data_PCOD8180159
_publ_section_title
;
Structure prediction by ZEFSAII (Michael W. Deem and Ramdas Pophale) SiO2 
 PCOD8180159
Probable space group: A M M 2
;
_chemical_formula_sum "Si O2"
_cell_formula_units_Z 32
_cell_length_a 7.452510
_cell_length_b 8.888614
_cell_length_c 24.499387
_cell_angle_alpha 90.000000
_cell_angle_beta 90.000000
_cell_angle_gamma 90.000000
_cell_volume 1622.900269
_symmetry_space_group_name_H-M "A M M 2"
_symmetry_group_IT_number 38
_symmetry_cell_setting 'orthorhombic'
loop_
_space_group_symop_operation_xyz
x,y,z
-x,-y,z
-x,y,z
x,-y,z
x,1/2+y,1/2+z
-x,1/2-y,1/2+z
-x,1/2+y,1/2+z
x,1/2-y,1/2+z
loop_
_atom_site_type_symbol
_atom_site_label
_atom_site_fract_x
_atom_site_fract_y
_atom_site_fract_z
Si Si1 0.295397 0.822750 0.340860
Si Si2 0.000000 0.320727 0.046864
Si Si3 0.290733 0.176220 0.121038
Si Si4 0.000000 0.677917 0.923931
Si Si5 0.712687 0.831183 0.731176
O O1 0.500000 0.774576 0.352739
O O2 0.177660 0.766808 0.392012
O O3 0.216827 0.744905 0.286546
O O4 0.278989 0.000000 0.331513
O O5 0.819473 0.259210 0.074144
O O6 0.000000 0.500000 0.049727
O O7 0.000000 0.257710 0.985001
O O8 0.500000 0.213470 0.111994
O O9 0.220431 0.236413 0.179274
O O10 0.252202 0.000000 0.118568
O O11 0.000000 0.500000 0.926800
O O12 0.500000 0.831307 0.732245
O O13 0.789726 0.000000 0.726828
#
# Coordination Sequence:
#
# PCOD8180159 Si02
#       5
#     8   4   8   4   8
#     4   9  17  32  54  77 104 139 175 214 264 322
#     4  11  23  38  57  82 111 144 188 237 278 321
#     4  10  21  38  59  82 111 148 186 225 274 332
#     4   9  20  36  53  76 103 136 182 225 262 317
#     4   9  17  31  53  82 112 139 173 220 273 327
#
# _framework density 19.717786
#
# number of rings (size 3 to 8) (size 9 to 14) (size 15 to 20)
#    0.000    2.500    0.000    1.875    0.000    6.500 
#    0.000    9.375    0.000    3.000    0.000    0.000 
#    0.000    0.000    0.000    0.000    0.000    0.000 
#
# Total GULP energy -198403.840214 kJ/mol
# GULP energy per Si atom -12400.240013 kJ/mol
# Density = 1.967291 g / cm^3
# Si number density = 19.717786 Si / 1000 Ang^3
#
#
#
# Elastic Constant Matrix: (Units=GPa)
#
#
# Indices 1 2 3 4 5 6 
#
# 1 97.2146 38.8375 75.6888 0.0000 0.0000 0.0000
# 2 38.8375 93.5589 63.7524 0.0000 0.0000 0.0000
# 3 75.6888 63.7524 203.8864 0.0000 0.0000 0.0000
# 4 0.0000 0.0000 0.0000 30.5558 0.0000 0.0000
# 5 0.0000 0.0000 0.0000 0.0000 22.5229 0.0000
# 6 0.0000 0.0000 0.0000 0.0000 0.0000 21.0932
#
#
#
# Elastic Compliance Matrix: (Units=1/GPa)
#
#
# Indices 1 2 3 4 5 6 
#
# 1 0.015154 -0.003123 -0.004649 0.000000 0.000000 0.000000
# 2 -0.003123 0.014226 -0.003289 0.000000 0.000000 0.000000
# 3 -0.004649 -0.003289 0.007659 0.000000 0.000000 0.000000
# 4 0.000000 0.000000 0.000000 0.032727 0.000000 0.000000
# 5 0.000000 0.000000 0.000000 0.000000 0.044399 0.000000
# 6 0.000000 0.000000 0.000000 0.000000 0.000000 0.047409
#
#
# Mechanical properties :
#
#
# Convention : Reuss Voigt Hill
#
# Bulk Modulus (GPa) = 67.03683 83.46859 75.25271
# Shear Modulus (GPa) = 26.50168 29.25978 27.88073
#
# Velocity S-wave (km/s) = 3.67011 3.85636 3.76438
# Velocity P-wave (km/s) = 7.21329 7.89001 7.55922
#
# Compressibility (1/GPa) = 0.01491717
#
# Stress axis : x y z
#
# Youngs Moduli (GPa) = 65.99059 70.29447 130.56474
#
# Poissons Ratio (x) = 0.21949 0.60701
# Poissons Ratio (y) = 0.20606 0.42944
# Poissons Ratio (z) = 0.30680 0.23120
#
# Static dielectric constant tensor:
#      x y z
#    x 3.566630 0.000000 0.000000 
#    y 0.000000 3.550710 0.000000 
#    z 0.000000 0.000000 3.817500 
# 
# 
# High freq. dielectric constant tensor:
#      x y z
#    x 1.768520 0.000000 0.000000 
#    y 0.000000 1.759740 0.000000 
#    z 0.000000 0.000000 1.768480 
# 
# From -- ./inp_files/21612.got.cif
#   From: 2010.03.12/outbox.cif.g09.slc.cpg/sg38_11_cif.got.tgz:21612.got - 2010.04.14 02:38:36.
