data_PCOD8180631
_publ_section_title
;
Structure prediction by ZEFSAII (Michael W. Deem and Ramdas Pophale) SiO2 
 PCOD8180631
Probable space group: A B M 2
;
_chemical_formula_sum "Si O2"
_cell_formula_units_Z 56
_cell_length_a 8.693958
_cell_length_b 21.174873
_cell_length_c 16.225252
_cell_angle_alpha 90.000000
_cell_angle_beta 90.000000
_cell_angle_gamma 90.000000
_cell_volume 2986.962724
_symmetry_space_group_name_H-M "A B M 2"
_symmetry_group_IT_number 39
_symmetry_cell_setting 'orthorhombic'
loop_
_space_group_symop_operation_xyz
x,y,z
-x,-y,z
-x,1/2+y,z
x,1/2-y,z
x,1/2+y,1/2+z
-x,1/2-y,1/2+z
-x,y,1/2+z
x,-y,1/2+z
loop_
_atom_site_type_symbol
_atom_site_label
_atom_site_fract_x
_atom_site_fract_y
_atom_site_fract_z
Si Si1 0.676399 0.102061 0.684190
Si Si2 0.619629 0.178822 0.151371
Si Si3 0.025347 0.929889 0.596172
Si Si4 0.150936 0.895058 0.257706
Si Si5 0.842120 0.128087 0.838737
Si Si6 0.148563 0.320309 0.510017
Si Si7 0.665777 0.491150 0.819277
O O1 0.528295 0.134702 0.646156
O O2 0.795871 0.085695 0.611590
O O3 0.752781 0.148035 0.754540
O O4 0.628283 0.036541 0.727938
O O5 0.567556 0.250000 0.169343
O O6 0.739446 0.159920 0.223203
O O7 0.696945 0.171664 0.062348
O O8 0.933201 0.930435 0.682398
O O9 0.970218 0.875569 0.533562
O O10 0.000000 0.000000 0.557527
O O11 0.023997 0.868190 0.320271
O O12 0.252592 0.941996 0.311841
O O13 0.781332 0.057693 0.865504
O O14 0.806828 0.174917 0.913806
O O15 0.078661 0.250000 0.526618
O O16 0.500000 0.500000 0.865030
#
# Coordination Sequence:
#
# PCOD8180631 Si02
#       7
#     8   8   8   8   8   8   8
#     4   9  19  34  59  85 107 150 186 241 281 345
#     4  10  21  36  56  83 114 153 193 237 284 344
#     4  10  18  33  58  87 110 144 194 239 287 340
#     4  10  16  33  58  81 113 140 191 234 286 332
#     4   9  20  34  55  82 107 156 183 232 281 342
#     4  10  23  40  54  77 122 159 189 236 293 339
#     4  10  17  31  58  85 113 139 180 237 294 329
#
# _framework density 18.748142000000001
#
# number of rings (size 3 to 8) (size 9 to 14) (size 15 to 20)
#    0.857    1.429    2.857    0.429    0.000    2.857 
#    0.000    7.143    0.000    0.000    0.000    0.000 
#    0.000    0.000    0.000    0.000    0.000    0.000 
#
# Total GULP energy -346993.592863 kJ/mol
# GULP energy per Si atom -12392.628317 kJ/mol
# Density = 1.870547 g / cm^3
# Si number density = 18.748142 Si / 1000 Ang^3
#
#
#
# Elastic Constant Matrix: (Units=GPa)
#
#
# Indices 1 2 3 4 5 6 
#
# 1 120.4038 41.5182 29.6803 0.0000 0.0000 0.0000
# 2 41.5182 99.3875 36.0487 0.0000 0.0000 0.0000
# 3 29.6803 36.0487 59.9826 0.0000 0.0000 0.0000
# 4 0.0000 0.0000 0.0000 18.4849 0.0000 0.0000
# 5 0.0000 0.0000 0.0000 0.0000 13.8094 0.0000
# 6 0.0000 0.0000 0.0000 0.0000 0.0000 23.2951
#
#
#
# Elastic Compliance Matrix: (Units=1/GPa)
#
#
# Indices 1 2 3 4 5 6 
#
# 1 0.010152 -0.003093 -0.003164 0.000000 0.000000 0.000000
# 2 -0.003093 0.013809 -0.006768 0.000000 0.000000 0.000000
# 3 -0.003164 -0.006768 0.022305 0.000000 0.000000 0.000000
# 4 0.000000 0.000000 0.000000 0.054098 0.000000 0.000000
# 5 0.000000 0.000000 0.000000 0.000000 0.072414 0.000000
# 6 0.000000 0.000000 0.000000 0.000000 0.000000 0.042927
#
#
# Mechanical properties :
#
#
# Convention : Reuss Voigt Hill
#
# Bulk Modulus (GPa) = 49.47085 54.91870 52.19478
# Shear Modulus (GPa) = 20.12108 22.61965 21.37037
#
# Velocity S-wave (km/s) = 3.27957 3.47724 3.37985
# Velocity P-wave (km/s) = 6.38633 6.74374 6.56747
#
# Compressibility (1/GPa) = 0.02021392
#
# Stress axis : x y z
#
# Youngs Moduli (GPa) = 98.50239 72.41823 44.83304
#
# Poissons Ratio (x) = 0.22400 0.14187
# Poissons Ratio (y) = 0.30468 0.30344
# Poissons Ratio (z) = 0.31171 0.49015
#
# Static dielectric constant tensor:
#      x y z
#    x 3.420140 0.000000 0.000000 
#    y 0.000000 3.328390 0.000000 
#    z 0.000000 0.000000 3.073350 
# 
# 
# High freq. dielectric constant tensor:
#      x y z
#    x 1.729390 0.000000 0.000000 
#    y 0.000000 1.719230 0.000000 
#    z 0.000000 0.000000 1.693090 
# 
# From -- ./inp_files/11887.got.cif
#   From: 2010.03.12/outbox.cif.g09.slc.cpg/sg39_6_cif.got.tgz:11887.got - 2010.04.14 02:53:20.
