data_PCOD8180244
_publ_section_title
;
Structure prediction by ZEFSAII (Michael W. Deem and Ramdas Pophale) SiO2 
 PCOD8180244
Probable space group: A M M 2
;
_chemical_formula_sum "Si O2"
_cell_formula_units_Z 64
_cell_length_a 15.300184
_cell_length_b 8.890940
_cell_length_c 23.757976
_cell_angle_alpha 90.000000
_cell_angle_beta 90.000000
_cell_angle_gamma 90.000000
_cell_volume 3231.869175
_symmetry_space_group_name_H-M "A M M 2"
_symmetry_group_IT_number 38
_symmetry_cell_setting 'orthorhombic'
loop_
_space_group_symop_operation_xyz
x,y,z
-x,-y,z
-x,y,z
x,-y,z
x,1/2+y,1/2+z
-x,1/2-y,1/2+z
-x,1/2+y,1/2+z
x,1/2-y,1/2+z
loop_
_atom_site_type_symbol
_atom_site_label
_atom_site_fract_x
_atom_site_fract_y
_atom_site_fract_z
Si Si1 0.901281 0.327529 0.239800
Si Si2 0.347142 0.822897 0.626635
Si Si3 0.746993 0.176405 0.443957
Si Si4 0.241545 0.676193 0.815254
Si Si5 0.597635 0.327927 0.738467
Si Si6 0.401707 0.327977 0.515055
Si Si7 0.901398 0.828278 0.007677
Si Si8 0.838757 0.326586 0.630642
O O1 0.876778 0.500000 0.226862
O O2 0.837447 0.265682 0.287402
O O3 0.894593 0.232454 0.182801
O O4 0.000000 0.313068 0.262694
O O5 0.392920 0.776616 0.684380
O O6 0.399495 0.752187 0.575115
O O7 0.248148 0.769425 0.625183
O O8 0.350216 0.000000 0.620230
O O9 0.752683 0.228259 0.379555
O O10 0.663485 0.254965 0.470792
O O11 0.836094 0.219396 0.475237
O O12 0.732840 0.000000 0.449574
O O13 0.221791 0.500000 0.809904
O O14 0.332902 0.720048 0.785795
O O15 0.500000 0.307161 0.763462
O O16 0.613881 0.500000 0.719875
O O17 0.500000 0.314922 0.490989
O O18 0.373196 0.500000 0.523882
O O19 0.895123 0.804935 0.074575
O O20 0.000000 0.788264 0.989192
O O21 0.878164 0.000000 0.992047
O O22 0.813958 0.500000 0.641219
#
# Coordination Sequence:
#
# PCOD8180244 Si02
#       8
#     8   8   8   8   8   8   8   8
#     4  11  24  40  61  92 126 160 200 251 306 356
#     4  12  23  36  60  94 127 158 195 246 306 360
#     4  11  24  41  63  91 121 158 206 259 309 355
#     4  10  23  42  63  87 118 161 208 252 301 360
#     4  10  21  39  63  89 119 159 202 245 298 362
#     4  11  24  42  64  90 122 164 207 246 298 366
#     4  10  22  40  63  90 121 161 204 245 299 366
#     4  11  21  37  63  91 122 161 201 243 300 367
#
# _framework density 19.802781
#
# number of rings (size 3 to 8) (size 9 to 14) (size 15 to 20)
#    0.000    1.250    2.500    3.375    0.000    7.000 
#    0.000    3.750    0.000    0.000    0.000    0.000 
#    0.000    0.000    0.000    0.000    0.000    0.000 
#
# Total GULP energy -396959.282242 kJ/mol
# GULP energy per Si atom -12404.977570 kJ/mol
# Density = 1.975771 g / cm^3
# Si number density = 19.802781 Si / 1000 Ang^3
#
#
#
# Elastic Constant Matrix: (Units=GPa)
#
#
# Indices 1 2 3 4 5 6 
#
# 1 134.9337 53.4517 57.8437 0.0000 0.0000 0.0000
# 2 53.4517 113.4567 67.3097 0.0000 0.0000 0.0000
# 3 57.8437 67.3097 138.4912 0.0000 0.0000 0.0000
# 4 0.0000 0.0000 0.0000 31.3945 0.0000 0.0000
# 5 0.0000 0.0000 0.0000 0.0000 6.9952 0.0000
# 6 0.0000 0.0000 0.0000 0.0000 0.0000 25.3124
#
#
#
# Elastic Compliance Matrix: (Units=1/GPa)
#
#
# Indices 1 2 3 4 5 6 
#
# 1 0.009726 -0.003052 -0.002579 0.000000 0.000000 0.000000
# 2 -0.003052 0.013343 -0.005210 0.000000 0.000000 0.000000
# 3 -0.002579 -0.005210 0.010830 0.000000 0.000000 0.000000
# 4 0.000000 0.000000 0.000000 0.031853 0.000000 0.000000
# 5 0.000000 0.000000 0.000000 0.000000 0.142955 0.000000
# 6 0.000000 0.000000 0.000000 0.000000 0.000000 0.039506
#
#
# Mechanical properties :
#
#
# Convention : Reuss Voigt Hill
#
# Bulk Modulus (GPa) = 81.85643 82.67687 82.26665
# Shear Modulus (GPa) = 18.25044 26.62552 22.43798
#
# Velocity S-wave (km/s) = 3.03910 3.67077 3.36977
# Velocity P-wave (km/s) = 7.33078 7.73349 7.53483
#
# Compressibility (1/GPa) = 0.01221651
#
# Stress axis : x y z
#
# Youngs Moduli (GPa) = 102.82247 74.94680 92.33631
#
# Poissons Ratio (x) = 0.22874 0.23811
# Poissons Ratio (y) = 0.31382 0.48109
# Poissons Ratio (z) = 0.26515 0.39048
#
# Static dielectric constant tensor:
#      x y z
#    x 3.685740 0.000000 0.000000 
#    y 0.000000 3.691420 0.000000 
#    z 0.000000 0.000000 3.624920 
# 
# 
# High freq. dielectric constant tensor:
#      x y z
#    x 1.786840 0.000000 0.000000 
#    y 0.000000 1.777590 0.000000 
#    z 0.000000 0.000000 1.766530 
# 
# From -- ./inp_files/22947.got.cif
#   From: 2010.03.12/outbox.cif.g09.slc.cpg/sg38_12_cif.got.tgz:22947.got - 2010.04.14 02:38:36.
