data_PCOD8180442
_publ_section_title
;
Structure prediction by ZEFSAII (Michael W. Deem and Ramdas Pophale) SiO2 
 PCOD8180442
Probable space group: A M M 2
;
_chemical_formula_sum "Si O2"
_cell_formula_units_Z 64
_cell_length_a 9.275126
_cell_length_b 14.510227
_cell_length_c 28.446942
_cell_angle_alpha 90.000000
_cell_angle_beta 90.000000
_cell_angle_gamma 90.000000
_cell_volume 3828.508468
_symmetry_space_group_name_H-M "A M M 2"
_symmetry_group_IT_number 38
_symmetry_cell_setting 'orthorhombic'
loop_
_space_group_symop_operation_xyz
x,y,z
-x,-y,z
-x,y,z
x,-y,z
x,1/2+y,1/2+z
-x,1/2-y,1/2+z
-x,1/2+y,1/2+z
x,1/2-y,1/2+z
loop_
_atom_site_type_symbol
_atom_site_label
_atom_site_fract_x
_atom_site_fract_y
_atom_site_fract_z
Si Si1 0.834995 0.607026 0.892360
Si Si2 0.668188 0.788082 0.753400
Si Si3 0.835704 0.607664 0.332668
Si Si4 0.169050 0.893594 0.674017
Si Si5 0.171324 0.602343 0.068313
Si Si6 0.666641 0.603292 0.799621
Si Si7 0.828091 0.783388 0.481925
Si Si8 0.171111 0.899743 0.938812
O O1 0.817966 0.500000 0.903260
O O2 0.751016 0.636217 0.845748
O O3 0.770059 0.659290 0.937419
O O4 0.000000 0.635611 0.883969
O O5 0.500000 0.810500 0.749292
O O6 0.728675 0.838476 0.799051
O O7 0.745607 0.823738 0.706846
O O8 0.696110 0.677733 0.758419
O O9 0.825515 0.500000 0.321014
O O10 0.783520 0.627454 0.385870
O O11 0.000000 0.641686 0.324777
O O12 0.218003 0.869515 0.620883
O O13 0.000000 0.876698 0.681286
O O14 0.206499 0.000000 0.685865
O O15 0.229877 0.500000 0.056321
O O16 0.000000 0.600463 0.065778
O O17 0.235488 0.674670 0.030374
O O18 0.500000 0.602773 0.813566
O O19 0.715470 0.500000 0.783398
O O20 0.774610 0.677673 0.475608
O O21 0.000000 0.789088 0.483154
O O22 0.000000 0.906280 0.939522
O O23 0.236074 0.000000 0.952901
#
# Coordination Sequence:
#
# PCOD8180442 Si02
#       8
#     8   8   8   8   8   8   8   8
#     4   9  16  25  41  67  91 109 137 177 214 246
#     4  11  21  30  45  67  86 109 145 186 221 252
#     4   9  17  29  44  63  91 124 150 172 206 256
#     4   9  18  32  48  65  87 115 142 170 213 268
#     4   8  14  25  41  61  83 107 137 170 206 253
#     4   9  19  34  46  58  84 120 150 175 210 258
#     4   9  14  21  38  62  86 110 137 174 212 241
#     4   8  14  23  35  55  84 117 148 171 196 239
#
# _framework density 16.716694
#
# number of rings (size 3 to 8) (size 9 to 14) (size 15 to 20)
#    0.000    3.000    0.000    3.375    0.000    5.500 
#    0.000    0.000    0.000    1.500    0.000    3.500 
#    0.000    0.000    0.000    0.000    0.000    0.000 
#
# Total GULP energy -396606.972154 kJ/mol
# GULP energy per Si atom -12393.967880 kJ/mol
# Density = 1.667865 g / cm^3
# Si number density = 16.716694 Si / 1000 Ang^3
#
#
#
# Elastic Constant Matrix: (Units=GPa)
#
#
# Indices 1 2 3 4 5 6 
#
# 1 37.1968 33.4019 34.3091 0.0000 0.0000 0.0000
# 2 33.4019 110.8061 89.7060 0.0000 0.0000 0.0000
# 3 34.3091 89.7060 122.5156 0.0000 0.0000 0.0000
# 4 0.0000 0.0000 0.0000 30.4333 0.0000 0.0000
# 5 0.0000 0.0000 0.0000 0.0000 -1.2529 0.0000
# 6 0.0000 0.0000 0.0000 0.0000 0.0000 16.7788
#
#
#
# Elastic Compliance Matrix: (Units=1/GPa)
#
#
# Indices 1 2 3 4 5 6 
#
# 1 0.038359 -0.007039 -0.005588 0.000000 0.000000 0.000000
# 2 -0.007039 0.023453 -0.015201 0.000000 0.000000 0.000000
# 3 -0.005588 -0.015201 0.020857 0.000000 0.000000 0.000000
# 4 0.000000 0.000000 0.000000 0.032859 0.000000 0.000000
# 5 0.000000 0.000000 0.000000 0.000000 -0.798157 0.000000
# 6 0.000000 0.000000 0.000000 0.000000 0.000000 0.059599
#
#
# Mechanical properties :
#
#
# Convention : Reuss Voigt Hill
#
# Bulk Modulus (GPa) = 37.01915 65.03915 51.02915
# Shear Modulus (GPa) = -8.95466 16.73195 3.88864
#
# Velocity S-wave (km/s) = -2.31697 3.16715 1.52684
# Velocity P-wave (km/s) = 3.87754 7.23641 5.80521
#
# Compressibility (1/GPa) = 0.02701305
#
# Stress axis : x y z
#
# Youngs Moduli (GPa) = 26.06933 42.63796 47.94476
#
# Poissons Ratio (x) = 0.30015 0.26791
# Poissons Ratio (y) = 0.18351 0.72882
# Poissons Ratio (z) = 0.14567 0.64815
#
# Static dielectric constant tensor:
#      x y z
#    x 2.775500 0.000000 0.000000 
#    y 0.000000 3.469760 0.000000 
#    z 0.000000 0.000000 3.178580 
# 
# 
# High freq. dielectric constant tensor:
#      x y z
#    x 1.601400 0.000000 0.000000 
#    y 0.000000 1.651110 0.000000 
#    z 0.000000 0.000000 1.629420 
# 
# From -- ./inp_files/24707.got.cif
#   From: 2010.03.12/outbox.cif.g09.slc.cpg/sg38_13_cif.got.tgz:24707.got - 2010.04.14 02:38:36.
