data_PCOD8180003
_publ_section_title
;
Structure prediction by ZEFSAII (Michael W. Deem and Ramdas Pophale) SiO2 
 PCOD8180003
Probable space group: A M M 2
;
_chemical_formula_sum "Si O2"
_cell_formula_units_Z 56
_cell_length_a 19.841902
_cell_length_b 14.864664
_cell_length_c 9.933978
_cell_angle_alpha 90.000000
_cell_angle_beta 90.000000
_cell_angle_gamma 90.000000
_cell_volume 2929.959323
_symmetry_space_group_name_H-M "A M M 2"
_symmetry_group_IT_number 38
_symmetry_cell_setting 'orthorhombic'
loop_
_space_group_symop_operation_xyz
x,y,z
-x,-y,z
-x,y,z
x,-y,z
x,1/2+y,1/2+z
-x,1/2-y,1/2+z
-x,1/2+y,1/2+z
x,1/2-y,1/2+z
loop_
_atom_site_type_symbol
_atom_site_label
_atom_site_fract_x
_atom_site_fract_y
_atom_site_fract_z
Si Si1 0.074256 0.340143 0.216120
Si Si2 0.394353 0.249748 0.912917
Si Si3 0.500000 0.892716 0.809705
Si Si4 0.218399 0.599206 0.234143
Si Si5 0.303403 0.259435 0.663221
Si Si6 0.073245 0.676129 0.520494
Si Si7 0.500000 0.393974 0.988283
Si Si8 0.211272 0.399755 0.541192
O O1 0.138458 0.405455 0.198493
O O2 0.078371 0.295774 0.363938
O O3 0.083433 0.265746 0.103866
O O4 0.000000 0.387825 0.199297
O O5 0.435324 0.159972 0.869064
O O6 0.334204 0.268051 0.810622
O O7 0.436602 0.342033 0.923958
O O8 0.363771 0.229710 0.058468
O O9 0.500000 0.883647 0.649059
O O10 0.500000 0.000000 0.850191
O O11 0.247714 0.500000 0.208799
O O12 0.262392 0.666249 0.143083
O O13 0.229592 0.628775 0.388975
O O14 0.249049 0.337889 0.647612
O O15 0.130637 0.605413 0.561360
O O16 0.000000 0.632225 0.550900
O O17 0.500000 0.500000 0.947195
O O18 0.235143 0.500000 0.571119
#
# Coordination Sequence:
#
# PCOD8180003 Si02
#       8
#     8   8   4   8   8   8   4   8
#     4   9  17  31  54  80 108 146 195 251 302 344
#     4  11  24  40  65  94 121 155 187 237 284 333
#     4  10  22  43  70  95 118 153 195 228 276 348
#     4  10  21  36  57  84 115 157 203 244 292 352
#     4  12  22  39  60  87 125 156 195 232 286 345
#     4   9  17  31  54  79 107 147 197 250 301 346
#     4  10  22  43  68  95 122 149 191 236 280 338
#     4  10  21  36  56  84 117 155 201 248 294 347
#
# _framework density 19.112891999999999
#
# number of rings (size 3 to 8) (size 9 to 14) (size 15 to 20)
#    0.000    1.857    4.286    0.000    0.000    2.857 
#    0.000    3.571    0.000    0.000    0.000    4.000 
#    0.000    0.000    0.000    0.000    0.000    0.000 
#
# Total GULP energy -347021.936843 kJ/mol
# GULP energy per Si atom -12393.640602 kJ/mol
# Density = 1.906939 g / cm^3
# Si number density = 19.112892 Si / 1000 Ang^3
#
#
#
# Elastic Constant Matrix: (Units=GPa)
#
#
# Indices 1 2 3 4 5 6 
#
# 1 97.7521 53.7899 23.3010 0.0000 0.0000 0.0000
# 2 53.7899 122.8757 30.4848 0.0000 0.0000 0.0000
# 3 23.3010 30.4848 42.7739 0.0000 0.0000 0.0000
# 4 0.0000 0.0000 0.0000 26.7435 0.0000 0.0000
# 5 0.0000 0.0000 0.0000 0.0000 29.2954 0.0000
# 6 0.0000 0.0000 0.0000 0.0000 0.0000 7.6651
#
#
#
# Elastic Compliance Matrix: (Units=1/GPa)
#
#
# Indices 1 2 3 4 5 6 
#
# 1 0.014008 -0.005149 -0.003961 0.000000 0.000000 0.000000
# 2 -0.005149 0.011779 -0.005590 0.000000 0.000000 0.000000
# 3 -0.003961 -0.005590 0.029520 0.000000 0.000000 0.000000
# 4 0.000000 0.000000 0.000000 0.037392 0.000000 0.000000
# 5 0.000000 0.000000 0.000000 0.000000 0.034135 0.000000
# 6 0.000000 0.000000 0.000000 0.000000 0.000000 0.130462
#
#
# Mechanical properties :
#
#
# Convention : Reuss Voigt Hill
#
# Bulk Modulus (GPa) = 38.59937 53.17258 45.88597
# Shear Modulus (GPa) = 16.93008 23.12920 20.02964
#
# Velocity S-wave (km/s) = 2.97946 3.48247 3.24074
# Velocity P-wave (km/s) = 5.66353 6.63708 6.16954
#
# Compressibility (1/GPa) = 0.02590716
#
# Stress axis : x y z
#
# Youngs Moduli (GPa) = 71.38995 84.89461 33.87499
#
# Poissons Ratio (x) = 0.43715 0.13417
# Poissons Ratio (y) = 0.36761 0.18936
# Poissons Ratio (z) = 0.28275 0.47456
#
# Static dielectric constant tensor:
#      x y z
#    x 3.786600 0.000000 0.000000 
#    y 0.000000 3.321060 0.000000 
#    z 0.000000 0.000000 3.437240 
# 
# 
# High freq. dielectric constant tensor:
#      x y z
#    x 1.762800 0.000000 0.000000 
#    y 0.000000 1.724880 0.000000 
#    z 0.000000 0.000000 1.732390 
# 
# From -- ./inp_files/6772.got.cif
#   From: 2010.03.12/outbox.cif.g09.slc.cpg/sg38_4_cif.got.tgz:6772.got - 2010.04.14 02:38:36.
