data_PCOD8180560
_publ_section_title
;
Structure prediction by ZEFSAII (Michael W. Deem and Ramdas Pophale) SiO2 
 PCOD8180560
Probable space group: A M M 2
;
_chemical_formula_sum "Si O2"
_cell_formula_units_Z 40
_cell_length_a 9.263028
_cell_length_b 7.694274
_cell_length_c 29.618918
_cell_angle_alpha 90.000000
_cell_angle_beta 90.000000
_cell_angle_gamma 90.000000
_cell_volume 2111.007684
_symmetry_space_group_name_H-M "A M M 2"
_symmetry_group_IT_number 38
_symmetry_cell_setting 'orthorhombic'
loop_
_space_group_symop_operation_xyz
x,y,z
-x,-y,z
-x,y,z
x,-y,z
x,1/2+y,1/2+z
-x,1/2-y,1/2+z
-x,1/2+y,1/2+z
x,1/2-y,1/2+z
loop_
_atom_site_type_symbol
_atom_site_label
_atom_site_fract_x
_atom_site_fract_y
_atom_site_fract_z
Si Si1 0.662884 0.706378 0.189750
Si Si2 0.330523 0.199300 0.515950
Si Si3 0.672751 0.500000 0.349123
Si Si4 0.161850 0.793810 0.604701
Si Si5 0.670916 0.192855 0.287135
Si Si6 0.329333 0.500000 0.449989
O O1 0.500000 0.776824 0.183339
O O2 0.662832 0.500000 0.189970
O O3 0.759284 0.781844 0.149017
O O4 0.731461 0.772373 0.236860
O O5 0.500000 0.218263 0.525615
O O6 0.248610 0.264558 0.560468
O O7 0.278902 0.324670 0.475475
O O8 0.291262 0.000000 0.503243
O O9 0.500000 0.500000 0.350279
O O10 0.733160 0.330100 0.323179
O O11 0.737399 0.500000 0.399706
O O12 0.000000 0.717875 0.602390
O O13 0.159145 0.000000 0.607507
O O14 0.500000 0.216154 0.284668
O O15 0.715448 0.000000 0.303204
O O16 0.500000 0.500000 0.446393
#
# Coordination Sequence:
#
# PCOD8180560 Si02
#       6
#     8   8   4   8   8   4
#     4   9  15  26  45  67  95 131 164 195 234 282
#     4   9  17  31  49  69  96 128 161 197 238 286
#     4   9  16  28  44  67  99 127 155 199 244 283
#     4   9  17  29  47  71  97 128 163 198 241 287
#     4   9  16  26  42  66  96 128 159 191 234 286
#     4   9  18  30  47  71  97 127 163 201 244 287
#
# _framework density 18.948295999999999
#
# number of rings (size 3 to 8) (size 9 to 14) (size 15 to 20)
#    0.000    3.000    1.000    0.600    0.000    3.200 
#    1.800    4.500    0.000    0.000    0.000    2.800 
#    0.000    0.000    0.000    0.000    0.000    0.000 
#
# Total GULP energy -247927.344363 kJ/mol
# GULP energy per Si atom -12396.367218 kJ/mol
# Density = 1.890517 g / cm^3
# Si number density = 18.948296 Si / 1000 Ang^3
#
#
#
# Elastic Constant Matrix: (Units=GPa)
#
#
# Indices 1 2 3 4 5 6 
#
# 1 50.1723 21.6457 44.5383 0.0000 0.0000 0.0000
# 2 21.6457 103.4489 79.4757 0.0000 0.0000 0.0000
# 3 44.5383 79.4757 197.3612 0.0000 0.0000 0.0000
# 4 0.0000 0.0000 0.0000 15.6412 0.0000 0.0000
# 5 0.0000 0.0000 0.0000 0.0000 2.6845 0.0000
# 6 0.0000 0.0000 0.0000 0.0000 0.0000 5.1100
#
#
#
# Elastic Compliance Matrix: (Units=1/GPa)
#
#
# Indices 1 2 3 4 5 6 
#
# 1 0.025045 -0.001301 -0.005128 0.000000 0.000000 0.000000
# 2 -0.001301 0.014064 -0.005370 0.000000 0.000000 0.000000
# 3 -0.005128 -0.005370 0.008387 0.000000 0.000000 0.000000
# 4 0.000000 0.000000 0.000000 0.063934 0.000000 0.000000
# 5 0.000000 0.000000 0.000000 0.000000 0.372507 0.000000
# 6 0.000000 0.000000 0.000000 0.000000 0.000000 0.195694
#
#
# Mechanical properties :
#
#
# Convention : Reuss Voigt Hill
#
# Bulk Modulus (GPa) = 41.84446 71.36686 56.60566
# Shear Modulus (GPa) = 7.03043 18.37532 12.70287
#
# Velocity S-wave (km/s) = 1.92831 3.11748 2.59201
# Velocity P-wave (km/s) = 5.20474 7.12067 6.23672
#
# Compressibility (1/GPa) = 0.02389803
#
# Stress axis : x y z
#
# Youngs Moduli (GPa) = 39.92866 71.10151 119.23817
#
# Poissons Ratio (x) = 0.09248 0.61146
# Poissons Ratio (y) = 0.05194 0.64032
# Poissons Ratio (z) = 0.20475 0.38182
#
# Static dielectric constant tensor:
#      x y z
#    x 3.114170 0.000000 0.000000 
#    y 0.000000 3.408530 0.000000 
#    z 0.000000 0.000000 3.695850 
# 
# 
# High freq. dielectric constant tensor:
#      x y z
#    x 1.677830 0.000000 0.000000 
#    y 0.000000 1.733570 0.000000 
#    z 0.000000 0.000000 1.739160 
# 
# From -- ./inp_files/23216.got.cif
#   From: 2010.03.12/outbox.cif.g09.slc.cpg/sg38_12_cif.got.tgz:23216.got - 2010.04.14 02:38:36.
