data_PCOD8180164
_publ_section_title
;
Structure prediction by ZEFSAII (Michael W. Deem and Ramdas Pophale) SiO2 
 PCOD8180164
Probable space group: A M M 2
;
_chemical_formula_sum "Si O2"
_cell_formula_units_Z 56
_cell_length_a 16.474207
_cell_length_b 8.844592
_cell_length_c 20.366284
_cell_angle_alpha 90.000000
_cell_angle_beta 90.000000
_cell_angle_gamma 90.000000
_cell_volume 2967.523166
_symmetry_space_group_name_H-M "A M M 2"
_symmetry_group_IT_number 38
_symmetry_cell_setting 'orthorhombic'
loop_
_space_group_symop_operation_xyz
x,y,z
-x,-y,z
-x,y,z
x,-y,z
x,1/2+y,1/2+z
-x,1/2-y,1/2+z
-x,1/2+y,1/2+z
x,1/2-y,1/2+z
loop_
_atom_site_type_symbol
_atom_site_label
_atom_site_fract_x
_atom_site_fract_y
_atom_site_fract_z
Si Si1 0.407215 0.173545 0.011380
Si Si2 0.155731 0.174034 0.579014
Si Si3 0.409785 0.821460 0.160942
Si Si4 0.000000 0.177019 0.027089
Si Si5 0.747763 0.822246 0.706459
Si Si6 0.000000 0.320744 0.883945
Si Si7 0.262409 0.827171 0.450782
Si Si8 0.836919 0.177795 0.838447
O O1 0.500000 0.190985 0.989074
O O2 0.396031 0.231346 0.085932
O O3 0.378858 0.000000 0.005576
O O4 0.354747 0.276559 0.962580
O O5 0.201869 0.233893 0.643427
O O6 0.214599 0.194874 0.517951
O O7 0.077677 0.278408 0.569801
O O8 0.128296 0.000000 0.587073
O O9 0.500000 0.769874 0.184067
O O10 0.342081 0.748816 0.207617
O O11 0.402862 0.000000 0.165257
O O12 0.000000 0.000000 0.012266
O O13 0.000000 0.263498 0.958289
O O14 0.796032 0.769713 0.770728
O O15 0.735860 0.000000 0.704591
O O16 0.921526 0.264521 0.845062
O O17 0.000000 0.500000 0.886745
O O18 0.223288 0.719707 0.396858
O O19 0.259891 0.000000 0.426442
O O20 0.854317 0.000000 0.839891
#
# Coordination Sequence:
#
# PCOD8180164 Si02
#       8
#     8   8   8   4   8   4   8   8
#     4   9  18  33  55  85 120 155 193 241 293 342
#     4  10  21  38  59  84 117 149 186 238 291 338
#     4   9  18  33  56  86 118 152 189 235 290 343
#     4  12  24  37  60  91 117 149 195 239 286 342
#     4  10  22  40  60  86 117 154 194 236 286 342
#     4  12  24  41  62  85 115 151 193 239 290 344
#     4  11  21  35  59  87 116 150 191 239 290 341
#     4  11  24  41  62  85 116 156 196 235 285 348
#
# _framework density 18.870956
#
# number of rings (size 3 to 8) (size 9 to 14) (size 15 to 20)
#    0.000    1.714    2.857    3.000    0.000    3.429 
#    0.000    5.000    0.000    0.857    0.000    0.000 
#    0.000    0.000    0.000    0.000    0.000    0.000 
#
# Total GULP energy -347301.650517 kJ/mol
# GULP energy per Si atom -12403.630376 kJ/mol
# Density = 1.882800 g / cm^3
# Si number density = 18.870956 Si / 1000 Ang^3
#
#
#
# Elastic Constant Matrix: (Units=GPa)
#
#
# Indices 1 2 3 4 5 6 
#
# 1 150.9084 55.2952 62.4177 0.0000 0.0000 0.0000
# 2 55.2952 76.3758 39.4264 0.0000 0.0000 0.0000
# 3 62.4177 39.4264 107.4071 0.0000 0.0000 0.0000
# 4 0.0000 0.0000 0.0000 25.9618 0.0000 0.0000
# 5 0.0000 0.0000 0.0000 0.0000 114.9717 0.0000
# 6 0.0000 0.0000 0.0000 0.0000 0.0000 37.7720
#
#
#
# Elastic Compliance Matrix: (Units=1/GPa)
#
#
# Indices 1 2 3 4 5 6 
#
# 1 0.010236 -0.005355 -0.003983 0.000000 0.000000 0.000000
# 2 -0.005355 0.018955 -0.003846 0.000000 0.000000 0.000000
# 3 -0.003983 -0.003846 0.013037 0.000000 0.000000 0.000000
# 4 0.000000 0.000000 0.000000 0.038518 0.000000 0.000000
# 5 0.000000 0.000000 0.000000 0.000000 0.008698 0.000000
# 6 0.000000 0.000000 0.000000 0.000000 0.000000 0.026475
#
#
# Mechanical properties :
#
#
# Convention : Reuss Voigt Hill
#
# Bulk Modulus (GPa) = 63.04967 72.10777 67.57872
# Shear Modulus (GPa) = 33.88149 47.57790 40.72970
#
# Velocity S-wave (km/s) = 4.24185 5.02663 4.65082
# Velocity P-wave (km/s) = 7.58120 8.48429 8.04543
#
# Compressibility (1/GPa) = 0.01586051
#
# Stress axis : x y z
#
# Youngs Moduli (GPa) = 97.69492 52.75541 76.70590
#
# Poissons Ratio (x) = 0.28249 0.30551
# Poissons Ratio (y) = 0.52313 0.29503
# Poissons Ratio (z) = 0.38911 0.20291
#
# Static dielectric constant tensor:
#      x y z
#    x 3.425750 0.000000 0.000000 
#    y 0.000000 3.390880 0.000000 
#    z 0.000000 0.000000 3.441350 
# 
# 
# High freq. dielectric constant tensor:
#      x y z
#    x 1.747170 0.000000 0.000000 
#    y 0.000000 1.731720 0.000000 
#    z 0.000000 0.000000 1.716410 
# 
# From -- ./inp_files/21133.got.cif
#   From: 2010.03.12/outbox.cif.g09.slc.cpg/sg38_11_cif.got.tgz:21133.got - 2010.04.14 02:38:36.
