data_PCOD8180079
_publ_section_title
;
Structure prediction by ZEFSAII (Michael W. Deem and Ramdas Pophale) SiO2 
 PCOD8180079
Probable space group: A M M 2
;
_chemical_formula_sum "Si O2"
_cell_formula_units_Z 64
_cell_length_a 9.191535
_cell_length_b 14.498219
_cell_length_c 24.372041
_cell_angle_alpha 90.000000
_cell_angle_beta 90.000000
_cell_angle_gamma 90.000000
_cell_volume 3247.839811
_symmetry_space_group_name_H-M "A M M 2"
_symmetry_group_IT_number 38
_symmetry_cell_setting 'orthorhombic'
loop_
_space_group_symop_operation_xyz
x,y,z
-x,-y,z
-x,y,z
x,-y,z
x,1/2+y,1/2+z
-x,1/2-y,1/2+z
-x,1/2+y,1/2+z
x,1/2-y,1/2+z
loop_
_atom_site_type_symbol
_atom_site_label
_atom_site_fract_x
_atom_site_fract_y
_atom_site_fract_z
Si Si1 0.831297 0.262855 0.642770
Si Si2 0.167371 0.395598 0.225306
Si Si3 0.168726 0.262557 0.018020
Si Si4 0.331269 0.891490 0.222664
Si Si5 0.331251 0.108498 0.438342
Si Si6 0.167388 0.395578 0.435228
Si Si7 0.336486 0.390200 0.330267
Si Si8 0.164652 0.890404 0.330495
O O1 0.801684 0.165393 0.672022
O O2 0.781289 0.250367 0.580381
O O3 0.734984 0.343064 0.669286
O O4 0.000000 0.292071 0.646893
O O5 0.216247 0.500000 0.211214
O O6 0.257617 0.352922 0.275871
O O7 0.000000 0.392815 0.243050
O O8 0.000000 0.291742 0.013966
O O9 0.264980 0.342985 0.991694
O O10 0.198488 0.165326 0.988531
O O11 0.500000 0.866169 0.229067
O O12 0.247728 0.854175 0.276576
O O13 0.308301 0.000000 0.215073
O O14 0.500000 0.133765 0.431934
O O15 0.247734 0.145781 0.384420
O O16 0.308210 0.000000 0.445983
O O17 0.216215 0.500000 0.449273
O O18 0.257582 0.352895 0.384650
O O19 0.000000 0.392710 0.417524
O O20 0.500000 0.352803 0.330270
O O21 0.327995 0.500000 0.330273
O O22 0.000000 0.851658 0.330504
O O23 0.165085 0.000000 0.330477
#
# Coordination Sequence:
#
# PCOD8180079 Si02
#       8
#     8   8   8   8   8   8   8   8
#     4  10  22  38  56  80 108 142 187 231 269 317
#     4   9  18  34  55  78 106 139 173 214 266 319
#     4  10  22  38  56  80 108 142 187 231 269 317
#     4  10  21  37  57  82 113 147 181 222 275 331
#     4  10  21  37  57  82 113 147 181 222 275 331
#     4   9  18  34  55  78 106 139 173 214 266 319
#     4   9  17  30  51  80 108 134 170 214 261 317
#     4   9  17  32  57  86 112 140 178 224 273 327
#
# _framework density 19.705406
#
# number of rings (size 3 to 8) (size 9 to 14) (size 15 to 20)
#    0.000    2.500    0.000    1.500    0.000    8.000 
#    0.000    3.750    0.000    3.000    0.000    0.000 
#    0.000    0.000    0.000    0.000    0.000    0.000 
#
# Total GULP energy -396909.420926 kJ/mol
# GULP energy per Si atom -12403.419404 kJ/mol
# Density = 1.966056 g / cm^3
# Si number density = 19.705406 Si / 1000 Ang^3
#
#
#
# Elastic Constant Matrix: (Units=GPa)
#
#
# Indices 1 2 3 4 5 6 
#
# 1 130.3116 49.8955 89.9561 0.0000 0.0000 0.0000
# 2 49.8955 60.5857 54.3557 0.0000 0.0000 0.0000
# 3 89.9561 54.3557 187.5446 0.0000 0.0000 0.0000
# 4 0.0000 0.0000 0.0000 24.9927 0.0000 0.0000
# 5 0.0000 0.0000 0.0000 0.0000 20.1152 0.0000
# 6 0.0000 0.0000 0.0000 0.0000 0.0000 25.8757
#
#
#
# Elastic Compliance Matrix: (Units=1/GPa)
#
#
# Indices 1 2 3 4 5 6 
#
# 1 0.013422 -0.007133 -0.004371 0.000000 0.000000 0.000000
# 2 -0.007133 0.026096 -0.004142 0.000000 0.000000 0.000000
# 3 -0.004371 -0.004142 0.008629 0.000000 0.000000 0.000000
# 4 0.000000 0.000000 0.000000 0.040012 0.000000 0.000000
# 5 0.000000 0.000000 0.000000 0.000000 0.049714 0.000000
# 6 0.000000 0.000000 0.000000 0.000000 0.000000 0.038646
#
#
# Mechanical properties :
#
#
# Convention : Reuss Voigt Hill
#
# Bulk Modulus (GPa) = 59.32587 85.20629 72.26608
# Shear Modulus (GPa) = 23.42711 26.47903 24.95307
#
# Velocity S-wave (km/s) = 3.45174 3.66969 3.56238
# Velocity P-wave (km/s) = 6.78658 7.82876 7.32622
#
# Compressibility (1/GPa) = 0.01685605
#
# Stress axis : x y z
#
# Youngs Moduli (GPa) = 74.50406 38.32044 115.88816
#
# Poissons Ratio (x) = 0.27332 0.50652
# Poissons Ratio (y) = 0.53140 0.48003
# Poissons Ratio (z) = 0.32564 0.15873
#
# Static dielectric constant tensor:
#      x y z
#    x 3.642450 0.000000 0.000000 
#    y 0.000000 3.467060 0.000000 
#    z 0.000000 0.000000 3.574950 
# 
# 
# High freq. dielectric constant tensor:
#      x y z
#    x 1.767750 0.000000 0.000000 
#    y 0.000000 1.764990 0.000000 
#    z 0.000000 0.000000 1.763650 
# 
# From -- ./inp_files/22218.got.cif
#   From: 2010.03.12/outbox.cif.g09.slc.cpg/sg38_12_cif.got.tgz:22218.got - 2010.04.14 02:38:36.
