data_PCOD8180080
_publ_section_title
;
Structure prediction by ZEFSAII (Michael W. Deem and Ramdas Pophale) SiO2 
 PCOD8180080
Probable space group: A M M 2
;
_chemical_formula_sum "Si O2"
_cell_formula_units_Z 64
_cell_length_a 20.045600
_cell_length_b 8.855604
_cell_length_c 18.396899
_cell_angle_alpha 90.000000
_cell_angle_beta 90.000000
_cell_angle_gamma 90.000000
_cell_volume 3265.742001
_symmetry_space_group_name_H-M "A M M 2"
_symmetry_group_IT_number 38
_symmetry_cell_setting 'orthorhombic'
loop_
_space_group_symop_operation_xyz
x,y,z
-x,-y,z
-x,y,z
x,-y,z
x,1/2+y,1/2+z
-x,1/2-y,1/2+z
-x,1/2+y,1/2+z
x,1/2-y,1/2+z
loop_
_atom_site_type_symbol
_atom_site_label
_atom_site_fract_x
_atom_site_fract_y
_atom_site_fract_z
Si Si1 0.309756 0.177447 0.355450
Si Si2 0.922895 0.323777 0.855843
Si Si3 0.809766 0.822548 0.944334
Si Si4 0.422885 0.323800 0.443920
Si Si5 0.423828 0.325661 0.093315
Si Si6 0.811128 0.173529 0.596523
Si Si7 0.076170 0.674357 0.206450
Si Si8 0.311135 0.326473 0.203262
O O1 0.250011 0.250105 0.399877
O O2 0.380670 0.236509 0.383798
O O3 0.302394 0.217902 0.271309
O O4 0.305898 0.000000 0.365753
O O5 0.908594 0.500000 0.863432
O O6 0.880659 0.236680 0.916007
O O7 0.901263 0.272525 0.775399
O O8 0.000000 0.283544 0.869831
O O9 0.806023 0.000000 0.934048
O O10 0.802356 0.782069 0.028468
O O11 0.500000 0.283710 0.429911
O O12 0.408509 0.500000 0.436284
O O13 0.401297 0.272602 0.524385
O O14 0.500000 0.291772 0.115145
O O15 0.412873 0.500000 0.071893
O O16 0.379133 0.281311 0.162123
O O17 0.879137 0.218715 0.637638
O O18 0.750006 0.201572 0.649904
O O19 0.813414 0.000000 0.570072
O O20 0.087092 0.500000 0.227839
O O21 0.000000 0.708356 0.184647
O O22 0.313423 0.500000 0.229719
#
# Coordination Sequence:
#
# PCOD8180080 Si02
#       8
#     8   8   8   8   8   8   8   8
#     4  12  25  40  60  85 116 153 194 241 289 341
#     4  10  21  38  61  88 119 154 192 236 285 339
#     4  12  25  40  60  85 116 153 194 241 289 341
#     4  10  21  38  61  88 119 154 192 236 285 339
#     4   9  18  34  57  84 115 151 188 228 279 339
#     4  10  21  37  57  82 113 149 188 232 285 343
#     4   9  18  34  57  84 115 151 188 228 279 339
#     4  10  21  37  57  82 113 149 188 232 285 343
#
# _framework density 19.597384000000002
#
# number of rings (size 3 to 8) (size 9 to 14) (size 15 to 20)
#    0.000    1.750    0.000    4.500    0.000    6.000 
#    0.000    2.500    0.000    0.000    0.000    0.000 
#    0.000    0.000    0.000    0.000    0.000    0.000 
#
# Total GULP energy -396993.859784 kJ/mol
# GULP energy per Si atom -12406.058118 kJ/mol
# Density = 1.955278 g / cm^3
# Si number density = 19.597384 Si / 1000 Ang^3
#
#
#
# Elastic Constant Matrix: (Units=GPa)
#
#
# Indices 1 2 3 4 5 6 
#
# 1 101.6118 50.8019 59.4227 0.0000 0.0000 0.0000
# 2 50.8019 120.2507 59.6306 0.0000 0.0000 0.0000
# 3 59.4227 59.6306 116.9280 0.0000 0.0000 0.0000
# 4 0.0000 0.0000 0.0000 39.2545 0.0000 0.0000
# 5 0.0000 0.0000 0.0000 0.0000 33.0813 0.0000
# 6 0.0000 0.0000 0.0000 0.0000 0.0000 27.5613
#
#
#
# Elastic Compliance Matrix: (Units=1/GPa)
#
#
# Indices 1 2 3 4 5 6 
#
# 1 0.014984 -0.003419 -0.005872 0.000000 0.000000 0.000000
# 2 -0.003419 0.011911 -0.004337 0.000000 0.000000 0.000000
# 3 -0.005872 -0.004337 0.013748 0.000000 0.000000 0.000000
# 4 0.000000 0.000000 0.000000 0.025475 0.000000 0.000000
# 5 0.000000 0.000000 0.000000 0.000000 0.030229 0.000000
# 6 0.000000 0.000000 0.000000 0.000000 0.000000 0.036283
#
#
# Mechanical properties :
#
#
# Convention : Reuss Voigt Hill
#
# Bulk Modulus (GPa) = 74.68953 75.38899 75.03926
# Shear Modulus (GPa) = 30.42358 31.24178 30.83268
#
# Velocity S-wave (km/s) = 3.94436 3.99705 3.97080
# Velocity P-wave (km/s) = 7.67716 7.73656 7.70691
#
# Compressibility (1/GPa) = 0.01338876
#
# Stress axis : x y z
#
# Youngs Moduli (GPa) = 66.73657 83.95694 72.73859
#
# Poissons Ratio (x) = 0.28703 0.42708
# Poissons Ratio (y) = 0.22816 0.31546
# Poissons Ratio (z) = 0.39184 0.36411
#
# Static dielectric constant tensor:
#      x y z
#    x 4.162140 0.000000 0.000000 
#    y 0.000000 3.615760 0.000000 
#    z 0.000000 0.000000 3.507430 
# 
# 
# High freq. dielectric constant tensor:
#      x y z
#    x 1.779540 0.000000 0.000000 
#    y 0.000000 1.762710 0.000000 
#    z 0.000000 0.000000 1.761890 
# 
# From -- ./inp_files/18994.got.cif
#   From: 2010.03.12/outbox.cif.g09.slc.cpg/sg38_10_cif.got.tgz:18994.got - 2010.04.14 02:38:36.
