data_PCOD8180561
_publ_section_title
;
Structure prediction by ZEFSAII (Michael W. Deem and Ramdas Pophale) SiO2 
 PCOD8180561
Probable space group: A M M 2
;
_chemical_formula_sum "Si O2"
_cell_formula_units_Z 32
_cell_length_a 14.035376
_cell_length_b 18.969491
_cell_length_c 5.250324
_cell_angle_alpha 90.000000
_cell_angle_beta 90.000000
_cell_angle_gamma 90.000000
_cell_volume 1397.866941
_symmetry_space_group_name_H-M "A M M 2"
_symmetry_group_IT_number 38
_symmetry_cell_setting 'orthorhombic'
loop_
_space_group_symop_operation_xyz
x,y,z
-x,-y,z
-x,y,z
x,-y,z
x,1/2+y,1/2+z
-x,1/2-y,1/2+z
-x,1/2+y,1/2+z
x,1/2-y,1/2+z
loop_
_atom_site_type_symbol
_atom_site_label
_atom_site_fract_x
_atom_site_fract_y
_atom_site_fract_z
Si Si1 0.611048 0.285333 0.771080
Si Si2 0.208737 0.917713 0.705785
Si Si3 0.108090 0.584111 0.708333
Si Si4 0.392632 0.079384 0.982154
O O1 0.500000 0.266548 0.785305
O O2 0.657606 0.240046 0.536885
O O3 0.627531 0.368546 0.718760
O O4 0.152049 0.885309 0.947390
O O5 0.321889 0.904152 0.747215
O O6 0.185857 0.000000 0.694997
O O7 0.170547 0.884069 0.442756
O O8 0.113205 0.500000 0.707048
O O9 0.000000 0.610568 0.737692
O O10 0.500000 0.089539 0.875702
O O11 0.375719 0.000000 0.087431
#
# Coordination Sequence:
#
# PCOD8180561 Si02
#       4
#     8   8   8   8
#     4   9  18  33  51  70  96 133 175 215 251 290
#     4   9  17  28  43  66  95 126 162 202 245 297
#     4   9  16  27  43  63  91 126 160 200 253 302
#     4   9  18  33  52  76 108 143 174 207 252 306
#
# _framework density 22.892019999999999
#
# number of rings (size 3 to 8) (size 9 to 14) (size 15 to 20)
#    0.000    3.000    0.000    0.750    0.000    5.000 
#    0.000    7.500    0.000   21.000    0.000    0.000 
#    0.000   20.000    0.000    0.000    0.000    0.000 
#
# Total GULP energy -198289.552334 kJ/mol
# GULP energy per Si atom -12393.097021 kJ/mol
# Density = 2.283992 g / cm^3
# Si number density = 22.892020 Si / 1000 Ang^3
#
#
#
# Elastic Constant Matrix: (Units=GPa)
#
#
# Indices 1 2 3 4 5 6 
#
# 1 105.5593 3.3349 27.3481 0.0000 0.0000 0.0000
# 2 3.3349 62.9946 6.0340 0.0000 0.0000 0.0000
# 3 27.3481 6.0340 133.5737 0.0000 0.0000 0.0000
# 4 0.0000 0.0000 0.0000 11.5419 0.0000 0.0000
# 5 0.0000 0.0000 0.0000 0.0000 12.6668 0.0000
# 6 0.0000 0.0000 0.0000 0.0000 0.0000 4.2405
#
#
#
# Elastic Compliance Matrix: (Units=1/GPa)
#
#
# Indices 1 2 3 4 5 6 
#
# 1 0.010011 -0.000335 -0.002035 0.000000 0.000000 0.000000
# 2 -0.000335 0.015955 -0.000652 0.000000 0.000000 0.000000
# 3 -0.002035 -0.000652 0.007933 0.000000 0.000000 0.000000
# 4 0.000000 0.000000 0.000000 0.086641 0.000000 0.000000
# 5 0.000000 0.000000 0.000000 0.000000 0.078946 0.000000
# 6 0.000000 0.000000 0.000000 0.000000 0.000000 0.235819
#
#
# Mechanical properties :
#
#
# Convention : Reuss Voigt Hill
#
# Bulk Modulus (GPa) = 35.90070 41.72909 38.81489
# Shear Modulus (GPa) = 11.09552 23.38390 17.23971
#
# Velocity S-wave (km/s) = 2.20395 3.19954 2.74722
# Velocity P-wave (km/s) = 4.71097 5.64957 5.20148
#
# Compressibility (1/GPa) = 0.02785461
#
# Stress axis : x y z
#
# Youngs Moduli (GPa) = 99.88969 62.67795 126.06340
#
# Poissons Ratio (x) = 0.02100 0.25648
# Poissons Ratio (y) = 0.03347 0.08221
# Poissons Ratio (z) = 0.20323 0.04087
#
# Static dielectric constant tensor:
#      x y z
#    x 4.051760 0.000000 0.000000 
#    y 0.000000 3.643150 0.000000 
#    z 0.000000 0.000000 4.334370 
# 
# 
# High freq. dielectric constant tensor:
#      x y z
#    x 1.885630 0.000000 0.000000 
#    y 0.000000 1.847370 0.000000 
#    z 0.000000 0.000000 1.906520 
# 
# From -- ./inp_files/725.got.cif
#   From: 2010.03.12/outbox.cif.g09.slc.cpg/sg38_1_cif.got.tgz:725.got - 2010.04.14 02:38:36.
