data_PCOD8180673
_publ_section_title
;
Structure prediction by ZEFSAII (Michael W. Deem and Ramdas Pophale) SiO2 
 PCOD8180673
Probable space group: A B M 2
;
_chemical_formula_sum "Si O2"
_cell_formula_units_Z 48
_cell_length_a 15.462565
_cell_length_b 8.650205
_cell_length_c 19.261938
_cell_angle_alpha 90.000000
_cell_angle_beta 90.000000
_cell_angle_gamma 90.000000
_cell_volume 2576.368133
_symmetry_space_group_name_H-M "A B M 2"
_symmetry_group_IT_number 39
_symmetry_cell_setting 'orthorhombic'
loop_
_space_group_symop_operation_xyz
x,y,z
-x,-y,z
-x,1/2+y,z
x,1/2-y,z
x,1/2+y,1/2+z
-x,1/2-y,1/2+z
-x,y,1/2+z
x,-y,1/2+z
loop_
_atom_site_type_symbol
_atom_site_label
_atom_site_fract_x
_atom_site_fract_y
_atom_site_fract_z
Si Si1 0.412649 0.931202 0.820240
Si Si2 0.772303 0.424930 0.480663
Si Si3 0.582637 0.569694 0.970424
Si Si4 0.908092 0.931481 0.222747
Si Si5 0.764917 0.928727 0.816924
Si Si6 0.090995 0.069936 0.576155
O O1 0.407331 0.750000 0.805817
O O2 0.500000 0.000000 0.784962
O O3 0.415074 0.966026 0.901718
O O4 0.327679 0.012794 0.788385
O O5 0.802188 0.250000 0.496317
O O6 0.674270 0.451466 0.509764
O O7 0.773075 0.457481 0.398870
O O8 0.836818 0.541455 0.518030
O O9 0.500000 0.500000 0.013834
O O10 0.569878 0.750000 0.951100
O O11 0.917481 0.750000 0.216532
O O12 0.839280 0.973318 0.280972
O O13 0.878055 0.996419 0.148416
O O14 0.000000 0.000000 0.245473
O O15 0.775468 0.750000 0.797624
O O16 0.078080 0.250000 0.587427
O O17 0.000000 0.000000 0.550867
#
# Coordination Sequence:
#
# PCOD8180673 Si02
#       6
#     8   8   8   8   8   8
#     4  10  17  27  45  71 103 138 174 211 255 305
#     4   9  19  34  52  77 108 138 170 213 259 303
#     4   9  16  27  45  70 102 137 171 210 254 302
#     4  11  22  38  58  78 103 136 174 213 258 313
#     4  10  20  35  54  79 109 138 173 217 263 307
#     4  11  22  37  57  77 101 135 174 214 257 310
#
# _framework density 18.630877999999999
#
# number of rings (size 3 to 8) (size 9 to 14) (size 15 to 20)
#    0.000    2.000    0.000    8.500    0.000    4.667 
#    0.000    0.000    0.000    1.000    0.000    4.667 
#    0.000    0.000    0.000    0.000    0.000    0.000 
#
# Total GULP energy -297533.908210 kJ/mol
# GULP energy per Si atom -12397.246175 kJ/mol
# Density = 1.858847 g / cm^3
# Si number density = 18.630878 Si / 1000 Ang^3
#
#
#
# Elastic Constant Matrix: (Units=GPa)
#
#
# Indices 1 2 3 4 5 6 
#
# 1 142.2714 54.8691 45.2103 0.0000 0.0000 0.0000
# 2 54.8691 138.3137 28.3513 0.0000 0.0000 0.0000
# 3 45.2103 28.3513 36.7075 0.0000 0.0000 0.0000
# 4 0.0000 0.0000 0.0000 22.9677 0.0000 0.0000
# 5 0.0000 0.0000 0.0000 0.0000 -2.0622 0.0000
# 6 0.0000 0.0000 0.0000 0.0000 0.0000 39.0597
#
#
#
# Elastic Compliance Matrix: (Units=1/GPa)
#
#
# Indices 1 2 3 4 5 6 
#
# 1 0.012024 -0.002061 -0.013217 0.000000 0.000000 0.000000
# 2 -0.002061 0.008943 -0.004369 0.000000 0.000000 0.000000
# 3 -0.013217 -0.004369 0.046896 0.000000 0.000000 0.000000
# 4 0.000000 0.000000 0.000000 0.043539 0.000000 0.000000
# 5 0.000000 0.000000 0.000000 0.000000 -0.484915 0.000000
# 6 0.000000 0.000000 0.000000 0.000000 0.000000 0.025602
#
#
# Mechanical properties :
#
#
# Convention : Reuss Voigt Hill
#
# Bulk Modulus (GPa) = 35.00392 63.79489 49.39940
# Shear Modulus (GPa) = -16.71716 24.58384 3.93334
#
# Velocity S-wave (km/s) = -2.99872 3.63646 1.45457
# Velocity P-wave (km/s) = 2.61518 7.20747 5.42157
#
# Compressibility (1/GPa) = 0.02856823
#
# Stress axis : x y z
#
# Youngs Moduli (GPa) = 83.16974 111.81962 21.32384
#
# Poissons Ratio (x) = 0.23041 0.28184
# Poissons Ratio (y) = 0.17137 0.09317
# Poissons Ratio (z) = 1.09927 0.48858
#
# Static dielectric constant tensor:
#      x y z
#    x 3.983200 0.000000 0.000000 
#    y 0.000000 3.517290 0.000000 
#    z 0.000000 0.000000 2.918700 
# 
# 
# High freq. dielectric constant tensor:
#      x y z
#    x 1.747060 0.000000 0.000000 
#    y 0.000000 1.740340 0.000000 
#    z 0.000000 0.000000 1.665150 
# 
# From -- ./inp_files/14588.got.cif
#   From: 2010.03.12/outbox.cif.g09.slc.cpg/sg39_8_cif.got.tgz:14588.got - 2010.04.14 02:53:20.
