data_PCOD8180776
_publ_section_title
;
Structure prediction by ZEFSAII (Michael W. Deem and Ramdas Pophale) SiO2 
 PCOD8180776
Probable space group: A B M 2
;
_chemical_formula_sum "Si O2"
_cell_formula_units_Z 64
_cell_length_a 19.297530
_cell_length_b 8.703161
_cell_length_c 20.750108
_cell_angle_alpha 90.000000
_cell_angle_beta 90.000000
_cell_angle_gamma 90.000000
_cell_volume 3484.970481
_symmetry_space_group_name_H-M "A B M 2"
_symmetry_group_IT_number 39
_symmetry_cell_setting 'orthorhombic'
loop_
_space_group_symop_operation_xyz
x,y,z
-x,-y,z
-x,1/2+y,z
x,1/2-y,z
x,1/2+y,1/2+z
-x,1/2-y,1/2+z
-x,y,1/2+z
x,-y,1/2+z
loop_
_atom_site_type_symbol
_atom_site_label
_atom_site_fract_x
_atom_site_fract_y
_atom_site_fract_z
Si Si1 0.429818 0.431016 0.585650
Si Si2 0.718004 0.067690 0.886691
Si Si3 0.929503 0.070712 0.077169
Si Si4 0.209724 0.571336 0.014300
Si Si5 0.790192 0.067989 0.263648
Si Si6 0.428931 0.430646 0.439535
Si Si7 0.287200 0.567378 0.137667
Si Si8 0.926180 0.932370 0.215531
O O1 0.500000 0.500000 0.615091
O O2 0.435905 0.250000 0.584974
O O3 0.417397 0.491354 0.512622
O O4 0.367207 0.484629 0.631879
O O5 0.726893 0.250000 0.877482
O O6 0.762249 0.003333 0.947436
O O7 0.637424 0.021559 0.896720
O O8 0.747073 0.978957 0.825789
O O9 0.938804 0.250000 0.092695
O O10 0.908034 0.989355 0.143634
O O11 0.872309 0.042298 0.022085
O O12 0.000000 0.000000 0.049151
O O13 0.228708 0.750000 0.013775
O O14 0.247567 0.496469 0.075933
O O15 0.799561 0.250000 0.261110
O O16 0.746564 0.003157 0.202863
O O17 0.866196 0.990801 0.263664
O O18 0.500000 0.500000 0.410165
O O19 0.437084 0.250000 0.439789
O O20 0.280074 0.750000 0.137273
O O21 0.930124 0.750000 0.217156
O O22 0.000000 0.000000 0.238407
#
# Coordination Sequence:
#
# PCOD8180776 Si02
#       8
#     8   8   8   8   8   8   8   8
#     4   9  16  29  51  78 104 134 174 222 272 320
#     4  10  20  36  56  79 107 144 187 226 270 324
#     4  10  18  31  53  81 110 140 177 221 270 320
#     4   9  16  31  56  78 100 138 182 220 262 321
#     4  11  22  37  56  80 111 145 183 226 272 325
#     4   9  17  30  52  77 103 134 174 222 269 324
#     4   9  16  31  55  77 100 137 181 216 261 323
#     4  11  21  35  56  82 110 142 180 222 269 322
#
# _framework density 18.364574999999999
#
# number of rings (size 3 to 8) (size 9 to 14) (size 15 to 20)
#    0.000    2.250    2.500    2.625    0.000    0.500 
#    0.000    3.750    0.000    4.500    0.000    0.000 
#    0.000    0.000    0.000    0.000    0.000    0.000 
#
# Total GULP energy -396716.083835 kJ/mol
# GULP energy per Si atom -12397.377620 kJ/mol
# Density = 1.832278 g / cm^3
# Si number density = 18.364575 Si / 1000 Ang^3
#
#
#
# Elastic Constant Matrix: (Units=GPa)
#
#
# Indices 1 2 3 4 5 6 
#
# 1 161.1789 46.8879 69.4506 0.0000 0.0000 0.0000
# 2 46.8879 64.1486 25.7624 0.0000 0.0000 0.0000
# 3 69.4506 25.7624 104.7078 0.0000 0.0000 0.0000
# 4 0.0000 0.0000 0.0000 18.1065 0.0000 0.0000
# 5 0.0000 0.0000 0.0000 0.0000 26.3953 0.0000
# 6 0.0000 0.0000 0.0000 0.0000 0.0000 30.2440
#
#
#
# Elastic Compliance Matrix: (Units=1/GPa)
#
#
# Indices 1 2 3 4 5 6 
#
# 1 0.010025 -0.005168 -0.005378 0.000000 0.000000 0.000000
# 2 -0.005168 0.019962 -0.001484 0.000000 0.000000 0.000000
# 3 -0.005378 -0.001484 0.013482 0.000000 0.000000 0.000000
# 4 0.000000 0.000000 0.000000 0.055229 0.000000 0.000000
# 5 0.000000 0.000000 0.000000 0.000000 0.037886 0.000000
# 6 0.000000 0.000000 0.000000 0.000000 0.000000 0.033064
#
#
# Mechanical properties :
#
#
# Convention : Reuss Voigt Hill
#
# Bulk Modulus (GPa) = 51.51833 68.24858 59.88345
# Shear Modulus (GPa) = 24.97790 27.47810 26.22800
#
# Velocity S-wave (km/s) = 3.69197 3.87234 3.78323
# Velocity P-wave (km/s) = 6.80354 7.56553 7.19463
#
# Compressibility (1/GPa) = 0.01941057
#
# Stress axis : x y z
#
# Youngs Moduli (GPa) = 99.75218 50.09546 74.17031
#
# Poissons Ratio (x) = 0.25888 0.39888
# Poissons Ratio (y) = 0.51548 0.11006
# Poissons Ratio (z) = 0.53645 0.07433
#
# Static dielectric constant tensor:
#      x y z
#    x 3.688350 0.000000 0.000000 
#    y 0.000000 3.127080 0.000000 
#    z 0.000000 0.000000 3.230460 
# 
# 
# High freq. dielectric constant tensor:
#      x y z
#    x 1.731390 0.000000 0.000000 
#    y 0.000000 1.689220 0.000000 
#    z 0.000000 0.000000 1.682080 
# 
# From -- ./inp_files/13116.got.cif
#   From: 2010.03.12/outbox.cif.g09.slc.cpg/sg39_7_cif.got.tgz:13116.got - 2010.04.14 02:53:20.
