data_PCOD8180600
_publ_section_title
;
Structure prediction by ZEFSAII (Michael W. Deem and Ramdas Pophale) SiO2 
 PCOD8180600
Probable space group: A B M 2
;
_chemical_formula_sum "Si O2"
_cell_formula_units_Z 44
_cell_length_a 26.814337
_cell_length_b 17.514830
_cell_length_c 5.203027
_cell_angle_alpha 90.000000
_cell_angle_beta 90.000000
_cell_angle_gamma 90.000000
_cell_volume 2443.594108
_symmetry_space_group_name_H-M "A B M 2"
_symmetry_group_IT_number 39
_symmetry_cell_setting 'orthorhombic'
loop_
_space_group_symop_operation_xyz
x,y,z
-x,-y,z
-x,1/2+y,z
x,1/2-y,z
x,1/2+y,1/2+z
-x,1/2-y,1/2+z
-x,y,1/2+z
x,-y,1/2+z
loop_
_atom_site_type_symbol
_atom_site_label
_atom_site_fract_x
_atom_site_fract_y
_atom_site_fract_z
Si Si1 0.467387 0.750000 0.057730
Si Si2 0.372030 0.165490 0.524961
Si Si3 0.320821 0.341488 0.024977
Si Si4 0.118358 0.548271 0.529988
Si Si5 0.030436 0.339639 0.073759
Si Si6 0.232455 0.451099 0.057276
O O1 0.490884 0.750000 0.340221
O O2 0.432584 0.674037 0.031395
O O3 0.347856 0.250000 0.524700
O O4 0.350522 0.124564 0.778581
O O5 0.352724 0.125335 0.265665
O O6 0.318233 0.250000 0.023634
O O7 0.265340 0.375050 0.030988
O O8 0.106765 0.487534 0.752814
O O9 0.084311 0.621980 0.566501
O O10 0.175328 0.576386 0.546138
O O11 0.040178 0.250000 0.070477
O O12 0.001955 0.365962 0.329970
O O13 0.244529 0.509322 0.827890
#
# Coordination Sequence:
#
# PCOD8180600 Si02
#       6
#     4   8   8   8   8   8
#     4  10  16  26  44  70 110 140 158 202 266 300
#     4   8  17  27  43  70 100 131 160 207 241 299
#     4  10  17  32  50  70  99 136 163 207 251 296
#     4  10  21  36  53  75 102 131 169 213 252 303
#     4  10  21  36  54  77 104 132 165 211 256 305
#     4  10  21  35  51  74 103 133 170 213 253 300
#
# _framework density 18.006263000000001
#
# number of rings (size 3 to 8) (size 9 to 14) (size 15 to 20)
#    0.545    1.818    0.000    3.273    0.000    2.909 
#    0.000    0.000    0.000   13.091    0.000    0.000 
#    0.000   50.909    0.000    0.000    0.000    0.000 
#
# Total GULP energy -272692.753339 kJ/mol
# GULP energy per Si atom -12395.125152 kJ/mol
# Density = 1.796528 g / cm^3
# Si number density = 18.006263 Si / 1000 Ang^3
#
#
#
# Elastic Constant Matrix: (Units=GPa)
#
#
# Indices 1 2 3 4 5 6 
#
# 1 111.8374 37.2489 38.2150 0.0000 0.0000 0.0000
# 2 37.2489 25.4588 11.9727 0.0000 0.0000 0.0000
# 3 38.2150 11.9727 127.3311 0.0000 0.0000 0.0000
# 4 0.0000 0.0000 0.0000 10.5214 0.0000 0.0000
# 5 0.0000 0.0000 0.0000 0.0000 28.9965 0.0000
# 6 0.0000 0.0000 0.0000 0.0000 0.0000 26.0863
#
#
#
# Elastic Compliance Matrix: (Units=1/GPa)
#
#
# Indices 1 2 3 4 5 6 
#
# 1 0.018581 -0.025700 -0.003160 0.000000 0.000000 0.000000
# 2 -0.025700 0.076642 0.000507 0.000000 0.000000 0.000000
# 3 -0.003160 0.000507 0.008754 0.000000 0.000000 0.000000
# 4 0.000000 0.000000 0.000000 0.095045 0.000000 0.000000
# 5 0.000000 0.000000 0.000000 0.000000 0.034487 0.000000
# 6 0.000000 0.000000 0.000000 0.000000 0.000000 0.038334
#
#
# Mechanical properties :
#
#
# Convention : Reuss Voigt Hill
#
# Bulk Modulus (GPa) = 21.15464 48.83338 34.99401
# Shear Modulus (GPa) = 14.52193 24.93356 19.72774
#
# Velocity S-wave (km/s) = 2.84296 3.72521 3.31358
# Velocity P-wave (km/s) = 4.74875 6.75885 5.84092
#
# Compressibility (1/GPa) = 0.04727095
#
# Stress axis : x y z
#
# Youngs Moduli (GPa) = 53.81853 13.04765 114.22935
#
# Poissons Ratio (x) = 0.33532 0.36097
# Poissons Ratio (y) = 1.38312 -0.05786
# Poissons Ratio (z) = 0.17007 -0.00661
#
# Static dielectric constant tensor:
#      x y z
#    x 3.281740 0.000000 0.000000 
#    y 0.000000 2.817380 0.000000 
#    z 0.000000 0.000000 3.778670 
# 
# 
# High freq. dielectric constant tensor:
#      x y z
#    x 1.697820 0.000000 0.000000 
#    y 0.000000 1.648590 0.000000 
#    z 0.000000 0.000000 1.727320 
# 
# From -- ./inp_files/1246.got.cif
#   From: 2010.03.12/outbox.cif.g09.slc.cpg/sg39_1_cif.got.tgz:1246.got - 2010.04.14 02:53:20.
