data_PCOD8180371
_publ_section_title
;
Structure prediction by ZEFSAII (Michael W. Deem and Ramdas Pophale) SiO2 
 PCOD8180371
Probable space group: A M M 2
;
_chemical_formula_sum "Si O2"
_cell_formula_units_Z 22
_cell_length_a 7.146936
_cell_length_b 14.217483
_cell_length_c 11.232552
_cell_angle_alpha 90.000000
_cell_angle_beta 90.000000
_cell_angle_gamma 90.000000
_cell_volume 1141.355796
_symmetry_space_group_name_H-M "A M M 2"
_symmetry_group_IT_number 38
_symmetry_cell_setting 'orthorhombic'
loop_
_space_group_symop_operation_xyz
x,y,z
-x,-y,z
-x,y,z
x,-y,z
x,1/2+y,1/2+z
-x,1/2-y,1/2+z
-x,1/2+y,1/2+z
x,1/2-y,1/2+z
loop_
_atom_site_type_symbol
_atom_site_label
_atom_site_fract_x
_atom_site_fract_y
_atom_site_fract_z
Si Si1 0.500000 0.166316 0.694890
Si Si2 0.219879 0.322517 0.751503
Si Si3 0.500000 0.106784 0.430887
Si Si4 0.784893 0.000000 0.088316
Si Si5 0.500000 0.500000 0.380840
O O1 0.311958 0.228607 0.698808
O O2 0.500000 0.110652 0.572168
O O3 0.500000 0.093332 0.802368
O O4 0.313868 0.343477 0.879201
O O5 0.268239 0.407706 0.662958
O O6 0.000000 0.307533 0.770033
O O7 0.500000 0.000000 0.388840
O O8 0.000000 0.000000 0.054908
O O9 0.681905 0.000000 0.962995
#
# Coordination Sequence:
#
# PCOD8180371 Si02
#       5
#     4   8   4   4   2
#     4  11  26  39  61  90 126 162 197 245 308 360
#     4  10  23  42  65  91 117 159 208 249 295 355
#     4  11  21  41  65  89 121 158 200 254 303 353
#     4  10  22  41  65  89 117 158 205 248 294 357
#     4  12  24  42  58  86 130 162 194 248 304 358
#
# _framework density 19.275321999999999
#
# number of rings (size 3 to 8) (size 9 to 14) (size 15 to 20)
#    0.000    1.455    2.727    2.182   10.182    2.909 
#    0.000    0.000    0.000    0.000    0.000    0.000 
#    0.000    0.000    0.000    0.000    0.000    0.000 
#
# Total GULP energy -136431.014415 kJ/mol
# GULP energy per Si atom -12402.819492 kJ/mol
# Density = 1.923145 g / cm^3
# Si number density = 19.275322 Si / 1000 Ang^3
#
#
#
# Elastic Constant Matrix: (Units=GPa)
#
#
# Indices 1 2 3 4 5 6 
#
# 1 151.8245 52.2609 55.9795 0.0000 0.0000 0.0000
# 2 52.2609 110.6521 38.0475 0.0000 0.0000 0.0000
# 3 55.9795 38.0475 128.4902 0.0000 0.0000 0.0000
# 4 0.0000 0.0000 0.0000 32.9956 0.0000 0.0000
# 5 0.0000 0.0000 0.0000 0.0000 13.7342 0.0000
# 6 0.0000 0.0000 0.0000 0.0000 0.0000 27.0172
#
#
#
# Elastic Compliance Matrix: (Units=1/GPa)
#
#
# Indices 1 2 3 4 5 6 
#
# 1 0.008724 -0.003132 -0.002873 0.000000 0.000000 0.000000
# 2 -0.003132 0.011187 -0.001948 0.000000 0.000000 0.000000
# 3 -0.002873 -0.001948 0.009611 0.000000 0.000000 0.000000
# 4 0.000000 0.000000 0.000000 0.030307 0.000000 0.000000
# 5 0.000000 0.000000 0.000000 0.000000 0.072811 0.000000
# 6 0.000000 0.000000 0.000000 0.000000 0.000000 0.037013
#
#
# Mechanical properties :
#
#
# Convention : Reuss Voigt Hill
#
# Bulk Modulus (GPa) = 73.44865 75.94917 74.69891
# Shear Modulus (GPa) = 26.30208 31.06132 28.68170
#
# Velocity S-wave (km/s) = 3.69798 4.01865 3.86165
# Velocity P-wave (km/s) = 7.51140 7.81156 7.66295
#
# Compressibility (1/GPa) = 0.01361495
#
# Stress axis : x y z
#
# Youngs Moduli (GPa) = 114.62316 89.39331 104.04443
#
# Poissons Ratio (x) = 0.28002 0.29896
# Poissons Ratio (y) = 0.35905 0.20265
# Poissons Ratio (z) = 0.32935 0.17411
#
# Static dielectric constant tensor:
#      x y z
#    x 3.809680 0.000000 0.000000 
#    y 0.000000 3.609770 0.000000 
#    z 0.000000 0.000000 3.371460 
# 
# 
# High freq. dielectric constant tensor:
#      x y z
#    x 1.756100 0.000000 0.000000 
#    y 0.000000 1.761050 0.000000 
#    z 0.000000 0.000000 1.749230 
# 
# From -- ./inp_files/2726.got.cif
#   From: 2010.03.12/outbox.cif.g09.slc.cpg/sg38_2_cif.got.tgz:2726.got - 2010.04.14 02:38:36.
