data_PCOD8180235
_publ_section_title
;
Structure prediction by ZEFSAII (Michael W. Deem and Ramdas Pophale) SiO2 
 PCOD8180235
Probable space group: A M M 2
;
_chemical_formula_sum "Si O2"
_cell_formula_units_Z 56
_cell_length_a 19.925176
_cell_length_b 9.001863
_cell_length_c 14.758241
_cell_angle_alpha 90.000000
_cell_angle_beta 90.000000
_cell_angle_gamma 90.000000
_cell_volume 2647.092779
_symmetry_space_group_name_H-M "A M M 2"
_symmetry_group_IT_number 38
_symmetry_cell_setting 'orthorhombic'
loop_
_space_group_symop_operation_xyz
x,y,z
-x,-y,z
-x,y,z
x,-y,z
x,1/2+y,1/2+z
-x,1/2-y,1/2+z
-x,1/2+y,1/2+z
x,1/2-y,1/2+z
loop_
_atom_site_type_symbol
_atom_site_label
_atom_site_fract_x
_atom_site_fract_y
_atom_site_fract_z
Si Si1 0.420928 0.329315 0.437320
Si Si2 0.653732 0.678616 0.780729
Si Si3 0.664508 0.323003 0.087801
Si Si4 0.201126 0.334676 0.580746
Si Si5 0.800961 0.162848 0.296108
Si Si6 0.927485 0.166040 0.795965
Si Si7 0.073676 0.667070 0.080481
O O1 0.500000 0.322992 0.448625
O O2 0.395430 0.500000 0.442870
O O3 0.402355 0.256805 0.341104
O O4 0.389729 0.227250 0.514911
O O5 0.645905 0.500000 0.778811
O O6 0.644989 0.740882 0.680151
O O7 0.727053 0.725304 0.821203
O O8 0.663307 0.500000 0.100319
O O9 0.737877 0.272753 0.052705
O O10 0.213551 0.500000 0.541859
O O11 0.194692 0.340941 0.688223
O O12 0.131838 0.270786 0.538752
O O13 0.862728 0.253827 0.339351
O O14 0.808746 0.000000 0.337384
O O15 0.921352 0.167614 0.688381
O O16 0.000000 0.238935 0.823596
O O17 0.925755 0.000000 0.833370
O O18 0.084131 0.500000 0.044765
O O19 0.000000 0.726624 0.050297
#
# Coordination Sequence:
#
# PCOD8180235 Si02
#       7
#     8   8   8   8   8   8   8
#     4  11  25  44  65  91 121 152 190 235 285 347
#     4  10  21  39  62  89 121 155 194 240 289 344
#     4  11  22  38  62  89 119 157 198 240 290 346
#     4   9  16  27  44  69 103 142 187 237 286 338
#     4   8  15  26  42  67  99 137 180 226 275 327
#     4   8  13  20  32  55  90 132 177 225 274 322
#     4   8  13  21  34  57  93 136 182 232 284 337
#
# _framework density 21.155283000000001
#
# number of rings (size 3 to 8) (size 9 to 14) (size 15 to 20)
#    0.000    2.714    0.000    4.286    0.000    6.286 
#    0.000    2.857    0.000    0.000    0.000    1.000 
#    0.000    3.429    0.000    0.000    0.000    0.429 
#
# Total GULP energy -347019.704545 kJ/mol
# GULP energy per Si atom -12393.560877 kJ/mol
# Density = 2.110713 g / cm^3
# Si number density = 21.155283 Si / 1000 Ang^3
#
#
#
# Elastic Constant Matrix: (Units=GPa)
#
#
# Indices 1 2 3 4 5 6 
#
# 1 116.9614 50.1603 22.9519 0.0000 0.0000 0.0000
# 2 50.1603 112.9056 20.0958 0.0000 0.0000 0.0000
# 3 22.9519 20.0958 41.5588 0.0000 0.0000 0.0000
# 4 0.0000 0.0000 0.0000 19.8954 0.0000 0.0000
# 5 0.0000 0.0000 0.0000 0.0000 -64.1417 0.0000
# 6 0.0000 0.0000 0.0000 0.0000 0.0000 40.0988
#
#
#
# Elastic Compliance Matrix: (Units=1/GPa)
#
#
# Indices 1 2 3 4 5 6 
#
# 1 0.011173 -0.004230 -0.004126 0.000000 0.000000 0.000000
# 2 -0.004230 0.011292 -0.003124 0.000000 0.000000 0.000000
# 3 -0.004126 -0.003124 0.027852 0.000000 0.000000 0.000000
# 4 0.000000 0.000000 0.000000 0.050263 0.000000 0.000000
# 5 0.000000 0.000000 0.000000 0.000000 -0.015590 0.000000
# 6 0.000000 0.000000 0.000000 0.000000 0.000000 0.024938
#
#
# Mechanical properties :
#
#
# Convention : Reuss Voigt Hill
#
# Bulk Modulus (GPa) = 36.55252 50.87132 43.71192
# Shear Modulus (GPa) = 35.20972 11.05168 23.13070
#
# Velocity S-wave (km/s) = 4.08407 2.28810 3.31021
# Velocity P-wave (km/s) = 6.28929 5.57489 5.94283
#
# Compressibility (1/GPa) = 0.02735790
#
# Stress axis : x y z
#
# Youngs Moduli (GPa) = 89.49875 88.55699 35.90467
#
# Poissons Ratio (x) = 0.37457 0.14813
# Poissons Ratio (y) = 0.37855 0.11218
# Poissons Ratio (z) = 0.36923 0.27669
#
# Static dielectric constant tensor:
#      x y z
#    x 4.222190 0.000000 0.000000 
#    y 0.000000 4.005380 0.000000 
#    z 0.000000 0.000000 3.326800 
# 
# 
# High freq. dielectric constant tensor:
#      x y z
#    x 1.837940 0.000000 0.000000 
#    y 0.000000 1.828720 0.000000 
#    z 0.000000 0.000000 1.795930 
# 
# From -- ./inp_files/15495.got.cif
#   From: 2010.03.12/outbox.cif.g09.slc.cpg/sg38_8_cif.got.tgz:15495.got - 2010.04.14 02:38:36.
