data_PCOD8180441
_publ_section_title
;
Structure prediction by ZEFSAII (Michael W. Deem and Ramdas Pophale) SiO2 
 PCOD8180441
Probable space group: A M M 2
;
_chemical_formula_sum "Si O2"
_cell_formula_units_Z 48
_cell_length_a 8.836390
_cell_length_b 23.863808
_cell_length_c 13.858089
_cell_angle_alpha 90.000000
_cell_angle_beta 90.000000
_cell_angle_gamma 90.000000
_cell_volume 2922.254041
_symmetry_space_group_name_H-M "A M M 2"
_symmetry_group_IT_number 38
_symmetry_cell_setting 'orthorhombic'
loop_
_space_group_symop_operation_xyz
x,y,z
-x,-y,z
-x,y,z
x,-y,z
x,1/2+y,1/2+z
-x,1/2-y,1/2+z
-x,1/2+y,1/2+z
x,1/2-y,1/2+z
loop_
_atom_site_type_symbol
_atom_site_label
_atom_site_fract_x
_atom_site_fract_y
_atom_site_fract_z
Si Si1 0.820562 0.268180 0.828500
Si Si2 0.177728 0.333470 0.009465
Si Si3 0.824520 0.564359 0.338088
Si Si4 0.177648 0.220896 0.111787
Si Si5 0.180404 0.938605 0.619248
Si Si6 0.321917 0.166010 0.935084
O O1 0.765412 0.316938 0.902223
O O2 0.769976 0.287326 0.722184
O O3 0.748133 0.209189 0.858065
O O4 0.000000 0.259194 0.834338
O O5 0.000000 0.342060 0.007084
O O6 0.221422 0.284102 0.082913
O O7 0.251113 0.391527 0.047770
O O8 0.798351 0.500000 0.368838
O O9 0.768177 0.573888 0.228473
O O10 0.726143 0.603226 0.407909
O O11 0.000000 0.580789 0.348357
O O12 0.000000 0.210129 0.098376
O O13 0.265010 0.177468 0.043826
O O14 0.000000 0.938126 0.616745
O O15 0.239714 0.000000 0.586400
O O16 0.500000 0.172115 0.932293
#
# Coordination Sequence:
#
# PCOD8180441 Si02
#       6
#     8   8   8   8   8   8
#     4   9  17  30  48  67  89 121 158 191 223 266
#     4   8  13  22  39  63  86 110 143 183 225 262
#     4   9  17  30  48  67  88 119 158 192 222 267
#     4   9  17  30  47  63  84 118 159 196 225 265
#     4   8  13  22  40  67  94 116 140 176 222 267
#     4  11  21  30  44  68  97 122 146 185 237 289
#
# _framework density 16.425677
#
# number of rings (size 3 to 8) (size 9 to 14) (size 15 to 20)
#    0.000    3.000    0.000    4.500    0.000    3.667 
#    0.000    0.000    0.000    1.000    0.000    4.667 
#    0.000    0.000    0.000    0.000    0.000    0.000 
#
# Total GULP energy -297478.319901 kJ/mol
# GULP energy per Si atom -12394.929996 kJ/mol
# Density = 1.638829 g / cm^3
# Si number density = 16.425677 Si / 1000 Ang^3
#
#
#
# Elastic Constant Matrix: (Units=GPa)
#
#
# Indices 1 2 3 4 5 6 
#
# 1 42.7815 27.4080 36.5279 0.0000 0.0000 0.0000
# 2 27.4080 111.7858 61.1550 0.0000 0.0000 0.0000
# 3 36.5279 61.1550 113.9581 0.0000 0.0000 0.0000
# 4 0.0000 0.0000 0.0000 26.2478 0.0000 0.0000
# 5 0.0000 0.0000 0.0000 0.0000 8.4955 0.0000
# 6 0.0000 0.0000 0.0000 0.0000 0.0000 9.0189
#
#
#
# Elastic Compliance Matrix: (Units=1/GPa)
#
#
# Indices 1 2 3 4 5 6 
#
# 1 0.033002 -0.003262 -0.008828 0.000000 0.000000 0.000000
# 2 -0.003262 0.012986 -0.005923 0.000000 0.000000 0.000000
# 3 -0.008828 -0.005923 0.014783 0.000000 0.000000 0.000000
# 4 0.000000 0.000000 0.000000 0.038098 0.000000 0.000000
# 5 0.000000 0.000000 0.000000 0.000000 0.117709 0.000000
# 6 0.000000 0.000000 0.000000 0.000000 0.000000 0.110878
#
#
# Mechanical properties :
#
#
# Convention : Reuss Voigt Hill
#
# Bulk Modulus (GPa) = 40.41206 57.63414 49.02310
# Shear Modulus (GPa) = 13.45058 18.31474 15.88266
#
# Velocity S-wave (km/s) = 2.86470 3.34279 3.11294
# Velocity P-wave (km/s) = 5.96644 7.07552 6.54452
#
# Compressibility (1/GPa) = 0.02474509
#
# Stress axis : x y z
#
# Youngs Moduli (GPa) = 30.30139 77.00657 67.64324
#
# Poissons Ratio (x) = 0.25120 0.59714
# Poissons Ratio (y) = 0.09885 0.40066
# Poissons Ratio (z) = 0.26749 0.45613
#
# Static dielectric constant tensor:
#      x y z
#    x 2.707820 0.000000 0.000000 
#    y 0.000000 3.304180 0.000000 
#    z 0.000000 0.000000 3.292740 
# 
# 
# High freq. dielectric constant tensor:
#      x y z
#    x 1.594350 0.000000 0.000000 
#    y 0.000000 1.625900 0.000000 
#    z 0.000000 0.000000 1.627000 
# 
# From -- ./inp_files/12238.got.cif
#   From: 2010.03.12/outbox.cif.g09.slc.cpg/sg38_7_cif.got.tgz:12238.got - 2010.04.14 02:38:36.
