data_PCOD8180568
_publ_section_title
;
Structure prediction by ZEFSAII (Michael W. Deem and Ramdas Pophale) SiO2 
 PCOD8180568
Probable space group: A M M 2
;
_chemical_formula_sum "Si O2"
_cell_formula_units_Z 32
_cell_length_a 24.000000
_cell_length_b 9.000000
_cell_length_c 15.000000
_cell_angle_alpha 90.000000
_cell_angle_beta 90.000000
_cell_angle_gamma 90.000000
_cell_volume 3240.000000
_symmetry_space_group_name_H-M "A M M 2"
_symmetry_group_IT_number 38
_symmetry_cell_setting 'orthorhombic'
loop_
_space_group_symop_operation_xyz
x,y,z
-x,-y,z
-x,y,z
x,-y,z
x,1/2+y,1/2+z
-x,1/2-y,1/2+z
-x,1/2+y,1/2+z
x,1/2-y,1/2+z
loop_
_atom_site_type_symbol
_atom_site_label
_atom_site_fract_x
_atom_site_fract_y
_atom_site_fract_z
Si Si1 0.061223 0.675190 0.602010
Si Si2 0.255003 0.823910 0.451422
Si Si3 0.065277 0.830202 0.302950
Si Si4 0.666995 0.331553 0.796098
Si Si5 0.560027 0.324027 0.543640
Si Si6 0.321320 0.670195 0.600240
Si Si7 0.561141 0.826389 0.841384
Si Si8 0.862820 0.675128 0.444948
O O1 0.056330 0.500000 0.590192
O O2 0.080164 0.713636 0.701756
O O3 0.106754 0.738062 0.533484
O O4 0.000000 0.744859 0.582037
O O5 0.294737 0.760800 0.372975
O O6 0.279491 0.772016 0.545317
O O7 0.195051 0.756960 0.434830
O O8 0.250412 0.000000 0.448725
O O9 0.098647 0.713537 0.361602
O O10 0.000000 0.810913 0.321010
O O11 0.083459 0.000000 0.323179
O O12 0.653657 0.500000 0.821256
O O13 0.699103 0.319597 0.702119
O O14 0.608088 0.251432 0.783183
O O15 0.500000 0.262236 0.581216
O O16 0.557229 0.500000 0.547260
O O17 0.614883 0.267943 0.595545
O O18 0.566627 0.269263 0.442402
O O19 0.318391 0.500000 0.565254
O O20 0.500000 0.784511 0.803527
O O21 0.571370 0.000000 0.836415
O O22 0.852584 0.500000 0.449587
#
# Coordination Sequence:
#
# PCOD8180568 Si02
#       8
#     8   8   8   8   8   8   8   8
#     4   8  16  33  57  84 114 146 178 216 266 321
#     4  11  24  41  55  75 111 147 183 232 284 329
#     4   9  18  35  59  86 117 150 179 214 269 328
#     4  10  22  37  56  81 108 140 181 229 280 330
#     4   8  14  27  51  80 105 131 166 212 265 322
#     4  10  20  37  60  81 102 138 186 229 270 327
#     4   9  17  31  54  82 110 140 173 215 271 332
#     4  11  22  36  58  84 110 146 192 234 269 316
#
# _framework density 9.8765429999999999
#
# number of rings (size 3 to 8) (size 9 to 14) (size 15 to 20)
#    0.000    2.500    1.250    2.625    0.000    3.500 
#    0.000    7.500    0.000    1.875    0.000    0.000 
#    0.000    0.000    0.000    0.000    0.000    0.000 
#
# Total GULP energy -396648.398238 kJ/mol
# GULP energy per Si atom -12395.262445 kJ/mol
# Density = 0.985406 g / cm^3
# Si number density = 9.876543 Si / 1000 Ang^3
#
#
#
# Elastic Constant Matrix: (Units=GPa)
#
#
# Indices 1 2 3 4 5 6 
#
# 1 105.2038 40.0696 52.8717 0.0000 0.0000 0.0000
# 2 40.0696 47.0742 32.5254 0.0000 0.0000 0.0000
# 3 52.8717 32.5254 90.6184 0.0000 0.0000 0.0000
# 4 0.0000 0.0000 0.0000 24.0243 0.0000 0.0000
# 5 0.0000 0.0000 0.0000 0.0000 -2.0885 0.0000
# 6 0.0000 0.0000 0.0000 0.0000 0.0000 29.4663
#
#
#
# Elastic Compliance Matrix: (Units=1/GPa)
#
#
# Indices 1 2 3 4 5 6 
#
# 1 0.016184 -0.009643 -0.005982 0.000000 0.000000 0.000000
# 2 -0.009643 0.033994 -0.006575 0.000000 0.000000 0.000000
# 3 -0.005982 -0.006575 0.016885 0.000000 0.000000 0.000000
# 4 0.000000 0.000000 0.000000 0.041624 0.000000 0.000000
# 5 0.000000 0.000000 0.000000 0.000000 -0.478804 0.000000
# 6 0.000000 0.000000 0.000000 0.000000 0.000000 0.033937
#
#
# Mechanical properties :
#
#
# Convention : Reuss Voigt Hill
#
# Bulk Modulus (GPa) = 44.12270 54.87000 49.49635
# Shear Modulus (GPa) = -17.59180 18.10907 0.25864
#
# Velocity S-wave (km/s) = -2.98750 3.03111 0.36224
# Velocity P-wave (km/s) = 3.23811 6.33154 5.02861
#
# Compressibility (1/GPa) = 0.02266407
#
# Stress axis : x y z
#
# Youngs Moduli (GPa) = 61.78797 29.41667 59.22307
#
# Poissons Ratio (x) = 0.28367 0.35425
# Poissons Ratio (y) = 0.59583 0.38940
# Poissons Ratio (z) = 0.36959 0.19342
#
# Static dielectric constant tensor:
#      x y z
#    x 3.636510 0.000000 0.000000 
#    y 0.000000 3.198710 0.000000 
#    z 0.000000 0.000000 3.565630 
# 
# 
# High freq. dielectric constant tensor:
#      x y z
#    x 1.770850 0.000000 0.000000 
#    y 0.000000 1.733970 0.000000 
#    z 0.000000 0.000000 1.765220 
# 
# From -- ./inp_files/15770.got.cif
#   From: 2010.03.12/outbox.ucp.g09.slc.cvg/sg38_8_cif.got.tgz:15770.got - 2010.05.04 21:14:20.
