data_PCOD8180604
_publ_section_title
;
Structure prediction by ZEFSAII (Michael W. Deem and Ramdas Pophale) SiO2 
 PCOD8180604
Probable space group: A B M 2
;
_chemical_formula_sum "Si O2"
_cell_formula_units_Z 36
_cell_length_a 11.381484
_cell_length_b 9.507129
_cell_length_c 18.503956
_cell_angle_alpha 90.000000
_cell_angle_beta 90.000000
_cell_angle_gamma 90.000000
_cell_volume 2002.224937
_symmetry_space_group_name_H-M "A B M 2"
_symmetry_group_IT_number 39
_symmetry_cell_setting 'orthorhombic'
loop_
_space_group_symop_operation_xyz
x,y,z
-x,-y,z
-x,1/2+y,z
x,1/2-y,z
x,1/2+y,1/2+z
-x,1/2-y,1/2+z
-x,y,1/2+z
x,-y,1/2+z
loop_
_atom_site_type_symbol
_atom_site_label
_atom_site_fract_x
_atom_site_fract_y
_atom_site_fract_z
Si Si1 0.816392 0.906607 0.528680
Si Si2 0.782148 0.406300 0.728079
Si Si3 0.000000 0.500000 0.638961
Si Si4 0.378854 0.419145 0.633894
Si Si5 0.890148 0.588160 0.376509
O O1 0.782677 0.750000 0.507131
O O2 0.700228 0.971090 0.565993
O O3 0.845573 0.981799 0.452336
O O4 0.924351 0.901789 0.585265
O O5 0.732648 0.250000 0.710836
O O6 0.689909 0.525717 0.704595
O O7 0.792613 0.425168 0.814324
O O8 0.909762 0.414981 0.689436
O O9 0.500000 0.500000 0.626143
O O10 0.394053 0.250000 0.638768
O O11 0.928649 0.750000 0.387851
O O12 0.000000 0.500000 0.348798
#
# Coordination Sequence:
#
# PCOD8180604 Si02
#       5
#     8   8   4   8   8
#     4   9  18  31  50  75 106 140 172 214 260 308
#     4  10  20  32  52  79 109 142 176 216 262 313
#     4  10  16  28  50  76 110 138 176 212 258 308
#     4  10  21  38  58  77 101 135 180 226 268 312
#     4  10  19  33  50  76 112 145 174 209 257 312
#
# _framework density 17.979997999999998
#
# number of rings (size 3 to 8) (size 9 to 14) (size 15 to 20)
#    0.000    2.222    2.222    1.333    0.000    1.778 
#    0.000    2.222    0.000    2.667    0.000    0.000 
#    0.000    0.000    0.000    0.000    0.000    0.000 
#
# Total GULP energy -223033.119562 kJ/mol
# GULP energy per Si atom -12390.728865 kJ/mol
# Density = 1.793907 g / cm^3
# Si number density = 17.979998 Si / 1000 Ang^3
#
#
#
# Elastic Constant Matrix: (Units=GPa)
#
#
# Indices 1 2 3 4 5 6 
#
# 1 106.8197 38.8127 34.5824 0.0000 0.0000 0.0000
# 2 38.8127 82.1316 27.7701 0.0000 0.0000 0.0000
# 3 34.5824 27.7701 108.9019 0.0000 0.0000 0.0000
# 4 0.0000 0.0000 0.0000 22.1739 0.0000 0.0000
# 5 0.0000 0.0000 0.0000 0.0000 15.8031 0.0000
# 6 0.0000 0.0000 0.0000 0.0000 0.0000 29.7287
#
#
#
# Elastic Compliance Matrix: (Units=1/GPa)
#
#
# Indices 1 2 3 4 5 6 
#
# 1 0.011926 -0.004766 -0.002572 0.000000 0.000000 0.000000
# 2 -0.004766 0.015229 -0.002370 0.000000 0.000000 0.000000
# 3 -0.002572 -0.002370 0.010604 0.000000 0.000000 0.000000
# 4 0.000000 0.000000 0.000000 0.045098 0.000000 0.000000
# 5 0.000000 0.000000 0.000000 0.000000 0.063279 0.000000
# 6 0.000000 0.000000 0.000000 0.000000 0.000000 0.033637
#
#
# Mechanical properties :
#
#
# Convention : Reuss Voigt Hill
#
# Bulk Modulus (GPa) = 54.51691 55.57595 55.04643
# Shear Modulus (GPa) = 24.35418 26.65367 25.50393
#
# Velocity S-wave (km/s) = 3.68437 3.85438 3.77033
# Velocity P-wave (km/s) = 6.96320 7.12638 7.04526
#
# Compressibility (1/GPa) = 0.01834293
#
# Stress axis : x y z
#
# Youngs Moduli (GPa) = 83.85054 65.66302 94.30778
#
# Poissons Ratio (x) = 0.31297 0.24254
# Poissons Ratio (y) = 0.39965 0.22350
# Poissons Ratio (z) = 0.21564 0.15562
#
# Static dielectric constant tensor:
#      x y z
#    x 3.159100 0.000000 0.000000 
#    y 0.000000 3.221120 0.000000 
#    z 0.000000 0.000000 3.599650 
# 
# 
# High freq. dielectric constant tensor:
#      x y z
#    x 1.674650 0.000000 0.000000 
#    y 0.000000 1.684710 0.000000 
#    z 0.000000 0.000000 1.705990 
# 
# From -- ./inp_files/12059.got.cif
#   From: 2010.03.12/outbox.cif.g09.slc.cpg/sg39_7_cif.got.tgz:12059.got - 2010.04.14 02:53:20.
