data_PCOD8180393
_publ_section_title
;
Structure prediction by ZEFSAII (Michael W. Deem and Ramdas Pophale) SiO2 
 PCOD8180393
Probable space group: A M M 2
;
_chemical_formula_sum "Si O2"
_cell_formula_units_Z 48
_cell_length_a 13.383381
_cell_length_b 27.192118
_cell_length_c 5.559452
_cell_angle_alpha 90.000000
_cell_angle_beta 90.000000
_cell_angle_gamma 90.000000
_cell_volume 2023.209534
_symmetry_space_group_name_H-M "A M M 2"
_symmetry_group_IT_number 38
_symmetry_cell_setting 'orthorhombic'
loop_
_space_group_symop_operation_xyz
x,y,z
-x,-y,z
-x,y,z
x,-y,z
x,1/2+y,1/2+z
-x,1/2-y,1/2+z
-x,1/2+y,1/2+z
x,1/2-y,1/2+z
loop_
_atom_site_type_symbol
_atom_site_label
_atom_site_fract_x
_atom_site_fract_y
_atom_site_fract_z
Si Si1 0.389172 0.135277 0.497220
Si Si2 0.292988 0.945161 0.768230
Si Si3 0.887225 0.054202 0.435823
Si Si4 0.614089 0.269272 0.252460
Si Si5 0.227817 0.129437 0.132831
Si Si6 0.881938 0.222745 0.985114
O O1 0.500000 0.138036 0.383865
O O2 0.366505 0.079071 0.571096
O O3 0.381450 0.171594 0.728375
O O4 0.306636 0.155304 0.311517
O O5 0.179794 0.944985 0.673903
O O6 0.331252 0.000000 0.827799
O O7 0.295582 0.910741 0.998761
O O8 0.859731 0.099187 0.263980
O O9 0.000000 0.062072 0.523341
O O10 0.874129 0.000000 0.309987
O O11 0.500000 0.249327 0.264927
O O12 0.665641 0.254399 0.508212
O O13 0.175115 0.170547 0.969044
O O14 0.851105 0.249522 0.237155
O O15 0.000000 0.213282 0.986411
#
# Coordination Sequence:
#
# PCOD8180393 Si02
#       6
#     8   8   8   8   8   8
#     4  10  24  42  62  90 126 172 225 281 345 412
#     4  10  23  42  62  92 128 167 218 281 346 410
#     4   9  19  37  62  93 126 158 202 264 334 406
#     4   9  19  36  60  89 122 158 204 266 328 389
#     4  11  23  39  65  93 127 176 221 283 332 408
#     4  10  24  44  68 102 145 187 230 276 337 422
#
# _framework density 23.724679999999999
#
# number of rings (size 3 to 8) (size 9 to 14) (size 15 to 20)
#    0.000    2.167    0.000    1.000    7.000    4.333 
#    0.000    1.667    0.000    0.000    0.000    0.000 
#    0.000    0.000    0.000    0.000    0.000    0.000 
#
# Total GULP energy -297502.815499 kJ/mol
# GULP energy per Si atom -12395.950646 kJ/mol
# Density = 2.367068 g / cm^3
# Si number density = 23.724680 Si / 1000 Ang^3
#
#
#
# Elastic Constant Matrix: (Units=GPa)
#
#
# Indices 1 2 3 4 5 6 
#
# 1 82.2060 40.2472 30.9829 0.0000 0.0000 0.0000
# 2 40.2472 133.2805 42.6652 0.0000 0.0000 0.0000
# 3 30.9829 42.6652 115.8513 0.0000 0.0000 0.0000
# 4 0.0000 0.0000 0.0000 40.1892 0.0000 0.0000
# 5 0.0000 0.0000 0.0000 0.0000 14.1791 0.0000
# 6 0.0000 0.0000 0.0000 0.0000 0.0000 23.5686
#
#
#
# Elastic Compliance Matrix: (Units=1/GPa)
#
#
# Indices 1 2 3 4 5 6 
#
# 1 0.014960 -0.003669 -0.002649 0.000000 0.000000 0.000000
# 2 -0.003669 0.009406 -0.002483 0.000000 0.000000 0.000000
# 3 -0.002649 -0.002483 0.010255 0.000000 0.000000 0.000000
# 4 0.000000 0.000000 0.000000 0.024882 0.000000 0.000000
# 5 0.000000 0.000000 0.000000 0.000000 0.070526 0.000000
# 6 0.000000 0.000000 0.000000 0.000000 0.000000 0.042429
#
#
# Mechanical properties :
#
#
# Convention : Reuss Voigt Hill
#
# Bulk Modulus (GPa) = 58.76385 62.12537 60.44461
# Shear Modulus (GPa) = 25.54504 30.08355 27.81430
#
# Velocity S-wave (km/s) = 3.28491 3.56480 3.42772
# Velocity P-wave (km/s) = 6.26182 6.57165 6.41860
#
# Compressibility (1/GPa) = 0.01701726
#
# Stress axis : x y z
#
# Youngs Moduli (GPa) = 66.84690 106.31829 97.51736
#
# Poissons Ratio (x) = 0.39011 0.25837
# Poissons Ratio (y) = 0.24528 0.24210
# Poissons Ratio (z) = 0.17711 0.26395
#
# Static dielectric constant tensor:
#      x y z
#    x 4.179750 0.000000 0.000000 
#    y 0.000000 4.415710 0.000000 
#    z 0.000000 0.000000 4.194120 
# 
# 
# High freq. dielectric constant tensor:
#      x y z
#    x 1.941150 0.000000 0.000000 
#    y 0.000000 1.950440 0.000000 
#    z 0.000000 0.000000 1.926580 
# 
# From -- ./inp_files/1316.got.cif
#   From: 2010.03.12/outbox.cif.g09.slc.cpg/sg38_1_cif.got.tgz:1316.got - 2010.04.14 02:38:36.
