data_PCOD8180160
_publ_section_title
;
Structure prediction by ZEFSAII (Michael W. Deem and Ramdas Pophale) SiO2 
 PCOD8180160
Probable space group: A M M 2
;
_chemical_formula_sum "Si O2"
_cell_formula_units_Z 56
_cell_length_a 21.242486
_cell_length_b 8.519815
_cell_length_c 15.342321
_cell_angle_alpha 90.000000
_cell_angle_beta 90.000000
_cell_angle_gamma 90.000000
_cell_volume 2776.684720
_symmetry_space_group_name_H-M "A M M 2"
_symmetry_group_IT_number 38
_symmetry_cell_setting 'orthorhombic'
loop_
_space_group_symop_operation_xyz
x,y,z
-x,-y,z
-x,y,z
x,-y,z
x,1/2+y,1/2+z
-x,1/2-y,1/2+z
-x,1/2+y,1/2+z
x,1/2-y,1/2+z
loop_
_atom_site_type_symbol
_atom_site_label
_atom_site_fract_x
_atom_site_fract_y
_atom_site_fract_z
Si Si1 0.793367 0.182081 0.941860
Si Si2 0.571517 0.316540 0.107032
Si Si3 0.000000 0.681751 0.861329
Si Si4 0.867065 0.181538 0.282069
Si Si5 0.131481 0.317266 0.100427
Si Si6 0.570170 0.684605 0.788431
Si Si7 0.656010 0.813976 0.444627
Si Si8 0.000000 0.316322 0.548834
O O1 0.823202 0.280945 0.863753
O O2 0.720420 0.220857 0.949203
O O3 0.803718 0.000000 0.921954
O O4 0.825912 0.223065 0.032866
O O5 0.500000 0.266642 0.084378
O O6 0.575961 0.500000 0.124547
O O7 0.596155 0.229675 0.193447
O O8 0.615751 0.264739 0.028418
O O9 0.060811 0.722483 0.804334
O O10 0.000000 0.500000 0.891700
O O11 0.000000 0.791793 0.945474
O O12 0.845312 0.281937 0.198537
O O13 0.859517 0.000000 0.258224
O O14 0.138240 0.500000 0.079400
O O15 0.059847 0.263325 0.092630
O O16 0.500000 0.756999 0.801930
O O17 0.565956 0.500000 0.798397
O O18 0.617990 0.748984 0.860755
O O19 0.668515 0.000000 0.441115
O O20 0.000000 0.500000 0.570551
#
# Coordination Sequence:
#
# PCOD8180160 Si02
#       8
#     8   8   4   8   8   8   8   4
#     4  12  26  43  61  87 122 162 208 254 303 360
#     4   9  18  34  58  87 117 150 192 243 297 352
#     4  10  21  38  65  94 124 158 195 246 305 362
#     4  11  23  42  67  94 124 157 200 251 308 364
#     4  12  25  43  66  92 124 161 204 251 305 362
#     4   9  18  34  58  87 117 150 191 240 295 355
#     4  10  21  38  59  82 115 159 201 241 295 358
#     4  12  23  38  65  96 128 160 199 248 303 360
#
# _framework density 20.167936999999998
#
# number of rings (size 3 to 8) (size 9 to 14) (size 15 to 20)
#    0.000    1.429    1.429    4.500    0.000    5.143 
#    0.000    2.857    0.000    4.286    0.000    0.000 
#    0.000    0.000    0.000    0.000    0.000    0.000 
#
# Total GULP energy -347348.353556 kJ/mol
# GULP energy per Si atom -12405.298341 kJ/mol
# Density = 2.012203 g / cm^3
# Si number density = 20.167937 Si / 1000 Ang^3
#
#
#
# Elastic Constant Matrix: (Units=GPa)
#
#
# Indices 1 2 3 4 5 6 
#
# 1 119.8330 17.7093 56.7035 0.0000 0.0000 0.0000
# 2 17.7093 50.2332 10.7034 0.0000 0.0000 0.0000
# 3 56.7035 10.7034 123.9545 0.0000 0.0000 0.0000
# 4 0.0000 0.0000 0.0000 36.1641 0.0000 0.0000
# 5 0.0000 0.0000 0.0000 0.0000 10.0395 0.0000
# 6 0.0000 0.0000 0.0000 0.0000 0.0000 25.6494
#
#
#
# Elastic Compliance Matrix: (Units=1/GPa)
#
#
# Indices 1 2 3 4 5 6 
#
# 1 0.011042 -0.002869 -0.004803 0.000000 0.000000 0.000000
# 2 -0.002869 0.021026 -0.000503 0.000000 0.000000 0.000000
# 3 -0.004803 -0.000503 0.010308 0.000000 0.000000 0.000000
# 4 0.000000 0.000000 0.000000 0.027652 0.000000 0.000000
# 5 0.000000 0.000000 0.000000 0.000000 0.099607 0.000000
# 6 0.000000 0.000000 0.000000 0.000000 0.000000 0.038987
#
#
# Mechanical properties :
#
#
# Convention : Reuss Voigt Hill
#
# Bulk Modulus (GPa) = 38.42509 51.58370 45.00440
# Shear Modulus (GPa) = 21.39969 28.29755 24.84862
#
# Velocity S-wave (km/s) = 3.26095 3.74986 3.51392
# Velocity P-wave (km/s) = 5.76822 6.66192 6.23111
#
# Compressibility (1/GPa) = 0.02602466
#
# Stress axis : x y z
#
# Youngs Moduli (GPa) = 90.56429 47.56042 97.00973
#
# Poissons Ratio (x) = 0.13646 0.46598
# Poissons Ratio (y) = 0.25985 0.04880
# Poissons Ratio (z) = 0.43502 0.02392
#
# Static dielectric constant tensor:
#      x y z
#    x 3.668570 0.000000 0.000000 
#    y 0.000000 3.591010 0.000000 
#    z 0.000000 0.000000 3.783090 
# 
# 
# High freq. dielectric constant tensor:
#      x y z
#    x 1.785980 0.000000 0.000000 
#    y 0.000000 1.782060 0.000000 
#    z 0.000000 0.000000 1.801520 
# 
# From -- ./inp_files/15531.got.cif
#   From: 2010.03.12/outbox.cif.g09.slc.cpg/sg38_8_cif.got.tgz:15531.got - 2010.04.14 02:38:36.
