data_PCOD8180132
_publ_section_title
;
Structure prediction by ZEFSAII (Michael W. Deem and Ramdas Pophale) SiO2 
 PCOD8180132
Probable space group: A M M 2
;
_chemical_formula_sum "Si O2"
_cell_formula_units_Z 32
_cell_length_a 12.996777
_cell_length_b 10.195305
_cell_length_c 10.262377
_cell_angle_alpha 90.000000
_cell_angle_beta 90.000000
_cell_angle_gamma 90.000000
_cell_volume 1359.827610
_symmetry_space_group_name_H-M "A M M 2"
_symmetry_group_IT_number 38
_symmetry_cell_setting 'orthorhombic'
loop_
_space_group_symop_operation_xyz
x,y,z
-x,-y,z
-x,y,z
x,-y,z
x,1/2+y,1/2+z
-x,1/2-y,1/2+z
-x,1/2+y,1/2+z
x,1/2-y,1/2+z
loop_
_atom_site_type_symbol
_atom_site_label
_atom_site_fract_x
_atom_site_fract_y
_atom_site_fract_z
Si Si1 0.620847 0.648251 0.713320
Si Si2 0.698926 0.847532 0.495317
Si Si3 0.120874 0.282733 0.152446
Si Si4 0.121589 0.500000 0.345030
Si Si5 0.877630 0.000000 0.130907
O O1 0.500000 0.640910 0.734892
O O2 0.662500 0.500000 0.677682
O O3 0.644044 0.753646 0.601126
O O4 0.669900 0.696516 0.850035
O O5 0.821993 0.828193 0.520140
O O6 0.667323 0.000000 0.517830
O O7 0.159160 0.371479 0.270253
O O8 0.157302 0.135796 0.198251
O O9 0.000000 0.291513 0.121157
O O10 0.171308 0.500000 0.486431
O O11 0.000000 0.500000 0.352346
O O12 0.000000 0.000000 0.120820
#
# Coordination Sequence:
#
# PCOD8180132 Si02
#       5
#     8   8   8   4   4
#     4  10  24  46  68  94 128 162 209 273 328 378
#     4  11  24  41  67  99 130 168 213 260 316 382
#     4  10  21  37  59  91 129 169 210 252 304 370
#     4   9  18  36  57  79 118 165 206 251 301 353
#     4   9  20  36  55  79 118 167 212 259 299 345
#
# _framework density 23.532392999999999
#
# number of rings (size 3 to 8) (size 9 to 14) (size 15 to 20)
#    0.000    2.000    1.250    0.750    5.250    2.500 
#    0.000    1.250    0.000    9.000    0.000    0.000 
#    0.000    0.000    0.000    0.000    0.000    0.000 
#
# Total GULP energy -198305.823608 kJ/mol
# GULP energy per Si atom -12394.113976 kJ/mol
# Density = 2.347883 g / cm^3
# Si number density = 23.532393 Si / 1000 Ang^3
#
#
#
# Elastic Constant Matrix: (Units=GPa)
#
#
# Indices 1 2 3 4 5 6 
#
# 1 57.8397 29.2809 28.9724 0.0000 0.0000 0.0000
# 2 29.2809 199.1763 81.7892 0.0000 0.0000 0.0000
# 3 28.9724 81.7892 126.2578 0.0000 0.0000 0.0000
# 4 0.0000 0.0000 0.0000 39.3432 0.0000 0.0000
# 5 0.0000 0.0000 0.0000 0.0000 21.0623 0.0000
# 6 0.0000 0.0000 0.0000 0.0000 0.0000 30.8111
#
#
#
# Elastic Compliance Matrix: (Units=1/GPa)
#
#
# Indices 1 2 3 4 5 6 
#
# 1 0.019827 -0.001426 -0.003626 0.000000 0.000000 0.000000
# 2 -0.001426 0.006943 -0.004170 0.000000 0.000000 0.000000
# 3 -0.003626 -0.004170 0.011454 0.000000 0.000000 0.000000
# 4 0.000000 0.000000 0.000000 0.025417 0.000000 0.000000
# 5 0.000000 0.000000 0.000000 0.000000 0.047478 0.000000
# 6 0.000000 0.000000 0.000000 0.000000 0.000000 0.032456
#
#
# Mechanical properties :
#
#
# Convention : Reuss Voigt Hill
#
# Bulk Modulus (GPa) = 50.55746 73.70653 62.13199
# Shear Modulus (GPa) = 29.65367 34.45873 32.05620
#
# Velocity S-wave (km/s) = 3.55367 3.83078 3.69482
# Velocity P-wave (km/s) = 6.19427 7.13833 6.68299
#
# Compressibility (1/GPa) = 0.01977948
#
# Stress axis : x y z
#
# Youngs Moduli (GPa) = 50.43546 144.03472 87.30637
#
# Poissons Ratio (x) = 0.20536 0.31659
# Poissons Ratio (y) = 0.07191 0.36410
# Poissons Ratio (z) = 0.18289 0.60067
#
# Static dielectric constant tensor:
#      x y z
#    x 4.401530 0.000000 0.000000 
#    y 0.000000 4.772190 0.000000 
#    z 0.000000 0.000000 4.082970 
# 
# 
# High freq. dielectric constant tensor:
#      x y z
#    x 1.935630 0.000000 0.000000 
#    y 0.000000 1.954650 0.000000 
#    z 0.000000 0.000000 1.917670 
# 
# From -- ./inp_files/5089.got.cif
#   From: 2010.03.12/outbox.cif.g09.slc.cpg/sg38_3_cif.got.tgz:5089.got - 2010.04.14 02:38:36.
