data_PCOD8180640
_publ_section_title
;
Structure prediction by ZEFSAII (Michael W. Deem and Ramdas Pophale) SiO2 
 PCOD8180640
Probable space group: A B M 2
;
_chemical_formula_sum "Si O2"
_cell_formula_units_Z 64
_cell_length_a 17.747495
_cell_length_b 9.029239
_cell_length_c 23.190226
_cell_angle_alpha 90.000000
_cell_angle_beta 90.000000
_cell_angle_gamma 90.000000
_cell_volume 3716.149629
_symmetry_space_group_name_H-M "A B M 2"
_symmetry_group_IT_number 39
_symmetry_cell_setting 'orthorhombic'
loop_
_space_group_symop_operation_xyz
x,y,z
-x,-y,z
-x,1/2+y,z
x,1/2-y,z
x,1/2+y,1/2+z
-x,1/2-y,1/2+z
-x,y,1/2+z
x,-y,1/2+z
loop_
_atom_site_type_symbol
_atom_site_label
_atom_site_fract_x
_atom_site_fract_y
_atom_site_fract_z
Si Si1 0.154954 0.920482 0.078140
Si Si2 0.074011 0.417921 0.467794
Si Si3 0.728390 0.576361 0.293632
Si Si4 0.795844 0.087057 0.194504
Si Si5 0.361887 0.081791 0.629059
Si Si6 0.574546 0.074005 0.734757
Si Si7 0.235002 0.426247 0.420990
Si Si8 0.705159 0.924972 0.027524
O O1 0.186059 0.750000 0.071013
O O2 0.138914 0.951184 0.146649
O O3 0.214458 0.039904 0.055667
O O4 0.081588 0.937595 0.037544
O O5 0.061412 0.250000 0.450039
O O6 0.149752 0.476290 0.436439
O O7 0.000000 0.500000 0.445146
O O8 0.733874 0.750000 0.293378
O O9 0.792447 0.522167 0.248708
O O10 0.645491 0.523471 0.273887
O O11 0.746121 0.515224 0.357036
O O12 0.808314 0.250000 0.220576
O O13 0.720439 0.079189 0.156813
O O14 0.391656 0.250000 0.622493
O O15 0.417383 0.989336 0.670157
O O16 0.359689 0.001904 0.566564
O O17 0.566613 0.250000 0.732764
O O18 0.500000 0.000000 0.762540
O O19 0.244308 0.250000 0.427401
O O20 0.294919 0.505581 0.463268
O O21 0.691099 0.750000 0.024946
#
# Coordination Sequence:
#
# PCOD8180640 Si02
#       8
#     8   8   8   8   8   8   8   8
#     4   8  15  28  43  61  88 121 146 173 224 284
#     4   9  17  29  46  66  90 118 152 194 242 291
#     4   9  18  31  48  68  91 122 163 200 231 274
#     4   8  14  25  43  65  88 112 142 180 225 269
#     4   9  16  28  45  65  91 122 148 178 226 279
#     4  10  19  31  48  72  97 122 154 195 240 288
#     4   9  18  33  48  64  91 128 163 197 237 283
#     4  10  17  25  42  69  93 113 145 191 230 268
#
# _framework density 17.222127
#
# number of rings (size 3 to 8) (size 9 to 14) (size 15 to 20)
#    0.000    3.000    0.000    3.375    0.000    6.000 
#    0.000    0.000    0.000    1.500    0.000    8.750 
#    0.000    0.000    0.000    0.000    0.000    0.000 
#
# Total GULP energy -396489.087244 kJ/mol
# GULP energy per Si atom -12390.283976 kJ/mol
# Density = 1.718293 g / cm^3
# Si number density = 17.222127 Si / 1000 Ang^3
#
#
#
# Elastic Constant Matrix: (Units=GPa)
#
#
# Indices 1 2 3 4 5 6 
#
# 1 54.4846 24.1535 37.4988 0.0000 0.0000 0.0000
# 2 24.1535 63.4739 40.7043 0.0000 0.0000 0.0000
# 3 37.4988 40.7043 140.2338 0.0000 0.0000 0.0000
# 4 0.0000 0.0000 0.0000 25.3827 0.0000 0.0000
# 5 0.0000 0.0000 0.0000 0.0000 15.4097 0.0000
# 6 0.0000 0.0000 0.0000 0.0000 0.0000 21.0953
#
#
#
# Elastic Compliance Matrix: (Units=1/GPa)
#
#
# Indices 1 2 3 4 5 6 
#
# 1 0.024361 -0.006257 -0.004698 0.000000 0.000000 0.000000
# 2 -0.006257 0.020965 -0.004412 0.000000 0.000000 0.000000
# 3 -0.004698 -0.004412 0.009668 0.000000 0.000000 0.000000
# 4 0.000000 0.000000 0.000000 0.039397 0.000000 0.000000
# 5 0.000000 0.000000 0.000000 0.000000 0.064894 0.000000
# 6 0.000000 0.000000 0.000000 0.000000 0.000000 0.047404
#
#
# Mechanical properties :
#
#
# Convention : Reuss Voigt Hill
#
# Bulk Modulus (GPa) = 41.22159 51.43397 46.32778
# Shear Modulus (GPa) = 20.36577 22.76659 21.56618
#
# Velocity S-wave (km/s) = 3.44253 3.63979 3.54253
# Velocity P-wave (km/s) = 6.30782 6.89884 6.60994
#
# Compressibility (1/GPa) = 0.02425913
#
# Stress axis : x y z
#
# Youngs Moduli (GPa) = 41.04904 47.69859 103.43573
#
# Poissons Ratio (x) = 0.29847 0.48594
# Poissons Ratio (y) = 0.25686 0.45637
# Poissons Ratio (z) = 0.19285 0.21045
#
# Static dielectric constant tensor:
#      x y z
#    x 2.955700 0.000000 0.000000 
#    y 0.000000 3.146030 0.000000 
#    z 0.000000 0.000000 3.489520 
# 
# 
# High freq. dielectric constant tensor:
#      x y z
#    x 1.617810 0.000000 0.000000 
#    y 0.000000 1.664240 0.000000 
#    z 0.000000 0.000000 1.660010 
# 
# From -- ./inp_files/16319.got.cif
#   From: 2010.03.12/outbox.cif.g09.slc.cpg/sg39_9_cif.got.tgz:16319.got - 2010.04.14 02:53:20.
