data_PCOD8180534
_publ_section_title
;
Structure prediction by ZEFSAII (Michael W. Deem and Ramdas Pophale) SiO2 
 PCOD8180534
Probable space group: A M M 2
;
_chemical_formula_sum "Si O2"
_cell_formula_units_Z 64
_cell_length_a 9.447750
_cell_length_b 9.682359
_cell_length_c 41.044884
_cell_angle_alpha 90.000000
_cell_angle_beta 90.000000
_cell_angle_gamma 90.000000
_cell_volume 3754.642628
_symmetry_space_group_name_H-M "A M M 2"
_symmetry_group_IT_number 38
_symmetry_cell_setting 'orthorhombic'
loop_
_space_group_symop_operation_xyz
x,y,z
-x,-y,z
-x,y,z
x,-y,z
x,1/2+y,1/2+z
-x,1/2-y,1/2+z
-x,1/2+y,1/2+z
x,1/2-y,1/2+z
loop_
_atom_site_type_symbol
_atom_site_label
_atom_site_fract_x
_atom_site_fract_y
_atom_site_fract_z
Si Si1 0.841879 0.664477 0.071160
Si Si2 0.834941 0.840459 0.940973
Si Si3 0.164175 0.341142 0.754051
Si Si4 0.168439 0.346325 0.999542
Si Si5 0.835839 0.839793 0.692856
Si Si6 0.335737 0.659560 0.377846
Si Si7 0.659424 0.335643 0.130717
Si Si8 0.335638 0.159118 0.317120
O O1 0.848678 0.500000 0.072982
O O2 0.736939 0.724563 0.098624
O O3 0.000000 0.723981 0.077216
O O4 0.783655 0.707497 0.035337
O O5 0.774356 0.755835 0.971738
O O6 0.752252 0.790551 0.909046
O O7 0.000000 0.811261 0.935131
O O8 0.804880 0.000000 0.948373
O O9 0.197603 0.500000 0.745457
O O10 0.213291 0.247814 0.723928
O O11 0.250615 0.291791 0.785477
O O12 0.000000 0.318455 0.761894
O O13 0.228719 0.500000 0.992742
O O14 0.000000 0.350689 0.999353
O O15 0.744298 0.786000 0.662488
O O16 0.000000 0.814289 0.684445
O O17 0.806513 0.000000 0.700459
O O18 0.500000 0.685905 0.385357
O O19 0.305125 0.500000 0.369752
O O20 0.283491 0.749403 0.347355
O O21 0.500000 0.276900 0.132023
O O22 0.658514 0.500000 0.129257
O O23 0.500000 0.184176 0.309857
O O24 0.303347 0.000000 0.325466
#
# Coordination Sequence:
#
# PCOD8180534 Si02
#       8
#     8   8   8   8   8   8   8   8
#     4   8  13  23  40  59  80 110 145 177 212 256
#     4   9  17  29  45  65  88 113 142 177 215 253
#     4   9  18  32  48  66  89 115 142 174 213 255
#     4   8  14  25  42  64  87 111 142 178 214 254
#     4   9  17  29  45  65  88 114 144 176 211 253
#     4   9  18  32  47  63  86 116 146 174 209 255
#     4   9  16  25  39  62  90 115 141 178 219 253
#     4   9  18  32  48  65  86 113 144 176 211 253
#
# _framework density 17.045563000000001
#
# number of rings (size 3 to 8) (size 9 to 14) (size 15 to 20)
#    0.000    3.250    0.000    1.125    0.000    3.500 
#    0.000    0.625    0.000    1.500    0.000    3.500 
#    0.000    0.000    0.000    0.000    0.000    0.000 
#
# Total GULP energy -396745.249679 kJ/mol
# GULP energy per Si atom -12398.289052 kJ/mol
# Density = 1.700677 g / cm^3
# Si number density = 17.045563 Si / 1000 Ang^3
#
#
#
# Elastic Constant Matrix: (Units=GPa)
#
#
# Indices 1 2 3 4 5 6 
#
# 1 68.6577 31.0694 76.6296 0.0000 0.0000 0.0000
# 2 31.0694 50.3529 69.5228 0.0000 0.0000 0.0000
# 3 76.6296 69.5228 193.3391 0.0000 0.0000 0.0000
# 4 0.0000 0.0000 0.0000 26.6846 0.0000 0.0000
# 5 0.0000 0.0000 0.0000 0.0000 13.9896 0.0000
# 6 0.0000 0.0000 0.0000 0.0000 0.0000 14.2151
#
#
#
# Elastic Compliance Matrix: (Units=1/GPa)
#
#
# Indices 1 2 3 4 5 6 
#
# 1 0.026456 -0.003667 -0.009167 0.000000 0.000000 0.000000
# 2 -0.003667 0.039951 -0.012913 0.000000 0.000000 0.000000
# 3 -0.009167 -0.012913 0.013449 0.000000 0.000000 0.000000
# 4 0.000000 0.000000 0.000000 0.037475 0.000000 0.000000
# 5 0.000000 0.000000 0.000000 0.000000 0.071482 0.000000
# 6 0.000000 0.000000 0.000000 0.000000 0.000000 0.070348
#
#
# Mechanical properties :
#
#
# Convention : Reuss Voigt Hill
#
# Bulk Modulus (GPa) = 35.25793 74.08813 54.67303
# Shear Modulus (GPa) = 15.61975 19.98640 17.80307
#
# Velocity S-wave (km/s) = 3.03042 3.42793 3.23529
# Velocity P-wave (km/s) = 5.74230 7.69589 6.78973
#
# Compressibility (1/GPa) = 0.02836242
#
# Stress axis : x y z
#
# Youngs Moduli (GPa) = 37.79868 25.03064 74.35556
#
# Poissons Ratio (x) = 0.09179 0.68163
# Poissons Ratio (y) = 0.13861 0.96012
# Poissons Ratio (z) = 0.34651 0.32321
#
# Static dielectric constant tensor:
#      x y z
#    x 3.125610 0.000000 0.000000 
#    y 0.000000 2.982390 0.000000 
#    z 0.000000 0.000000 3.419400 
# 
# 
# High freq. dielectric constant tensor:
#      x y z
#    x 1.642210 0.000000 0.000000 
#    y 0.000000 1.625420 0.000000 
#    z 0.000000 0.000000 1.668180 
# 
# From -- ./inp_files/24613.got.cif
#   From: 2010.03.12/outbox.cif.g09.slc.cpg/sg38_13_cif.got.tgz:24613.got - 2010.04.14 02:38:36.
