data_PCOD8180555
_publ_section_title
;
Structure prediction by ZEFSAII (Michael W. Deem and Ramdas Pophale) SiO2 
 PCOD8180555
Probable space group: A M M 2
;
_chemical_formula_sum "Si O2"
_cell_formula_units_Z 56
_cell_length_a 13.991895
_cell_length_b 9.192948
_cell_length_c 31.015322
_cell_angle_alpha 90.000000
_cell_angle_beta 90.000000
_cell_angle_gamma 90.000000
_cell_volume 3989.400477
_symmetry_space_group_name_H-M "A M M 2"
_symmetry_group_IT_number 38
_symmetry_cell_setting 'orthorhombic'
loop_
_space_group_symop_operation_xyz
x,y,z
-x,-y,z
-x,y,z
x,-y,z
x,1/2+y,1/2+z
-x,1/2-y,1/2+z
-x,1/2+y,1/2+z
x,1/2-y,1/2+z
loop_
_atom_site_type_symbol
_atom_site_label
_atom_site_fract_x
_atom_site_fract_y
_atom_site_fract_z
Si Si1 0.242891 0.164110 0.310360
Si Si2 0.886223 0.664444 0.566134
Si Si3 0.890324 0.671094 0.981366
Si Si4 0.109676 0.328906 0.733565
Si Si5 0.113777 0.164444 0.648797
Si Si6 0.390310 0.671408 0.357465
Si Si7 0.242891 0.835890 0.404571
O O1 0.171108 0.225554 0.274392
O O2 0.338779 0.262909 0.314482
O O3 0.190525 0.166306 0.357465
O O4 0.273930 0.000000 0.298364
O O5 0.846613 0.500000 0.566556
O O6 0.850594 0.745228 0.523112
O O7 0.844775 0.750000 0.607465
O O8 0.000000 0.665230 0.567792
O O9 0.879692 0.500000 0.989736
O O10 0.828892 0.725554 0.940538
O O11 0.000000 0.712468 0.971948
O O12 0.120308 0.500000 0.725195
O O13 0.149406 0.245228 0.691819
O O14 0.000000 0.287532 0.742983
O O15 0.000000 0.165230 0.647139
O O16 0.153387 0.000000 0.648375
O O17 0.500000 0.720011 0.357465
O O18 0.378438 0.500000 0.357465
O O19 0.338779 0.737091 0.400449
O O20 0.273930 0.000000 0.416567
#
# Coordination Sequence:
#
# PCOD8180555 Si02
#       7
#     8   8   8   8   8   8   8
#     4   8  16  28  41  59  80 105 134 163 195 234
#     4   9  16  25  37  53  74 102 137 172 203 232
#     4   9  16  26  40  57  80 109 138 166 195 230
#     4   9  16  26  40  57  80 109 138 166 195 230
#     4   9  16  25  37  53  74 102 137 172 203 232
#     4   9  17  29  44  59  76 100 129 165 206 239
#     4   8  16  28  41  59  80 105 134 163 195 234
#
# _framework density 14.037197000000001
#
# number of rings (size 3 to 8) (size 9 to 14) (size 15 to 20)
#    0.857    2.429    0.000    0.857    0.000    6.286 
#    0.000    2.857    0.000    0.857    0.000    0.000 
#    0.000    1.143    0.000    3.714    0.000    5.429 
#
# Total GULP energy -346925.668634 kJ/mol
# GULP energy per Si atom -12390.202451 kJ/mol
# Density = 1.400525 g / cm^3
# Si number density = 14.037197 Si / 1000 Ang^3
#
#
#
# Elastic Constant Matrix: (Units=GPa)
#
#
# Indices 1 2 3 4 5 6 
#
# 1 63.3611 37.3057 51.7660 0.0000 0.0000 0.0000
# 2 37.3057 68.9863 51.0868 0.0000 0.0000 0.0000
# 3 51.7660 51.0868 116.0982 0.0000 0.0000 0.0000
# 4 0.0000 0.0000 0.0000 24.2956 0.0000 0.0000
# 5 0.0000 0.0000 0.0000 0.0000 2.2902 0.0000
# 6 0.0000 0.0000 0.0000 0.0000 0.0000 16.2837
#
#
#
# Elastic Compliance Matrix: (Units=1/GPa)
#
#
# Indices 1 2 3 4 5 6 
#
# 1 0.027978 -0.008739 -0.008629 0.000000 0.000000 0.000000
# 2 -0.008739 0.024232 -0.006766 0.000000 0.000000 0.000000
# 3 -0.008629 -0.006766 0.015438 0.000000 0.000000 0.000000
# 4 0.000000 0.000000 0.000000 0.041160 0.000000 0.000000
# 5 0.000000 0.000000 0.000000 0.000000 0.436646 0.000000
# 6 0.000000 0.000000 0.000000 0.000000 0.000000 0.061411
#
#
# Mechanical properties :
#
#
# Convention : Reuss Voigt Hill
#
# Bulk Modulus (GPa) = 51.60233 58.75138 55.17686
# Shear Modulus (GPa) = 7.55748 15.79304 11.67526
#
# Velocity S-wave (km/s) = 2.32284 3.35787 2.88711
# Velocity P-wave (km/s) = 6.63589 7.54842 7.10682
#
# Compressibility (1/GPa) = 0.01937897
#
# Stress axis : x y z
#
# Youngs Moduli (GPa) = 35.74186 41.26727 64.77353
#
# Poissons Ratio (x) = 0.36065 0.55896
# Poissons Ratio (y) = 0.31237 0.43827
# Poissons Ratio (z) = 0.30843 0.27922
#
# Static dielectric constant tensor:
#      x y z
#    x 2.383350 0.000000 0.000000 
#    y 0.000000 2.800800 0.000000 
#    z 0.000000 0.000000 2.805450 
# 
# 
# High freq. dielectric constant tensor:
#      x y z
#    x 1.479420 0.000000 0.000000 
#    y 0.000000 1.543510 0.000000 
#    z 0.000000 0.000000 1.533390 
# 
# From -- ./inp_files/24999.got.cif
#   From: 2010.03.12/outbox.cif.g09.slc.cpg/sg38_13_cif.got.tgz:24999.got - 2010.04.14 02:38:36.
