data_PCOD8180022
_publ_section_title
;
Structure prediction by ZEFSAII (Michael W. Deem and Ramdas Pophale) SiO2 
 PCOD8180022
Probable space group: A M M 2
;
_chemical_formula_sum "Si O2"
_cell_formula_units_Z 64
_cell_length_a 17.163758
_cell_length_b 21.663928
_cell_length_c 8.461209
_cell_angle_alpha 90.000000
_cell_angle_beta 90.000000
_cell_angle_gamma 90.000000
_cell_volume 3146.168720
_symmetry_space_group_name_H-M "A M M 2"
_symmetry_group_IT_number 38
_symmetry_cell_setting 'orthorhombic'
loop_
_space_group_symop_operation_xyz
x,y,z
-x,-y,z
-x,y,z
x,-y,z
x,1/2+y,1/2+z
-x,1/2-y,1/2+z
-x,1/2+y,1/2+z
x,1/2-y,1/2+z
loop_
_atom_site_type_symbol
_atom_site_label
_atom_site_fract_x
_atom_site_fract_y
_atom_site_fract_z
Si Si1 0.358412 0.662956 0.047820
Si Si2 0.088389 0.315159 0.169723
Si Si3 0.774956 0.363418 0.824167
Si Si4 0.587996 0.928607 0.782374
Si Si5 0.912571 0.070028 0.466842
Si Si6 0.588285 0.770224 0.234070
Si Si7 0.682559 0.147891 0.027695
Si Si8 0.816919 0.262452 0.420678
O O1 0.405260 0.603193 0.109350
O O2 0.356509 0.710100 0.199827
O O3 0.274326 0.638342 0.989271
O O4 0.399422 0.699857 0.905585
O O5 0.094629 0.386746 0.120402
O O6 0.120591 0.310100 0.347508
O O7 0.142805 0.271690 0.065814
O O8 0.000000 0.291275 0.160176
O O9 0.726590 0.387194 0.672542
O O10 0.850098 0.407467 0.837296
O O11 0.797367 0.291801 0.793044
O O12 0.500000 0.919422 0.847550
O O13 0.607512 0.000000 0.759719
O O14 0.653732 0.901222 0.899392
O O15 0.000000 0.075639 0.394390
O O16 0.894529 0.000000 0.518174
O O17 0.500000 0.747413 0.218900
O O18 0.605410 0.820618 0.099319
O O19 0.738319 0.201202 0.959718
#
# Coordination Sequence:
#
# PCOD8180022 Si02
#       8
#     8   8   8   8   8   8   8   8
#     4  11  23  38  60  91 123 155 199 251 308 363
#     4  10  21  36  59  89 123 160 198 243 297 356
#     4  10  22  38  61  93 127 158 195 251 306 359
#     4  11  26  46  63  83 118 164 208 251 304 367
#     4   9  20  39  63  89 120 162 207 247 291 351
#     4  11  21  36  62  92 121 154 196 251 309 363
#     4  11  23  38  61  90 122 158 198 248 301 361
#     4  11  20  37  57  89 126 158 189 243 302 357
#
# _framework density 20.342200999999999
#
# number of rings (size 3 to 8) (size 9 to 14) (size 15 to 20)
#    0.000    1.500    2.500    2.625    5.250    1.500 
#    0.000    1.875    0.000    6.750    0.000    1.750 
#    0.000    0.000    0.000    0.000    0.000    0.000 
#
# Total GULP energy -396573.900104 kJ/mol
# GULP energy per Si atom -12392.934378 kJ/mol
# Density = 2.029590 g / cm^3
# Si number density = 20.342201 Si / 1000 Ang^3
#
#
#
# Elastic Constant Matrix: (Units=GPa)
#
#
# Indices 1 2 3 4 5 6 
#
# 1 120.4364 62.5466 47.0159 0.0000 0.0000 0.0000
# 2 62.5466 136.4932 63.0855 0.0000 0.0000 0.0000
# 3 47.0159 63.0855 81.4976 0.0000 0.0000 0.0000
# 4 0.0000 0.0000 0.0000 20.1646 0.0000 0.0000
# 5 0.0000 0.0000 0.0000 0.0000 24.6546 0.0000
# 6 0.0000 0.0000 0.0000 0.0000 0.0000 32.7465
#
#
#
# Elastic Compliance Matrix: (Units=1/GPa)
#
#
# Indices 1 2 3 4 5 6 
#
# 1 0.011694 -0.003489 -0.004046 0.000000 0.000000 0.000000
# 2 -0.003489 0.012449 -0.007623 0.000000 0.000000 0.000000
# 3 -0.004046 -0.007623 0.020505 0.000000 0.000000 0.000000
# 4 0.000000 0.000000 0.000000 0.049592 0.000000 0.000000
# 5 0.000000 0.000000 0.000000 0.000000 0.040560 0.000000
# 6 0.000000 0.000000 0.000000 0.000000 0.000000 0.030538
#
#
# Mechanical properties :
#
#
# Convention : Reuss Voigt Hill
#
# Bulk Modulus (GPa) = 69.77317 75.96924 72.87120
# Shear Modulus (GPa) = 24.94613 26.56511 25.75562
#
# Velocity S-wave (km/s) = 3.50569 3.61766 3.56212
# Velocity P-wave (km/s) = 7.12465 7.40788 7.26764
#
# Compressibility (1/GPa) = 0.01433216
#
# Stress axis : x y z
#
# Youngs Moduli (GPa) = 85.51052 80.33045 48.76758
#
# Poissons Ratio (x) = 0.28027 0.19730
# Poissons Ratio (y) = 0.29834 0.37177
# Poissons Ratio (z) = 0.34596 0.61239
#
# Static dielectric constant tensor:
#      x y z
#    x 3.888030 0.000000 0.000000 
#    y 0.000000 3.642650 0.000000 
#    z 0.000000 0.000000 3.692350 
# 
# 
# High freq. dielectric constant tensor:
#      x y z
#    x 1.808590 0.000000 0.000000 
#    y 0.000000 1.774310 0.000000 
#    z 0.000000 0.000000 1.786210 
# 
# From -- ./inp_files/6512.got.cif
#   From: 2010.03.12/outbox.cif.g09.slc.cpg/sg38_4_cif.got.tgz:6512.got - 2010.04.14 02:38:36.
