data_PCOD8180146
_publ_section_title
;
Structure prediction by ZEFSAII (Michael W. Deem and Ramdas Pophale) SiO2 
 PCOD8180146
Probable space group: A M M 2
;
_chemical_formula_sum "Si O2"
_cell_formula_units_Z 56
_cell_length_a 21.341755
_cell_length_b 8.850237
_cell_length_c 15.437641
_cell_angle_alpha 90.000000
_cell_angle_beta 90.000000
_cell_angle_gamma 90.000000
_cell_volume 2915.855299
_symmetry_space_group_name_H-M "A M M 2"
_symmetry_group_IT_number 38
_symmetry_cell_setting 'orthorhombic'
loop_
_space_group_symop_operation_xyz
x,y,z
-x,-y,z
-x,y,z
x,-y,z
x,1/2+y,1/2+z
-x,1/2-y,1/2+z
-x,1/2+y,1/2+z
x,1/2-y,1/2+z
loop_
_atom_site_type_symbol
_atom_site_label
_atom_site_fract_x
_atom_site_fract_y
_atom_site_fract_z
Si Si1 0.150266 0.679773 0.563660
Si Si2 0.500000 0.820948 0.162993
Si Si3 0.928534 0.678308 0.725087
Si Si4 0.707904 0.321921 0.572682
Si Si5 0.379101 0.326570 0.413890
Si Si6 0.373520 0.825793 0.718964
Si Si7 0.071446 0.321529 0.402697
Si Si8 0.500000 0.176718 0.476511
O O1 0.147606 0.500000 0.562582
O O2 0.114781 0.742070 0.648297
O O3 0.221410 0.738298 0.563569
O O4 0.114882 0.743273 0.479181
O O5 0.560823 0.758948 0.210780
O O6 0.500000 0.000000 0.168232
O O7 0.500000 0.772193 0.063807
O O8 0.922776 0.500000 0.733343
O O9 0.903818 0.750822 0.813653
O O10 0.000000 0.727170 0.705959
O O11 0.705675 0.500000 0.588601
O O12 0.672041 0.276739 0.484768
O O13 0.677978 0.243226 0.655785
O O14 0.399822 0.500000 0.429384
O O15 0.349855 0.307155 0.318000
O O16 0.439089 0.219004 0.421243
O O17 0.383779 0.000000 0.694274
O O18 0.076971 0.500000 0.395396
O O19 0.000000 0.271922 0.421505
O O20 0.500000 0.000000 0.497890
#
# Coordination Sequence:
#
# PCOD8180146 Si02
#       8
#     8   4   8   8   8   8   8   4
#     4   9  18  33  54  77 104 144 191 223 265 329
#     4  12  23  38  61  86 114 146 179 223 280 331
#     4   9  17  31  52  78 108 140 177 227 280 326
#     4  10  21  38  57  77 106 149 189 226 272 331
#     4  10  22  39  58  80 111 146 180 223 279 331
#     4  11  23  39  59  85 113 144 184 230 277 326
#     4   9  17  31  53  80 108 139 180 228 273 326
#     4  12  23  36  61  90 114 140 179 229 276 325
#
# _framework density 19.205342000000002
#
# number of rings (size 3 to 8) (size 9 to 14) (size 15 to 20)
#    0.000    2.000    1.429    2.571    0.000    5.714 
#    0.000    3.571    0.000    3.429    0.000    0.000 
#    0.000    0.000    0.000    0.000    0.000    0.000 
#
# Total GULP energy -347271.961128 kJ/mol
# GULP energy per Si atom -12402.570040 kJ/mol
# Density = 1.916163 g / cm^3
# Si number density = 19.205342 Si / 1000 Ang^3
#
#
#
# Elastic Constant Matrix: (Units=GPa)
#
#
# Indices 1 2 3 4 5 6 
#
# 1 145.8225 39.1314 91.8329 0.0000 0.0000 0.0000
# 2 39.1314 54.3089 38.0190 0.0000 0.0000 0.0000
# 3 91.8329 38.0190 171.7202 0.0000 0.0000 0.0000
# 4 0.0000 0.0000 0.0000 30.9728 0.0000 0.0000
# 5 0.0000 0.0000 0.0000 0.0000 14.8791 0.0000
# 6 0.0000 0.0000 0.0000 0.0000 0.0000 15.7388
#
#
#
# Elastic Compliance Matrix: (Units=1/GPa)
#
#
# Indices 1 2 3 4 5 6 
#
# 1 0.011235 -0.004602 -0.004989 0.000000 0.000000 0.000000
# 2 -0.004602 0.023676 -0.002781 0.000000 0.000000 0.000000
# 3 -0.004989 -0.002781 0.009107 0.000000 0.000000 0.000000
# 4 0.000000 0.000000 0.000000 0.032286 0.000000 0.000000
# 5 0.000000 0.000000 0.000000 0.000000 0.067208 0.000000
# 6 0.000000 0.000000 0.000000 0.000000 0.000000 0.063537
#
#
# Mechanical properties :
#
#
# Convention : Reuss Voigt Hill
#
# Bulk Modulus (GPa) = 51.88459 78.86870 65.37664
# Shear Modulus (GPa) = 20.98915 25.84269 23.41592
#
# Velocity S-wave (km/s) = 3.30946 3.67222 3.49555
# Velocity P-wave (km/s) = 6.45583 7.68996 7.09976
#
# Compressibility (1/GPa) = 0.01927355
#
# Stress axis : x y z
#
# Youngs Moduli (GPa) = 89.01065 42.23711 109.80367
#
# Poissons Ratio (x) = 0.19439 0.54782
# Poissons Ratio (y) = 0.40965 0.30533
# Poissons Ratio (z) = 0.44409 0.11745
#
# Static dielectric constant tensor:
#      x y z
#    x 3.599180 0.000000 0.000000 
#    y 0.000000 3.310550 0.000000 
#    z 0.000000 0.000000 3.701880 
# 
# 
# High freq. dielectric constant tensor:
#      x y z
#    x 1.741530 0.000000 0.000000 
#    y 0.000000 1.727260 0.000000 
#    z 0.000000 0.000000 1.763100 
# 
# From -- ./inp_files/15521.got.cif
#   From: 2010.03.12/outbox.cif.g09.slc.cpg/sg38_8_cif.got.tgz:15521.got - 2010.04.14 02:38:36.
