data_PCOD8180618
_publ_section_title
;
Structure prediction by ZEFSAII (Michael W. Deem and Ramdas Pophale) SiO2 
 PCOD8180618
Probable space group: A B M 2
;
_chemical_formula_sum "Si O2"
_cell_formula_units_Z 40
_cell_length_a 12.864043
_cell_length_b 29.318895
_cell_length_c 5.325913
_cell_angle_alpha 90.000000
_cell_angle_beta 90.000000
_cell_angle_gamma 90.000000
_cell_volume 2008.718823
_symmetry_space_group_name_H-M "A B M 2"
_symmetry_group_IT_number 39
_symmetry_cell_setting 'orthorhombic'
loop_
_space_group_symop_operation_xyz
x,y,z
-x,-y,z
-x,1/2+y,z
x,1/2-y,z
x,1/2+y,1/2+z
-x,1/2-y,1/2+z
-x,y,1/2+z
x,-y,1/2+z
loop_
_atom_site_type_symbol
_atom_site_label
_atom_site_fract_x
_atom_site_fract_y
_atom_site_fract_z
Si Si1 0.033577 0.386875 0.285700
Si Si2 0.220587 0.169791 0.285482
Si Si3 0.119300 0.199721 0.785459
Si Si4 0.433510 0.123101 0.296045
Si Si5 0.383761 0.980742 0.802877
O O1 0.156389 0.378093 0.285920
O O2 0.999941 0.414559 0.535650
O O3 0.972349 0.337780 0.285476
O O4 0.192011 0.196390 0.539610
O O5 0.342726 0.160187 0.284713
O O6 0.192134 0.196320 0.031111
O O7 0.067175 0.250000 0.785754
O O8 0.493998 0.130283 0.555482
O O9 0.382448 0.073394 0.287558
O O10 0.500000 0.000000 0.820737
O O11 0.326410 0.001987 0.557635
#
# Coordination Sequence:
#
# PCOD8180618 Si02
#       5
#     8   8   8   8   8
#     4   8  16  29  47  71  99 117 150 204 256 300
#     4  10  21  32  47  77 101 126 168 199 253 306
#     4  10  19  34  55  75  96 123 162 219 264 288
#     4  12  21  33  52  71 105 141 159 198 247 286
#     4  10  16  30  49  74  96 122 155 205 244 280
#
# _framework density 19.91319
#
# number of rings (size 3 to 8) (size 9 to 14) (size 15 to 20)
#    0.000    2.000    4.000    1.800    0.000    7.200 
#    0.000    0.000    0.000   12.000    0.000    0.000 
#    0.000   43.200    0.000    0.000    0.000    0.000 
#
# Total GULP energy -247809.121679 kJ/mol
# GULP energy per Si atom -12390.456084 kJ/mol
# Density = 1.986787 g / cm^3
# Si number density = 19.913190 Si / 1000 Ang^3
#
#
#
# Elastic Constant Matrix: (Units=GPa)
#
#
# Indices 1 2 3 4 5 6 
#
# 1 61.8374 12.5650 16.5926 0.0000 0.0000 0.0000
# 2 12.5650 24.8753 -0.8761 0.0000 0.0000 0.0000
# 3 16.5926 -0.8761 183.4335 0.0000 0.0000 0.0000
# 4 0.0000 0.0000 0.0000 -12.6295 0.0000 0.0000
# 5 0.0000 0.0000 0.0000 0.0000 7.5744 0.0000
# 6 0.0000 0.0000 0.0000 0.0000 0.0000 3.9152
#
#
#
# Elastic Compliance Matrix: (Units=1/GPa)
#
#
# Indices 1 2 3 4 5 6 
#
# 1 0.018550 -0.009431 -0.001723 0.000000 0.000000 0.000000
# 2 -0.009431 0.045002 0.001068 0.000000 0.000000 0.000000
# 3 -0.001723 0.001068 0.005613 0.000000 0.000000 0.000000
# 4 0.000000 0.000000 0.000000 -0.079179 0.000000 0.000000
# 5 0.000000 0.000000 0.000000 0.000000 0.132024 0.000000
# 6 0.000000 0.000000 0.000000 0.000000 0.000000 0.255417
#
#
# Mechanical properties :
#
#
# Convention : Reuss Voigt Hill
#
# Bulk Modulus (GPa) = 20.41109 36.30101 28.35605
# Shear Modulus (GPa) = 12.07939 15.89632 13.98786
#
# Velocity S-wave (km/s) = 2.46560 2.82845 2.65324
# Velocity P-wave (km/s) = 4.28694 5.37922 4.86384
#
# Compressibility (1/GPa) = 0.04899298
#
# Stress axis : x y z
#
# Youngs Moduli (GPa) = 53.90833 22.22137 178.17306
#
# Poissons Ratio (x) = 0.20956 0.30699
# Poissons Ratio (y) = 0.50839 -0.19029
# Poissons Ratio (z) = 0.09288 -0.02373
#
# Static dielectric constant tensor:
#      x y z
#    x 3.090180 0.000000 0.000000 
#    y 0.000000 3.090150 0.000000 
#    z 0.000000 0.000000 6.531850 
# 
# 
# High freq. dielectric constant tensor:
#      x y z
#    x 1.737030 0.000000 0.000000 
#    y 0.000000 1.715640 0.000000 
#    z 0.000000 0.000000 1.827360 
# 
# From -- ./inp_files/346.got.cif
#   From: 2010.03.12/outbox.cif.g09.slc.cpg/sg39_1_cif.got.tgz:346.got - 2010.04.14 02:53:20.
