data_PCOD8180655
_publ_section_title
;
Structure prediction by ZEFSAII (Michael W. Deem and Ramdas Pophale) SiO2 
 PCOD8180655
Probable space group: A B M 2
;
_chemical_formula_sum "Si O2"
_cell_formula_units_Z 48
_cell_length_a 15.638532
_cell_length_b 8.662908
_cell_length_c 19.779647
_cell_angle_alpha 90.000000
_cell_angle_beta 90.000000
_cell_angle_gamma 90.000000
_cell_volume 2679.650921
_symmetry_space_group_name_H-M "A B M 2"
_symmetry_group_IT_number 39
_symmetry_cell_setting 'orthorhombic'
loop_
_space_group_symop_operation_xyz
x,y,z
-x,-y,z
-x,1/2+y,z
x,1/2-y,z
x,1/2+y,1/2+z
-x,1/2-y,1/2+z
-x,y,1/2+z
x,-y,1/2+z
loop_
_atom_site_type_symbol
_atom_site_label
_atom_site_fract_x
_atom_site_fract_y
_atom_site_fract_z
Si Si1 0.081838 0.069825 0.389440
Si Si2 0.260075 0.067625 0.536262
Si Si3 0.914383 0.930897 0.037094
Si Si4 0.731053 0.070251 0.884312
Si Si5 0.590228 0.567201 0.636458
Si Si6 0.408810 0.434231 0.281516
O O1 0.068091 0.250000 0.404204
O O2 0.173392 0.041339 0.353309
O O3 0.084596 0.977085 0.458975
O O4 0.000000 0.000000 0.347736
O O5 0.247968 0.250000 0.533914
O O6 0.276231 0.001665 0.460309
O O7 0.339462 0.016870 0.582003
O O8 0.173432 0.997506 0.568768
O O9 0.915489 0.750000 0.047235
O O10 0.000000 0.000000 0.072739
O O11 0.711610 0.250000 0.889192
O O12 0.661090 0.997699 0.834063
O O13 0.500000 0.500000 0.611302
O O14 0.582792 0.750000 0.644145
O O15 0.616800 0.495134 0.707919
O O16 0.500000 0.500000 0.304648
O O17 0.411820 0.250000 0.280030
#
# Coordination Sequence:
#
# PCOD8180655 Si02
#       6
#     8   8   8   8   8   8
#     4   9  15  26  43  65  94 125 157 190 230 278
#     4   9  18  33  50  70  97 126 159 198 238 278
#     4  10  17  26  43  68  97 127 158 192 233 280
#     4   8  16  30  48  69  94 124 154 190 235 276
#     4  10  20  34  52  71  94 125 159 196 237 284
#     4  10  19  33  51  69  92 123 159 194 233 284
#
# _framework density 17.912780999999999
#
# number of rings (size 3 to 8) (size 9 to 14) (size 15 to 20)
#    0.000    2.667    0.000    6.000    0.000    2.000 
#    0.000    8.333    0.000    1.000    0.000    4.667 
#    0.000    0.000    0.000    0.000    0.000    0.000 
#
# Total GULP energy -297403.386401 kJ/mol
# GULP energy per Si atom -12391.807767 kJ/mol
# Density = 1.787201 g / cm^3
# Si number density = 17.912781 Si / 1000 Ang^3
#
#
#
# Elastic Constant Matrix: (Units=GPa)
#
#
# Indices 1 2 3 4 5 6 
#
# 1 194.4727 56.2316 83.0714 0.0000 0.0000 0.0000
# 2 56.2316 70.7130 27.6892 0.0000 0.0000 0.0000
# 3 83.0714 27.6892 66.1401 0.0000 0.0000 0.0000
# 4 0.0000 0.0000 0.0000 14.9718 0.0000 0.0000
# 5 0.0000 0.0000 0.0000 0.0000 7.5370 0.0000
# 6 0.0000 0.0000 0.0000 0.0000 0.0000 31.4363
#
#
#
# Elastic Compliance Matrix: (Units=1/GPa)
#
#
# Indices 1 2 3 4 5 6 
#
# 1 0.012143 -0.004407 -0.013407 0.000000 0.000000 0.000000
# 2 -0.004407 0.018514 -0.002216 0.000000 0.000000 0.000000
# 3 -0.013407 -0.002216 0.032886 0.000000 0.000000 0.000000
# 4 0.000000 0.000000 0.000000 0.066792 0.000000 0.000000
# 5 0.000000 0.000000 0.000000 0.000000 0.132679 0.000000
# 6 0.000000 0.000000 0.000000 0.000000 0.000000 0.031810
#
#
# Mechanical properties :
#
#
# Convention : Reuss Voigt Hill
#
# Bulk Modulus (GPa) = 42.58241 73.92335 58.25288
# Shear Modulus (GPa) = 14.58952 21.74458 18.16705
#
# Velocity S-wave (km/s) = 2.85700 3.48791 3.18810
# Velocity P-wave (km/s) = 5.89126 7.58807 6.79285
#
# Compressibility (1/GPa) = 0.02348387
#
# Stress axis : x y z
#
# Youngs Moduli (GPa) = 82.35031 54.01455 30.40786
#
# Poissons Ratio (x) = 0.23802 0.40768
# Poissons Ratio (y) = 0.36288 0.06738
# Poissons Ratio (z) = 1.10407 0.11969
#
# Static dielectric constant tensor:
#      x y z
#    x 4.129900 0.000000 0.000000 
#    y 0.000000 3.251690 0.000000 
#    z 0.000000 0.000000 3.056760 
# 
# 
# High freq. dielectric constant tensor:
#      x y z
#    x 1.719480 0.000000 0.000000 
#    y 0.000000 1.689730 0.000000 
#    z 0.000000 0.000000 1.640000 
# 
# From -- ./inp_files/14599.got.cif
#   From: 2010.03.12/outbox.cif.g09.slc.cpg/sg39_8_cif.got.tgz:14599.got - 2010.04.14 02:53:20.
