data_PCOD8180163
_publ_section_title
;
Structure prediction by ZEFSAII (Michael W. Deem and Ramdas Pophale) SiO2 
 PCOD8180163
Probable space group: A M M 2
;
_chemical_formula_sum "Si O2"
_cell_formula_units_Z 64
_cell_length_a 8.632001
_cell_length_b 24.048612
_cell_length_c 15.457197
_cell_angle_alpha 90.000000
_cell_angle_beta 90.000000
_cell_angle_gamma 90.000000
_cell_volume 3208.723090
_symmetry_space_group_name_H-M "A M M 2"
_symmetry_group_IT_number 38
_symmetry_cell_setting 'orthorhombic'
loop_
_space_group_symop_operation_xyz
x,y,z
-x,-y,z
-x,y,z
x,-y,z
x,1/2+y,1/2+z
-x,1/2-y,1/2+z
-x,1/2+y,1/2+z
x,1/2-y,1/2+z
loop_
_atom_site_type_symbol
_atom_site_label
_atom_site_fract_x
_atom_site_fract_y
_atom_site_fract_z
Si Si1 0.320100 0.140277 0.396340
Si Si2 0.680728 0.243459 0.143827
Si Si3 0.818559 0.368709 0.587137
Si Si4 0.181505 0.247962 0.329916
Si Si5 0.678010 0.134073 0.591410
Si Si6 0.183234 0.866316 0.895223
Si Si7 0.817100 0.061922 0.738127
Si Si8 0.317075 0.437782 0.742320
O O1 0.500000 0.154835 0.379776
O O2 0.218384 0.195890 0.390927
O O3 0.296820 0.115521 0.492229
O O4 0.257299 0.095724 0.326445
O O5 0.500000 0.231583 0.128715
O O6 0.779422 0.196066 0.097020
O O7 0.716544 0.241559 0.244755
O O8 0.732412 0.302364 0.104053
O O9 0.764751 0.386503 0.490499
O O10 0.730072 0.406918 0.654930
O O11 0.000000 0.377503 0.601090
O O12 0.238521 0.303334 0.378609
O O13 0.000000 0.249910 0.306326
O O14 0.500000 0.128192 0.619715
O O15 0.778725 0.093712 0.650169
O O16 0.254855 0.906451 0.821568
O O17 0.000000 0.867887 0.889304
O O18 0.000000 0.059074 0.747184
O O19 0.745887 0.000000 0.734972
O O20 0.500000 0.441313 0.745366
O O21 0.245637 0.500000 0.743935
#
# Coordination Sequence:
#
# PCOD8180163 Si02
#       8
#     8   8   8   8   8   8   8   8
#     4  10  21  38  59  84 116 152 188 231 287 348
#     4  11  21  35  56  85 120 154 184 229 288 345
#     4  11  22  37  60  88 115 149 191 239 287 339
#     4  11  20  34  59  87 115 150 187 232 284 343
#     4  10  22  38  59  87 117 152 192 234 285 341
#     4   9  20  37  57  85 117 149 187 231 289 346
#     4  10  21  39  61  83 113 154 195 239 289 337
#     4  10  22  40  59  80 112 154 195 237 287 340
#
# _framework density 19.945627999999999
#
# number of rings (size 3 to 8) (size 9 to 14) (size 15 to 20)
#    0.000    1.750    2.500    1.875    0.000    2.500 
#    0.000    5.625    0.000    0.000    0.000    0.000 
#    0.000    0.000    0.000    0.000    0.000    0.000 
#
# Total GULP energy -396859.391022 kJ/mol
# GULP energy per Si atom -12401.855969 kJ/mol
# Density = 1.990023 g / cm^3
# Si number density = 19.945628 Si / 1000 Ang^3
#
#
#
# Elastic Constant Matrix: (Units=GPa)
#
#
# Indices 1 2 3 4 5 6 
#
# 1 13.8873 15.0081 9.9944 0.0000 0.0000 0.0000
# 2 15.0081 149.5880 62.9892 0.0000 0.0000 0.0000
# 3 9.9944 62.9892 142.2901 0.0000 0.0000 0.0000
# 4 0.0000 0.0000 0.0000 11.5387 0.0000 0.0000
# 5 0.0000 0.0000 0.0000 0.0000 24.3244 0.0000
# 6 0.0000 0.0000 0.0000 0.0000 0.0000 23.8325
#
#
#
# Elastic Compliance Matrix: (Units=1/GPa)
#
#
# Indices 1 2 3 4 5 6 
#
# 1 0.081533 -0.007090 -0.002588 0.000000 0.000000 0.000000
# 2 -0.007090 0.008833 -0.003412 0.000000 0.000000 0.000000
# 3 -0.002588 -0.003412 0.008720 0.000000 0.000000 0.000000
# 4 0.000000 0.000000 0.000000 0.086665 0.000000 0.000000
# 5 0.000000 0.000000 0.000000 0.000000 0.041111 0.000000
# 6 0.000000 0.000000 0.000000 0.000000 0.000000 0.041959
#
#
# Mechanical properties :
#
#
# Convention : Reuss Voigt Hill
#
# Bulk Modulus (GPa) = 13.71645 53.52765 33.62205
# Shear Modulus (GPa) = 15.65901 26.45737 21.05819
#
# Velocity S-wave (km/s) = 2.80498 3.64603 3.25280
# Velocity P-wave (km/s) = 4.16922 6.67980 5.56786
#
# Compressibility (1/GPa) = 0.07290515
#
# Stress axis : x y z
#
# Youngs Moduli (GPa) = 12.26495 113.20840 114.67566
#
# Poissons Ratio (x) = 0.80269 0.29679
# Poissons Ratio (y) = 0.08696 0.39131
# Poissons Ratio (z) = 0.03174 0.38630
#
# Static dielectric constant tensor:
#      x y z
#    x 3.368950 0.000000 0.000000 
#    y 0.000000 3.882810 0.000000 
#    z 0.000000 0.000000 3.786250 
# 
# 
# High freq. dielectric constant tensor:
#      x y z
#    x 1.756630 0.000000 0.000000 
#    y 0.000000 1.777430 0.000000 
#    z 0.000000 0.000000 1.791220 
# 
# From -- ./inp_files/12770.got.cif
#   From: 2010.03.12/outbox.cif.g09.slc.cpg/sg38_7_cif.got.tgz:12770.got - 2010.04.14 02:38:36.
