data_PCOD8180875
_publ_section_title
;
Structure prediction by ZEFSAII (Michael W. Deem and Ramdas Pophale) SiO2 
 PCOD8180875
Probable space group: A B M 2
;
_chemical_formula_sum "Si O2"
_cell_formula_units_Z 56
_cell_length_a 17.615642
_cell_length_b 8.843184
_cell_length_c 18.901004
_cell_angle_alpha 90.000000
_cell_angle_beta 90.000000
_cell_angle_gamma 90.000000
_cell_volume 2944.367471
_symmetry_space_group_name_H-M "A B M 2"
_symmetry_group_IT_number 39
_symmetry_cell_setting 'orthorhombic'
loop_
_space_group_symop_operation_xyz
x,y,z
-x,-y,z
-x,1/2+y,z
x,1/2-y,z
x,1/2+y,1/2+z
-x,1/2-y,1/2+z
-x,y,1/2+z
x,-y,1/2+z
loop_
_atom_site_type_symbol
_atom_site_label
_atom_site_fract_x
_atom_site_fract_y
_atom_site_fract_z
Si Si1 0.319624 0.416623 0.965870
Si Si2 0.072136 0.921847 0.926729
Si Si3 0.760405 0.930164 0.108962
Si Si4 0.417819 0.429458 0.356438
Si Si5 0.079976 0.430701 0.586220
Si Si6 0.309750 0.925768 0.240185
Si Si7 0.808020 0.088580 0.350708
O O1 0.353996 0.250000 0.983843
O O2 0.384622 0.525611 0.934058
O O3 0.261061 0.397549 0.903370
O O4 0.276307 0.483873 0.034294
O O5 0.053000 0.750000 0.934132
O O6 0.140495 0.948692 0.872992
O O7 0.088548 0.986179 0.004918
O O8 0.000000 0.000000 0.891735
O O9 0.768990 0.750000 0.112459
O O10 0.843995 0.002955 0.122741
O O11 0.698826 0.989360 0.165611
O O12 0.500000 0.500000 0.349247
O O13 0.421062 0.250000 0.351510
O O14 0.370466 0.491582 0.289792
O O15 0.078413 0.250000 0.595756
O O16 0.000000 0.500000 0.616394
O O17 0.333157 0.750000 0.230130
O O18 0.225540 0.940313 0.273415
O O19 0.852857 0.250000 0.352418
#
# Coordination Sequence:
#
# PCOD8180875 Si02
#       7
#     8   8   8   8   8   8   8
#     4   9  19  35  57  84 114 145 181 227 278 330
#     4  10  19  29  47  74 104 138 182 233 284 335
#     4  11  21  36  58  85 117 153 193 239 287 340
#     4  11  22  39  64  90 117 149 187 229 279 339
#     4  10  20  33  51  78 111 150 193 240 293 341
#     4  10  22  39  58  83 116 152 189 230 281 340
#     4   9  17  33  53  74 104 141 178 224 276 327
#
# _framework density 19.019365000000001
#
# number of rings (size 3 to 8) (size 9 to 14) (size 15 to 20)
#    0.000    2.000    1.429    3.857    0.000    5.143 
#    0.000    1.429    0.000    6.857    0.000    0.000 
#    0.000    0.000    0.000    0.000    0.000    0.000 
#
# Total GULP energy -346993.698251 kJ/mol
# GULP energy per Si atom -12392.632080 kJ/mol
# Density = 1.897608 g / cm^3
# Si number density = 19.019365 Si / 1000 Ang^3
#
#
#
# Elastic Constant Matrix: (Units=GPa)
#
#
# Indices 1 2 3 4 5 6 
#
# 1 104.0300 52.9607 30.8021 0.0000 0.0000 0.0000
# 2 52.9607 114.8979 30.0480 0.0000 0.0000 0.0000
# 3 30.8021 30.0480 71.9068 0.0000 0.0000 0.0000
# 4 0.0000 0.0000 0.0000 21.7214 0.0000 0.0000
# 5 0.0000 0.0000 0.0000 0.0000 22.7206 0.0000
# 6 0.0000 0.0000 0.0000 0.0000 0.0000 35.6113
#
#
#
# Elastic Compliance Matrix: (Units=1/GPa)
#
#
# Indices 1 2 3 4 5 6 
#
# 1 0.013310 -0.005214 -0.003523 0.000000 0.000000 0.000000
# 2 -0.005214 0.011814 -0.002703 0.000000 0.000000 0.000000
# 3 -0.003523 -0.002703 0.016546 0.000000 0.000000 0.000000
# 4 0.000000 0.000000 0.000000 0.046038 0.000000 0.000000
# 5 0.000000 0.000000 0.000000 0.000000 0.044013 0.000000
# 6 0.000000 0.000000 0.000000 0.000000 0.000000 0.028081
#
#
# Mechanical properties :
#
#
# Convention : Reuss Voigt Hill
#
# Bulk Modulus (GPa) = 53.22117 57.60627 55.41372
# Shear Modulus (GPa) = 26.46297 27.81223 27.13760
#
# Velocity S-wave (km/s) = 3.73415 3.82817 3.78145
# Velocity P-wave (km/s) = 6.82900 7.06355 6.94727
#
# Compressibility (1/GPa) = 0.01878951
#
# Stress axis : x y z
#
# Youngs Moduli (GPa) = 75.13168 84.64858 60.43939
#
# Poissons Ratio (x) = 0.44134 0.21291
# Poissons Ratio (y) = 0.39172 0.16338
# Poissons Ratio (z) = 0.26467 0.22882
#
# Static dielectric constant tensor:
#      x y z
#    x 3.601620 0.000000 0.000000 
#    y 0.000000 3.687170 0.000000 
#    z 0.000000 0.000000 3.430540 
# 
# 
# High freq. dielectric constant tensor:
#      x y z
#    x 1.726770 0.000000 0.000000 
#    y 0.000000 1.748530 0.000000 
#    z 0.000000 0.000000 1.722380 
# 
# From -- ./inp_files/14924.got.cif
#   From: 2010.03.12/outbox.cif.g09.slc.cpg/sg39_8_cif.got.tgz:14924.got - 2010.04.14 02:53:20.
