data_PCOD8180171
_publ_section_title
;
Structure prediction by ZEFSAII (Michael W. Deem and Ramdas Pophale) SiO2 
 PCOD8180171
Probable space group: A M M 2
;
_chemical_formula_sum "Si O2"
_cell_formula_units_Z 64
_cell_length_a 23.843842
_cell_length_b 8.554240
_cell_length_c 15.556067
_cell_angle_alpha 90.000000
_cell_angle_beta 90.000000
_cell_angle_gamma 90.000000
_cell_volume 3172.907937
_symmetry_space_group_name_H-M "A M M 2"
_symmetry_group_IT_number 38
_symmetry_cell_setting 'orthorhombic'
loop_
_space_group_symop_operation_xyz
x,y,z
-x,-y,z
-x,y,z
x,-y,z
x,1/2+y,1/2+z
-x,1/2-y,1/2+z
-x,1/2+y,1/2+z
x,1/2-y,1/2+z
loop_
_atom_site_type_symbol
_atom_site_label
_atom_site_fract_x
_atom_site_fract_y
_atom_site_fract_z
Si Si1 0.437004 0.684690 0.318690
Si Si2 0.363256 0.814306 0.978338
Si Si3 0.563377 0.184316 0.139896
Si Si4 0.939065 0.814494 0.071200
Si Si5 0.759201 0.317839 0.980783
Si Si6 0.178860 0.816061 0.818362
Si Si7 0.060612 0.814609 0.878060
Si Si8 0.823631 0.183954 0.140762
O O1 0.500000 0.751411 0.332500
O O2 0.438580 0.500000 0.318494
O O3 0.397526 0.743775 0.395205
O O4 0.412335 0.744117 0.228079
O O5 0.305891 0.721251 0.978844
O O6 0.352549 0.000000 0.976860
O O7 0.397831 0.760815 0.061843
O O8 0.500000 0.244758 0.123150
O O9 0.564104 0.000000 0.148259
O O10 0.887385 0.751766 0.127808
O O11 0.000000 0.760045 0.108458
O O12 0.936038 0.000000 0.067919
O O13 0.932035 0.749079 0.974638
O O14 0.768583 0.500000 0.997752
O O15 0.785235 0.271494 0.889666
O O16 0.787273 0.220929 0.057321
O O17 0.113829 0.757447 0.822845
O O18 0.201685 0.770229 0.724238
O O19 0.184962 0.000000 0.834191
O O20 0.000000 0.755031 0.840874
O O21 0.060114 0.000000 0.880994
O O22 0.822111 0.000000 0.157121
#
# Coordination Sequence:
#
# PCOD8180171 Si02
#       8
#     8   8   8   8   8   8   8   8
#     4   9  18  34  58  88 120 152 186 227 278 336
#     4  10  21  38  60  83 113 154 195 235 283 342
#     4   9  18  34  58  88 120 152 186 227 278 336
#     4   8  14  28  54  85 114 146 183 227 284 348
#     4  12  26  43  60  82 114 153 201 252 295 342
#     4  11  22  39  62  87 115 152 193 239 293 351
#     4   8  14  28  54  85 114 146 183 227 284 348
#     4  11  22  39  62  87 115 152 193 239 293 351
#
# _framework density 20.170770999999998
#
# number of rings (size 3 to 8) (size 9 to 14) (size 15 to 20)
#    0.000    2.250    1.250    3.000    0.000    4.000 
#    0.000    2.500    0.000    6.750    0.000    0.000 
#    0.000    0.000    0.000    0.000    0.000    0.000 
#
# Total GULP energy -396709.171415 kJ/mol
# GULP energy per Si atom -12397.161607 kJ/mol
# Density = 2.012486 g / cm^3
# Si number density = 20.170771 Si / 1000 Ang^3
#
#
#
# Elastic Constant Matrix: (Units=GPa)
#
#
# Indices 1 2 3 4 5 6 
#
# 1 115.9584 19.2682 55.5045 0.0000 0.0000 0.0000
# 2 19.2682 34.1922 10.0988 0.0000 0.0000 0.0000
# 3 55.5045 10.0988 120.2130 0.0000 0.0000 0.0000
# 4 0.0000 0.0000 0.0000 28.8816 0.0000 0.0000
# 5 0.0000 0.0000 0.0000 0.0000 -26.4549 0.0000
# 6 0.0000 0.0000 0.0000 0.0000 0.0000 19.0894
#
#
#
# Elastic Compliance Matrix: (Units=1/GPa)
#
#
# Indices 1 2 3 4 5 6 
#
# 1 0.011914 -0.005219 -0.005063 0.000000 0.000000 0.000000
# 2 -0.005219 0.032276 -0.000302 0.000000 0.000000 0.000000
# 3 -0.005063 -0.000302 0.010681 0.000000 0.000000 0.000000
# 4 0.000000 0.000000 0.000000 0.034624 0.000000 0.000000
# 5 0.000000 0.000000 0.000000 0.000000 -0.037800 0.000000
# 6 0.000000 0.000000 0.000000 0.000000 0.000000 0.052385
#
#
# Mechanical properties :
#
#
# Convention : Reuss Voigt Hill
#
# Bulk Modulus (GPa) = 29.66858 48.90074 39.28466
# Shear Modulus (GPa) = 36.63471 16.66937 26.65204
#
# Velocity S-wave (km/s) = 4.26635 2.87786 3.63894
# Velocity P-wave (km/s) = 6.24576 5.94464 6.09706
#
# Compressibility (1/GPa) = 0.03370569
#
# Stress axis : x y z
#
# Youngs Moduli (GPa) = 83.93349 30.98233 93.62053
#
# Poissons Ratio (x) = 0.16169 0.47396
# Poissons Ratio (y) = 0.43802 0.02826
# Poissons Ratio (z) = 0.42492 0.00935
#
# Static dielectric constant tensor:
#      x y z
#    x 3.989180 0.000000 0.000000 
#    y 0.000000 3.281320 0.000000 
#    z 0.000000 0.000000 3.876200 
# 
# 
# High freq. dielectric constant tensor:
#      x y z
#    x 1.790710 0.000000 0.000000 
#    y 0.000000 1.757370 0.000000 
#    z 0.000000 0.000000 1.792010 
# 
# From -- ./inp_files/15789.got.cif
#   From: 2010.03.12/outbox.cif.g09.slc.cpg/sg38_8_cif.got.tgz:15789.got - 2010.04.14 02:38:36.
