data_PCOD8180693
_publ_section_title
;
Structure prediction by ZEFSAII (Michael W. Deem and Ramdas Pophale) SiO2 
 PCOD8180693
Probable space group: A B M 2
;
_chemical_formula_sum "Si O2"
_cell_formula_units_Z 56
_cell_length_a 19.831441
_cell_length_b 9.093087
_cell_length_c 15.515425
_cell_angle_alpha 90.000000
_cell_angle_beta 90.000000
_cell_angle_gamma 90.000000
_cell_volume 2797.881360
_symmetry_space_group_name_H-M "A B M 2"
_symmetry_group_IT_number 39
_symmetry_cell_setting 'orthorhombic'
loop_
_space_group_symop_operation_xyz
x,y,z
-x,-y,z
-x,1/2+y,z
x,1/2-y,z
x,1/2+y,1/2+z
-x,1/2-y,1/2+z
-x,y,1/2+z
x,-y,1/2+z
loop_
_atom_site_type_symbol
_atom_site_label
_atom_site_fract_x
_atom_site_fract_y
_atom_site_fract_z
Si Si1 0.428031 0.074746 0.620650
Si Si2 0.062495 0.588202 0.725267
Si Si3 0.648982 0.419142 0.770716
Si Si4 0.340511 0.923203 0.961611
Si Si5 0.801131 0.424101 0.025413
Si Si6 0.065027 0.416319 0.019409
Si Si7 0.206390 0.419874 0.202325
O O1 0.435635 0.250000 0.620528
O O2 0.387665 0.012711 0.537482
O O3 0.500000 0.000000 0.619257
O O4 0.389253 0.027115 0.706750
O O5 0.049107 0.750000 0.759580
O O6 0.062553 0.578492 0.622251
O O7 0.137623 0.535354 0.754403
O O8 0.000000 0.500000 0.765848
O O9 0.627757 0.250000 0.752434
O O10 0.630039 0.467636 0.868153
O O11 0.729650 0.436440 0.763995
O O12 0.340093 0.750000 0.972464
O O13 0.263352 0.977159 0.970083
O O14 0.812897 0.250000 0.022774
O O15 0.867334 0.502487 0.987133
O O16 0.784429 0.471822 0.122526
O O17 0.064908 0.250000 0.984828
O O18 0.000000 0.500000 0.980914
O O19 0.198266 0.250000 0.169918
#
# Coordination Sequence:
#
# PCOD8180693 Si02
#       7
#     8   8   8   8   8   8   8
#     4  11  23  42  63  89 119 149 184 228 279 338
#     4   8  14  23  36  62  96 132 174 223 270 320
#     4  10  20  38  62  87 115 152 192 235 283 335
#     4   9  20  37  59  86 118 151 190 233 281 337
#     4  10  17  29  50  75 107 147 186 232 284 335
#     4   9  16  26  41  68 103 141 188 238 285 338
#     4   9  17  29  49  75 105 141 187 234 282 333
#
# _framework density 20.015143999999999
#
# number of rings (size 3 to 8) (size 9 to 14) (size 15 to 20)
#    0.000    2.571    1.429    2.143    0.000    4.000 
#    0.000    4.286    0.000    0.857    0.000    2.000 
#    0.000    0.000    0.000    0.000    0.000    0.000 
#
# Total GULP energy -347051.838927 kJ/mol
# GULP energy per Si atom -12394.708533 kJ/mol
# Density = 1.996959 g / cm^3
# Si number density = 20.015144 Si / 1000 Ang^3
#
#
#
# Elastic Constant Matrix: (Units=GPa)
#
#
# Indices 1 2 3 4 5 6 
#
# 1 158.5511 54.9998 53.3834 0.0000 0.0000 0.0000
# 2 54.9998 90.0531 30.9023 0.0000 0.0000 0.0000
# 3 53.3834 30.9023 81.4206 0.0000 0.0000 0.0000
# 4 0.0000 0.0000 0.0000 17.2367 0.0000 0.0000
# 5 0.0000 0.0000 0.0000 0.0000 4.9535 0.0000
# 6 0.0000 0.0000 0.0000 0.0000 0.0000 33.5517
#
#
#
# Elastic Compliance Matrix: (Units=1/GPa)
#
#
# Indices 1 2 3 4 5 6 
#
# 1 0.009247 -0.004101 -0.004506 0.000000 0.000000 0.000000
# 2 -0.004101 0.014586 -0.002847 0.000000 0.000000 0.000000
# 3 -0.004506 -0.002847 0.016317 0.000000 0.000000 0.000000
# 4 0.000000 0.000000 0.000000 0.058016 0.000000 0.000000
# 5 0.000000 0.000000 0.000000 0.000000 0.201877 0.000000
# 6 0.000000 0.000000 0.000000 0.000000 0.000000 0.029805
#
#
# Mechanical properties :
#
#
# Convention : Reuss Voigt Hill
#
# Bulk Modulus (GPa) = 58.00052 67.62174 62.81113
# Shear Modulus (GPa) = 13.94684 23.86435 18.90559
#
# Velocity S-wave (km/s) = 2.64259 3.45674 3.07671
# Velocity P-wave (km/s) = 6.19292 7.05625 6.63863
#
# Compressibility (1/GPa) = 0.01724122
#
# Stress axis : x y z
#
# Youngs Moduli (GPa) = 108.14288 68.55702 61.28575
#
# Poissons Ratio (x) = 0.28117 0.27617
# Poissons Ratio (y) = 0.44352 0.17449
# Poissons Ratio (z) = 0.48732 0.19519
#
# Static dielectric constant tensor:
#      x y z
#    x 3.970680 0.000000 0.000000 
#    y 0.000000 3.550110 0.000000 
#    z 0.000000 0.000000 3.354400 
# 
# 
# High freq. dielectric constant tensor:
#      x y z
#    x 1.796000 0.000000 0.000000 
#    y 0.000000 1.766090 0.000000 
#    z 0.000000 0.000000 1.749170 
# 
# From -- ./inp_files/10376.got.cif
#   From: 2010.03.12/outbox.cif.g09.slc.cpg/sg39_6_cif.got.tgz:10376.got - 2010.04.14 02:53:20.
