data_PCOD8180961
_publ_section_title
;
Structure prediction by ZEFSAII (Michael W. Deem and Ramdas Pophale) SiO2 
 PCOD8180961
Probable space group: A B M 2
;
_chemical_formula_sum "Si O2"
_cell_formula_units_Z 60
_cell_length_a 13.472934
_cell_length_b 29.105162
_cell_length_c 9.171368
_cell_angle_alpha 90.000000
_cell_angle_beta 90.000000
_cell_angle_gamma 90.000000
_cell_volume 3596.386204
_symmetry_space_group_name_H-M "A B M 2"
_symmetry_group_IT_number 39
_symmetry_cell_setting 'orthorhombic'
loop_
_space_group_symop_operation_xyz
x,y,z
-x,-y,z
-x,1/2+y,z
x,1/2-y,z
x,1/2+y,1/2+z
-x,1/2-y,1/2+z
-x,y,1/2+z
x,-y,1/2+z
loop_
_atom_site_type_symbol
_atom_site_label
_atom_site_fract_x
_atom_site_fract_y
_atom_site_fract_z
Si Si1 0.905726 0.447569 0.349360
Si Si2 0.883657 0.100744 0.852450
Si Si3 0.779550 0.391122 0.151023
Si Si4 0.130473 0.700069 0.182859
Si Si5 0.631657 0.963897 0.624058
Si Si6 0.052973 0.198753 0.369852
Si Si7 0.826871 0.475065 0.657405
Si Si8 0.500000 0.000000 0.873266
O O1 0.819372 0.412966 0.300180
O O2 0.885565 0.463447 0.512122
O O3 0.900975 0.492888 0.249713
O O4 0.008060 0.420760 0.333535
O O5 0.883271 0.155290 0.808444
O O6 0.808959 0.072596 0.746852
O O7 0.851346 0.093841 0.019075
O O8 0.779262 0.336110 0.171224
O O9 0.670552 0.411360 0.121030
O O10 0.181756 0.750000 0.188808
O O11 0.061633 0.691936 0.323944
O O12 0.056305 0.696143 0.044879
O O13 0.565914 0.967880 0.769327
O O14 0.569178 0.969214 0.476601
O O15 0.721238 0.000885 0.626447
O O16 0.090919 0.250000 0.317463
#
# Coordination Sequence:
#
# PCOD8180961 Si02
#       8
#     8   8   8   8   8   8   8   4
#     4  11  21  32  43  64  97 135 167 189 226 265
#     4  11  20  30  45  66  98 136 168 190 229 259
#     4  10  19  32  49  70  98 122 162 203 224 277
#     4   9  17  30  47  68  95 130 164 200 230 260
#     4  10  20  35  50  71  90 117 152 194 245 290
#     4   9  18  30  45  64  93 132 177 203 221 256
#     4  11  22  32  47  67  97 125 159 204 228 277
#     4  10  20  36  56  66  88 116 146 190 250 312
#
# _framework density 16.683413999999999
#
# number of rings (size 3 to 8) (size 9 to 14) (size 15 to 20)
#    0.000    1.867    1.333    5.200    1.867    2.133 
#    0.000    0.000    0.000    0.000    0.000    0.933 
#    0.000    4.267    0.000    0.267    0.000    0.400 
#
# Total GULP energy -371787.826007 kJ/mol
# GULP energy per Si atom -12392.927534 kJ/mol
# Density = 1.664544 g / cm^3
# Si number density = 16.683414 Si / 1000 Ang^3
#
#
#
# Elastic Constant Matrix: (Units=GPa)
#
#
# Indices 1 2 3 4 5 6 
#
# 1 54.7962 42.8753 13.8866 0.0000 0.0000 0.0000
# 2 42.8753 143.2782 45.2163 0.0000 0.0000 0.0000
# 3 13.8866 45.2163 76.9149 0.0000 0.0000 0.0000
# 4 0.0000 0.0000 0.0000 20.2815 0.0000 0.0000
# 5 0.0000 0.0000 0.0000 0.0000 15.9166 0.0000
# 6 0.0000 0.0000 0.0000 0.0000 0.0000 19.2810
#
#
#
# Elastic Compliance Matrix: (Units=1/GPa)
#
#
# Indices 1 2 3 4 5 6 
#
# 1 0.023830 -0.007088 -0.000135 0.000000 0.000000 0.000000
# 2 -0.007088 0.010678 -0.004997 0.000000 0.000000 0.000000
# 3 -0.000135 -0.004997 0.015964 0.000000 0.000000 0.000000
# 4 0.000000 0.000000 0.000000 0.049306 0.000000 0.000000
# 5 0.000000 0.000000 0.000000 0.000000 0.062827 0.000000
# 6 0.000000 0.000000 0.000000 0.000000 0.000000 0.051865
#
#
# Mechanical properties :
#
#
# Convention : Reuss Voigt Hill
#
# Bulk Modulus (GPa) = 38.41834 53.21620 45.81727
# Shear Modulus (GPa) = 20.19488 22.62991 21.41239
#
# Velocity S-wave (km/s) = 3.48296 3.68697 3.58642
# Velocity P-wave (km/s) = 6.26519 7.07757 6.68373
#
# Compressibility (1/GPa) = 0.02602923
#
# Stress axis : x y z
#
# Youngs Moduli (GPa) = 41.96397 93.65348 62.64232
#
# Poissons Ratio (x) = 0.66384 0.00848
# Poissons Ratio (y) = 0.29745 0.31305
# Poissons Ratio (z) = 0.00568 0.46802
#
# Static dielectric constant tensor:
#      x y z
#    x 2.880500 0.000000 0.000000 
#    y 0.000000 3.503400 0.000000 
#    z 0.000000 0.000000 3.276170 
# 
# 
# High freq. dielectric constant tensor:
#      x y z
#    x 1.594990 0.000000 0.000000 
#    y 0.000000 1.647000 0.000000 
#    z 0.000000 0.000000 1.655870 
# 
# From -- ./inp_files/2876.got.cif
#   From: 2010.03.12/outbox.cif.g09.slc.cpg/sg39_2_cif.got.tgz:2876.got - 2010.04.14 02:53:20.
