data_PCOD8180409
_publ_section_title
;
Structure prediction by ZEFSAII (Michael W. Deem and Ramdas Pophale) SiO2 
 PCOD8180409
Probable space group: A M M 2
;
_chemical_formula_sum "Si O2"
_cell_formula_units_Z 64
_cell_length_a 13.864280
_cell_length_b 9.172951
_cell_length_c 25.652021
_cell_angle_alpha 90.000000
_cell_angle_beta 90.000000
_cell_angle_gamma 90.000000
_cell_volume 3262.330685
_symmetry_space_group_name_H-M "A M M 2"
_symmetry_group_IT_number 38
_symmetry_cell_setting 'orthorhombic'
loop_
_space_group_symop_operation_xyz
x,y,z
-x,-y,z
-x,y,z
x,-y,z
x,1/2+y,1/2+z
-x,1/2-y,1/2+z
-x,1/2+y,1/2+z
x,1/2-y,1/2+z
loop_
_atom_site_type_symbol
_atom_site_label
_atom_site_fract_x
_atom_site_fract_y
_atom_site_fract_z
Si Si1 0.894821 0.828894 0.179470
Si Si2 0.614137 0.335294 0.619455
Si Si3 0.283290 0.170767 0.528589
Si Si4 0.112341 0.170393 0.293004
Si Si5 0.713357 0.172443 0.829330
Si Si6 0.614061 0.166087 0.237010
Si Si7 0.888523 0.170347 0.066268
Si Si8 0.613017 0.832121 0.422625
O O1 0.845309 0.788609 0.234730
O O2 0.844810 0.787925 0.124280
O O3 0.000000 0.753652 0.179338
O O4 0.911490 0.000000 0.179262
O O5 0.500000 0.318405 0.618116
O O6 0.644763 0.500000 0.604299
O O7 0.658754 0.224177 0.578769
O O8 0.651266 0.301503 0.678219
O O9 0.176811 0.242276 0.525402
O O10 0.339760 0.216419 0.476847
O O11 0.270680 0.000000 0.533059
O O12 0.177812 0.262540 0.332717
O O13 0.000000 0.214432 0.298652
O O14 0.125304 0.000000 0.304894
O O15 0.662553 0.221734 0.776237
O O16 0.652752 0.229181 0.877840
O O17 0.718771 0.000000 0.831474
O O18 0.500000 0.186780 0.240170
O O19 0.641860 0.000000 0.252506
O O20 0.000000 0.218308 0.061047
O O21 0.878222 0.000000 0.054962
O O22 0.500000 0.806456 0.427971
O O23 0.636726 0.000000 0.409125
#
# Coordination Sequence:
#
# PCOD8180409 Si02
#       8
#     8   8   8   8   8   8   8   8
#     4   7  12  26  50  78 106 143 192 235 265 308
#     4   9  19  36  58  84 114 151 193 233 279 344
#     4  11  23  37  58  88 119 149 188 240 299 350
#     4   9  18  35  59  84 113 155 203 240 275 333
#     4  12  25  37  56  88 121 149 185 240 304 352
#     4   9  19  37  59  82 112 153 196 233 276 343
#     4   9  18  34  56  83 117 157 200 240 279 332
#     4  10  23  45  67  83 106 149 202 246 286 345
#
# _framework density 19.617877
#
# number of rings (size 3 to 8) (size 9 to 14) (size 15 to 20)
#    0.000    2.500    0.000    4.500    1.750    4.750 
#    0.000    1.875    0.000    3.000    0.000    0.000 
#    0.000    0.000    0.000    0.000    0.000    0.000 
#
# Total GULP energy -396611.011548 kJ/mol
# GULP energy per Si atom -12394.094111 kJ/mol
# Density = 1.957323 g / cm^3
# Si number density = 19.617877 Si / 1000 Ang^3
#
#
#
# Elastic Constant Matrix: (Units=GPa)
#
#
# Indices 1 2 3 4 5 6 
#
# 1 84.4362 51.6137 59.0752 0.0000 0.0000 0.0000
# 2 51.6137 85.9258 54.3768 0.0000 0.0000 0.0000
# 3 59.0752 54.3768 100.5773 0.0000 0.0000 0.0000
# 4 0.0000 0.0000 0.0000 29.8278 0.0000 0.0000
# 5 0.0000 0.0000 0.0000 0.0000 32.6697 0.0000
# 6 0.0000 0.0000 0.0000 0.0000 0.0000 28.5628
#
#
#
# Elastic Compliance Matrix: (Units=1/GPa)
#
#
# Indices 1 2 3 4 5 6 
#
# 1 0.023316 -0.008115 -0.009307 0.000000 0.000000 0.000000
# 2 -0.008115 0.020515 -0.006325 0.000000 0.000000 0.000000
# 3 -0.009307 -0.006325 0.018829 0.000000 0.000000 0.000000
# 4 0.000000 0.000000 0.000000 0.033526 0.000000 0.000000
# 5 0.000000 0.000000 0.000000 0.000000 0.030609 0.000000
# 6 0.000000 0.000000 0.000000 0.000000 0.000000 0.035011
#
#
# Mechanical properties :
#
#
# Convention : Reuss Voigt Hill
#
# Bulk Modulus (GPa) = 65.94152 66.78562 66.36357
# Shear Modulus (GPa) = 23.32577 25.27031 24.29804
#
# Velocity S-wave (km/s) = 3.45194 3.59294 3.52315
# Velocity P-wave (km/s) = 7.04086 7.16446 7.10293
#
# Compressibility (1/GPa) = 0.01516495
#
# Stress axis : x y z
#
# Youngs Moduli (GPa) = 42.88965 48.74427 53.11002
#
# Poissons Ratio (x) = 0.39557 0.49431
# Poissons Ratio (y) = 0.34806 0.33592
# Poissons Ratio (z) = 0.39918 0.30830
#
# Static dielectric constant tensor:
#      x y z
#    x 3.689340 0.000000 0.000000 
#    y 0.000000 3.268930 0.000000 
#    z 0.000000 0.000000 3.645720 
# 
# 
# High freq. dielectric constant tensor:
#      x y z
#    x 1.780940 0.000000 0.000000 
#    y 0.000000 1.732640 0.000000 
#    z 0.000000 0.000000 1.755160 
# 
# From -- ./inp_files/22987.got.cif
#   From: 2010.03.12/outbox.cif.g09.slc.cpg/sg38_12_cif.got.tgz:22987.got - 2010.04.14 02:38:36.
