data_PCOD8180260
_publ_section_title
;
Structure prediction by ZEFSAII (Michael W. Deem and Ramdas Pophale) SiO2 
 PCOD8180260
Probable space group: A M M 2
;
_chemical_formula_sum "Si O2"
_cell_formula_units_Z 64
_cell_length_a 8.878406
_cell_length_b 30.725831
_cell_length_c 11.872995
_cell_angle_alpha 90.000000
_cell_angle_beta 90.000000
_cell_angle_gamma 90.000000
_cell_volume 3238.910321
_symmetry_space_group_name_H-M "A M M 2"
_symmetry_group_IT_number 38
_symmetry_cell_setting 'orthorhombic'
loop_
_space_group_symop_operation_xyz
x,y,z
-x,-y,z
-x,y,z
x,-y,z
x,1/2+y,1/2+z
-x,1/2-y,1/2+z
-x,1/2+y,1/2+z
x,1/2-y,1/2+z
loop_
_atom_site_type_symbol
_atom_site_label
_atom_site_fract_x
_atom_site_fract_y
_atom_site_fract_z
Si Si1 0.672507 0.452198 0.411650
Si Si2 0.821999 0.578462 0.199910
Si Si3 0.174679 0.795638 0.907556
Si Si4 0.323333 0.330198 0.198478
Si Si5 0.178762 0.048437 0.456539
Si Si6 0.322329 0.629882 0.555293
Si Si7 0.828735 0.802532 0.476042
Si Si8 0.175420 0.625297 0.795355
O O1 0.500000 0.443009 0.377039
O O2 0.688722 0.500000 0.468715
O O3 0.774204 0.453794 0.299401
O O4 0.729208 0.415540 0.498608
O O5 0.743995 0.623529 0.231110
O O6 0.760559 0.560837 0.080510
O O7 0.000000 0.584579 0.196465
O O8 0.253156 0.795935 0.785801
O O9 0.200910 0.747750 0.954914
O O10 0.000000 0.806630 0.893274
O O11 0.245751 0.829803 0.993417
O O12 0.500000 0.331298 0.215274
O O13 0.284617 0.317614 0.071821
O O14 0.235966 0.083674 0.366039
O O15 0.000000 0.049224 0.460528
O O16 0.237290 0.000000 0.424193
O O17 0.500000 0.636362 0.548745
O O18 0.272395 0.628756 0.683839
O O19 0.796371 0.830574 0.364794
O O20 0.000000 0.811188 0.516522
O O21 0.000000 0.619858 0.764725
#
# Coordination Sequence:
#
# PCOD8180260 Si02
#       8
#     8   8   8   8   8   8   8   8
#     4  10  22  40  60  85 122 164 202 250 310 367
#     4  11  20  36  62  91 124 160 202 249 300 359
#     4  11  24  42  66  91 120 160 207 252 299 360
#     4  12  24  39  63  94 128 160 197 248 309 365
#     4   9  18  34  59  90 120 151 194 250 301 347
#     4  11  24  41  60  87 123 161 202 251 306 364
#     4  10  23  43  65  90 119 160 206 249 300 358
#     4  10  21  40  62  86 119 159 203 250 300 359
#
# _framework density 19.759733000000001
#
# number of rings (size 3 to 8) (size 9 to 14) (size 15 to 20)
#    0.000    1.500    2.500    2.625    1.750    3.250 
#    0.000    0.000    0.000    1.500    0.000    0.000 
#    0.000    0.000    0.000    0.000    0.000    0.000 
#
# Total GULP energy -396894.151439 kJ/mol
# GULP energy per Si atom -12402.942232 kJ/mol
# Density = 1.971476 g / cm^3
# Si number density = 19.759733 Si / 1000 Ang^3
#
#
#
# Elastic Constant Matrix: (Units=GPa)
#
#
# Indices 1 2 3 4 5 6 
#
# 1 82.4910 45.0374 35.9844 0.0000 0.0000 0.0000
# 2 45.0374 133.2360 47.5975 0.0000 0.0000 0.0000
# 3 35.9844 47.5975 103.9955 0.0000 0.0000 0.0000
# 4 0.0000 0.0000 0.0000 18.7504 0.0000 0.0000
# 5 0.0000 0.0000 0.0000 0.0000 30.2875 0.0000
# 6 0.0000 0.0000 0.0000 0.0000 0.0000 22.4310
#
#
#
# Elastic Compliance Matrix: (Units=1/GPa)
#
#
# Indices 1 2 3 4 5 6 
#
# 1 0.015945 -0.004087 -0.003647 0.000000 0.000000 0.000000
# 2 -0.004087 0.010020 -0.003172 0.000000 0.000000 0.000000
# 3 -0.003647 -0.003172 0.012329 0.000000 0.000000 0.000000
# 4 0.000000 0.000000 0.000000 0.053332 0.000000 0.000000
# 5 0.000000 0.000000 0.000000 0.000000 0.033017 0.000000
# 6 0.000000 0.000000 0.000000 0.000000 0.000000 0.044581
#
#
# Mechanical properties :
#
#
# Convention : Reuss Voigt Hill
#
# Bulk Modulus (GPa) = 60.66815 64.10679 62.38747
# Shear Modulus (GPa) = 25.44144 27.03399 26.23772
#
# Velocity S-wave (km/s) = 3.59212 3.70284 3.64790
# Velocity P-wave (km/s) = 6.92633 7.12706 7.02741
#
# Compressibility (1/GPa) = 0.01648311
#
# Stress axis : x y z
#
# Youngs Moduli (GPa) = 62.71704 99.79902 81.10745
#
# Poissons Ratio (x) = 0.40788 0.29576
# Poissons Ratio (y) = 0.25633 0.25727
# Poissons Ratio (z) = 0.22870 0.31655
#
# Static dielectric constant tensor:
#      x y z
#    x 3.468630 0.000000 0.000000 
#    y 0.000000 3.847770 0.000000 
#    z 0.000000 0.000000 3.587270 
# 
# 
# High freq. dielectric constant tensor:
#      x y z
#    x 1.757830 0.000000 0.000000 
#    y 0.000000 1.785670 0.000000 
#    z 0.000000 0.000000 1.772310 
# 
# From -- ./inp_files/8575.got.cif
#   From: 2010.03.12/outbox.cif.g09.slc.cpg/sg38_5_cif.got.tgz:8575.got - 2010.04.14 02:38:36.
