data_PCOD8180463
_publ_section_title
;
Structure prediction by ZEFSAII (Michael W. Deem and Ramdas Pophale) SiO2 
 PCOD8180463
Probable space group: A M M 2
;
_chemical_formula_sum "Si O2"
_cell_formula_units_Z 64
_cell_length_a 14.155217
_cell_length_b 14.067762
_cell_length_c 17.757406
_cell_angle_alpha 90.000000
_cell_angle_beta 90.000000
_cell_angle_gamma 90.000000
_cell_volume 3536.071746
_symmetry_space_group_name_H-M "A M M 2"
_symmetry_group_IT_number 38
_symmetry_cell_setting 'orthorhombic'
loop_
_space_group_symop_operation_xyz
x,y,z
-x,-y,z
-x,y,z
x,-y,z
x,1/2+y,1/2+z
-x,1/2-y,1/2+z
-x,1/2+y,1/2+z
x,1/2-y,1/2+z
loop_
_atom_site_type_symbol
_atom_site_label
_atom_site_fract_x
_atom_site_fract_y
_atom_site_fract_z
Si Si1 0.392733 0.109457 0.996050
Si Si2 0.609085 0.893213 0.372847
Si Si3 0.248589 0.282410 0.778019
Si Si4 0.767467 0.390093 0.379114
Si Si5 0.108096 0.892346 0.374080
Si Si6 0.110169 0.272406 0.487417
Si Si7 0.607141 0.610806 0.044146
Si Si8 0.729158 0.234083 0.103372
O O1 0.500000 0.146129 0.982436
O O2 0.333173 0.125654 0.919936
O O3 0.392566 0.000000 0.019155
O O4 0.345739 0.163139 0.065820
O O5 0.500000 0.894630 0.353207
O O6 0.656305 0.819916 0.316309
O O7 0.626745 0.857154 0.458056
O O8 0.650398 0.000000 0.363485
O O9 0.230972 0.173276 0.803399
O O10 0.163903 0.350898 0.803236
O O11 0.256765 0.291850 0.689439
O O12 0.783588 0.500000 0.357100
O O13 0.852214 0.357017 0.434031
O O14 0.128120 0.829279 0.447917
O O15 0.000000 0.887578 0.349935
O O16 0.139751 0.000000 0.392664
O O17 0.168000 0.271475 0.565034
O O18 0.000000 0.289885 0.504948
O O19 0.500000 0.637987 0.066932
O O20 0.623010 0.500000 0.053678
O O21 0.682974 0.661595 0.097538
#
# Coordination Sequence:
#
# PCOD8180463 Si02
#       8
#     8   8   8   8   8   8   8   8
#     4   9  18  34  54  72  94 130 176 220 254 289
#     4   9  18  33  54  77  99 129 171 214 254 298
#     4  11  22  32  48  76 109 139 163 198 252 311
#     4   9  19  36  55  74  96 130 178 219 249 289
#     4   9  18  35  59  81  98 122 162 210 256 302
#     4   9  19  36  57  78  98 127 170 215 254 296
#     4   9  18  34  55  76  99 133 178 219 252 291
#     4  11  22  32  48  76 109 140 164 199 253 312
#
# _framework density 18.099181000000002
#
# number of rings (size 3 to 8) (size 9 to 14) (size 15 to 20)
#    0.000    2.500    0.000    3.750    0.000    6.250 
#    0.000    1.250    0.000    1.500    0.000    1.750 
#    0.000    0.000    0.000    0.000    0.000    0.000 
#
# Total GULP energy -396791.754365 kJ/mol
# GULP energy per Si atom -12399.742324 kJ/mol
# Density = 1.805799 g / cm^3
# Si number density = 18.099181 Si / 1000 Ang^3
#
#
#
# Elastic Constant Matrix: (Units=GPa)
#
#
# Indices 1 2 3 4 5 6 
#
# 1 111.2265 28.1681 25.6504 0.0000 0.0000 0.0000
# 2 28.1681 84.3344 13.1465 0.0000 0.0000 0.0000
# 3 25.6504 13.1465 60.1781 0.0000 0.0000 0.0000
# 4 0.0000 0.0000 0.0000 16.8959 0.0000 0.0000
# 5 0.0000 0.0000 0.0000 0.0000 12.2603 0.0000
# 6 0.0000 0.0000 0.0000 0.0000 0.0000 27.9381
#
#
#
# Elastic Compliance Matrix: (Units=1/GPa)
#
#
# Indices 1 2 3 4 5 6 
#
# 1 0.010633 -0.002945 -0.003889 0.000000 0.000000 0.000000
# 2 -0.002945 0.013091 -0.001604 0.000000 0.000000 0.000000
# 3 -0.003889 -0.001604 0.018625 0.000000 0.000000 0.000000
# 4 0.000000 0.000000 0.000000 0.059186 0.000000 0.000000
# 5 0.000000 0.000000 0.000000 0.000000 0.081564 0.000000
# 6 0.000000 0.000000 0.000000 0.000000 0.000000 0.035793
#
#
# Mechanical properties :
#
#
# Convention : Reuss Voigt Hill
#
# Bulk Modulus (GPa) = 39.25776 43.29655 41.27715
# Shear Modulus (GPa) = 20.46977 24.00379 22.23678
#
# Velocity S-wave (km/s) = 3.36665 3.64570 3.50895
# Velocity P-wave (km/s) = 6.07041 6.45719 6.26678
#
# Compressibility (1/GPa) = 0.02547267
#
# Stress axis : x y z
#
# Youngs Moduli (GPa) = 94.04305 76.38578 53.68985
#
# Poissons Ratio (x) = 0.22499 0.20880
# Poissons Ratio (y) = 0.27699 0.08615
# Poissons Ratio (z) = 0.36573 0.12256
#
# Static dielectric constant tensor:
#      x y z
#    x 3.457220 0.000000 0.000000 
#    y 0.000000 3.536240 0.000000 
#    z 0.000000 0.000000 2.991340 
# 
# 
# High freq. dielectric constant tensor:
#      x y z
#    x 1.710690 0.000000 0.000000 
#    y 0.000000 1.714020 0.000000 
#    z 0.000000 0.000000 1.665770 
# 
# From -- ./inp_files/18508.got.cif
#   From: 2010.03.12/outbox.cif.g09.slc.cpg/sg38_10_cif.got.tgz:18508.got - 2010.04.14 02:38:36.
