data_PCOD8180607
_publ_section_title
;
Structure prediction by ZEFSAII (Michael W. Deem and Ramdas Pophale) SiO2 
 PCOD8180607
Probable space group: A B M 2
;
_chemical_formula_sum "Si O2"
_cell_formula_units_Z 40
_cell_length_a 17.538262
_cell_length_b 27.538025
_cell_length_c 5.245594
_cell_angle_alpha 90.000000
_cell_angle_beta 90.000000
_cell_angle_gamma 90.000000
_cell_volume 2533.459800
_symmetry_space_group_name_H-M "A B M 2"
_symmetry_group_IT_number 39
_symmetry_cell_setting 'orthorhombic'
loop_
_space_group_symop_operation_xyz
x,y,z
-x,-y,z
-x,1/2+y,z
x,1/2-y,z
x,1/2+y,1/2+z
-x,1/2-y,1/2+z
-x,y,1/2+z
x,-y,1/2+z
loop_
_atom_site_type_symbol
_atom_site_label
_atom_site_fract_x
_atom_site_fract_y
_atom_site_fract_z
Si Si1 0.697282 0.692290 0.257730
Si Si2 0.956923 0.192087 0.255532
Si Si3 0.414916 0.020846 0.295208
Si Si4 0.450962 0.131076 0.286604
Si Si5 0.215009 0.192278 0.757352
O O1 0.690784 0.750000 0.258271
O O2 0.612571 0.671695 0.252309
O O3 0.741252 0.673016 0.507602
O O4 0.742452 0.673361 0.009766
O O5 0.956544 0.250000 0.255749
O O6 0.870888 0.171691 0.255803
O O7 0.000100 0.172291 0.505355
O O8 0.413058 0.078366 0.263513
O O9 0.500000 0.000000 0.329670
O O10 0.372391 0.004280 0.555142
O O11 0.487699 0.138072 0.563702
O O12 0.212765 0.250000 0.755377
#
# Coordination Sequence:
#
# PCOD8180607 Si02
#       5
#     8   8   8   8   8
#     4  10  21  33  43  58  84 121 154 179 217 253
#     4   9  15  23  40  64  81 100 139 183 212 240
#     4  10  16  30  47  65  83  99 124 177 226 282
#     4  12  21  31  48  65  81 108 150 193 218 258
#     4   9  17  31  44  56  84 118 145 177 215 258
#
# _framework density 15.788686
#
# number of rings (size 3 to 8) (size 9 to 14) (size 15 to 20)
#    0.000    2.000    4.000    2.400    0.000    5.600 
#    0.000    0.000    0.000    0.000    0.000    0.000 
#    0.000    0.000    0.000    0.000    0.000   70.000 
#
# Total GULP energy -247962.097651 kJ/mol
# GULP energy per Si atom -12398.104883 kJ/mol
# Density = 1.575275 g / cm^3
# Si number density = 15.788686 Si / 1000 Ang^3
#
#
#
# Elastic Constant Matrix: (Units=GPa)
#
#
# Indices 1 2 3 4 5 6 
#
# 1 75.5783 22.2829 39.4993 0.0000 0.0000 0.0000
# 2 22.2829 26.3936 16.5487 0.0000 0.0000 0.0000
# 3 39.4993 16.5487 142.1631 0.0000 0.0000 0.0000
# 4 0.0000 0.0000 0.0000 12.8590 0.0000 0.0000
# 5 0.0000 0.0000 0.0000 0.0000 15.5930 0.0000
# 6 0.0000 0.0000 0.0000 0.0000 0.0000 0.5603
#
#
#
# Elastic Compliance Matrix: (Units=1/GPa)
#
#
# Indices 1 2 3 4 5 6 
#
# 1 0.019297 -0.013948 -0.003738 0.000000 0.000000 0.000000
# 2 -0.013948 0.050953 -0.002056 0.000000 0.000000 0.000000
# 3 -0.003738 -0.002056 0.008312 0.000000 0.000000 0.000000
# 4 0.000000 0.000000 0.000000 0.077767 0.000000 0.000000
# 5 0.000000 0.000000 0.000000 0.000000 0.064131 0.000000
# 6 0.000000 0.000000 0.000000 0.000000 0.000000 1.784813
#
#
# Mechanical properties :
#
#
# Convention : Reuss Voigt Hill
#
# Bulk Modulus (GPa) = 25.58967 44.53296 35.06132
# Shear Modulus (GPa) = 2.42980 16.85605 9.64293
#
# Velocity S-wave (km/s) = 1.24189 3.27096 2.47402
# Velocity P-wave (km/s) = 4.27775 6.52169 5.51505
#
# Compressibility (1/GPa) = 0.03907827
#
# Stress axis : x y z
#
# Youngs Moduli (GPa) = 51.82088 19.62603 120.30702
#
# Poissons Ratio (x) = 0.27375 0.44971
# Poissons Ratio (y) = 0.72280 0.24733
# Poissons Ratio (z) = 0.19371 0.04035
#
# Static dielectric constant tensor:
#      x y z
#    x 2.878760 0.000000 0.000000 
#    y 0.000000 2.572300 0.000000 
#    z 0.000000 0.000000 3.870520 
# 
# 
# High freq. dielectric constant tensor:
#      x y z
#    x 1.580660 0.000000 0.000000 
#    y 0.000000 1.547750 0.000000 
#    z 0.000000 0.000000 1.641430 
# 
# From -- ./inp_files/341.got.cif
#   From: 2010.03.12/outbox.cif.g09.slc.cpg/sg39_1_cif.got.tgz:341.got - 2010.04.14 02:53:20.
