data_PCOD8180796
_publ_section_title
;
Structure prediction by ZEFSAII (Michael W. Deem and Ramdas Pophale) SiO2 
 PCOD8180796
Probable space group: A B M 2
;
_chemical_formula_sum "Si O2"
_cell_formula_units_Z 56
_cell_length_a 17.711822
_cell_length_b 9.130059
_cell_length_c 19.059801
_cell_angle_alpha 90.000000
_cell_angle_beta 90.000000
_cell_angle_gamma 90.000000
_cell_volume 3082.160036
_symmetry_space_group_name_H-M "A B M 2"
_symmetry_group_IT_number 39
_symmetry_cell_setting 'orthorhombic'
loop_
_space_group_symop_operation_xyz
x,y,z
-x,-y,z
-x,1/2+y,z
x,1/2-y,z
x,1/2+y,1/2+z
-x,1/2-y,1/2+z
-x,y,1/2+z
x,-y,1/2+z
loop_
_atom_site_type_symbol
_atom_site_label
_atom_site_fract_x
_atom_site_fract_y
_atom_site_fract_z
Si Si1 0.566198 0.408802 0.790610
Si Si2 0.735568 0.078516 0.100809
Si Si3 0.205481 0.584081 0.253859
Si Si4 0.712834 0.088239 0.866270
Si Si5 0.799373 0.922444 0.972294
Si Si6 0.580137 0.426084 0.634224
Si Si7 0.077768 0.083038 0.858440
O O1 0.500000 0.500000 0.824572
O O2 0.533699 0.250000 0.772441
O O3 0.624564 0.402088 0.853678
O O4 0.593949 0.471680 0.715552
O O5 0.721271 0.250000 0.085715
O O6 0.783927 0.055843 0.171704
O O7 0.794241 0.009991 0.044825
O O8 0.654212 0.996432 0.096733
O O9 0.230973 0.750000 0.273535
O O10 0.255960 0.464696 0.291895
O O11 0.120287 0.560941 0.283598
O O12 0.745423 0.250000 0.885053
O O13 0.726541 0.971330 0.927364
O O14 0.797816 0.750000 0.986597
O O15 0.871079 0.970888 0.924499
O O16 0.500000 0.500000 0.609119
O O17 0.578741 0.250000 0.620657
O O18 0.057414 0.250000 0.871296
O O19 0.000000 0.000000 0.856556
#
# Coordination Sequence:
#
# PCOD8180796 Si02
#       7
#     8   8   8   8   8   8   8
#     4   9  18  29  46  73 103 135 175 223 271 320
#     4  11  21  35  56  82 111 147 188 232 276 325
#     4   9  19  34  54  80 109 138 173 218 268 320
#     4  10  18  32  52  77 103 134 179 224 266 321
#     4  10  22  38  55  78 110 146 182 223 273 328
#     4  10  19  33  51  77 110 146 186 231 281 328
#     4   9  19  37  59  83 109 140 177 219 270 330
#
# _framework density 18.169077000000001
#
# number of rings (size 3 to 8) (size 9 to 14) (size 15 to 20)
#    0.000    2.286    1.429    2.571    0.000    5.143 
#    0.000    1.429    0.000    5.143    0.000    0.000 
#    0.000    0.000    0.000    0.000    0.000    0.000 
#
# Total GULP energy -346889.915262 kJ/mol
# GULP energy per Si atom -12388.925545 kJ/mol
# Density = 1.812772 g / cm^3
# Si number density = 18.169077 Si / 1000 Ang^3
#
#
#
# Elastic Constant Matrix: (Units=GPa)
#
#
# Indices 1 2 3 4 5 6 
#
# 1 103.7832 53.7297 45.1987 0.0000 0.0000 0.0000
# 2 53.7297 88.0317 40.9774 0.0000 0.0000 0.0000
# 3 45.1987 40.9774 92.7847 0.0000 0.0000 0.0000
# 4 0.0000 0.0000 0.0000 29.1233 0.0000 0.0000
# 5 0.0000 0.0000 0.0000 0.0000 19.5686 0.0000
# 6 0.0000 0.0000 0.0000 0.0000 0.0000 34.1050
#
#
#
# Elastic Compliance Matrix: (Units=1/GPa)
#
#
# Indices 1 2 3 4 5 6 
#
# 1 0.015276 -0.007376 -0.004184 0.000000 0.000000 0.000000
# 2 -0.007376 0.017861 -0.004295 0.000000 0.000000 0.000000
# 3 -0.004184 -0.004295 0.014713 0.000000 0.000000 0.000000
# 4 0.000000 0.000000 0.000000 0.034337 0.000000 0.000000
# 5 0.000000 0.000000 0.000000 0.000000 0.051102 0.000000
# 6 0.000000 0.000000 0.000000 0.000000 0.000000 0.029321
#
#
# Mechanical properties :
#
#
# Convention : Reuss Voigt Hill
#
# Bulk Modulus (GPa) = 61.95942 62.71234 62.33588
# Shear Modulus (GPa) = 25.03753 26.20562 25.62158
#
# Velocity S-wave (km/s) = 3.71621 3.80191 3.75930
# Velocity P-wave (km/s) = 7.25184 7.33918 7.29564
#
# Compressibility (1/GPa) = 0.01613960
#
# Stress axis : x y z
#
# Youngs Moduli (GPa) = 65.46016 55.98853 67.96908
#
# Poissons Ratio (x) = 0.41299 0.28438
# Poissons Ratio (y) = 0.48286 0.29191
# Poissons Ratio (z) = 0.27389 0.24046
#
# Static dielectric constant tensor:
#      x y z
#    x 3.248370 0.000000 0.000000 
#    y 0.000000 3.624240 0.000000 
#    z 0.000000 0.000000 3.286530 
# 
# 
# High freq. dielectric constant tensor:
#      x y z
#    x 1.686680 0.000000 0.000000 
#    y 0.000000 1.718370 0.000000 
#    z 0.000000 0.000000 1.688690 
# 
# From -- ./inp_files/14919.got.cif
#   From: 2010.03.12/outbox.cif.g09.slc.cpg/sg39_8_cif.got.tgz:14919.got - 2010.04.14 02:53:20.
