data_PCOD8180290
_publ_section_title
;
Structure prediction by ZEFSAII (Michael W. Deem and Ramdas Pophale) SiO2 
 PCOD8180290
Probable space group: A M M 2
;
_chemical_formula_sum "Si O2"
_cell_formula_units_Z 64
_cell_length_a 9.452387
_cell_length_b 14.588974
_cell_length_c 24.547234
_cell_angle_alpha 90.000000
_cell_angle_beta 90.000000
_cell_angle_gamma 90.000000
_cell_volume 3385.078989
_symmetry_space_group_name_H-M "A M M 2"
_symmetry_group_IT_number 38
_symmetry_cell_setting 'orthorhombic'
loop_
_space_group_symop_operation_xyz
x,y,z
-x,-y,z
-x,y,z
x,-y,z
x,1/2+y,1/2+z
-x,1/2-y,1/2+z
-x,1/2+y,1/2+z
x,1/2-y,1/2+z
loop_
_atom_site_type_symbol
_atom_site_label
_atom_site_fract_x
_atom_site_fract_y
_atom_site_fract_z
Si Si1 0.167245 0.900216 0.413250
Si Si2 0.665078 0.241124 0.601766
Si Si3 0.336478 0.894575 0.809791
Si Si4 0.159199 0.608671 0.413250
Si Si5 0.665078 0.758876 0.224734
Si Si6 0.663522 0.105425 0.016708
Si Si7 0.161798 0.390985 0.795986
Si Si8 0.161798 0.609014 0.030514
O O1 0.209170 0.851325 0.356139
O O2 0.209170 0.851325 0.470360
O O3 0.000000 0.914002 0.413250
O O4 0.239887 0.000000 0.413250
O O5 0.500000 0.219230 0.600772
O O6 0.721018 0.250000 0.663250
O O7 0.700761 0.334710 0.569709
O O8 0.741136 0.154153 0.575733
O O9 0.500000 0.883722 0.826895
O O10 0.241538 0.857727 0.859614
O O11 0.299239 0.834710 0.756790
O O12 0.301379 0.000000 0.795375
O O13 0.153927 0.500000 0.413250
O O14 0.241538 0.642273 0.466885
O O15 0.000000 0.650225 0.413250
O O16 0.500000 0.780770 0.225728
O O17 0.741136 0.845847 0.250767
O O18 0.500000 0.116279 0.999605
O O19 0.698621 0.000000 0.031125
O O20 0.182111 0.500000 0.794368
O O21 0.000000 0.364399 0.783877
O O22 0.182112 0.500000 0.032132
O O23 0.000000 0.635601 0.042623
#
# Coordination Sequence:
#
# PCOD8180290 Si02
#       8
#     8   8   8   8   8   8   8   8
#     4   7  12  27  51  76 101 129 162 199 245 306
#     4  10  22  37  52  74 103 137 179 220 256 298
#     4   9  18  34  54  74 101 138 174 209 254 308
#     4   9  17  30  51  80 107 129 162 210 261 311
#     4  10  22  37  52  74 103 137 179 220 256 298
#     4   9  18  34  54  74 101 138 174 209 254 308
#     4   9  18  34  56  80 106 137 170 206 254 310
#     4   9  18  34  56  80 106 137 170 206 254 310
#
# _framework density 18.906500999999999
#
# number of rings (size 3 to 8) (size 9 to 14) (size 15 to 20)
#    0.000    3.000    0.000    1.875    0.000    5.500 
#    0.000    5.625    0.000    5.250    0.000    0.000 
#    0.000    0.000    0.000    0.000    0.000    0.000 
#
# Total GULP energy -396605.208672 kJ/mol
# GULP energy per Si atom -12393.912771 kJ/mol
# Density = 1.886347 g / cm^3
# Si number density = 18.906501 Si / 1000 Ang^3
#
#
#
# Elastic Constant Matrix: (Units=GPa)
#
#
# Indices 1 2 3 4 5 6 
#
# 1 66.9970 35.6351 68.9297 0.0000 0.0000 0.0000
# 2 35.6351 63.0019 54.7415 0.0000 0.0000 0.0000
# 3 68.9297 54.7415 190.6550 0.0000 0.0000 0.0000
# 4 0.0000 0.0000 0.0000 15.3171 0.0000 0.0000
# 5 0.0000 0.0000 0.0000 0.0000 14.2993 0.0000
# 6 0.0000 0.0000 0.0000 0.0000 0.0000 24.9499
#
#
#
# Elastic Compliance Matrix: (Units=1/GPa)
#
#
# Indices 1 2 3 4 5 6 
#
# 1 0.027198 -0.009113 -0.007217 0.000000 0.000000 0.000000
# 2 -0.009113 0.024202 -0.003654 0.000000 0.000000 0.000000
# 3 -0.007217 -0.003654 0.008903 0.000000 0.000000 0.000000
# 4 0.000000 0.000000 0.000000 0.065286 0.000000 0.000000
# 5 0.000000 0.000000 0.000000 0.000000 0.069934 0.000000
# 6 0.000000 0.000000 0.000000 0.000000 0.000000 0.040080
#
#
# Mechanical properties :
#
#
# Convention : Reuss Voigt Hill
#
# Bulk Modulus (GPa) = 49.17508 71.02963 60.10236
# Shear Modulus (GPa) = 17.70846 21.66977 19.68912
#
# Velocity S-wave (km/s) = 3.06377 3.38916 3.23056
# Velocity P-wave (km/s) = 6.21141 7.27775 6.76562
#
# Compressibility (1/GPa) = 0.02033550
#
# Stress axis : x y z
#
# Youngs Moduli (GPa) = 36.76717 41.31833 112.31694
#
# Poissons Ratio (x) = 0.37655 0.81055
# Poissons Ratio (y) = 0.33507 0.41043
# Poissons Ratio (z) = 0.26533 0.15098
#
# Static dielectric constant tensor:
#      x y z
#    x 3.347470 0.000000 0.000000 
#    y 0.000000 3.249230 0.000000 
#    z 0.000000 0.000000 3.814700 
# 
# 
# High freq. dielectric constant tensor:
#      x y z
#    x 1.715210 0.000000 0.000000 
#    y 0.000000 1.727280 0.000000 
#    z 0.000000 0.000000 1.738460 
# 
# From -- ./inp_files/22162.got.cif
#   From: 2010.03.12/outbox.cif.g09.slc.cpg/sg38_12_cif.got.tgz:22162.got - 2010.04.14 02:38:36.
