data_PCOD8180386
_publ_section_title
;
Structure prediction by ZEFSAII (Michael W. Deem and Ramdas Pophale) SiO2 
 PCOD8180386
Probable space group: A M M 2
;
_chemical_formula_sum "Si O2"
_cell_formula_units_Z 64
_cell_length_a 9.069523
_cell_length_b 19.566831
_cell_length_c 20.553778
_cell_angle_alpha 90.000000
_cell_angle_beta 90.000000
_cell_angle_gamma 90.000000
_cell_volume 3647.510930
_symmetry_space_group_name_H-M "A M M 2"
_symmetry_group_IT_number 38
_symmetry_cell_setting 'orthorhombic'
loop_
_space_group_symop_operation_xyz
x,y,z
-x,-y,z
-x,y,z
x,-y,z
x,1/2+y,1/2+z
-x,1/2-y,1/2+z
-x,1/2+y,1/2+z
x,1/2-y,1/2+z
loop_
_atom_site_type_symbol
_atom_site_label
_atom_site_fract_x
_atom_site_fract_y
_atom_site_fract_z
Si Si1 0.668705 0.797724 0.151110
Si Si2 0.325414 0.707526 0.271612
Si Si3 0.169174 0.577639 0.460806
Si Si4 0.169456 0.077383 0.808541
Si Si5 0.828180 0.076433 0.200503
Si Si6 0.825486 0.926212 0.346292
Si Si7 0.175097 0.217418 0.392024
Si Si8 0.330087 0.294233 0.505058
O O1 0.500000 0.814596 0.165231
O O2 0.725725 0.743476 0.204528
O O3 0.752919 0.869334 0.153657
O O4 0.690426 0.767430 0.078777
O O5 0.500000 0.709606 0.281581
O O6 0.271692 0.629063 0.267981
O O7 0.247309 0.744370 0.331588
O O8 0.214257 0.500000 0.477269
O O9 0.189330 0.592638 0.384669
O O10 0.275772 0.627555 0.500443
O O11 0.000000 0.590904 0.481093
O O12 0.000000 0.088286 0.788374
O O13 0.219100 0.000000 0.792393
O O14 0.763731 0.084992 0.273451
O O15 0.000000 0.092113 0.199903
O O16 0.795572 0.000000 0.174492
O O17 0.777121 0.862620 0.390941
O O18 0.000000 0.929470 0.341258
O O19 0.767583 0.000000 0.373702
O O20 0.231850 0.246098 0.459943
O O21 0.000000 0.227308 0.387325
O O22 0.500000 0.290640 0.483088
#
# Coordination Sequence:
#
# PCOD8180386 Si02
#       8
#     8   8   8   8   8   8   8   8
#     4  10  23  38  50  71 108 146 177 212 259 306
#     4  11  21  34  54  79 105 137 176 216 257 307
#     4   9  18  33  52  75 105 138 173 214 258 306
#     4   9  18  33  54  80 108 134 165 213 266 310
#     4   9  17  31  52  77 104 137 176 214 254 304
#     4   8  15  29  51  79 106 130 162 208 260 308
#     4  11  20  33  56  81 104 134 172 218 265 307
#     4  11  23  37  51  72 106 145 179 215 255 306
#
# _framework density 17.546211
#
# number of rings (size 3 to 8) (size 9 to 14) (size 15 to 20)
#    0.000    2.250    2.500    2.625    0.000    2.750 
#    0.000    3.750    0.000    2.250    0.000    3.500 
#    0.000    0.000    0.000    0.000    0.000    0.000 
#
# Total GULP energy -396721.082178 kJ/mol
# GULP energy per Si atom -12397.533818 kJ/mol
# Density = 1.750628 g / cm^3
# Si number density = 17.546211 Si / 1000 Ang^3
#
#
#
# Elastic Constant Matrix: (Units=GPa)
#
#
# Indices 1 2 3 4 5 6 
#
# 1 66.5581 46.9050 37.0565 0.0000 0.0000 0.0000
# 2 46.9050 122.0487 53.1747 0.0000 0.0000 0.0000
# 3 37.0565 53.1747 83.2978 0.0000 0.0000 0.0000
# 4 0.0000 0.0000 0.0000 23.3320 0.0000 0.0000
# 5 0.0000 0.0000 0.0000 0.0000 19.4411 0.0000
# 6 0.0000 0.0000 0.0000 0.0000 0.0000 17.7982
#
#
#
# Elastic Compliance Matrix: (Units=1/GPa)
#
#
# Indices 1 2 3 4 5 6 
#
# 1 0.022760 -0.006006 -0.006291 0.000000 0.000000 0.000000
# 2 -0.006006 0.012935 -0.005586 0.000000 0.000000 0.000000
# 3 -0.006291 -0.005586 0.018369 0.000000 0.000000 0.000000
# 4 0.000000 0.000000 0.000000 0.042860 0.000000 0.000000
# 5 0.000000 0.000000 0.000000 0.000000 0.051437 0.000000
# 6 0.000000 0.000000 0.000000 0.000000 0.000000 0.056185
#
#
# Mechanical properties :
#
#
# Convention : Reuss Voigt Hill
#
# Bulk Modulus (GPa) = 54.64729 60.68634 57.66682
# Shear Modulus (GPa) = 20.29130 21.09883 20.69506
#
# Velocity S-wave (km/s) = 3.40435 3.47143 3.43805
# Velocity P-wave (km/s) = 6.83119 7.12246 6.97835
#
# Compressibility (1/GPa) = 0.01829917
#
# Stress axis : x y z
#
# Youngs Moduli (GPa) = 43.93767 77.30880 54.43833
#
# Poissons Ratio (x) = 0.46431 0.34247
# Poissons Ratio (y) = 0.26389 0.30407
# Poissons Ratio (z) = 0.27641 0.43181
#
# Static dielectric constant tensor:
#      x y z
#    x 3.139490 0.000000 0.000000 
#    y 0.000000 3.615350 0.000000 
#    z 0.000000 0.000000 3.096640 
# 
# 
# High freq. dielectric constant tensor:
#      x y z
#    x 1.669070 0.000000 0.000000 
#    y 0.000000 1.685090 0.000000 
#    z 0.000000 0.000000 1.652620 
# 
# From -- ./inp_files/17194.got.cif
#   From: 2010.03.12/outbox.cif.g09.slc.cpg/sg38_9_cif.got.tgz:17194.got - 2010.04.14 02:38:36.
