data_PCOD8180978
_publ_section_title
;
Structure prediction by ZEFSAII (Michael W. Deem and Ramdas Pophale) SiO2 
 PCOD8180978
Probable space group: A B M 2
;
_chemical_formula_sum "Si O2"
_cell_formula_units_Z 40
_cell_length_a 9.997999
_cell_length_b 9.023250
_cell_length_c 25.458991
_cell_angle_alpha 90.000000
_cell_angle_beta 90.000000
_cell_angle_gamma 90.000000
_cell_volume 2296.768730
_symmetry_space_group_name_H-M "A B M 2"
_symmetry_group_IT_number 39
_symmetry_cell_setting 'orthorhombic'
loop_
_space_group_symop_operation_xyz
x,y,z
-x,-y,z
-x,1/2+y,z
x,1/2-y,z
x,1/2+y,1/2+z
-x,1/2-y,1/2+z
-x,y,1/2+z
x,-y,1/2+z
loop_
_atom_site_type_symbol
_atom_site_label
_atom_site_fract_x
_atom_site_fract_y
_atom_site_fract_z
Si Si1 0.861901 0.575887 0.793250
Si Si2 0.362284 0.419676 0.479242
Si Si3 0.645249 0.925304 0.365318
Si Si4 0.357164 0.075860 0.592956
Si Si5 0.135211 0.422448 0.671807
O O1 0.870280 0.750000 0.805512
O O2 0.740804 0.502050 0.823830
O O3 0.832984 0.543588 0.732302
O O4 0.000000 0.500000 0.811013
O O5 0.500000 0.500000 0.477884
O O6 0.401136 0.250000 0.480165
O O7 0.288738 0.454827 0.423727
O O8 0.291364 0.460136 0.534923
O O9 0.633263 0.750000 0.353604
O O10 0.500000 0.000000 0.360567
O O11 0.378905 0.250000 0.600757
O O12 0.256128 0.013150 0.636729
O O13 0.500000 0.000000 0.600540
O O14 0.115738 0.250000 0.661292
O O15 0.000000 0.500000 0.653288
#
# Coordination Sequence:
#
# PCOD8180978 Si02
#       5
#     8   8   8   8   8
#     4  10  20  35  52  71  96 129 165 202 244 291
#     4   8  15  28  47  69  96 126 156 191 235 281
#     4  10  19  32  51  75 100 129 163 201 241 285
#     4   9  17  31  50  73  98 124 156 196 236 280
#     4   9  19  34  51  70  95 126 160 196 238 285
#
# _framework density 17.415772
#
# number of rings (size 3 to 8) (size 9 to 14) (size 15 to 20)
#    0.000    2.800    0.000    1.200    0.000    3.200 
#    0.000    3.000    0.000    2.400    0.000    0.000 
#    0.000    0.000    0.000    0.000    0.000    0.000 
#
# Total GULP energy -247766.755195 kJ/mol
# GULP energy per Si atom -12388.337760 kJ/mol
# Density = 1.737613 g / cm^3
# Si number density = 17.415772 Si / 1000 Ang^3
#
#
#
# Elastic Constant Matrix: (Units=GPa)
#
#
# Indices 1 2 3 4 5 6 
#
# 1 112.4570 47.6799 82.2934 0.0000 0.0000 0.0000
# 2 47.6799 64.5328 50.1818 0.0000 0.0000 0.0000
# 3 82.2934 50.1818 119.3497 0.0000 0.0000 0.0000
# 4 0.0000 0.0000 0.0000 26.5616 0.0000 0.0000
# 5 0.0000 0.0000 0.0000 0.0000 5.2463 0.0000
# 6 0.0000 0.0000 0.0000 0.0000 0.0000 30.3592
#
#
#
# Elastic Compliance Matrix: (Units=1/GPa)
#
#
# Indices 1 2 3 4 5 6 
#
# 1 0.019314 -0.005816 -0.010872 0.000000 0.000000 0.000000
# 2 -0.005816 0.024775 -0.006407 0.000000 0.000000 0.000000
# 3 -0.010872 -0.006407 0.018569 0.000000 0.000000 0.000000
# 4 0.000000 0.000000 0.000000 0.037648 0.000000 0.000000
# 5 0.000000 0.000000 0.000000 0.000000 0.190610 0.000000
# 6 0.000000 0.000000 0.000000 0.000000 0.000000 0.032939
#
#
# Mechanical properties :
#
#
# Convention : Reuss Voigt Hill
#
# Bulk Modulus (GPa) = 60.72111 72.96108 66.84109
# Shear Modulus (GPa) = 13.31438 20.17904 16.74671
#
# Velocity S-wave (km/s) = 2.76796 3.40761 3.10430
# Velocity P-wave (km/s) = 6.71988 7.58070 7.16323
#
# Compressibility (1/GPa) = 0.01646874
#
# Stress axis : x y z
#
# Youngs Moduli (GPa) = 51.77613 40.36308 53.85358
#
# Poissons Ratio (x) = 0.23475 0.58549
# Poissons Ratio (y) = 0.30112 0.34503
# Poissons Ratio (z) = 0.56290 0.25860
#
# Static dielectric constant tensor:
#      x y z
#    x 3.015470 0.000000 0.000000 
#    y 0.000000 3.252440 0.000000 
#    z 0.000000 0.000000 4.003580 
# 
# 
# High freq. dielectric constant tensor:
#      x y z
#    x 1.642760 0.000000 0.000000 
#    y 0.000000 1.679630 0.000000 
#    z 0.000000 0.000000 1.691280 
# 
# From -- ./inp_files/13880.got.cif
#   From: 2010.03.12/outbox.cif.g09.slc.cpg/sg39_7_cif.got.tgz:13880.got - 2010.04.14 02:53:20.
