data_PCOD8180726
_publ_section_title
;
Structure prediction by ZEFSAII (Michael W. Deem and Ramdas Pophale) SiO2 
 PCOD8180726
Probable space group: A B M 2
;
_chemical_formula_sum "Si O2"
_cell_formula_units_Z 28
_cell_length_a 7.172651
_cell_length_b 5.371963
_cell_length_c 30.596837
_cell_angle_alpha 90.000000
_cell_angle_beta 90.000000
_cell_angle_gamma 90.000000
_cell_volume 1178.933329
_symmetry_space_group_name_H-M "A B M 2"
_symmetry_group_IT_number 39
_symmetry_cell_setting 'orthorhombic'
loop_
_space_group_symop_operation_xyz
x,y,z
-x,-y,z
-x,1/2+y,z
x,1/2-y,z
x,1/2+y,1/2+z
-x,1/2-y,1/2+z
-x,y,1/2+z
x,-y,1/2+z
loop_
_atom_site_type_symbol
_atom_site_label
_atom_site_fract_x
_atom_site_fract_y
_atom_site_fract_z
Si Si1 0.211856 0.750000 0.373461
Si Si2 0.208791 0.250000 0.337288
Si Si3 0.723083 0.750000 0.235832
Si Si4 0.880918 0.750000 0.970827
Si Si5 0.695801 0.250000 0.098592
Si Si6 0.713821 0.250000 0.562527
Si Si7 0.309942 0.750000 0.200521
O O1 0.311248 0.500328 0.354795
O O2 0.230899 0.750000 0.425571
O O3 0.999233 0.750000 0.356615
O O4 0.212544 0.250000 0.285430
O O5 0.500139 0.750000 0.228669
O O6 0.805469 0.498944 0.213290
O O7 0.000000 0.500000 0.973687
O O8 0.736492 0.750000 0.010564
O O9 0.806632 0.501165 0.084367
O O10 0.504611 0.250000 0.071870
O O11 0.645655 0.250000 0.149457
#
# Coordination Sequence:
#
# PCOD8180726 Si02
#       7
#     4   4   4   4   4   4   4
#     4  10  19  35  52  76  98 139 183 216 259 325
#     4  10  18  32  53  76 102 132 179 222 260 306
#     4  10  18  29  51  84 105 132 175 225 261 311
#     4  12  21  37  57  87 108 145 200 222 277 326
#     4  10  19  38  57  87 109 149 188 216 293 326
#     4  10  20  32  59  85 111 141 189 237 261 339
#     4  10  19  33  55  83 105 140 182 214 267 337
#
# _framework density 23.750283
#
# number of rings (size 3 to 8) (size 9 to 14) (size 15 to 20)
#    0.000    1.714    2.857    6.000    0.000    0.000 
#    0.000    0.000    0.000   20.571  126.286    0.000 
#    0.000    0.000    0.000    0.000    0.000    0.000 
#
# Total GULP energy -173479.694196 kJ/mol
# GULP energy per Si atom -12391.406728 kJ/mol
# Density = 2.369623 g / cm^3
# Si number density = 23.750283 Si / 1000 Ang^3
#
#
#
# Elastic Constant Matrix: (Units=GPa)
#
#
# Indices 1 2 3 4 5 6 
#
# 1 22.2594 -2.0683 21.2135 0.0000 0.0000 0.0000
# 2 -2.0683 317.0486 83.2150 0.0000 0.0000 0.0000
# 3 21.2135 83.2150 210.6641 0.0000 0.0000 0.0000
# 4 0.0000 0.0000 0.0000 51.3571 0.0000 0.0000
# 5 0.0000 0.0000 0.0000 0.0000 20.6732 0.0000
# 6 0.0000 0.0000 0.0000 0.0000 0.0000 -7.7899
#
#
#
# Elastic Compliance Matrix: (Units=1/GPa)
#
#
# Indices 1 2 3 4 5 6 
#
# 1 0.050661 0.001863 -0.005837 0.000000 0.000000 0.000000
# 2 0.001863 0.003587 -0.001605 0.000000 0.000000 0.000000
# 3 -0.005837 -0.001605 0.005969 0.000000 0.000000 0.000000
# 4 0.000000 0.000000 0.000000 0.019472 0.000000 0.000000
# 5 0.000000 0.000000 0.000000 0.000000 0.048372 0.000000
# 6 0.000000 0.000000 0.000000 0.000000 0.000000 -0.128371
#
#
# Mechanical properties :
#
#
# Convention : Reuss Voigt Hill
#
# Bulk Modulus (GPa) = 20.38396 83.85472 52.11934
# Shear Modulus (GPa) = 183.82265 42.68887 113.25576
#
# Velocity S-wave (km/s) = 8.80716 4.24418 6.91300
# Velocity P-wave (km/s) = 10.58408 7.70720 9.25807
#
# Compressibility (1/GPa) = 0.04905819
#
# Stress axis : x y z
#
# Youngs Moduli (GPa) = 19.73916 278.75310 167.54537
#
# Poissons Ratio (x) = -0.51920 0.97799
# Poissons Ratio (y) = -0.03677 0.26885
# Poissons Ratio (z) = 0.11522 0.44729
#
# Static dielectric constant tensor:
#      x y z
#    x 3.403510 0.000000 0.000000 
#    y 0.000000 8.889410 0.000000 
#    z 0.000000 0.000000 4.237920 
# 
# 
# High freq. dielectric constant tensor:
#      x y z
#    x 1.877070 0.000000 0.000000 
#    y 0.000000 1.996390 0.000000 
#    z 0.000000 0.000000 1.944860 
# 
# From -- ./inp_files/15417.got.cif
#   From: 2010.03.12/outbox.cif.g09.slc.cpg/sg39_8_cif.got.tgz:15417.got - 2010.04.14 02:53:20.
