data_PCOD8180378
_publ_section_title
;
Structure prediction by ZEFSAII (Michael W. Deem and Ramdas Pophale) SiO2 
 PCOD8180378
Probable space group: A M M 2
;
_chemical_formula_sum "Si O2"
_cell_formula_units_Z 56
_cell_length_a 19.979345
_cell_length_b 14.845389
_cell_length_c 9.325216
_cell_angle_alpha 90.000000
_cell_angle_beta 90.000000
_cell_angle_gamma 90.000000
_cell_volume 2765.869776
_symmetry_space_group_name_H-M "A M M 2"
_symmetry_group_IT_number 38
_symmetry_cell_setting 'orthorhombic'
loop_
_space_group_symop_operation_xyz
x,y,z
-x,-y,z
-x,y,z
x,-y,z
x,1/2+y,1/2+z
-x,1/2-y,1/2+z
-x,1/2+y,1/2+z
x,1/2-y,1/2+z
loop_
_atom_site_type_symbol
_atom_site_label
_atom_site_fract_x
_atom_site_fract_y
_atom_site_fract_z
Si Si1 0.424447 0.101129 0.313570
Si Si2 0.130550 0.105515 0.731844
Si Si3 0.869776 0.105163 0.067702
Si Si4 0.000000 0.106619 0.238427
Si Si5 0.424919 0.104312 0.979379
Si Si6 0.234017 0.252853 0.121886
Si Si7 0.000000 0.393084 0.062480
Si Si8 0.327964 0.751053 0.371641
O O1 0.500000 0.112491 0.369572
O O2 0.377596 0.166508 0.405453
O O3 0.399144 0.000000 0.339783
O O4 0.420427 0.126229 0.146908
O O5 0.193594 0.159009 0.669796
O O6 0.065298 0.140955 0.647295
O O7 0.143536 0.000000 0.704345
O O8 0.119978 0.125026 0.899725
O O9 0.808950 0.161609 0.134083
O O10 0.935291 0.139527 0.151464
O O11 0.854981 0.000000 0.095387
O O12 0.000000 0.146207 0.400359
O O13 0.000000 0.000000 0.245521
O O14 0.500000 0.128999 0.924646
O O15 0.368056 0.158639 0.895367
O O16 0.410122 0.000000 0.949908
O O17 0.303011 0.244585 0.208802
O O18 0.259164 0.261693 0.959429
O O19 0.000000 0.500000 0.059897
#
# Coordination Sequence:
#
# PCOD8180378 Si02
#       8
#     8   8   8   4   8   8   4   8
#     4   9  19  38  64  91 118 154 200 246 295 352
#     4  10  22  42  63  85 119 159 200 249 301 353
#     4  10  22  42  64  85 117 160 204 246 294 359
#     4   9  19  36  63  94 116 148 200 254 303 349
#     4   9  19  38  65  91 116 155 203 245 291 353
#     4  12  26  39  58  89 124 161 202 242 292 361
#     4   9  19  36  63  94 118 148 196 256 309 343
#     4  12  23  40  59  88 125 159 197 243 298 352
#
# _framework density 20.246794999999999
#
# number of rings (size 3 to 8) (size 9 to 14) (size 15 to 20)
#    0.000    1.857    2.857    1.714    2.000    4.571 
#    0.000    0.000    0.000    1.714    0.000    0.000 
#    0.000    0.000    0.000    0.000    0.000    0.000 
#
# Total GULP energy -347246.404231 kJ/mol
# GULP energy per Si atom -12401.657294 kJ/mol
# Density = 2.020071 g / cm^3
# Si number density = 20.246795 Si / 1000 Ang^3
#
#
#
# Elastic Constant Matrix: (Units=GPa)
#
#
# Indices 1 2 3 4 5 6 
#
# 1 127.5962 63.6235 41.8580 0.0000 0.0000 0.0000
# 2 63.6235 92.5770 36.0213 0.0000 0.0000 0.0000
# 3 41.8580 36.0213 68.8018 0.0000 0.0000 0.0000
# 4 0.0000 0.0000 0.0000 26.5378 0.0000 0.0000
# 5 0.0000 0.0000 0.0000 0.0000 36.9931 0.0000
# 6 0.0000 0.0000 0.0000 0.0000 0.0000 36.3830
#
#
#
# Elastic Compliance Matrix: (Units=1/GPa)
#
#
# Indices 1 2 3 4 5 6 
#
# 1 0.012734 -0.007205 -0.003975 0.000000 0.000000 0.000000
# 2 -0.007205 0.017641 -0.004853 0.000000 0.000000 0.000000
# 3 -0.003975 -0.004853 0.019494 0.000000 0.000000 0.000000
# 4 0.000000 0.000000 0.000000 0.037682 0.000000 0.000000
# 5 0.000000 0.000000 0.000000 0.000000 0.027032 0.000000
# 6 0.000000 0.000000 0.000000 0.000000 0.000000 0.027485
#
#
# Mechanical properties :
#
#
# Convention : Reuss Voigt Hill
#
# Bulk Modulus (GPa) = 56.16866 63.55340 59.86103
# Shear Modulus (GPa) = 27.76729 29.81426 28.79077
#
# Velocity S-wave (km/s) = 3.70731 3.84153 3.77502
# Velocity P-wave (km/s) = 6.79175 7.15081 6.97359
#
# Compressibility (1/GPa) = 0.01780352
#
# Stress axis : x y z
#
# Youngs Moduli (GPa) = 78.53215 56.68470 51.29866
#
# Poissons Ratio (x) = 0.40839 0.20391
# Poissons Ratio (y) = 0.56579 0.24896
# Poissons Ratio (z) = 0.31217 0.27510
#
# Static dielectric constant tensor:
#      x y z
#    x 3.708560 0.000000 0.000000 
#    y 0.000000 3.537850 0.000000 
#    z 0.000000 0.000000 3.614960 
# 
# 
# High freq. dielectric constant tensor:
#      x y z
#    x 1.799680 0.000000 0.000000 
#    y 0.000000 1.788430 0.000000 
#    z 0.000000 0.000000 1.782440 
# 
# From -- ./inp_files/6762.got.cif
#   From: 2010.03.12/outbox.cif.g09.slc.cpg/sg38_4_cif.got.tgz:6762.got - 2010.04.14 02:38:36.
