data_PCOD8180898
_publ_section_title
;
Structure prediction by ZEFSAII (Michael W. Deem and Ramdas Pophale) SiO2 
 PCOD8180898
Probable space group: A B M 2
;
_chemical_formula_sum "Si O2"
_cell_formula_units_Z 56
_cell_length_a 15.486802
_cell_length_b 9.104610
_cell_length_c 20.182527
_cell_angle_alpha 90.000000
_cell_angle_beta 90.000000
_cell_angle_gamma 90.000000
_cell_volume 2845.762390
_symmetry_space_group_name_H-M "A B M 2"
_symmetry_group_IT_number 39
_symmetry_cell_setting 'orthorhombic'
loop_
_space_group_symop_operation_xyz
x,y,z
-x,-y,z
-x,1/2+y,z
x,1/2-y,z
x,1/2+y,1/2+z
-x,1/2-y,1/2+z
-x,y,1/2+z
x,-y,1/2+z
loop_
_atom_site_type_symbol
_atom_site_label
_atom_site_fract_x
_atom_site_fract_y
_atom_site_fract_z
Si Si1 0.229952 0.920581 0.586050
Si Si2 0.415545 0.581621 0.625795
Si Si3 0.911376 0.925382 0.189704
Si Si4 0.644397 0.914466 0.268991
Si Si5 0.583111 0.916705 0.411930
Si Si6 0.813327 0.921651 0.799274
Si Si7 0.245856 0.418879 0.940364
O O1 0.237880 0.750000 0.603090
O O2 0.326227 0.987334 0.596671
O O3 0.160116 0.984997 0.637335
O O4 0.197520 0.947207 0.510419
O O5 0.500000 0.500000 0.597171
O O6 0.424727 0.750000 0.604336
O O7 0.414328 0.560885 0.705001
O O8 0.920899 0.750000 0.190282
O O9 0.886988 0.983720 0.263015
O O10 0.000000 0.000000 0.167156
O O11 0.686052 0.750000 0.267433
O O12 0.583537 0.931955 0.332476
O O13 0.720472 0.033647 0.270217
O O14 0.577270 0.750000 0.435487
O O15 0.500000 0.000000 0.440457
O O16 0.668905 0.984296 0.442456
O O17 0.829529 0.750000 0.786142
O O18 0.815840 0.959454 0.878242
O O19 0.275141 0.250000 0.933610
#
# Coordination Sequence:
#
# PCOD8180898 Si02
#       7
#     8   8   8   8   8   8   8
#     4   9  19  38  60  80 113 155 189 230 283 335
#     4  10  19  32  50  76 108 149 192 233 282 327
#     4  11  22  40  65  90 116 146 184 230 283 341
#     4   9  17  31  50  73 106 146 188 235 286 331
#     4  10  19  30  47  73 107 147 193 241 286 333
#     4  10  19  33  57  87 114 142 181 229 280 335
#     4   9  19  36  57  79 108 149 191 228 278 338
#
# _framework density 19.678381999999999
#
# number of rings (size 3 to 8) (size 9 to 14) (size 15 to 20)
#    0.000    2.286    1.429    1.714    0.000    2.286 
#    0.000    4.286    0.000    1.714    0.000    0.000 
#    0.000    0.000    0.000    0.000    0.000    0.000 
#
# Total GULP energy -347123.793890 kJ/mol
# GULP energy per Si atom -12397.278353 kJ/mol
# Density = 1.963359 g / cm^3
# Si number density = 19.678382 Si / 1000 Ang^3
#
#
#
# Elastic Constant Matrix: (Units=GPa)
#
#
# Indices 1 2 3 4 5 6 
#
# 1 114.8397 43.5041 49.3298 0.0000 0.0000 0.0000
# 2 43.5041 78.5617 34.9367 0.0000 0.0000 0.0000
# 3 49.3298 34.9367 103.7075 0.0000 0.0000 0.0000
# 4 0.0000 0.0000 0.0000 20.5118 0.0000 0.0000
# 5 0.0000 0.0000 0.0000 0.0000 11.3547 0.0000
# 6 0.0000 0.0000 0.0000 0.0000 0.0000 32.9622
#
#
#
# Elastic Compliance Matrix: (Units=1/GPa)
#
#
# Indices 1 2 3 4 5 6 
#
# 1 0.012414 -0.004997 -0.004222 0.000000 0.000000 0.000000
# 2 -0.004997 0.016983 -0.003344 0.000000 0.000000 0.000000
# 3 -0.004222 -0.003344 0.012777 0.000000 0.000000 0.000000
# 4 0.000000 0.000000 0.000000 0.048752 0.000000 0.000000
# 5 0.000000 0.000000 0.000000 0.000000 0.088069 0.000000
# 6 0.000000 0.000000 0.000000 0.000000 0.000000 0.030338
#
#
# Mechanical properties :
#
#
# Convention : Reuss Voigt Hill
#
# Bulk Modulus (GPa) = 58.65574 61.40556 60.03065
# Shear Modulus (GPa) = 20.82095 24.25496 22.53795
#
# Velocity S-wave (km/s) = 3.25632 3.51460 3.38792
# Velocity P-wave (km/s) = 6.63400 6.90958 6.77319
#
# Compressibility (1/GPa) = 0.01704863
#
# Stress axis : x y z
#
# Youngs Moduli (GPa) = 80.55287 58.88145 78.26452
#
# Poissons Ratio (x) = 0.29424 0.33040
# Poissons Ratio (y) = 0.40253 0.26174
# Poissons Ratio (z) = 0.34006 0.19692
#
# Static dielectric constant tensor:
#      x y z
#    x 3.339400 0.000000 0.000000 
#    y 0.000000 3.473350 0.000000 
#    z 0.000000 0.000000 3.705040 
# 
# 
# High freq. dielectric constant tensor:
#      x y z
#    x 1.739550 0.000000 0.000000 
#    y 0.000000 1.753200 0.000000 
#    z 0.000000 0.000000 1.773830 
# 
# From -- ./inp_files/14768.got.cif
#   From: 2010.03.12/outbox.cif.g09.slc.cpg/sg39_8_cif.got.tgz:14768.got - 2010.04.14 02:53:20.
