data_PCOD8180312
_publ_section_title
;
Structure prediction by ZEFSAII (Michael W. Deem and Ramdas Pophale) SiO2 
 PCOD8180312
Probable space group: A M M 2
;
_chemical_formula_sum "Si O2"
_cell_formula_units_Z 64
_cell_length_a 9.044905
_cell_length_b 33.104988
_cell_length_c 11.665303
_cell_angle_alpha 90.000000
_cell_angle_beta 90.000000
_cell_angle_gamma 90.000000
_cell_volume 3492.958843
_symmetry_space_group_name_H-M "A M M 2"
_symmetry_group_IT_number 38
_symmetry_cell_setting 'orthorhombic'
loop_
_space_group_symop_operation_xyz
x,y,z
-x,-y,z
-x,y,z
x,-y,z
x,1/2+y,1/2+z
-x,1/2-y,1/2+z
-x,1/2+y,1/2+z
x,1/2-y,1/2+z
loop_
_atom_site_type_symbol
_atom_site_label
_atom_site_fract_x
_atom_site_fract_y
_atom_site_fract_z
Si Si1 0.326272 0.327001 0.070240
Si Si2 0.173661 0.456133 0.952963
Si Si3 0.831012 0.819721 0.972819
Si Si4 0.825695 0.546297 0.212946
Si Si5 0.330246 0.314277 0.708957
Si Si6 0.334866 0.114563 0.366794
Si Si7 0.169618 0.729631 0.913420
Si Si8 0.675516 0.874943 0.796218
O O1 0.500000 0.316974 0.069510
O O2 0.275007 0.346074 0.190734
O O3 0.280706 0.358512 0.972545
O O4 0.237128 0.286277 0.035479
O O5 0.233272 0.500000 0.916270
O O6 0.226454 0.446532 0.082200
O O7 0.000000 0.455411 0.949954
O O8 0.233421 0.424739 0.860016
O O9 0.820774 0.777813 0.904765
O O10 0.736934 0.854471 0.911080
O O11 0.000000 0.834388 0.983006
O O12 0.767014 0.810736 0.097191
O O13 0.786095 0.500000 0.250370
O O14 0.740222 0.579666 0.288112
O O15 0.000000 0.553396 0.226729
O O16 0.500000 0.301383 0.686047
O O17 0.322586 0.360832 0.749230
O O18 0.265771 0.285666 0.807192
O O19 0.500000 0.099607 0.390220
O O20 0.000000 0.714866 0.903836
O O21 0.500000 0.878359 0.803022
#
# Coordination Sequence:
#
# PCOD8180312 Si02
#       8
#     8   8   8   8   8   8   8   8
#     4   9  19  34  52  79 111 143 182 222 268 330
#     4   9  17  28  46  77 112 143 176 214 263 324
#     4  11  25  41  57  81 111 145 189 234 279 333
#     4   9  18  33  53  80 116 153 187 229 283 338
#     4  10  22  40  59  79 107 142 184 228 275 331
#     4   9  17  32  52  76 105 138 175 218 265 316
#     4  10  22  38  58  82 109 142 182 230 279 329
#     4  11  22  36  56  84 115 150 190 232 284 339
#
# _framework density 18.322575000000001
#
# number of rings (size 3 to 8) (size 9 to 14) (size 15 to 20)
#    0.000    2.250    1.250    3.000    1.750    6.000 
#    0.000    1.250    0.000    0.750    0.000    3.500 
#    0.000    0.000    0.000    0.000    0.000    0.000 
#
# Total GULP energy -396740.734395 kJ/mol
# GULP energy per Si atom -12398.147950 kJ/mol
# Density = 1.828087 g / cm^3
# Si number density = 18.322575 Si / 1000 Ang^3
#
#
#
# Elastic Constant Matrix: (Units=GPa)
#
#
# Indices 1 2 3 4 5 6 
#
# 1 77.8417 45.0300 25.9596 0.0000 0.0000 0.0000
# 2 45.0300 96.7999 24.2839 0.0000 0.0000 0.0000
# 3 25.9596 24.2839 64.4034 0.0000 0.0000 0.0000
# 4 0.0000 0.0000 0.0000 23.4767 0.0000 0.0000
# 5 0.0000 0.0000 0.0000 0.0000 27.8797 0.0000
# 6 0.0000 0.0000 0.0000 0.0000 0.0000 19.9253
#
#
#
# Elastic Compliance Matrix: (Units=1/GPa)
#
#
# Indices 1 2 3 4 5 6 
#
# 1 0.018794 -0.007557 -0.004726 0.000000 0.000000 0.000000
# 2 -0.007557 0.014449 -0.002402 0.000000 0.000000 0.000000
# 3 -0.004726 -0.002402 0.018338 0.000000 0.000000 0.000000
# 4 0.000000 0.000000 0.000000 0.042595 0.000000 0.000000
# 5 0.000000 0.000000 0.000000 0.000000 0.035868 0.000000
# 6 0.000000 0.000000 0.000000 0.000000 0.000000 0.050187
#
#
# Mechanical properties :
#
#
# Convention : Reuss Voigt Hill
#
# Bulk Modulus (GPa) = 45.02384 47.73244 46.37814
# Shear Modulus (GPa) = 23.04083 23.84111 23.44097
#
# Velocity S-wave (km/s) = 3.54999 3.61111 3.58068
# Velocity P-wave (km/s) = 6.43657 6.59504 6.51629
#
# Compressibility (1/GPa) = 0.02221046
#
# Stress axis : x y z
#
# Youngs Moduli (GPa) = 53.20715 69.21046 54.53231
#
# Poissons Ratio (x) = 0.52304 0.25772
# Poissons Ratio (y) = 0.40210 0.13098
# Poissons Ratio (z) = 0.25146 0.16623
#
# Static dielectric constant tensor:
#      x y z
#    x 3.365760 0.000000 0.000000 
#    y 0.000000 3.532470 0.000000 
#    z 0.000000 0.000000 3.182710 
# 
# 
# High freq. dielectric constant tensor:
#      x y z
#    x 1.715710 0.000000 0.000000 
#    y 0.000000 1.711680 0.000000 
#    z 0.000000 0.000000 1.681760 
# 
# From -- ./inp_files/8615.got.cif
#   From: 2010.03.12/outbox.cif.g09.slc.cpg/sg38_5_cif.got.tgz:8615.got - 2010.04.14 02:38:36.
