data_PCOD8180934
_publ_section_title
;
Structure prediction by ZEFSAII (Michael W. Deem and Ramdas Pophale) SiO2 
 PCOD8180934
Probable space group: A B M 2
;
_chemical_formula_sum "Si O2"
_cell_formula_units_Z 56
_cell_length_a 15.259123
_cell_length_b 8.841805
_cell_length_c 20.032203
_cell_angle_alpha 90.000000
_cell_angle_beta 90.000000
_cell_angle_gamma 90.000000
_cell_volume 2702.708571
_symmetry_space_group_name_H-M "A B M 2"
_symmetry_group_IT_number 39
_symmetry_cell_setting 'orthorhombic'
loop_
_space_group_symop_operation_xyz
x,y,z
-x,-y,z
-x,1/2+y,z
x,1/2-y,z
x,1/2+y,1/2+z
-x,1/2-y,1/2+z
-x,y,1/2+z
x,-y,1/2+z
loop_
_atom_site_type_symbol
_atom_site_label
_atom_site_fract_x
_atom_site_fract_y
_atom_site_fract_z
Si Si1 0.910746 0.071121 0.444100
Si Si2 0.827192 0.930205 0.321104
Si Si3 0.229447 0.574907 0.192915
Si Si4 0.586840 0.924639 0.216257
Si Si5 0.222456 0.076232 0.543427
Si Si6 0.362136 0.923350 0.861128
Si Si7 0.413674 0.573168 0.002109
O O1 0.918852 0.250000 0.439948
O O2 0.898878 0.003520 0.369588
O O3 0.831782 0.027861 0.493304
O O4 0.000000 0.000000 0.473392
O O5 0.836590 0.750000 0.320645
O O6 0.733682 0.992281 0.347106
O O7 0.834998 0.989658 0.244772
O O8 0.236140 0.750000 0.212721
O O9 0.326900 0.507311 0.190789
O O10 0.188602 0.554124 0.119055
O O11 0.592321 0.750000 0.195192
O O12 0.577740 0.943028 0.296323
O O13 0.500000 0.000000 0.184371
O O14 0.211578 0.250000 0.519819
O O15 0.325219 0.030158 0.541615
O O16 0.345041 0.750000 0.878909
O O17 0.405342 0.996791 0.926771
O O18 0.500000 0.500000 0.035962
O O19 0.430136 0.750000 0.002384
#
# Coordination Sequence:
#
# PCOD8180934 Si02
#       7
#     8   8   8   8   8   8   8
#     4  12  25  42  69 100 127 158 201 251 307 374
#     4  10  19  38  64  90 122 157 196 249 309 365
#     4  10  21  37  59  87 119 162 208 252 310 370
#     4  10  19  31  49  76 111 157 208 262 314 367
#     4  10  22  42  63  86 127 171 207 256 311 366
#     4   8  15  29  51  76 108 150 194 246 305 356
#     4  10  19  33  52  79 116 161 207 252 304 356
#
# _framework density 20.719956
#
# number of rings (size 3 to 8) (size 9 to 14) (size 15 to 20)
#    0.000    2.000    1.429    3.857    0.000    2.286 
#    0.000    2.857    0.000    3.429    0.000    0.000 
#    0.000    0.000    0.000    0.000    0.000    0.000 
#
# Total GULP energy -347128.827853 kJ/mol
# GULP energy per Si atom -12397.458138 kJ/mol
# Density = 2.067280 g / cm^3
# Si number density = 20.719956 Si / 1000 Ang^3
#
#
#
# Elastic Constant Matrix: (Units=GPa)
#
#
# Indices 1 2 3 4 5 6 
#
# 1 81.1603 44.8327 25.9169 0.0000 0.0000 0.0000
# 2 44.8327 125.2126 46.4988 0.0000 0.0000 0.0000
# 3 25.9169 46.4988 99.0329 0.0000 0.0000 0.0000
# 4 0.0000 0.0000 0.0000 26.3809 0.0000 0.0000
# 5 0.0000 0.0000 0.0000 0.0000 10.5128 0.0000
# 6 0.0000 0.0000 0.0000 0.0000 0.0000 33.2262
#
#
#
# Elastic Compliance Matrix: (Units=1/GPa)
#
#
# Indices 1 2 3 4 5 6 
#
# 1 0.015611 -0.004932 -0.001769 0.000000 0.000000 0.000000
# 2 -0.004932 0.011232 -0.003983 0.000000 0.000000 0.000000
# 3 -0.001769 -0.003983 0.012431 0.000000 0.000000 0.000000
# 4 0.000000 0.000000 0.000000 0.037906 0.000000 0.000000
# 5 0.000000 0.000000 0.000000 0.000000 0.095122 0.000000
# 6 0.000000 0.000000 0.000000 0.000000 0.000000 0.030097
#
#
# Mechanical properties :
#
#
# Convention : Reuss Voigt Hill
#
# Bulk Modulus (GPa) = 55.85346 59.98919 57.92133
# Shear Modulus (GPa) = 21.76412 26.56778 24.16595
#
# Velocity S-wave (km/s) = 3.24449 3.58471 3.41884
# Velocity P-wave (km/s) = 6.40707 6.79329 6.60300
#
# Compressibility (1/GPa) = 0.01790399
#
# Stress axis : x y z
#
# Youngs Moduli (GPa) = 64.05737 89.03523 80.44586
#
# Poissons Ratio (x) = 0.43916 0.14235
# Poissons Ratio (y) = 0.31596 0.32039
# Poissons Ratio (z) = 0.11335 0.35460
#
# Static dielectric constant tensor:
#      x y z
#    x 3.566900 0.000000 0.000000 
#    y 0.000000 3.553530 0.000000 
#    z 0.000000 0.000000 3.868840 
# 
# 
# High freq. dielectric constant tensor:
#      x y z
#    x 1.791530 0.000000 0.000000 
#    y 0.000000 1.799040 0.000000 
#    z 0.000000 0.000000 1.814530 
# 
# From -- ./inp_files/14746.got.cif
#   From: 2010.03.12/outbox.cif.g09.slc.cpg/sg39_8_cif.got.tgz:14746.got - 2010.04.14 02:53:20.
