data_PCOD8180872
_publ_section_title
;
Structure prediction by ZEFSAII (Michael W. Deem and Ramdas Pophale) SiO2 
 PCOD8180872
Probable space group: A B M 2
;
_chemical_formula_sum "Si O2"
_cell_formula_units_Z 64
_cell_length_a 20.756973
_cell_length_b 9.254804
_cell_length_c 19.214372
_cell_angle_alpha 90.000000
_cell_angle_beta 90.000000
_cell_angle_gamma 90.000000
_cell_volume 3691.113847
_symmetry_space_group_name_H-M "A B M 2"
_symmetry_group_IT_number 39
_symmetry_cell_setting 'orthorhombic'
loop_
_space_group_symop_operation_xyz
x,y,z
-x,-y,z
-x,1/2+y,z
x,1/2-y,z
x,1/2+y,1/2+z
-x,1/2-y,1/2+z
-x,y,1/2+z
x,-y,1/2+z
loop_
_atom_site_type_symbol
_atom_site_label
_atom_site_fract_x
_atom_site_fract_y
_atom_site_fract_z
Si Si1 0.202522 0.078320 0.049070
Si Si2 0.685966 0.582661 0.796301
Si Si3 0.561093 0.412915 0.796848
Si Si4 0.058785 0.590257 0.385013
Si Si5 0.058559 0.591482 0.550244
Si Si6 0.198674 0.921481 0.391692
Si Si7 0.689210 0.581381 0.633308
Si Si8 0.437968 0.914396 0.631192
O O1 0.212894 0.250000 0.059145
O O2 0.129565 0.031792 0.069505
O O3 0.248931 0.987725 0.097972
O O4 0.217016 0.030353 0.969723
O O5 0.672478 0.750000 0.813190
O O6 0.625226 0.491884 0.823381
O O7 0.747667 0.523036 0.838048
O O8 0.698406 0.558539 0.715246
O O9 0.500000 0.500000 0.826740
O O10 0.559551 0.250000 0.826137
O O11 0.558969 0.412102 0.713974
O O12 0.054083 0.750000 0.352488
O O13 0.051996 0.598689 0.467640
O O14 0.128478 0.517440 0.368128
O O15 0.000000 0.500000 0.352022
O O16 0.051052 0.750000 0.582497
O O17 0.000000 0.500000 0.583081
O O18 0.191976 0.750000 0.391010
O O19 0.682760 0.750000 0.614395
O O20 0.625672 0.498738 0.606034
O O21 0.437283 0.750000 0.602232
O O22 0.500000 0.000000 0.601518
#
# Coordination Sequence:
#
# PCOD8180872 Si02
#       8
#     8   8   8   8   8   8   8   8
#     4   9  17  30  47  66  89 118 150 183 222 266
#     4   9  17  30  47  66  89 118 150 182 217 260
#     4   9  16  26  42  65  90 115 145 182 221 259
#     4   8  13  23  40  62  85 108 139 179 220 259
#     4   8  14  24  40  62  85 109 140 180 222 261
#     4   8  15  29  48  66  86 117 152 182 217 263
#     4  10  19  29  44  68  94 119 148 182 221 264
#     4   9  16  27  44  65  89 116 147 184 222 260
#
# _framework density 17.338940999999998
#
# number of rings (size 3 to 8) (size 9 to 14) (size 15 to 20)
#    0.000    3.250    0.000    2.625    0.000    4.000 
#    0.000    3.125    0.000    1.500    0.000    7.000 
#    0.000    0.000    0.000    0.000    0.000    0.000 
#
# Total GULP energy -396606.054979 kJ/mol
# GULP energy per Si atom -12393.939218 kJ/mol
# Density = 1.729948 g / cm^3
# Si number density = 17.338941 Si / 1000 Ang^3
#
#
#
# Elastic Constant Matrix: (Units=GPa)
#
#
# Indices 1 2 3 4 5 6 
#
# 1 184.2843 84.8046 41.1706 0.0000 0.0000 0.0000
# 2 84.8046 104.8204 25.7891 0.0000 0.0000 0.0000
# 3 41.1706 25.7891 26.1054 0.0000 0.0000 0.0000
# 4 0.0000 0.0000 0.0000 10.5044 0.0000 0.0000
# 5 0.0000 0.0000 0.0000 0.0000 21.9661 0.0000
# 6 0.0000 0.0000 0.0000 0.0000 0.0000 36.6914
#
#
#
# Elastic Compliance Matrix: (Units=1/GPa)
#
#
# Indices 1 2 3 4 5 6 
#
# 1 0.010548 -0.005867 -0.010839 0.000000 0.000000 0.000000
# 2 -0.005867 0.015867 -0.006422 0.000000 0.000000 0.000000
# 3 -0.010839 -0.006422 0.061744 0.000000 0.000000 0.000000
# 4 0.000000 0.000000 0.000000 0.095198 0.000000 0.000000
# 5 0.000000 0.000000 0.000000 0.000000 0.045525 0.000000
# 6 0.000000 0.000000 0.000000 0.000000 0.000000 0.027254
#
#
# Mechanical properties :
#
#
# Convention : Reuss Voigt Hill
#
# Bulk Modulus (GPa) = 23.86441 68.74874 46.30657
# Shear Modulus (GPa) = 15.80481 24.72875 20.26678
#
# Velocity S-wave (km/s) = 3.02242 3.78060 3.42257
# Velocity P-wave (km/s) = 5.09641 7.66767 6.51025
#
# Compressibility (1/GPa) = 0.04190340
#
# Stress axis : x y z
#
# Youngs Moduli (GPa) = 94.80675 63.02506 16.19583
#
# Poissons Ratio (x) = 0.36976 0.17555
# Poissons Ratio (y) = 0.55622 0.10401
# Poissons Ratio (z) = 1.02761 0.40473
#
# Static dielectric constant tensor:
#      x y z
#    x 3.582140 0.000000 0.000000 
#    y 0.000000 3.324210 0.000000 
#    z 0.000000 0.000000 2.711060 
# 
# 
# High freq. dielectric constant tensor:
#      x y z
#    x 1.689340 0.000000 0.000000 
#    y 0.000000 1.662620 0.000000 
#    z 0.000000 0.000000 1.605510 
# 
# From -- ./inp_files/13186.got.cif
#   From: 2010.03.12/outbox.cif.g09.slc.cpg/sg39_7_cif.got.tgz:13186.got - 2010.04.14 02:53:20.
