data_PCOD8180793
_publ_section_title
;
Structure prediction by ZEFSAII (Michael W. Deem and Ramdas Pophale) SiO2 
 PCOD8180793
Probable space group: A B M 2
;
_chemical_formula_sum "Si O2"
_cell_formula_units_Z 64
_cell_length_a 14.231786
_cell_length_b 8.589053
_cell_length_c 30.900103
_cell_angle_alpha 90.000000
_cell_angle_beta 90.000000
_cell_angle_gamma 90.000000
_cell_volume 3777.153325
_symmetry_space_group_name_H-M "A B M 2"
_symmetry_group_IT_number 39
_symmetry_cell_setting 'orthorhombic'
loop_
_space_group_symop_operation_xyz
x,y,z
-x,-y,z
-x,1/2+y,z
x,1/2-y,z
x,1/2+y,1/2+z
-x,1/2-y,1/2+z
-x,y,1/2+z
x,-y,1/2+z
loop_
_atom_site_type_symbol
_atom_site_label
_atom_site_fract_x
_atom_site_fract_y
_atom_site_fract_z
Si Si1 0.596817 0.433074 0.162030
Si Si2 0.206895 0.433629 0.624910
Si Si3 0.784601 0.430642 0.791583
Si Si4 0.598042 0.065020 0.260810
Si Si5 0.104328 0.434057 0.456231
Si Si6 0.896447 0.567084 0.044425
Si Si7 0.100895 0.067729 0.205580
Si Si8 0.897185 0.067915 0.368945
O O1 0.500000 0.500000 0.142081
O O2 0.589168 0.250000 0.161087
O O3 0.686498 0.489690 0.134454
O O4 0.610262 0.491181 0.211208
O O5 0.201243 0.250000 0.617062
O O6 0.173938 0.523177 0.582533
O O7 0.139622 0.476363 0.664426
O O8 0.792885 0.250000 0.803907
O O9 0.677081 0.483388 0.789553
O O10 0.832132 0.467260 0.745810
O O11 0.832970 0.533235 0.828097
O O12 0.604051 0.250000 0.265418
O O13 0.500000 0.000000 0.279038
O O14 0.105821 0.250000 0.457977
O O15 0.150338 0.500630 0.500188
O O16 0.152342 0.493747 0.411845
O O17 0.000000 0.500000 0.454778
O O18 0.906656 0.750000 0.040552
O O19 0.000000 0.500000 0.053581
O O20 0.094508 0.250000 0.194831
O O21 0.000000 0.000000 0.217785
O O22 0.907159 0.250000 0.376219
O O23 0.000000 0.000000 0.359988
#
# Coordination Sequence:
#
# PCOD8180793 Si02
#       8
#     8   8   8   8   8   8   8   8
#     4   9  19  33  52  73  97 128 165 210 256 300
#     4  11  21  35  51  72 100 133 170 208 251 300
#     4  11  22  35  51  74 101 135 174 212 254 304
#     4  10  19  34  53  75  99 131 168 214 261 304
#     4  10  18  32  52  74 100 131 167 210 254 299
#     4  11  21  34  51  74 102 135 171 210 252 299
#     4  11  23  35  48  67  97 136 173 208 246 293
#     4  11  21  34  52  75 104 137 172 212 254 303
#
# _framework density 16.943978000000001
#
# number of rings (size 3 to 8) (size 9 to 14) (size 15 to 20)
#    0.000    1.500    1.250    7.125    0.000    4.000 
#    0.000    0.000    0.000    0.000    0.000    0.875 
#    0.000    2.000    0.000    0.000    0.000    0.000 
#
# Total GULP energy -396859.305226 kJ/mol
# GULP energy per Si atom -12401.853288 kJ/mol
# Density = 1.690541 g / cm^3
# Si number density = 16.943978 Si / 1000 Ang^3
#
#
#
# Elastic Constant Matrix: (Units=GPa)
#
#
# Indices 1 2 3 4 5 6 
#
# 1 97.7448 29.0155 36.1028 0.0000 0.0000 0.0000
# 2 29.0155 103.7764 35.7988 0.0000 0.0000 0.0000
# 3 36.1028 35.7988 96.6796 0.0000 0.0000 0.0000
# 4 0.0000 0.0000 0.0000 29.2675 0.0000 0.0000
# 5 0.0000 0.0000 0.0000 0.0000 -126.3715 0.0000
# 6 0.0000 0.0000 0.0000 0.0000 0.0000 26.8774
#
#
#
# Elastic Compliance Matrix: (Units=1/GPa)
#
#
# Indices 1 2 3 4 5 6 
#
# 1 0.012261 -0.002119 -0.003794 0.000000 0.000000 0.000000
# 2 -0.002119 0.011414 -0.003435 0.000000 0.000000 0.000000
# 3 -0.003794 -0.003435 0.013032 0.000000 0.000000 0.000000
# 4 0.000000 0.000000 0.000000 0.034168 0.000000 0.000000
# 5 0.000000 0.000000 0.000000 0.000000 -0.007913 0.000000
# 6 0.000000 0.000000 0.000000 0.000000 0.000000 0.037206
#
#
# Mechanical properties :
#
#
# Convention : Reuss Voigt Hill
#
# Bulk Modulus (GPa) = 55.52297 55.55944 55.54120
# Shear Modulus (GPa) = 40.04264 -0.89308 19.57478
#
# Velocity S-wave (km/s) = 4.86659 -0.72679 3.40261
# Velocity P-wave (km/s) = 8.02608 5.67071 6.94892
#
# Compressibility (1/GPa) = 0.01801056
#
# Stress axis : x y z
#
# Youngs Moduli (GPa) = 81.55830 87.61508 76.73411
#
# Poissons Ratio (x) = 0.18570 0.29112
# Poissons Ratio (y) = 0.17286 0.26357
# Poissons Ratio (z) = 0.30942 0.30094
#
# Static dielectric constant tensor:
#      x y z
#    x 3.142760 0.000000 0.000000 
#    y 0.000000 3.277710 0.000000 
#    z 0.000000 0.000000 3.529260 
# 
# 
# High freq. dielectric constant tensor:
#      x y z
#    x 1.631310 0.000000 0.000000 
#    y 0.000000 1.673110 0.000000 
#    z 0.000000 0.000000 1.645930 
# 
# From -- ./inp_files/17893.got.cif
#   From: 2010.03.12/outbox.cif.g09.slc.cpg/sg39_9_cif.got.tgz:17893.got - 2010.04.14 02:53:20.
