data_PCOD8180548
_publ_section_title
;
Structure prediction by ZEFSAII (Michael W. Deem and Ramdas Pophale) SiO2 
 PCOD8180548
Probable space group: A M M 2
;
_chemical_formula_sum "Si O2"
_cell_formula_units_Z 48
_cell_length_a 9.780998
_cell_length_b 9.422214
_cell_length_c 30.749283
_cell_angle_alpha 90.000000
_cell_angle_beta 90.000000
_cell_angle_gamma 90.000000
_cell_volume 2833.812603
_symmetry_space_group_name_H-M "A M M 2"
_symmetry_group_IT_number 38
_symmetry_cell_setting 'orthorhombic'
loop_
_space_group_symop_operation_xyz
x,y,z
-x,-y,z
-x,y,z
x,-y,z
x,1/2+y,1/2+z
-x,1/2-y,1/2+z
-x,1/2+y,1/2+z
x,1/2-y,1/2+z
loop_
_atom_site_type_symbol
_atom_site_label
_atom_site_fract_x
_atom_site_fract_y
_atom_site_fract_z
Si Si1 0.840234 0.336559 0.589290
Si Si2 0.662277 0.157578 0.752519
Si Si3 0.662773 0.340371 0.831768
Si Si4 0.341398 0.165760 0.915087
Si Si5 0.848782 0.668515 0.492155
Si Si6 0.655549 0.332465 0.155352
O O1 0.797517 0.500000 0.595034
O O2 0.805631 0.282152 0.540500
O O3 0.754896 0.243254 0.622212
O O4 0.000000 0.316238 0.598985
O O5 0.500000 0.149419 0.756226
O O6 0.722156 0.265911 0.788318
O O7 0.702020 0.210136 0.704221
O O8 0.722217 0.000000 0.761373
O O9 0.500000 0.341913 0.830142
O O10 0.721141 0.500000 0.834339
O O11 0.712526 0.251990 0.873507
O O12 0.500000 0.195112 0.924315
O O13 0.259468 0.224228 0.956857
O O14 0.313848 0.000000 0.906292
O O15 0.853247 0.500000 0.492078
O O16 0.000000 0.727497 0.480592
O O17 0.500000 0.282760 0.146824
O O18 0.667805 0.500000 0.149199
#
# Coordination Sequence:
#
# PCOD8180548 Si02
#       6
#     8   8   8   8   8   8
#     4   9  18  32  49  69  93 122 156 192 231 276
#     4   8  14  26  43  62  87 118 149 181 217 260
#     4   9  16  25  39  62  91 118 143 175 218 265
#     4   9  16  26  43  66  88 112 145 182 218 257
#     4   8  15  29  47  65  86 114 149 186 220 259
#     4   9  18  31  47  70  97 122 152 192 234 273
#
# _framework density 16.938313000000001
#
# number of rings (size 3 to 8) (size 9 to 14) (size 15 to 20)
#    0.000    3.333    0.000    2.500    0.000    4.000 
#    0.000    4.167    0.000    4.500    0.000    2.333 
#    0.000    0.000    0.000    0.000    0.000    0.000 
#
# Total GULP energy -297480.995474 kJ/mol
# GULP energy per Si atom -12395.041478 kJ/mol
# Density = 1.689976 g / cm^3
# Si number density = 16.938313 Si / 1000 Ang^3
#
#
#
# Elastic Constant Matrix: (Units=GPa)
#
#
# Indices 1 2 3 4 5 6 
#
# 1 47.0997 31.3845 62.1570 0.0000 0.0000 0.0000
# 2 31.3845 67.1109 67.8217 0.0000 0.0000 0.0000
# 3 62.1570 67.8217 169.1787 0.0000 0.0000 0.0000
# 4 0.0000 0.0000 0.0000 28.3243 0.0000 0.0000
# 5 0.0000 0.0000 0.0000 0.0000 -1.3284 0.0000
# 6 0.0000 0.0000 0.0000 0.0000 0.0000 17.8090
#
#
#
# Elastic Compliance Matrix: (Units=1/GPa)
#
#
# Indices 1 2 3 4 5 6 
#
# 1 0.043075 -0.006977 -0.013029 0.000000 0.000000 0.000000
# 2 -0.006977 0.026179 -0.007931 0.000000 0.000000 0.000000
# 3 -0.013029 -0.007931 0.013877 0.000000 0.000000 0.000000
# 4 0.000000 0.000000 0.000000 0.035305 0.000000 0.000000
# 5 0.000000 0.000000 0.000000 0.000000 -0.752781 0.000000
# 6 0.000000 0.000000 0.000000 0.000000 0.000000 0.056151
#
#
# Mechanical properties :
#
#
# Convention : Reuss Voigt Hill
#
# Bulk Modulus (GPa) = 36.68874 67.34618 52.01746
# Shear Modulus (GPa) = -9.74217 17.09605 3.67694
#
# Velocity S-wave (km/s) = -2.40084 3.18041 1.47496
# Velocity P-wave (km/s) = 3.74458 7.30292 5.80321
#
# Compressibility (1/GPa) = 0.02725632
#
# Stress axis : x y z
#
# Youngs Moduli (GPa) = 23.21547 38.19854 72.06007
#
# Poissons Ratio (x) = 0.26652 0.93885
# Poissons Ratio (y) = 0.16198 0.57154
# Poissons Ratio (z) = 0.30247 0.30297
#
# Static dielectric constant tensor:
#      x y z
#    x 2.914300 0.000000 0.000000 
#    y 0.000000 3.103100 0.000000 
#    z 0.000000 0.000000 3.450960 
# 
# 
# High freq. dielectric constant tensor:
#      x y z
#    x 1.612760 0.000000 0.000000 
#    y 0.000000 1.635110 0.000000 
#    z 0.000000 0.000000 1.666940 
# 
# From -- ./inp_files/22433.got.cif
#   From: 2010.03.12/outbox.cif.g09.slc.cpg/sg38_12_cif.got.tgz:22433.got - 2010.04.14 02:38:36.
