data_PCOD8180686
_publ_section_title
;
Structure prediction by ZEFSAII (Michael W. Deem and Ramdas Pophale) SiO2 
 PCOD8180686
Probable space group: A B M 2
;
_chemical_formula_sum "Si O2"
_cell_formula_units_Z 64
_cell_length_a 19.406743
_cell_length_b 9.113102
_cell_length_c 20.521817
_cell_angle_alpha 90.000000
_cell_angle_beta 90.000000
_cell_angle_gamma 90.000000
_cell_volume 3629.398842
_symmetry_space_group_name_H-M "A B M 2"
_symmetry_group_IT_number 39
_symmetry_cell_setting 'orthorhombic'
loop_
_space_group_symop_operation_xyz
x,y,z
-x,-y,z
-x,1/2+y,z
x,1/2-y,z
x,1/2+y,1/2+z
-x,1/2-y,1/2+z
-x,y,1/2+z
x,-y,1/2+z
loop_
_atom_site_type_symbol
_atom_site_label
_atom_site_fract_x
_atom_site_fract_y
_atom_site_fract_z
Si Si1 0.287667 0.578764 0.074840
Si Si2 0.566066 0.084628 0.933790
Si Si3 0.072992 0.922443 0.266293
Si Si4 0.436032 0.411519 0.589153
Si Si5 0.143666 0.081585 0.631939
Si Si6 0.928084 0.424182 0.516230
Si Si7 0.152997 0.577973 0.390978
Si Si8 0.297031 0.423023 0.940278
O O1 0.294568 0.750000 0.053940
O O2 0.359916 0.528652 0.109127
O O3 0.225660 0.553711 0.125433
O O4 0.274588 0.482970 0.010768
O O5 0.567228 0.250000 0.906148
O O6 0.500000 0.000000 0.904388
O O7 0.635230 0.000886 0.911696
O O8 0.561412 0.085399 0.011336
O O9 0.059322 0.750000 0.273405
O O10 0.121381 0.957224 0.204838
O O11 0.113705 0.989583 0.328551
O O12 0.000000 0.000000 0.258155
O O13 0.500000 0.500000 0.619561
O O14 0.446266 0.250000 0.617267
O O15 0.125704 0.250000 0.614291
O O16 0.102537 0.974910 0.584648
O O17 0.936789 0.250000 0.517697
O O18 0.879388 0.481265 0.458051
O O19 0.000000 0.500000 0.503419
O O20 0.141823 0.750000 0.388220
O O21 0.234467 0.541303 0.390553
O O22 0.310810 0.250000 0.946744
#
# Coordination Sequence:
#
# PCOD8180686 Si02
#       8
#     8   8   8   8   8   8   8   8
#     4   9  17  29  44  67  97 126 160 200 243 292
#     4   9  16  26  40  64  97 133 166 201 241 289
#     4  10  21  38  55  72  96 127 165 207 252 303
#     4   8  14  23  36  57  89 123 153 186 225 274
#     4  10  20  34  53  74  97 128 163 206 252 297
#     4  11  21  34  51  73  98 125 158 200 248 302
#     4   9  19  34  51  72  98 128 164 204 249 298
#     4  10  17  28  46  69  96 129 163 203 247 289
#
# _framework density 17.633773000000001
#
# number of rings (size 3 to 8) (size 9 to 14) (size 15 to 20)
#    0.000    2.500    1.250    2.625    0.000    4.500 
#    0.000    1.875    0.000    0.000    0.000    0.875 
#    0.000    2.000    0.000    0.000    0.000    1.000 
#
# Total GULP energy -396669.380853 kJ/mol
# GULP energy per Si atom -12395.918152 kJ/mol
# Density = 1.759364 g / cm^3
# Si number density = 17.633773 Si / 1000 Ang^3
#
#
#
# Elastic Constant Matrix: (Units=GPa)
#
#
# Indices 1 2 3 4 5 6 
#
# 1 158.8908 58.5395 41.3232 0.0000 0.0000 0.0000
# 2 58.5395 79.5500 29.4221 0.0000 0.0000 0.0000
# 3 41.3232 29.4221 63.9298 0.0000 0.0000 0.0000
# 4 0.0000 0.0000 0.0000 14.5255 0.0000 0.0000
# 5 0.0000 0.0000 0.0000 0.0000 19.2920 0.0000
# 6 0.0000 0.0000 0.0000 0.0000 0.0000 31.6573
#
#
#
# Elastic Compliance Matrix: (Units=1/GPa)
#
#
# Indices 1 2 3 4 5 6 
#
# 1 0.009215 -0.005517 -0.003417 0.000000 0.000000 0.000000
# 2 -0.005517 0.018453 -0.004926 0.000000 0.000000 0.000000
# 3 -0.003417 -0.004926 0.020118 0.000000 0.000000 0.000000
# 4 0.000000 0.000000 0.000000 0.068845 0.000000 0.000000
# 5 0.000000 0.000000 0.000000 0.000000 0.051835 0.000000
# 6 0.000000 0.000000 0.000000 0.000000 0.000000 0.031588
#
#
# Mechanical properties :
#
#
# Convention : Reuss Voigt Hill
#
# Bulk Modulus (GPa) = 49.83906 62.32669 56.08288
# Shear Modulus (GPa) = 21.32528 24.63400 22.97964
#
# Velocity S-wave (km/s) = 3.48133 3.74167 3.61385
# Velocity P-wave (km/s) = 6.66966 7.35450 7.02043
#
# Compressibility (1/GPa) = 0.02006458
#
# Stress axis : x y z
#
# Youngs Moduli (GPa) = 108.51749 54.19241 49.70637
#
# Poissons Ratio (x) = 0.29900 0.16986
# Poissons Ratio (y) = 0.59873 0.24486
# Poissons Ratio (z) = 0.37084 0.26696
#
# Static dielectric constant tensor:
#      x y z
#    x 3.660370 0.000000 0.000000 
#    y 0.000000 3.270390 0.000000 
#    z 0.000000 0.000000 2.971060 
# 
# 
# High freq. dielectric constant tensor:
#      x y z
#    x 1.705660 0.000000 0.000000 
#    y 0.000000 1.675750 0.000000 
#    z 0.000000 0.000000 1.628680 
# 
# From -- ./inp_files/13203.got.cif
#   From: 2010.03.12/outbox.cif.g09.slc.cpg/sg39_7_cif.got.tgz:13203.got - 2010.04.14 02:53:20.
