data_PCOD8180803
_publ_section_title
;
Structure prediction by ZEFSAII (Michael W. Deem and Ramdas Pophale) SiO2 
 PCOD8180803
Probable space group: A B M 2
;
_chemical_formula_sum "Si O2"
_cell_formula_units_Z 64
_cell_length_a 14.677464
_cell_length_b 8.596474
_cell_length_c 25.309174
_cell_angle_alpha 90.000000
_cell_angle_beta 90.000000
_cell_angle_gamma 90.000000
_cell_volume 3193.370797
_symmetry_space_group_name_H-M "A B M 2"
_symmetry_group_IT_number 39
_symmetry_cell_setting 'orthorhombic'
loop_
_space_group_symop_operation_xyz
x,y,z
-x,-y,z
-x,1/2+y,z
x,1/2-y,z
x,1/2+y,1/2+z
-x,1/2-y,1/2+z
-x,y,1/2+z
x,-y,1/2+z
loop_
_atom_site_type_symbol
_atom_site_label
_atom_site_fract_x
_atom_site_fract_y
_atom_site_fract_z
Si Si1 0.897313 0.435103 0.823910
Si Si2 0.405614 0.932293 0.695832
Si Si3 0.220986 0.565593 0.922040
Si Si4 0.406342 0.565316 0.968204
Si Si5 0.165750 0.078332 0.615924
Si Si6 0.908017 0.435171 0.012260
Si Si7 0.369565 0.923237 0.085708
Si Si8 0.216963 0.563527 0.227342
O O1 0.903933 0.250000 0.824184
O O2 0.833201 0.500446 0.871242
O O3 0.846468 0.491883 0.771727
O O4 0.000000 0.500000 0.827897
O O5 0.401279 0.750000 0.705647
O O6 0.500000 0.000000 0.719356
O O7 0.403539 0.967236 0.633079
O O8 0.322198 0.009287 0.728607
O O9 0.218390 0.750000 0.918126
O O10 0.325313 0.506587 0.928994
O O11 0.171455 0.504554 0.974505
O O12 0.500000 0.500000 0.943989
O O13 0.405875 0.750000 0.969424
O O14 0.396551 0.504419 0.028754
O O15 0.127079 0.250000 0.627329
O O16 0.102653 0.994241 0.571973
O O17 0.261754 0.090334 0.586574
O O18 0.173732 0.994824 0.672603
O O19 0.908276 0.250000 0.014426
O O20 0.000000 0.500000 0.987099
O O21 0.411645 0.750000 0.093797
O O22 0.215999 0.750000 0.229297
#
# Coordination Sequence:
#
# PCOD8180803 Si02
#       8
#     8   8   8   8   8   8   8   8
#     4  11  23  41  64  88 111 146 194 245 296 353
#     4  11  21  34  54  84 121 159 198 240 286 344
#     4   9  19  37  60  80 109 150 192 233 284 345
#     4  10  19  33  54  81 112 151 193 235 283 342
#     4   8  15  30  53  77 107 147 184 221 277 340
#     4  10  18  32  53  79 108 143 181 224 278 340
#     4   9  16  30  52  77 111 155 197 234 277 337
#     4  10  21  39  61  86 114 151 195 244 294 347
#
# _framework density 20.041519000000001
#
# number of rings (size 3 to 8) (size 9 to 14) (size 15 to 20)
#    0.000    2.250    1.250    3.375    0.000    2.000 
#    0.000    7.500    0.000    1.500    0.000    0.000 
#    0.000    0.000    0.000    0.000    0.000    0.000 
#
# Total GULP energy -396489.433385 kJ/mol
# GULP energy per Si atom -12390.294793 kJ/mol
# Density = 1.999590 g / cm^3
# Si number density = 20.041519 Si / 1000 Ang^3
#
#
#
# Elastic Constant Matrix: (Units=GPa)
#
#
# Indices 1 2 3 4 5 6 
#
# 1 158.4994 29.8816 77.1430 0.0000 0.0000 0.0000
# 2 29.8816 55.4960 25.0350 0.0000 0.0000 0.0000
# 3 77.1430 25.0350 120.6712 0.0000 0.0000 0.0000
# 4 0.0000 0.0000 0.0000 14.7299 0.0000 0.0000
# 5 0.0000 0.0000 0.0000 0.0000 14.3805 0.0000
# 6 0.0000 0.0000 0.0000 0.0000 0.0000 31.9299
#
#
#
# Elastic Compliance Matrix: (Units=1/GPa)
#
#
# Indices 1 2 3 4 5 6 
#
# 1 0.009492 -0.002619 -0.005525 0.000000 0.000000 0.000000
# 2 -0.002619 0.020602 -0.002600 0.000000 0.000000 0.000000
# 3 -0.005525 -0.002600 0.012358 0.000000 0.000000 0.000000
# 4 0.000000 0.000000 0.000000 0.067889 0.000000 0.000000
# 5 0.000000 0.000000 0.000000 0.000000 0.069539 0.000000
# 6 0.000000 0.000000 0.000000 0.000000 0.000000 0.031319
#
#
# Mechanical properties :
#
#
# Convention : Reuss Voigt Hill
#
# Bulk Modulus (GPa) = 47.69767 66.53175 57.11471
# Shear Modulus (GPa) = 20.86168 25.71520 23.28844
#
# Velocity S-wave (km/s) = 3.22983 3.58592 3.41252
# Velocity P-wave (km/s) = 6.14493 7.10029 6.63982
#
# Compressibility (1/GPa) = 0.02096539
#
# Stress axis : x y z
#
# Youngs Moduli (GPa) = 105.35477 48.53832 80.91757
#
# Poissons Ratio (x) = 0.12710 0.44704
# Poissons Ratio (y) = 0.27588 0.21041
# Poissons Ratio (z) = 0.58205 0.12621
#
# Static dielectric constant tensor:
#      x y z
#    x 3.915940 0.000000 0.000000 
#    y 0.000000 3.313330 0.000000 
#    z 0.000000 0.000000 3.714130 
# 
# 
# High freq. dielectric constant tensor:
#      x y z
#    x 1.793490 0.000000 0.000000 
#    y 0.000000 1.750800 0.000000 
#    z 0.000000 0.000000 1.769690 
# 
# From -- ./inp_files/16182.got.cif
#   From: 2010.03.12/outbox.cif.g09.slc.cpg/sg39_9_cif.got.tgz:16182.got - 2010.04.14 02:53:20.
