data_PCOD8180184
_publ_section_title
;
Structure prediction by ZEFSAII (Michael W. Deem and Ramdas Pophale) SiO2 
 PCOD8180184
Probable space group: A M M 2
;
_chemical_formula_sum "Si O2"
_cell_formula_units_Z 48
_cell_length_a 14.913452
_cell_length_b 8.926025
_cell_length_c 18.775520
_cell_angle_alpha 90.000000
_cell_angle_beta 90.000000
_cell_angle_gamma 90.000000
_cell_volume 2499.356768
_symmetry_space_group_name_H-M "A M M 2"
_symmetry_group_IT_number 38
_symmetry_cell_setting 'orthorhombic'
loop_
_space_group_symop_operation_xyz
x,y,z
-x,-y,z
-x,y,z
x,-y,z
x,1/2+y,1/2+z
-x,1/2-y,1/2+z
-x,1/2+y,1/2+z
x,1/2-y,1/2+z
loop_
_atom_site_type_symbol
_atom_site_label
_atom_site_fract_x
_atom_site_fract_y
_atom_site_fract_z
Si Si1 0.745569 0.325488 0.909120
Si Si2 0.752241 0.176056 0.758266
Si Si3 0.102098 0.826622 0.517826
Si Si4 0.602921 0.327930 0.668486
Si Si5 0.896660 0.824661 0.162861
Si Si6 0.603490 0.671128 0.503787
O O1 0.741632 0.500000 0.889235
O O2 0.742659 0.227435 0.838908
O O3 0.836768 0.284760 0.950757
O O4 0.660476 0.285777 0.957333
O O5 0.663340 0.220512 0.715727
O O6 0.840523 0.249389 0.725168
O O7 0.763686 0.000000 0.755479
O O8 0.135414 0.732974 0.585841
O O9 0.000000 0.785465 0.497408
O O10 0.111967 0.000000 0.538360
O O11 0.500000 0.297853 0.689009
O O12 0.628528 0.500000 0.684117
O O13 0.619838 0.290222 0.586172
O O14 0.000000 0.782209 0.175696
O O15 0.879475 0.000000 0.165640
O O16 0.500000 0.694558 0.483727
O O17 0.632238 0.500000 0.488059
#
# Coordination Sequence:
#
# PCOD8180184 Si02
#       6
#     8   8   8   8   8   8
#     4  11  23  37  55  81 113 150 188 227 275 329
#     4  12  25  38  55  81 115 153 189 230 279 330
#     4   9  19  37  60  85 112 142 180 227 277 330
#     4   9  19  38  63  87 112 145 185 230 279 331
#     4  10  21  38  61  86 112 145 185 229 277 331
#     4   9  19  37  60  84 110 142 181 227 279 332
#
# _framework density 19.204943
#
# number of rings (size 3 to 8) (size 9 to 14) (size 15 to 20)
#    0.000    2.000    0.000    4.500    0.000    7.667 
#    0.000    3.333    0.000    0.000    0.000    0.000 
#    0.000    0.000    0.000    0.000    0.000    0.000 
#
# Total GULP energy -297714.141911 kJ/mol
# GULP energy per Si atom -12404.755913 kJ/mol
# Density = 1.916123 g / cm^3
# Si number density = 19.204943 Si / 1000 Ang^3
#
#
#
# Elastic Constant Matrix: (Units=GPa)
#
#
# Indices 1 2 3 4 5 6 
#
# 1 92.1295 35.7065 49.7943 0.0000 0.0000 0.0000
# 2 35.7065 72.2289 36.4728 0.0000 0.0000 0.0000
# 3 49.7943 36.4728 92.6249 0.0000 0.0000 0.0000
# 4 0.0000 0.0000 0.0000 275.1072 0.0000 0.0000
# 5 0.0000 0.0000 0.0000 0.0000 5.0159 0.0000
# 6 0.0000 0.0000 0.0000 0.0000 0.0000 33.5052
#
#
#
# Elastic Compliance Matrix: (Units=1/GPa)
#
#
# Indices 1 2 3 4 5 6 
#
# 1 0.016425 -0.004570 -0.007031 0.000000 0.000000 0.000000
# 2 -0.004570 0.018552 -0.004849 0.000000 0.000000 0.000000
# 3 -0.007031 -0.004849 0.016485 0.000000 0.000000 0.000000
# 4 0.000000 0.000000 0.000000 0.003635 0.000000 0.000000
# 5 0.000000 0.000000 0.000000 0.000000 0.199366 0.000000
# 6 0.000000 0.000000 0.000000 0.000000 0.000000 0.029846
#
#
# Mechanical properties :
#
#
# Convention : Reuss Voigt Hill
#
# Bulk Modulus (GPa) = 53.86595 55.65896 54.76246
# Shear Modulus (GPa) = 15.46093 71.72632 43.59362
#
# Velocity S-wave (km/s) = 2.84042 6.11792 4.76953
# Velocity P-wave (km/s) = 6.23427 8.88537 7.67515
#
# Compressibility (1/GPa) = 0.01856460
#
# Stress axis : x y z
#
# Youngs Moduli (GPa) = 60.88157 53.90169 60.66064
#
# Poissons Ratio (x) = 0.24631 0.42649
# Poissons Ratio (y) = 0.27821 0.29413
# Poissons Ratio (z) = 0.42804 0.26135
#
# Static dielectric constant tensor:
#      x y z
#    x 3.652300 0.000000 0.000000 
#    y 0.000000 3.229010 0.000000 
#    z 0.000000 0.000000 3.430870 
# 
# 
# High freq. dielectric constant tensor:
#      x y z
#    x 1.759530 0.000000 0.000000 
#    y 0.000000 1.748760 0.000000 
#    z 0.000000 0.000000 1.744300 
# 
# From -- ./inp_files/18149.got.cif
#   From: 2010.03.12/outbox.cif.g09.slc.cpg/sg38_10_cif.got.tgz:18149.got - 2010.04.14 02:38:36.
