data_PCOD8180900
_publ_section_title
;
Structure prediction by ZEFSAII (Michael W. Deem and Ramdas Pophale) SiO2 
 PCOD8180900
Probable space group: A B M 2
;
_chemical_formula_sum "Si O2"
_cell_formula_units_Z 64
_cell_length_a 19.367346
_cell_length_b 8.935660
_cell_length_c 20.411275
_cell_angle_alpha 90.000000
_cell_angle_beta 90.000000
_cell_angle_gamma 90.000000
_cell_volume 3532.375638
_symmetry_space_group_name_H-M "A B M 2"
_symmetry_group_IT_number 39
_symmetry_cell_setting 'orthorhombic'
loop_
_space_group_symop_operation_xyz
x,y,z
-x,-y,z
-x,1/2+y,z
x,1/2-y,z
x,1/2+y,1/2+z
-x,1/2-y,1/2+z
-x,y,1/2+z
x,-y,1/2+z
loop_
_atom_site_type_symbol
_atom_site_label
_atom_site_fract_x
_atom_site_fract_y
_atom_site_fract_z
Si Si1 0.283433 0.424292 0.101030
Si Si2 0.564164 0.076507 0.964027
Si Si3 0.925913 0.426464 0.289002
Si Si4 0.435374 0.576876 0.604412
Si Si5 0.158384 0.077254 0.663209
Si Si6 0.073367 0.423512 0.533991
Si Si7 0.154167 0.927080 0.418164
Si Si8 0.283306 0.576039 0.960325
O O1 0.272283 0.250000 0.084610
O O2 0.359044 0.449771 0.134869
O O3 0.226930 0.479635 0.152821
O O4 0.275829 0.515766 0.034062
O O5 0.547993 0.250000 0.973932
O O6 0.639286 0.053452 0.930962
O O7 0.500000 0.000000 0.923799
O O8 0.567563 0.994395 0.033041
O O9 0.936491 0.250000 0.287100
O O10 0.877182 0.479399 0.229739
O O11 0.890356 0.479841 0.356130
O O12 0.000000 0.500000 0.282192
O O13 0.500000 0.500000 0.643727
O O14 0.452774 0.750000 0.599045
O O15 0.180576 0.250000 0.667957
O O16 0.103211 0.051505 0.605991
O O17 0.065627 0.250000 0.516008
O O18 0.124350 0.501045 0.483511
O O19 0.000000 0.500000 0.529023
O O20 0.154881 0.750000 0.424512
O O21 0.232368 0.987931 0.411373
O O22 0.263006 0.750000 0.962574
#
# Coordination Sequence:
#
# PCOD8180900 Si02
#       8
#     8   8   8   8   8   8   8   8
#     4  10  19  30  48  75 105 136 174 215 258 305
#     4   9  16  25  40  64  97 135 171 207 250 302
#     4  10  23  41  58  78 103 136 174 214 261 312
#     4   9  16  25  39  64  98 135 171 207 248 300
#     4  10  21  37  55  76 104 137 173 212 259 312
#     4  11  22  35  54  78 103 132 168 209 258 313
#     4  11  22  36  55  78 105 136 174 217 260 310
#     4  10  19  31  48  73 105 139 174 213 260 309
#
# _framework density 18.118119
#
# number of rings (size 3 to 8) (size 9 to 14) (size 15 to 20)
#    0.000    2.000    1.250    3.750    0.000    6.000 
#    0.000    0.000    0.000    0.000    0.000    0.875 
#    0.000    0.000    0.000    0.000    0.000    0.000 
#
# Total GULP energy -396666.059865 kJ/mol
# GULP energy per Si atom -12395.814371 kJ/mol
# Density = 1.807688 g / cm^3
# Si number density = 18.118119 Si / 1000 Ang^3
#
#
#
# Elastic Constant Matrix: (Units=GPa)
#
#
# Indices 1 2 3 4 5 6 
#
# 1 139.7054 55.5169 17.4665 0.0000 0.0000 0.0000
# 2 55.5169 95.4754 21.1487 0.0000 0.0000 0.0000
# 3 17.4665 21.1487 45.2032 0.0000 0.0000 0.0000
# 4 0.0000 0.0000 0.0000 17.2230 0.0000 0.0000
# 5 0.0000 0.0000 0.0000 0.0000 20.2047 0.0000
# 6 0.0000 0.0000 0.0000 0.0000 0.0000 39.3928
#
#
#
# Elastic Compliance Matrix: (Units=1/GPa)
#
#
# Indices 1 2 3 4 5 6 
#
# 1 0.009366 -0.005182 -0.001195 0.000000 0.000000 0.000000
# 2 -0.005182 0.014551 -0.004806 0.000000 0.000000 0.000000
# 3 -0.001195 -0.004806 0.024832 0.000000 0.000000 0.000000
# 4 0.000000 0.000000 0.000000 0.058062 0.000000 0.000000
# 5 0.000000 0.000000 0.000000 0.000000 0.049494 0.000000
# 6 0.000000 0.000000 0.000000 0.000000 0.000000 0.025385
#
#
# Mechanical properties :
#
#
# Convention : Reuss Voigt Hill
#
# Bulk Modulus (GPa) = 37.89951 52.07203 44.98577
# Shear Modulus (GPa) = 23.49060 27.78089 25.63574
#
# Velocity S-wave (km/s) = 3.60464 3.92001 3.76563
# Velocity P-wave (km/s) = 6.18773 7.02078 6.61738
#
# Compressibility (1/GPa) = 0.02638557
#
# Stress axis : x y z
#
# Youngs Moduli (GPa) = 106.76410 68.72153 40.26984
#
# Poissons Ratio (x) = 0.35609 0.04812
# Poissons Ratio (y) = 0.55322 0.19353
# Poissons Ratio (z) = 0.12757 0.33026
#
# Static dielectric constant tensor:
#      x y z
#    x 4.249770 0.000000 0.000000 
#    y 0.000000 3.467080 0.000000 
#    z 0.000000 0.000000 2.975940 
# 
# 
# High freq. dielectric constant tensor:
#      x y z
#    x 1.731350 0.000000 0.000000 
#    y 0.000000 1.716020 0.000000 
#    z 0.000000 0.000000 1.641920 
# 
# From -- ./inp_files/15067.got.cif
#   From: 2010.03.12/outbox.cif.g09.slc.cpg/sg39_8_cif.got.tgz:15067.got - 2010.04.14 02:53:20.
