data_PCOD8180221
_publ_section_title
;
Structure prediction by ZEFSAII (Michael W. Deem and Ramdas Pophale) SiO2 
 PCOD8180221
Probable space group: A M M 2
;
_chemical_formula_sum "Si O2"
_cell_formula_units_Z 64
_cell_length_a 15.402303
_cell_length_b 8.772782
_cell_length_c 23.921230
_cell_angle_alpha 90.000000
_cell_angle_beta 90.000000
_cell_angle_gamma 90.000000
_cell_volume 3232.261632
_symmetry_space_group_name_H-M "A M M 2"
_symmetry_group_IT_number 38
_symmetry_cell_setting 'orthorhombic'
loop_
_space_group_symop_operation_xyz
x,y,z
-x,-y,z
-x,y,z
x,-y,z
x,1/2+y,1/2+z
-x,1/2-y,1/2+z
-x,1/2+y,1/2+z
x,1/2-y,1/2+z
loop_
_atom_site_type_symbol
_atom_site_label
_atom_site_fract_x
_atom_site_fract_y
_atom_site_fract_z
Si Si1 0.098148 0.174620 0.831390
Si Si2 0.401700 0.674380 0.606624
Si Si3 0.153860 0.679880 0.719715
Si Si4 0.751691 0.320373 0.901668
Si Si5 0.251457 0.320697 0.522417
Si Si6 0.903622 0.319140 0.599142
Si Si7 0.660662 0.177696 0.716597
Si Si8 0.596381 0.175629 0.323225
O O1 0.101117 0.243020 0.769460
O O2 0.160458 0.260863 0.873971
O O3 0.000000 0.190339 0.854060
O O4 0.127962 0.000000 0.828811
O O5 0.500000 0.693881 0.584770
O O6 0.382782 0.500000 0.624897
O O7 0.337508 0.722252 0.556929
O O8 0.387516 0.783468 0.659175
O O9 0.142235 0.500000 0.725146
O O10 0.116434 0.742967 0.661179
O O11 0.254150 0.721142 0.723926
O O12 0.756299 0.500000 0.902811
O O13 0.667536 0.264055 0.867251
O O14 0.742451 0.261162 0.963863
O O15 0.243360 0.500000 0.512370
O O16 0.167228 0.256236 0.555492
O O17 0.896918 0.500000 0.600908
O O18 0.000000 0.265437 0.580760
O O19 0.598568 0.221303 0.767820
O O20 0.683981 0.000000 0.717888
O O21 0.500000 0.193300 0.349531
O O22 0.614886 0.000000 0.307129
#
# Coordination Sequence:
#
# PCOD8180221 Si02
#       8
#     8   8   8   8   8   8   8   8
#     4  11  24  41  62  91 125 159 196 245 302 356
#     4  10  21  39  62  87 118 159 202 243 293 357
#     4  11  20  36  62  90 121 158 197 241 295 356
#     4  11  24  41  62  87 117 158 206 251 298 354
#     4  10  21  39  60  84 117 155 200 248 296 349
#     4   9  18  34  59  88 115 148 191 235 286 348
#     4  12  23  35  58  91 125 157 193 243 302 358
#     4  10  22  41  63  86 116 157 200 245 301 363
#
# _framework density 19.800377000000001
#
# number of rings (size 3 to 8) (size 9 to 14) (size 15 to 20)
#    0.000    1.500    2.500    3.000    0.000    5.500 
#    0.000    1.250    0.000    1.500    0.000    0.000 
#    0.000    0.000    0.000    0.000    0.000    0.000 
#
# Total GULP energy -396906.363220 kJ/mol
# GULP energy per Si atom -12403.323851 kJ/mol
# Density = 1.975531 g / cm^3
# Si number density = 19.800377 Si / 1000 Ang^3
#
#
#
# Elastic Constant Matrix: (Units=GPa)
#
#
# Indices 1 2 3 4 5 6 
#
# 1 142.9997 28.9198 66.3671 0.0000 0.0000 0.0000
# 2 28.9198 43.2017 59.3524 0.0000 0.0000 0.0000
# 3 66.3671 59.3524 146.9301 0.0000 0.0000 0.0000
# 4 0.0000 0.0000 0.0000 35.4794 0.0000 0.0000
# 5 0.0000 0.0000 0.0000 0.0000 15.5667 0.0000
# 6 0.0000 0.0000 0.0000 0.0000 0.0000 20.7076
#
#
#
# Elastic Compliance Matrix: (Units=1/GPa)
#
#
# Indices 1 2 3 4 5 6 
#
# 1 0.008866 -0.000973 -0.003611 0.000000 0.000000 0.000000
# 2 -0.000973 0.052119 -0.020614 0.000000 0.000000 0.000000
# 3 -0.003611 -0.020614 0.016764 0.000000 0.000000 0.000000
# 4 0.000000 0.000000 0.000000 0.028185 0.000000 0.000000
# 5 0.000000 0.000000 0.000000 0.000000 0.064240 0.000000
# 6 0.000000 0.000000 0.000000 0.000000 0.000000 0.048291
#
#
# Mechanical properties :
#
#
# Convention : Reuss Voigt Hill
#
# Bulk Modulus (GPa) = 36.56061 71.37889 53.96975
# Shear Modulus (GPa) = 17.98688 26.25021 22.11855
#
# Velocity S-wave (km/s) = 3.01726 3.64503 3.34590
# Velocity P-wave (km/s) = 5.53562 7.33774 6.49945
#
# Compressibility (1/GPa) = 0.02735184
#
# Stress axis : x y z
#
# Youngs Moduli (GPa) = 112.79045 19.18683 59.65092
#
# Poissons Ratio (x) = 0.01868 0.21543
# Poissons Ratio (y) = 0.10979 1.22963
# Poissons Ratio (z) = 0.40734 0.39551
#
# Static dielectric constant tensor:
#      x y z
#    x 3.768540 0.000000 0.000000 
#    y 0.000000 3.443020 0.000000 
#    z 0.000000 0.000000 3.600640 
# 
# 
# High freq. dielectric constant tensor:
#      x y z
#    x 1.788810 0.000000 0.000000 
#    y 0.000000 1.756860 0.000000 
#    z 0.000000 0.000000 1.766920 
# 
# From -- ./inp_files/22942.got.cif
#   From: 2010.03.12/outbox.cif.g09.slc.cpg/sg38_12_cif.got.tgz:22942.got - 2010.04.14 02:38:36.
