data_PCOD8180381
_publ_section_title
;
Structure prediction by ZEFSAII (Michael W. Deem and Ramdas Pophale) SiO2 
 PCOD8180381
Probable space group: A M M 2
;
_chemical_formula_sum "Si O2"
_cell_formula_units_Z 40
_cell_length_a 14.951230
_cell_length_b 14.374838
_cell_length_c 9.814883
_cell_angle_alpha 90.000000
_cell_angle_beta 90.000000
_cell_angle_gamma 90.000000
_cell_volume 2109.429466
_symmetry_space_group_name_H-M "A M M 2"
_symmetry_group_IT_number 38
_symmetry_cell_setting 'orthorhombic'
loop_
_space_group_symop_operation_xyz
x,y,z
-x,-y,z
-x,y,z
x,-y,z
x,1/2+y,1/2+z
-x,1/2-y,1/2+z
-x,1/2+y,1/2+z
x,1/2-y,1/2+z
loop_
_atom_site_type_symbol
_atom_site_label
_atom_site_fract_x
_atom_site_fract_y
_atom_site_fract_z
Si Si1 0.144061 0.749912 0.721510
Si Si2 0.000000 0.609709 0.826890
Si Si3 0.266094 0.259208 0.471152
Si Si4 0.401330 0.608442 0.592240
Si Si5 0.000000 0.108183 0.650724
Si Si6 0.397407 0.392830 0.906862
O O1 0.181830 0.736067 0.570709
O O2 0.227901 0.764051 0.819660
O O3 0.087673 0.658366 0.763434
O O4 0.085490 0.843510 0.719707
O O5 0.000000 0.500000 0.789373
O O6 0.000000 0.624028 0.988823
O O7 0.329354 0.347337 0.492312
O O8 0.327323 0.167427 0.494415
O O9 0.500000 0.645894 0.554230
O O10 0.396772 0.500000 0.567438
O O11 0.380843 0.631862 0.749141
O O12 0.000000 0.000000 0.689453
O O13 0.500000 0.370503 0.947730
O O14 0.375747 0.500000 0.936513
#
# Coordination Sequence:
#
# PCOD8180381 Si02
#       6
#     8   4   8   8   4   8
#     4  11  24  38  60  92 116 145 191 241 286 352
#     4  10  22  43  66  83 112 155 191 230 290 358
#     4  12  21  37  59  89 122 147 190 242 291 335
#     4   9  19  36  57  83 118 160 200 236 281 337
#     4  10  22  43  64  83 116 153 185 236 300 348
#     4   9  19  36  58  84 116 159 203 235 276 340
#
# _framework density 18.962474
#
# number of rings (size 3 to 8) (size 9 to 14) (size 15 to 20)
#    0.000    1.800    4.000    1.800    0.000    3.200 
#    0.000    1.000    0.000    2.400    0.000    0.000 
#    0.000    0.000    0.000    0.000    0.000    0.000 
#
# Total GULP energy -248009.674473 kJ/mol
# GULP energy per Si atom -12400.483724 kJ/mol
# Density = 1.891931 g / cm^3
# Si number density = 18.962474 Si / 1000 Ang^3
#
#
#
# Elastic Constant Matrix: (Units=GPa)
#
#
# Indices 1 2 3 4 5 6 
#
# 1 105.3433 58.1339 23.9326 0.0000 0.0000 0.0000
# 2 58.1339 111.6907 28.1897 0.0000 0.0000 0.0000
# 3 23.9326 28.1897 39.0426 0.0000 0.0000 0.0000
# 4 0.0000 0.0000 0.0000 29.0152 0.0000 0.0000
# 5 0.0000 0.0000 0.0000 0.0000 30.2795 0.0000
# 6 0.0000 0.0000 0.0000 0.0000 0.0000 19.2792
#
#
#
# Elastic Compliance Matrix: (Units=1/GPa)
#
#
# Indices 1 2 3 4 5 6 
#
# 1 0.013812 -0.006178 -0.004006 0.000000 0.000000 0.000000
# 2 -0.006178 0.013712 -0.006113 0.000000 0.000000 0.000000
# 3 -0.004006 -0.006113 0.032483 0.000000 0.000000 0.000000
# 4 0.000000 0.000000 0.000000 0.034465 0.000000 0.000000
# 5 0.000000 0.000000 0.000000 0.000000 0.033026 0.000000
# 6 0.000000 0.000000 0.000000 0.000000 0.000000 0.051869
#
#
# Mechanical properties :
#
#
# Convention : Reuss Voigt Hill
#
# Bulk Modulus (GPa) = 36.48025 52.95432 44.71728
# Shear Modulus (GPa) = 22.61436 25.43613 24.02525
#
# Velocity S-wave (km/s) = 3.45713 3.66648 3.56334
# Velocity P-wave (km/s) = 5.93427 6.77573 6.36891
#
# Compressibility (1/GPa) = 0.02741209
#
# Stress axis : x y z
#
# Youngs Moduli (GPa) = 72.39941 72.92967 30.78573
#
# Poissons Ratio (x) = 0.45056 0.12333
# Poissons Ratio (y) = 0.44729 0.18820
# Poissons Ratio (z) = 0.29003 0.44584
#
# Static dielectric constant tensor:
#      x y z
#    x 3.637930 0.000000 0.000000 
#    y 0.000000 3.402560 0.000000 
#    z 0.000000 0.000000 3.312110 
# 
# 
# High freq. dielectric constant tensor:
#      x y z
#    x 1.753770 0.000000 0.000000 
#    y 0.000000 1.735300 0.000000 
#    z 0.000000 0.000000 1.720420 
# 
# From -- ./inp_files/5248.got.cif
#   From: 2010.03.12/outbox.cif.g09.slc.cpg/sg38_3_cif.got.tgz:5248.got - 2010.04.14 02:38:36.
