data_PCOD8180644
_publ_section_title
;
Structure prediction by ZEFSAII (Michael W. Deem and Ramdas Pophale) SiO2 
 PCOD8180644
Probable space group: A B M 2
;
_chemical_formula_sum "Si O2"
_cell_formula_units_Z 56
_cell_length_a 16.372279
_cell_length_b 17.957322
_cell_length_c 9.034601
_cell_angle_alpha 90.000000
_cell_angle_beta 90.000000
_cell_angle_gamma 90.000000
_cell_volume 2656.193346
_symmetry_space_group_name_H-M "A B M 2"
_symmetry_group_IT_number 39
_symmetry_cell_setting 'orthorhombic'
loop_
_space_group_symop_operation_xyz
x,y,z
-x,-y,z
-x,1/2+y,z
x,1/2-y,z
x,1/2+y,1/2+z
-x,1/2-y,1/2+z
-x,y,1/2+z
x,-y,1/2+z
loop_
_atom_site_type_symbol
_atom_site_label
_atom_site_fract_x
_atom_site_fract_y
_atom_site_fract_z
Si Si1 0.513309 0.883740 0.695220
Si Si2 0.773869 0.469465 0.581144
Si Si3 0.602305 0.459642 0.461172
Si Si4 0.394979 0.637144 0.929861
Si Si5 0.048535 0.425672 0.042307
Si Si6 0.051723 0.665155 0.824591
Si Si7 0.222452 0.605383 0.895322
O O1 0.458535 0.937933 0.593128
O O2 0.575886 0.926638 0.803283
O O3 0.451866 0.833894 0.795038
O O4 0.568737 0.832091 0.585808
O O5 0.693980 0.432815 0.504398
O O6 0.856909 0.440380 0.505942
O O7 0.773778 0.452378 0.756538
O O8 0.774852 0.558221 0.548110
O O9 0.599361 0.547732 0.439359
O O10 0.301405 0.660331 0.898481
O O11 0.046007 0.356827 0.154550
O O12 0.000000 0.500000 0.096124
O O13 0.007726 0.394944 0.895770
O O14 0.023059 0.750000 0.846199
O O15 0.143146 0.656776 0.888307
#
# Coordination Sequence:
#
# PCOD8180644 Si02
#       7
#     8   8   8   8   8   8   8
#     4  10  17  26  41  64 108 154 185 226 293 348
#     4  10  21  32  51  80 114 148 192 243 289 346
#     4  10  17  26  40  67 107 152 185 226 286 352
#     4  10  17  26  41  67 103 148 187 230 279 350
#     4  11  22  41  65  91 120 157 200 248 300 355
#     4  11  24  42  63  89 121 158 198 244 303 363
#     4  10  21  34  51  79 114 150 192 236 291 347
#
# _framework density 21.082801
#
# number of rings (size 3 to 8) (size 9 to 14) (size 15 to 20)
#    0.000    1.714    2.857    4.286    8.000    0.000 
#    0.000    0.000    0.000    0.000    0.000    1.000 
#    0.000    0.000    0.000    0.000    0.000    0.000 
#
# Total GULP energy -346926.664662 kJ/mol
# GULP energy per Si atom -12390.238024 kJ/mol
# Density = 2.103482 g / cm^3
# Si number density = 21.082801 Si / 1000 Ang^3
#
#
#
# Elastic Constant Matrix: (Units=GPa)
#
#
# Indices 1 2 3 4 5 6 
#
# 1 154.6175 15.6942 37.5712 0.0000 0.0000 0.0000
# 2 15.6942 58.2091 8.7008 0.0000 0.0000 0.0000
# 3 37.5712 8.7008 84.2016 0.0000 0.0000 0.0000
# 4 0.0000 0.0000 0.0000 5.5823 0.0000 0.0000
# 5 0.0000 0.0000 0.0000 0.0000 28.5613 0.0000
# 6 0.0000 0.0000 0.0000 0.0000 0.0000 -3.3802
#
#
#
# Elastic Compliance Matrix: (Units=1/GPa)
#
#
# Indices 1 2 3 4 5 6 
#
# 1 0.007385 -0.001522 -0.003138 0.000000 0.000000 0.000000
# 2 -0.001522 0.017763 -0.001156 0.000000 0.000000 0.000000
# 3 -0.003138 -0.001156 0.013396 0.000000 0.000000 0.000000
# 4 0.000000 0.000000 0.000000 0.179138 0.000000 0.000000
# 5 0.000000 0.000000 0.000000 0.000000 0.035012 0.000000
# 6 0.000000 0.000000 0.000000 0.000000 0.000000 -0.295837
#
#
# Mechanical properties :
#
#
# Convention : Reuss Voigt Hill
#
# Bulk Modulus (GPa) = 37.15976 46.77341 41.96658
# Shear Modulus (GPa) = -221.82114 21.82347 -99.99883
#
# Velocity S-wave (km/s) = -10.26853 3.22084 -6.89452
# Velocity P-wave (km/s) = 11.08722 6.00545 6.59018
#
# Compressibility (1/GPa) = 0.02691083
#
# Stress axis : x y z
#
# Youngs Moduli (GPa) = 135.41860 56.29793 74.65016
#
# Poissons Ratio (x) = 0.08568 0.23423
# Poissons Ratio (y) = 0.20610 0.08632
# Poissons Ratio (z) = 0.42491 0.06510
#
# Static dielectric constant tensor:
#      x y z
#    x 4.529210 0.000000 0.000000 
#    y 0.000000 3.076810 0.000000 
#    z 0.000000 0.000000 4.046440 
# 
# 
# High freq. dielectric constant tensor:
#      x y z
#    x 1.852830 0.000000 0.000000 
#    y 0.000000 1.763900 0.000000 
#    z 0.000000 0.000000 1.834030 
# 
# From -- ./inp_files/3822.got.cif
#   From: 2010.03.12/outbox.cif.g09.slc.cpg/sg39_2_cif.got.tgz:3822.got - 2010.04.14 02:53:20.
