data_PCOD8180738
_publ_section_title
;
Structure prediction by ZEFSAII (Michael W. Deem and Ramdas Pophale) SiO2 
 PCOD8180738
Probable space group: A B M 2
;
_chemical_formula_sum "Si O2"
_cell_formula_units_Z 48
_cell_length_a 9.640379
_cell_length_b 8.680467
_cell_length_c 31.533432
_cell_angle_alpha 90.000000
_cell_angle_beta 90.000000
_cell_angle_gamma 90.000000
_cell_volume 2638.811931
_symmetry_space_group_name_H-M "A B M 2"
_symmetry_group_IT_number 39
_symmetry_cell_setting 'orthorhombic'
loop_
_space_group_symop_operation_xyz
x,y,z
-x,-y,z
-x,1/2+y,z
x,1/2-y,z
x,1/2+y,1/2+z
-x,1/2-y,1/2+z
-x,y,1/2+z
x,-y,1/2+z
loop_
_atom_site_type_symbol
_atom_site_label
_atom_site_fract_x
_atom_site_fract_y
_atom_site_fract_z
Si Si1 0.348425 0.069310 0.983850
Si Si2 0.152635 0.433276 0.151404
Si Si3 0.152272 0.432528 0.322881
Si Si4 0.349159 0.430545 0.076786
Si Si5 0.846165 0.566684 0.737106
Si Si6 0.652629 0.431222 0.899695
O O1 0.354089 0.250000 0.975791
O O2 0.500000 0.000000 0.984417
O O3 0.273423 0.991045 0.943371
O O4 0.283890 0.029766 0.030149
O O5 0.145010 0.250000 0.154047
O O6 0.244214 0.493527 0.112139
O O7 0.224483 0.500028 0.194352
O O8 0.000000 0.500000 0.144840
O O9 0.141128 0.250000 0.318120
O O10 0.223425 0.503439 0.280296
O O11 0.249810 0.484286 0.361358
O O12 0.000000 0.500000 0.331051
O O13 0.500000 0.500000 0.083907
O O14 0.368188 0.250000 0.081423
O O15 0.844978 0.750000 0.736347
O O16 0.000000 0.500000 0.737311
O O17 0.500000 0.500000 0.893013
O O18 0.638826 0.250000 0.901819
#
# Coordination Sequence:
#
# PCOD8180738 Si02
#       6
#     8   8   8   8   8   8
#     4   9  16  29  49  71  96 128 164 199 238 286
#     4  10  19  33  51  73 100 129 163 201 241 286
#     4  10  20  34  52  74  99 128 163 201 242 288
#     4   9  19  33  51  74  99 128 163 202 242 287
#     4  10  18  30  50  73  96 127 164 198 239 289
#     4  10  20  33  51  75 100 128 163 201 242 288
#
# _framework density 18.190003000000001
#
# number of rings (size 3 to 8) (size 9 to 14) (size 15 to 20)
#    0.000    2.333    0.000    6.500    0.000    4.667 
#    0.000    1.667    0.000    4.000    0.000    0.000 
#    0.000    0.000    0.000    0.000    0.000    0.000 
#
# Total GULP energy -297409.247260 kJ/mol
# GULP energy per Si atom -12392.051969 kJ/mol
# Density = 1.814860 g / cm^3
# Si number density = 18.190003 Si / 1000 Ang^3
#
#
#
# Elastic Constant Matrix: (Units=GPa)
#
#
# Indices 1 2 3 4 5 6 
#
# 1 57.2179 27.2808 69.0278 0.0000 0.0000 0.0000
# 2 27.2808 89.9079 65.7263 0.0000 0.0000 0.0000
# 3 69.0278 65.7263 223.3507 0.0000 0.0000 0.0000
# 4 0.0000 0.0000 0.0000 29.2410 0.0000 0.0000
# 5 0.0000 0.0000 0.0000 0.0000 31.7550 0.0000
# 6 0.0000 0.0000 0.0000 0.0000 0.0000 20.9573
#
#
#
# Elastic Compliance Matrix: (Units=1/GPa)
#
#
# Indices 1 2 3 4 5 6 
#
# 1 0.028412 -0.002805 -0.007955 0.000000 0.000000 0.000000
# 2 -0.002805 0.014448 -0.003385 0.000000 0.000000 0.000000
# 3 -0.007955 -0.003385 0.007932 0.000000 0.000000 0.000000
# 4 0.000000 0.000000 0.000000 0.034199 0.000000 0.000000
# 5 0.000000 0.000000 0.000000 0.000000 0.031491 0.000000
# 6 0.000000 0.000000 0.000000 0.000000 0.000000 0.047716
#
#
# Mechanical properties :
#
#
# Convention : Reuss Voigt Hill
#
# Bulk Modulus (GPa) = 44.44215 77.17180 60.80697
# Shear Modulus (GPa) = 25.00141 30.28677 27.64409
#
# Velocity S-wave (km/s) = 3.71139 4.08490 3.90261
# Velocity P-wave (km/s) = 6.54608 8.04773 7.33543
#
# Compressibility (1/GPa) = 0.02250116
#
# Stress axis : x y z
#
# Youngs Moduli (GPa) = 35.19655 69.21340 126.07300
#
# Poissons Ratio (x) = 0.19417 1.00295
# Poissons Ratio (y) = 0.09874 0.42672
# Poissons Ratio (z) = 0.28000 0.23426
#
# Static dielectric constant tensor:
#      x y z
#    x 2.995290 0.000000 0.000000 
#    y 0.000000 3.447230 0.000000 
#    z 0.000000 0.000000 4.726030 
# 
# 
# High freq. dielectric constant tensor:
#      x y z
#    x 1.650410 0.000000 0.000000 
#    y 0.000000 1.719670 0.000000 
#    z 0.000000 0.000000 1.737050 
# 
# From -- ./inp_files/16899.got.cif
#   From: 2010.03.12/outbox.cif.g09.slc.cpg/sg39_9_cif.got.tgz:16899.got - 2010.04.14 02:53:20.
