data_PCOD8180725
_publ_section_title
;
Structure prediction by ZEFSAII (Michael W. Deem and Ramdas Pophale) SiO2 
 PCOD8180725
Probable space group: A B M 2
;
_chemical_formula_sum "Si O2"
_cell_formula_units_Z 64
_cell_length_a 11.779279
_cell_length_b 30.864343
_cell_length_c 8.997182
_cell_angle_alpha 90.000000
_cell_angle_beta 90.000000
_cell_angle_gamma 90.000000
_cell_volume 3271.012855
_symmetry_space_group_name_H-M "A B M 2"
_symmetry_group_IT_number 39
_symmetry_cell_setting 'orthorhombic'
loop_
_space_group_symop_operation_xyz
x,y,z
-x,-y,z
-x,1/2+y,z
x,1/2-y,z
x,1/2+y,1/2+z
-x,1/2-y,1/2+z
-x,y,1/2+z
x,-y,1/2+z
loop_
_atom_site_type_symbol
_atom_site_label
_atom_site_fract_x
_atom_site_fract_y
_atom_site_fract_z
Si Si1 0.311431 0.558184 0.504450
Si Si2 0.072361 0.698842 0.239641
Si Si3 0.548792 0.147053 0.224991
Si Si4 0.629653 0.513490 0.292357
Si Si5 0.756352 0.350434 0.438386
Si Si6 0.856904 0.200055 0.918393
Si Si7 0.554154 0.591320 0.458100
Si Si8 0.664853 0.699655 0.209700
O O1 0.306084 0.528155 0.358115
O O2 0.293158 0.530465 0.655352
O O3 0.225305 0.598124 0.474058
O O4 0.434663 0.578400 0.528057
O O5 0.102095 0.750000 0.257112
O O6 0.135460 0.670202 0.362246
O O7 0.940760 0.689669 0.279829
O O8 0.104800 0.679212 0.076704
O O9 0.648989 0.159497 0.333943
O O10 0.461969 0.112841 0.297781
O O11 0.469479 0.189055 0.199666
O O12 0.604573 0.125772 0.076782
O O13 0.500000 0.500000 0.245797
O O14 0.629923 0.548864 0.427106
O O15 0.735767 0.326766 0.591373
O O16 0.864815 0.250000 0.956162
O O17 0.727683 0.188069 0.867627
O O18 0.678854 0.750000 0.175034
#
# Coordination Sequence:
#
# PCOD8180725 Si02
#       8
#     8   8   8   8   8   8   8   8
#     4  10  20  31  47  75 103 143 183 228 275 330
#     4  10  20  38  61  84 111 143 186 237 287 333
#     4  11  21  35  49  75 114 154 187 232 268 333
#     4  10  18  29  51  71 100 144 189 228 280 331
#     4  11  23  36  52  78 117 153 189 236 275 336
#     4   9  20  37  61  87 106 138 190 245 289 329
#     4  10  18  33  49  68 103 145 186 228 274 319
#     4  11  22  37  54  75 111 156 196 232 279 332
#
# _framework density 19.565805999999998
#
# number of rings (size 3 to 8) (size 9 to 14) (size 15 to 20)
#    0.000    1.750    3.750    2.250    5.250    3.000 
#    0.000    0.000    0.000    0.000    0.000    0.000 
#    0.000   21.000    0.000    0.000    0.000    0.000 
#
# Total GULP energy -396498.311020 kJ/mol
# GULP energy per Si atom -12390.572219 kJ/mol
# Density = 1.952127 g / cm^3
# Si number density = 19.565806 Si / 1000 Ang^3
#
#
#
# Elastic Constant Matrix: (Units=GPa)
#
#
# Indices 1 2 3 4 5 6 
#
# 1 37.8755 18.7663 7.2198 0.0000 0.0000 0.0000
# 2 18.7663 91.6705 29.8431 0.0000 0.0000 0.0000
# 3 7.2198 29.8431 84.7912 0.0000 0.0000 0.0000
# 4 0.0000 0.0000 0.0000 36.6059 0.0000 0.0000
# 5 0.0000 0.0000 0.0000 0.0000 20.5418 0.0000
# 6 0.0000 0.0000 0.0000 0.0000 0.0000 15.2415
#
#
#
# Elastic Compliance Matrix: (Units=1/GPa)
#
#
# Indices 1 2 3 4 5 6 
#
# 1 0.029397 -0.005876 -0.000435 0.000000 0.000000 0.000000
# 2 -0.005876 0.013495 -0.004249 0.000000 0.000000 0.000000
# 3 -0.000435 -0.004249 0.013326 0.000000 0.000000 0.000000
# 4 0.000000 0.000000 0.000000 0.027318 0.000000 0.000000
# 5 0.000000 0.000000 0.000000 0.000000 0.048681 0.000000
# 6 0.000000 0.000000 0.000000 0.000000 0.000000 0.065610
#
#
# Mechanical properties :
#
#
# Convention : Reuss Voigt Hill
#
# Bulk Modulus (GPa) = 28.49252 36.22175 32.35713
# Shear Modulus (GPa) = 21.67807 25.04502 23.36155
#
# Velocity S-wave (km/s) = 3.33221 3.58165 3.45918
# Velocity P-wave (km/s) = 5.42207 5.97137 5.70334
#
# Compressibility (1/GPa) = 0.03509693
#
# Stress axis : x y z
#
# Youngs Moduli (GPa) = 34.01736 74.10155 75.03963
#
# Poissons Ratio (x) = 0.43545 0.03263
# Poissons Ratio (y) = 0.19990 0.31887
# Poissons Ratio (z) = 0.01479 0.31488
#
# Static dielectric constant tensor:
#      x y z
#    x 3.136410 0.000000 0.000000 
#    y 0.000000 3.791640 0.000000 
#    z 0.000000 0.000000 3.663970 
# 
# 
# High freq. dielectric constant tensor:
#      x y z
#    x 1.698530 0.000000 0.000000 
#    y 0.000000 1.756530 0.000000 
#    z 0.000000 0.000000 1.782750 
# 
# From -- ./inp_files/2890.got.cif
#   From: 2010.03.12/outbox.cif.g09.slc.cpg/sg39_2_cif.got.tgz:2890.got - 2010.04.14 02:53:20.
