data_PCOD8180032
_publ_section_title
;
Structure prediction by ZEFSAII (Michael W. Deem and Ramdas Pophale) SiO2 
 PCOD8180032
Probable space group: A M M 2
;
_chemical_formula_sum "Si O2"
_cell_formula_units_Z 64
_cell_length_a 18.508080
_cell_length_b 9.004392
_cell_length_c 20.755507
_cell_angle_alpha 90.000000
_cell_angle_beta 90.000000
_cell_angle_gamma 90.000000
_cell_volume 3458.988419
_symmetry_space_group_name_H-M "A M M 2"
_symmetry_group_IT_number 38
_symmetry_cell_setting 'orthorhombic'
loop_
_space_group_symop_operation_xyz
x,y,z
-x,-y,z
-x,y,z
x,-y,z
x,1/2+y,1/2+z
-x,1/2-y,1/2+z
-x,1/2+y,1/2+z
x,1/2-y,1/2+z
loop_
_atom_site_type_symbol
_atom_site_label
_atom_site_fract_x
_atom_site_fract_y
_atom_site_fract_z
Si Si1 0.317674 0.176039 0.734390
Si Si2 0.418967 0.676882 0.349234
Si Si3 0.158912 0.167020 0.596224
Si Si4 0.084672 0.829604 0.839597
Si Si5 0.330819 0.325569 0.469766
Si Si6 0.164434 0.323641 0.726406
Si Si7 0.834309 0.825331 0.968645
Si Si8 0.669301 0.336132 0.094143
O O1 0.373779 0.231672 0.787806
O O2 0.242925 0.261174 0.744769
O O3 0.354547 0.216198 0.665536
O O4 0.301307 0.000000 0.738610
O O5 0.500000 0.741369 0.345201
O O6 0.420499 0.500000 0.350843
O O7 0.380452 0.741001 0.413140
O O8 0.134080 0.258644 0.659031
O O9 0.130730 0.244601 0.530780
O O10 0.244712 0.164753 0.594742
O O11 0.127493 0.000000 0.600309
O O12 0.109241 0.723913 0.781951
O O13 0.122285 0.776578 0.905520
O O14 0.000000 0.812119 0.849638
O O15 0.106248 0.000000 0.824058
O O16 0.336582 0.500000 0.469744
O O17 0.248548 0.273986 0.458370
O O18 0.361126 0.270449 0.538633
O O19 0.168099 0.500000 0.720852
O O20 0.839257 0.000000 0.981459
O O21 0.639275 0.500000 0.079442
#
# Coordination Sequence:
#
# PCOD8180032 Si02
#       8
#     8   8   8   8   8   8   8   8
#     4   9  17  32  53  74  97 128 168 212 255 301
#     4   9  17  30  49  72  97 129 171 212 247 291
#     4   9  17  31  52  77 103 130 165 211 259 306
#     4  10  21  37  55  75 104 141 175 208 251 303
#     4   9  16  27  47  72  96 123 157 199 244 292
#     4  11  21  33  53  79 105 134 171 215 258 302
#     4   9  17  31  52  77 102 130 167 210 256 305
#     4   8  15  27  45  70  96 121 154 199 248 295
#
# _framework density 18.502521000000002
#
# number of rings (size 3 to 8) (size 9 to 14) (size 15 to 20)
#    0.000    2.750    0.000    3.000    0.000    5.750 
#    0.000    4.375    0.000    4.500    0.000    0.000 
#    0.000    0.000    0.000    0.000    0.000    0.000 
#
# Total GULP energy -396731.981891 kJ/mol
# GULP energy per Si atom -12397.874434 kJ/mol
# Density = 1.846041 g / cm^3
# Si number density = 18.502521 Si / 1000 Ang^3
#
#
#
# Elastic Constant Matrix: (Units=GPa)
#
#
# Indices 1 2 3 4 5 6 
#
# 1 61.0523 25.5670 51.3080 0.0000 0.0000 0.0000
# 2 25.5670 64.8439 47.9115 0.0000 0.0000 0.0000
# 3 51.3080 47.9115 169.2517 0.0000 0.0000 0.0000
# 4 0.0000 0.0000 0.0000 33.3726 0.0000 0.0000
# 5 0.0000 0.0000 0.0000 0.0000 4.6571 0.0000
# 6 0.0000 0.0000 0.0000 0.0000 0.0000 12.3773
#
#
#
# Elastic Compliance Matrix: (Units=1/GPa)
#
#
# Indices 1 2 3 4 5 6 
#
# 1 0.023191 -0.004994 -0.005617 0.000000 0.000000 0.000000
# 2 -0.004994 0.020576 -0.004311 0.000000 0.000000 0.000000
# 3 -0.005617 -0.004311 0.008831 0.000000 0.000000 0.000000
# 4 0.000000 0.000000 0.000000 0.029965 0.000000 0.000000
# 5 0.000000 0.000000 0.000000 0.000000 0.214727 0.000000
# 6 0.000000 0.000000 0.000000 0.000000 0.000000 0.080793
#
#
# Mechanical properties :
#
#
# Convention : Reuss Voigt Hill
#
# Bulk Modulus (GPa) = 43.94524 60.52456 52.23490
# Shear Modulus (GPa) = 12.03340 21.43880 16.73610
#
# Velocity S-wave (km/s) = 2.55299 3.40766 3.01080
# Velocity P-wave (km/s) = 5.70025 6.94733 6.35446
#
# Compressibility (1/GPa) = 0.02275559
#
# Stress axis : x y z
#
# Youngs Moduli (GPa) = 43.12053 48.60099 113.23420
#
# Poissons Ratio (x) = 0.24271 0.63599
# Poissons Ratio (y) = 0.21534 0.48812
# Poissons Ratio (z) = 0.24219 0.20950
#
# Static dielectric constant tensor:
#      x y z
#    x 3.150260 0.000000 0.000000 
#    y 0.000000 3.268540 0.000000 
#    z 0.000000 0.000000 3.805030 
# 
# 
# High freq. dielectric constant tensor:
#      x y z
#    x 1.681060 0.000000 0.000000 
#    y 0.000000 1.696010 0.000000 
#    z 0.000000 0.000000 1.738690 
# 
# From -- ./inp_files/21368.got.cif
#   From: 2010.03.12/outbox.cif.g09.slc.cpg/sg38_11_cif.got.tgz:21368.got - 2010.04.14 02:38:36.
