data_PCOD8180190
_publ_section_title
;
Structure prediction by ZEFSAII (Michael W. Deem and Ramdas Pophale) SiO2 
 PCOD8180190
Probable space group: A M M 2
;
_chemical_formula_sum "Si O2"
_cell_formula_units_Z 48
_cell_length_a 8.602932
_cell_length_b 30.109808
_cell_length_c 9.026727
_cell_angle_alpha 90.000000
_cell_angle_beta 90.000000
_cell_angle_gamma 90.000000
_cell_volume 2338.216842
_symmetry_space_group_name_H-M "A M M 2"
_symmetry_group_IT_number 38
_symmetry_cell_setting 'orthorhombic'
loop_
_space_group_symop_operation_xyz
x,y,z
-x,-y,z
-x,y,z
x,-y,z
x,1/2+y,1/2+z
-x,1/2-y,1/2+z
-x,1/2+y,1/2+z
x,1/2-y,1/2+z
loop_
_atom_site_type_symbol
_atom_site_label
_atom_site_fract_x
_atom_site_fract_y
_atom_site_fract_z
Si Si1 0.180064 0.790935 0.197840
Si Si2 0.820065 0.126088 0.397927
Si Si3 0.820179 0.949424 0.901187
Si Si4 0.319541 0.213160 0.880950
Si Si5 0.319626 0.875596 0.712138
Si Si6 0.319871 0.051379 0.210972
O O1 0.223799 0.836496 0.279246
O O2 0.213513 0.750424 0.307087
O O3 0.000000 0.790062 0.150723
O O4 0.288100 0.787316 0.055079
O O5 0.719700 0.135467 0.543287
O O6 0.779878 0.078365 0.329674
O O7 0.000000 0.127792 0.441845
O O8 0.776129 0.918663 0.763183
O O9 0.000000 0.943879 0.941228
O O10 0.780436 0.000000 0.856596
O O11 0.722852 0.934198 0.044355
O O12 0.500000 0.223771 0.851689
O O13 0.271222 0.165999 0.812702
O O14 0.500000 0.886606 0.727746
O O15 0.500000 0.061392 0.237781
O O16 0.278139 0.000000 0.235376
#
# Coordination Sequence:
#
# PCOD8180190 Si02
#       6
#     8   8   8   8   8   8
#     4  11  24  41  63  90 120 155 195 240 291 347
#     4  11  24  40  60  87 119 156 197 242 292 347
#     4  10  21  38  61  88 118 154 196 242 293 349
#     4  11  24  41  63  90 120 155 195 240 291 347
#     4  11  24  40  60  87 119 156 197 242 292 347
#     4  10  21  38  61  88 118 154 196 242 293 349
#
# _framework density 20.528465000000001
#
# number of rings (size 3 to 8) (size 9 to 14) (size 15 to 20)
#    0.000    1.333    0.000    5.000    0.000   13.333 
#    0.000    0.000    0.000    0.000    0.000    0.000 
#    0.000    0.000    0.000    0.000    0.000    0.000 
#
# Total GULP energy -297816.869897 kJ/mol
# GULP energy per Si atom -12409.036246 kJ/mol
# Density = 2.048174 g / cm^3
# Si number density = 20.528465 Si / 1000 Ang^3
#
#
#
# Elastic Constant Matrix: (Units=GPa)
#
#
# Indices 1 2 3 4 5 6 
#
# 1 44.7490 38.7815 16.9454 0.0000 0.0000 0.0000
# 2 38.7815 101.4821 46.1456 0.0000 0.0000 0.0000
# 3 16.9454 46.1456 105.0073 0.0000 0.0000 0.0000
# 4 0.0000 0.0000 0.0000 38.0866 0.0000 0.0000
# 5 0.0000 0.0000 0.0000 0.0000 38.8797 0.0000
# 6 0.0000 0.0000 0.0000 0.0000 0.0000 32.0916
#
#
#
# Elastic Compliance Matrix: (Units=1/GPa)
#
#
# Indices 1 2 3 4 5 6 
#
# 1 0.033419 -0.012896 0.000274 0.000000 0.000000 0.000000
# 2 -0.012896 0.017291 -0.005518 0.000000 0.000000 0.000000
# 3 0.000274 -0.005518 0.011904 0.000000 0.000000 0.000000
# 4 0.000000 0.000000 0.000000 0.026256 0.000000 0.000000
# 5 0.000000 0.000000 0.000000 0.000000 0.025720 0.000000
# 6 0.000000 0.000000 0.000000 0.000000 0.000000 0.031161
#
#
# Mechanical properties :
#
#
# Convention : Reuss Voigt Hill
#
# Bulk Modulus (GPa) = 37.97181 50.55373 44.26277
# Shear Modulus (GPa) = 26.20438 31.76931 28.98684
#
# Velocity S-wave (km/s) = 3.57668 3.93819 3.76178
# Velocity P-wave (km/s) = 5.96608 6.73489 6.36211
#
# Compressibility (1/GPa) = 0.02633533
#
# Stress axis : x y z
#
# Youngs Moduli (GPa) = 29.92295 57.83350 84.00825
#
# Poissons Ratio (x) = 0.74581 -0.02303
# Poissons Ratio (y) = 0.38588 0.46352
# Poissons Ratio (z) = -0.00820 0.31910
#
# Static dielectric constant tensor:
#      x y z
#    x 3.681790 0.000000 0.000000 
#    y 0.000000 3.811610 0.000000 
#    z 0.000000 0.000000 3.621680 
# 
# 
# High freq. dielectric constant tensor:
#      x y z
#    x 1.812260 0.000000 0.000000 
#    y 0.000000 1.813720 0.000000 
#    z 0.000000 0.000000 1.805220 
# 
# From -- ./inp_files/3735.got.cif
#   From: 2010.03.12/outbox.cif.g09.slc.cpg/sg38_2_cif.got.tgz:3735.got - 2010.04.14 02:38:36.
