data_PCOD8180100
_publ_section_title
;
Structure prediction by ZEFSAII (Michael W. Deem and Ramdas Pophale) SiO2 
 PCOD8180100
Probable space group: A M M 2
;
_chemical_formula_sum "Si O2"
_cell_formula_units_Z 56
_cell_length_a 8.844098
_cell_length_b 14.183942
_cell_length_c 22.518034
_cell_angle_alpha 90.000000
_cell_angle_beta 90.000000
_cell_angle_gamma 90.000000
_cell_volume 2824.756154
_symmetry_space_group_name_H-M "A M M 2"
_symmetry_group_IT_number 38
_symmetry_cell_setting 'orthorhombic'
loop_
_space_group_symop_operation_xyz
x,y,z
-x,-y,z
-x,y,z
x,-y,z
x,1/2+y,1/2+z
-x,1/2-y,1/2+z
-x,1/2+y,1/2+z
x,1/2-y,1/2+z
loop_
_atom_site_type_symbol
_atom_site_label
_atom_site_fract_x
_atom_site_fract_y
_atom_site_fract_z
Si Si1 0.822700 0.892953 0.454460
Si Si2 0.821365 0.392159 0.303233
Si Si3 0.175791 0.893251 0.151401
Si Si4 0.172872 0.891572 0.014541
Si Si5 0.676970 0.715273 0.411889
Si Si6 0.327510 0.608240 0.076815
Si Si7 0.323078 0.284365 0.194840
O O1 0.737722 0.822818 0.409339
O O2 0.780113 0.866420 0.521974
O O3 0.000000 0.880369 0.446101
O O4 0.771211 0.000000 0.440159
O O5 0.765966 0.500000 0.298714
O O6 0.755013 0.347112 0.362256
O O7 0.765769 0.336159 0.246326
O O8 0.000000 0.385863 0.306942
O O9 0.275039 0.825063 0.192769
O O10 0.000000 0.870954 0.161079
O O11 0.212637 0.000000 0.170805
O O12 0.219871 0.878325 0.082772
O O13 0.284880 0.828129 0.976036
O O14 0.000000 0.859169 0.003830
O O15 0.191201 0.000000 0.995447
O O16 0.500000 0.715721 0.400625
O O17 0.500000 0.630856 0.058280
O O18 0.309696 0.500000 0.095855
O O19 0.274858 0.669568 0.132565
O O20 0.500000 0.293914 0.207458
#
# Coordination Sequence:
#
# PCOD8180100 Si02
#       7
#     8   8   8   8   8   8   8
#     4  10  21  37  58  84 114 149 190 234 277 327
#     4  11  25  44  64  84 109 145 188 231 274 327
#     4   9  19  36  57  82 114 152 192 233 276 326
#     4   9  18  34  57  85 117 152 190 232 277 328
#     4  12  24  37  57  84 115 150 186 230 284 337
#     4   9  18  33  54  83 119 153 183 223 280 339
#     4  11  22  36  57  85 116 149 186 232 284 334
#
# _framework density 19.824721
#
# number of rings (size 3 to 8) (size 9 to 14) (size 15 to 20)
#    0.000    1.857    0.000    5.143    0.000    8.857 
#    0.000    3.571    0.000    4.286    0.000    0.000 
#    0.000    0.000    0.000    0.000    0.000    0.000 
#
# Total GULP energy -347317.809019 kJ/mol
# GULP energy per Si atom -12404.207465 kJ/mol
# Density = 1.977960 g / cm^3
# Si number density = 19.824721 Si / 1000 Ang^3
#
#
#
# Elastic Constant Matrix: (Units=GPa)
#
#
# Indices 1 2 3 4 5 6 
#
# 1 72.2496 50.3982 38.3780 0.0000 0.0000 0.0000
# 2 50.3982 134.3400 59.8365 0.0000 0.0000 0.0000
# 3 38.3780 59.8365 63.4821 0.0000 0.0000 0.0000
# 4 0.0000 0.0000 0.0000 30.4844 0.0000 0.0000
# 5 0.0000 0.0000 0.0000 0.0000 27.0219 0.0000
# 6 0.0000 0.0000 0.0000 0.0000 0.0000 28.8944
#
#
#
# Elastic Compliance Matrix: (Units=1/GPa)
#
#
# Indices 1 2 3 4 5 6 
#
# 1 0.021527 -0.003929 -0.009311 0.000000 0.000000 0.000000
# 2 -0.003929 0.013547 -0.010394 0.000000 0.000000 0.000000
# 3 -0.009311 -0.010394 0.031179 0.000000 0.000000 0.000000
# 4 0.000000 0.000000 0.000000 0.032804 0.000000 0.000000
# 5 0.000000 0.000000 0.000000 0.000000 0.037007 0.000000
# 6 0.000000 0.000000 0.000000 0.000000 0.000000 0.034609
#
#
# Mechanical properties :
#
#
# Convention : Reuss Voigt Hill
#
# Bulk Modulus (GPa) = 52.67258 63.03302 57.85280
# Shear Modulus (GPa) = 22.29452 25.37742 23.83597
#
# Velocity S-wave (km/s) = 3.35712 3.58172 3.47123
# Velocity P-wave (km/s) = 6.45398 6.99779 6.73138
#
# Compressibility (1/GPa) = 0.01898521
#
# Stress axis : x y z
#
# Youngs Moduli (GPa) = 46.45224 73.81473 32.07289
#
# Poissons Ratio (x) = 0.29000 0.29864
# Poissons Ratio (y) = 0.18250 0.33338
# Poissons Ratio (z) = 0.43253 0.76725
#
# Static dielectric constant tensor:
#      x y z
#    x 3.522630 0.000000 0.000000 
#    y 0.000000 3.868750 0.000000 
#    z 0.000000 0.000000 3.442230 
# 
# 
# High freq. dielectric constant tensor:
#      x y z
#    x 1.772210 0.000000 0.000000 
#    y 0.000000 1.791490 0.000000 
#    z 0.000000 0.000000 1.753310 
# 
# From -- ./inp_files/19755.got.cif
#   From: 2010.03.12/outbox.cif.g09.slc.cpg/sg38_10_cif.got.tgz:19755.got - 2010.04.14 02:38:36.
