data_PCOD8180692
_publ_section_title
;
Structure prediction by ZEFSAII (Michael W. Deem and Ramdas Pophale) SiO2 
 PCOD8180692
Probable space group: A B M 2
;
_chemical_formula_sum "Si O2"
_cell_formula_units_Z 64
_cell_length_a 18.159288
_cell_length_b 8.940071
_cell_length_c 23.225021
_cell_angle_alpha 90.000000
_cell_angle_beta 90.000000
_cell_angle_gamma 90.000000
_cell_volume 3770.473560
_symmetry_space_group_name_H-M "A B M 2"
_symmetry_group_IT_number 39
_symmetry_cell_setting 'orthorhombic'
loop_
_space_group_symop_operation_xyz
x,y,z
-x,-y,z
-x,1/2+y,z
x,1/2-y,z
x,1/2+y,1/2+z
-x,1/2-y,1/2+z
-x,y,1/2+z
x,-y,1/2+z
loop_
_atom_site_type_symbol
_atom_site_label
_atom_site_fract_x
_atom_site_fract_y
_atom_site_fract_z
Si Si1 0.250647 0.572161 0.679900
Si Si2 0.819809 0.418030 0.081923
Si Si3 0.576326 0.072255 0.493986
Si Si4 0.657105 0.418056 0.093469
Si Si5 0.926266 0.572921 0.365943
Si Si6 0.707277 0.579125 0.912254
Si Si7 0.861515 0.077469 0.472565
Si Si8 0.224216 0.926100 0.808989
O O1 0.251414 0.750000 0.674725
O O2 0.181215 0.506874 0.643080
O O3 0.327148 0.504447 0.654116
O O4 0.242005 0.515780 0.745166
O O5 0.851017 0.250000 0.090454
O O6 0.735042 0.411275 0.059221
O O7 0.869528 0.506274 0.035976
O O8 0.570242 0.250000 0.498630
O O9 0.636145 0.021375 0.446791
O O10 0.500000 0.000000 0.473954
O O11 0.597630 0.008443 0.556596
O O12 0.627659 0.250000 0.105546
O O13 0.934289 0.750000 0.367808
O O14 0.915802 0.511268 0.430472
O O15 0.857783 0.520475 0.326556
O O16 0.000000 0.500000 0.339416
O O17 0.696909 0.750000 0.894566
O O18 0.777919 0.557560 0.952376
O O19 0.715164 0.488678 0.852983
O O20 0.885459 0.250000 0.474636
O O21 0.229193 0.750000 0.812042
#
# Coordination Sequence:
#
# PCOD8180692 Si02
#       8
#     8   8   8   8   8   8   8   8
#     4   9  16  29  48  72  96 122 156 201 248 291
#     4   9  17  27  45  72  99 125 156 199 245 288
#     4  11  21  33  49  73 103 135 166 204 253 308
#     4   9  18  30  47  71  98 127 159 203 252 294
#     4  10  20  34  49  72 103 134 167 205 250 303
#     4   9  18  30  46  69  96 124 161 201 242 291
#     4  10  17  29  50  73  96 127 160 200 248 294
#     4   9  19  32  51  74  98 129 169 211 251 292
#
# _framework density 16.973996
#
# number of rings (size 3 to 8) (size 9 to 14) (size 15 to 20)
#    0.750    1.750    1.250    1.875    0.000    3.000 
#    0.000    0.000    0.000    1.500    0.000    5.250 
#    0.000    0.000    0.000    0.000    0.000    0.000 
#
# Total GULP energy -396626.047380 kJ/mol
# GULP energy per Si atom -12394.563981 kJ/mol
# Density = 1.693536 g / cm^3
# Si number density = 16.973996 Si / 1000 Ang^3
#
#
#
# Elastic Constant Matrix: (Units=GPa)
#
#
# Indices 1 2 3 4 5 6 
#
# 1 74.6119 29.3359 37.7989 0.0000 0.0000 0.0000
# 2 29.3359 89.1079 47.4868 0.0000 0.0000 0.0000
# 3 37.7989 47.4868 125.1253 0.0000 0.0000 0.0000
# 4 0.0000 0.0000 0.0000 27.6570 0.0000 0.0000
# 5 0.0000 0.0000 0.0000 0.0000 16.5295 0.0000
# 6 0.0000 0.0000 0.0000 0.0000 0.0000 25.1546
#
#
#
# Elastic Compliance Matrix: (Units=1/GPa)
#
#
# Indices 1 2 3 4 5 6 
#
# 1 0.016658 -0.003513 -0.003699 0.000000 0.000000 0.000000
# 2 -0.003513 0.014808 -0.004559 0.000000 0.000000 0.000000
# 3 -0.003699 -0.004559 0.010840 0.000000 0.000000 0.000000
# 4 0.000000 0.000000 0.000000 0.036157 0.000000 0.000000
# 5 0.000000 0.000000 0.000000 0.000000 0.060498 0.000000
# 6 0.000000 0.000000 0.000000 0.000000 0.000000 0.039754
#
#
# Mechanical properties :
#
#
# Convention : Reuss Voigt Hill
#
# Bulk Modulus (GPa) = 53.29218 57.56538 55.42878
# Shear Modulus (GPa) = 23.97959 25.48312 24.73135
#
# Velocity S-wave (km/s) = 3.76270 3.87887 3.82123
# Velocity P-wave (km/s) = 7.09519 7.35176 7.22461
#
# Compressibility (1/GPa) = 0.01876448
#
# Stress axis : x y z
#
# Youngs Moduli (GPa) = 60.03209 67.52991 92.25504
#
# Poissons Ratio (x) = 0.23722 0.34125
# Poissons Ratio (y) = 0.21088 0.42057
# Poissons Ratio (z) = 0.22206 0.30785
#
# Static dielectric constant tensor:
#      x y z
#    x 2.939670 0.000000 0.000000 
#    y 0.000000 3.194870 0.000000 
#    z 0.000000 0.000000 3.093210 
# 
# 
# High freq. dielectric constant tensor:
#      x y z
#    x 1.618960 0.000000 0.000000 
#    y 0.000000 1.668650 0.000000 
#    z 0.000000 0.000000 1.640080 
# 
# From -- ./inp_files/16359.got.cif
#   From: 2010.03.12/outbox.cif.g09.slc.cpg/sg39_9_cif.got.tgz:16359.got - 2010.04.14 02:53:20.
