data_PCOD8180418
_publ_section_title
;
Structure prediction by ZEFSAII (Michael W. Deem and Ramdas Pophale) SiO2 
 PCOD8180418
Probable space group: A M M 2
;
_chemical_formula_sum "Si O2"
_cell_formula_units_Z 64
_cell_length_a 8.906713
_cell_length_b 18.099811
_cell_length_c 19.102296
_cell_angle_alpha 90.000000
_cell_angle_beta 90.000000
_cell_angle_gamma 90.000000
_cell_volume 3079.477737
_symmetry_space_group_name_H-M "A M M 2"
_symmetry_group_IT_number 38
_symmetry_cell_setting 'orthorhombic'
loop_
_space_group_symop_operation_xyz
x,y,z
-x,-y,z
-x,y,z
x,-y,z
x,1/2+y,1/2+z
-x,1/2-y,1/2+z
-x,1/2+y,1/2+z
x,1/2-y,1/2+z
loop_
_atom_site_type_symbol
_atom_site_label
_atom_site_fract_x
_atom_site_fract_y
_atom_site_fract_z
Si Si1 0.677258 0.086108 0.425440
Si Si2 0.826467 0.165750 0.808890
Si Si3 0.326507 0.083277 0.686413
Si Si4 0.178834 0.649644 0.062458
Si Si5 0.675658 0.807504 0.301965
Si Si6 0.328778 0.585066 0.570985
Si Si7 0.174818 0.207330 0.150737
Si Si8 0.337918 0.585645 0.417207
O O1 0.500000 0.092093 0.438578
O O2 0.759146 0.135947 0.484191
O O3 0.718665 0.120795 0.348935
O O4 0.729357 0.000000 0.426521
O O5 0.764143 0.141087 0.733711
O O6 0.735498 0.234741 0.842133
O O7 0.798546 0.101367 0.864967
O O8 0.000000 0.184078 0.800722
O O9 0.500000 0.107177 0.682878
O O10 0.251715 0.085123 0.609781
O O11 0.311834 0.000000 0.716159
O O12 0.232621 0.727063 0.098691
O O13 0.000000 0.643292 0.060160
O O14 0.500000 0.805351 0.289435
O O15 0.754443 0.797705 0.227365
O O16 0.500000 0.595549 0.597583
O O17 0.280966 0.500000 0.575574
O O18 0.212188 0.628706 0.617988
O O19 0.311429 0.620114 0.493553
O O20 0.000000 0.217667 0.161827
O O21 0.500000 0.612324 0.385884
O O22 0.347197 0.500000 0.431527
#
# Coordination Sequence:
#
# PCOD8180418 Si02
#       8
#     8   8   8   8   8   8   8   8
#     4  10  24  46  70  97 127 164 217 274 324 383
#     4  12  24  37  56  87 126 164 205 255 310 375
#     4  11  23  39  62  90 122 164 212 259 311 376
#     4  11  24  41  63  95 133 169 208 260 322 387
#     4  11  24  43  67  92 122 164 212 262 315 373
#     4   9  20  39  63  90 120 160 210 259 308 369
#     4  11  24  41  62  94 131 167 208 261 324 386
#     4   9  19  37  59  85 119 158 203 249 295 358
#
# _framework density 20.782744000000001
#
# number of rings (size 3 to 8) (size 9 to 14) (size 15 to 20)
#    0.000    1.500    1.250    4.125    1.750    8.250 
#    0.000    2.500    0.000    0.000    0.000    0.000 
#    0.000    0.000    0.000    0.000    0.000    0.000 
#
# Total GULP energy -396626.157139 kJ/mol
# GULP energy per Si atom -12394.567411 kJ/mol
# Density = 2.073544 g / cm^3
# Si number density = 20.782744 Si / 1000 Ang^3
#
#
#
# Elastic Constant Matrix: (Units=GPa)
#
#
# Indices 1 2 3 4 5 6 
#
# 1 84.8639 42.6745 48.8380 0.0000 0.0000 0.0000
# 2 42.6745 93.8405 57.2359 0.0000 0.0000 0.0000
# 3 48.8380 57.2359 109.9250 0.0000 0.0000 0.0000
# 4 0.0000 0.0000 0.0000 35.9452 0.0000 0.0000
# 5 0.0000 0.0000 0.0000 0.0000 18.8400 0.0000
# 6 0.0000 0.0000 0.0000 0.0000 0.0000 26.4078
#
#
#
# Elastic Compliance Matrix: (Units=1/GPa)
#
#
# Indices 1 2 3 4 5 6 
#
# 1 0.017088 -0.004602 -0.005196 0.000000 0.000000 0.000000
# 2 -0.004602 0.016855 -0.006732 0.000000 0.000000 0.000000
# 3 -0.005196 -0.006732 0.014910 0.000000 0.000000 0.000000
# 4 0.000000 0.000000 0.000000 0.027820 0.000000 0.000000
# 5 0.000000 0.000000 0.000000 0.000000 0.053079 0.000000
# 6 0.000000 0.000000 0.000000 0.000000 0.000000 0.037868
#
#
# Mechanical properties :
#
#
# Convention : Reuss Voigt Hill
#
# Bulk Modulus (GPa) = 63.31122 65.12515 64.21819
# Shear Modulus (GPa) = 24.27867 25.56401 24.92134
#
# Velocity S-wave (km/s) = 3.42162 3.51103 3.46661
# Velocity P-wave (km/s) = 6.79260 6.91669 6.85493
#
# Compressibility (1/GPa) = 0.01579499
#
# Stress axis : x y z
#
# Youngs Moduli (GPa) = 58.52178 59.33054 67.06685
#
# Poissons Ratio (x) = 0.27302 0.34847
# Poissons Ratio (y) = 0.26930 0.45146
# Poissons Ratio (z) = 0.30407 0.39938
#
# Static dielectric constant tensor:
#      x y z
#    x 3.701290 0.000000 0.000000 
#    y 0.000000 4.022030 0.000000 
#    z 0.000000 0.000000 3.832270 
# 
# 
# High freq. dielectric constant tensor:
#      x y z
#    x 1.808940 0.000000 0.000000 
#    y 0.000000 1.814600 0.000000 
#    z 0.000000 0.000000 1.818320 
# 
# From -- ./inp_files/20084.got.cif
#   From: 2010.03.12/outbox.cif.g09.slc.cpg/sg38_11_cif.got.tgz:20084.got - 2010.04.14 02:38:36.
