data_PCOD8180199
_publ_section_title
;
Structure prediction by ZEFSAII (Michael W. Deem and Ramdas Pophale) SiO2 
 PCOD8180199
Probable space group: A M M 2
;
_chemical_formula_sum "Si O2"
_cell_formula_units_Z 40
_cell_length_a 8.491754
_cell_length_b 12.586146
_cell_length_c 17.413515
_cell_angle_alpha 90.000000
_cell_angle_beta 90.000000
_cell_angle_gamma 90.000000
_cell_volume 1861.129590
_symmetry_space_group_name_H-M "A M M 2"
_symmetry_group_IT_number 38
_symmetry_cell_setting 'orthorhombic'
loop_
_space_group_symop_operation_xyz
x,y,z
-x,-y,z
-x,y,z
x,-y,z
x,1/2+y,1/2+z
-x,1/2-y,1/2+z
-x,1/2+y,1/2+z
x,1/2-y,1/2+z
loop_
_atom_site_type_symbol
_atom_site_label
_atom_site_fract_x
_atom_site_fract_y
_atom_site_fract_z
Si Si1 0.178048 0.381291 0.825610
Si Si2 0.680742 0.215175 0.728510
Si Si3 0.187310 0.000000 0.801527
Si Si4 0.674513 0.884319 0.481906
Si Si5 0.813646 0.500000 0.480947
Si Si6 0.815741 0.794203 0.076230
O O1 0.215200 0.500000 0.793948
O O2 0.305834 0.295366 0.799456
O O3 0.192941 0.379313 0.917047
O O4 0.000000 0.347724 0.803848
O O5 0.500000 0.197900 0.704233
O O6 0.753657 0.102570 0.754320
O O7 0.778251 0.286097 0.666434
O O8 0.248447 0.000000 0.891607
O O9 0.000000 0.000000 0.801698
O O10 0.500000 0.861232 0.448265
O O11 0.715556 0.804265 0.548189
O O12 0.677980 0.000000 0.521215
O O13 0.754229 0.398647 0.530595
O O14 0.000000 0.500000 0.478230
O O15 0.000000 0.781097 0.061758
#
# Coordination Sequence:
#
# PCOD8180199 Si02
#       6
#     8   8   4   8   4   8
#     4  10  21  39  64  92 123 164 214 263 314 384
#     4  12  26  42  62  94 134 171 213 271 331 388
#     4  11  23  45  73  99 128 173 224 273 331 401
#     4  10  21  38  61  91 127 163 204 261 323 384
#     4   9  22  43  69  97 126 163 218 277 323 383
#     4  11  23  41  65  93 127 169 216 268 324 390
#
# _framework density 21.492322999999999
#
# number of rings (size 3 to 8) (size 9 to 14) (size 15 to 20)
#    0.000    1.400    0.000    5.100    2.800    4.000 
#    0.000    4.500    0.000    0.000    0.000    0.000 
#    0.000    0.000    0.000    0.000    0.000    0.000 
#
# Total GULP energy -247832.137202 kJ/mol
# GULP energy per Si atom -12391.606860 kJ/mol
# Density = 2.144341 g / cm^3
# Si number density = 21.492323 Si / 1000 Ang^3
#
#
#
# Elastic Constant Matrix: (Units=GPa)
#
#
# Indices 1 2 3 4 5 6 
#
# 1 86.3142 51.5233 20.6212 0.0000 0.0000 0.0000
# 2 51.5233 108.4804 34.4442 0.0000 0.0000 0.0000
# 3 20.6212 34.4442 69.0003 0.0000 0.0000 0.0000
# 4 0.0000 0.0000 0.0000 44.5999 0.0000 0.0000
# 5 0.0000 0.0000 0.0000 0.0000 31.7361 0.0000
# 6 0.0000 0.0000 0.0000 0.0000 0.0000 29.9031
#
#
#
# Elastic Compliance Matrix: (Units=1/GPa)
#
#
# Indices 1 2 3 4 5 6 
#
# 1 0.016252 -0.007340 -0.001193 0.000000 0.000000 0.000000
# 2 -0.007340 0.014270 -0.004930 0.000000 0.000000 0.000000
# 3 -0.001193 -0.004930 0.017310 0.000000 0.000000 0.000000
# 4 0.000000 0.000000 0.000000 0.022422 0.000000 0.000000
# 5 0.000000 0.000000 0.000000 0.000000 0.031510 0.000000
# 6 0.000000 0.000000 0.000000 0.000000 0.000000 0.033441
#
#
# Mechanical properties :
#
#
# Convention : Reuss Voigt Hill
#
# Bulk Modulus (GPa) = 47.83228 52.99692 50.41460
# Shear Modulus (GPa) = 29.56845 31.72825 30.64835
#
# Velocity S-wave (km/s) = 3.71316 3.84638 3.78036
# Velocity P-wave (km/s) = 6.37865 6.66620 6.52401
#
# Compressibility (1/GPa) = 0.02090638
#
# Stress axis : x y z
#
# Youngs Moduli (GPa) = 61.53011 70.07809 57.77005
#
# Poissons Ratio (x) = 0.51439 0.06891
# Poissons Ratio (y) = 0.45165 0.28478
# Poissons Ratio (z) = 0.07340 0.34546
#
# Static dielectric constant tensor:
#      x y z
#    x 3.637410 0.000000 0.000000 
#    y 0.000000 4.133910 0.000000 
#    z 0.000000 0.000000 3.859940 
# 
# 
# High freq. dielectric constant tensor:
#      x y z
#    x 1.838300 0.000000 0.000000 
#    y 0.000000 1.857460 0.000000 
#    z 0.000000 0.000000 1.842520 
# 
# From -- ./inp_files/16325.got.cif
#   From: 2010.03.12/outbox.cif.g09.slc.cpg/sg38_9_cif.got.tgz:16325.got - 2010.04.14 02:38:36.
