data_PCOD8180110
_publ_section_title
;
Structure prediction by ZEFSAII (Michael W. Deem and Ramdas Pophale) SiO2 
 PCOD8180110
Probable space group: A M M 2
;
_chemical_formula_sum "Si O2"
_cell_formula_units_Z 56
_cell_length_a 23.535116
_cell_length_b 8.909081
_cell_length_c 14.431124
_cell_angle_alpha 90.000000
_cell_angle_beta 90.000000
_cell_angle_gamma 90.000000
_cell_volume 3025.864033
_symmetry_space_group_name_H-M "A M M 2"
_symmetry_group_IT_number 38
_symmetry_cell_setting 'orthorhombic'
loop_
_space_group_symop_operation_xyz
x,y,z
-x,-y,z
-x,y,z
x,-y,z
x,1/2+y,1/2+z
-x,1/2-y,1/2+z
-x,1/2+y,1/2+z
x,1/2-y,1/2+z
loop_
_atom_site_type_symbol
_atom_site_label
_atom_site_fract_x
_atom_site_fract_y
_atom_site_fract_z
Si Si1 0.858364 0.823793 0.405310
Si Si2 0.645463 0.676878 0.257100
Si Si3 0.561798 0.321780 0.105546
Si Si4 0.764678 0.828856 0.255709
Si Si5 0.141689 0.176086 0.105943
Si Si6 0.932964 0.173044 0.755663
Si Si7 0.563936 0.675834 0.897061
O O1 0.800938 0.793513 0.347706
O O2 0.852266 0.750384 0.505751
O O3 0.910394 0.751486 0.349004
O O4 0.870301 0.000000 0.415989
O O5 0.643231 0.500000 0.256569
O O6 0.612080 0.745140 0.168535
O O7 0.710457 0.723844 0.255628
O O8 0.612897 0.734274 0.346453
O O9 0.500000 0.265852 0.142164
O O10 0.562866 0.500000 0.107585
O O11 0.570610 0.266440 0.001571
O O12 0.800815 0.794286 0.163510
O O13 0.744143 0.000000 0.256423
O O14 0.089743 0.248178 0.162540
O O15 0.129629 0.000000 0.094809
O O16 0.000000 0.189846 0.755527
O O17 0.913589 0.000000 0.755577
O O18 0.500000 0.713169 0.861322
O O19 0.576000 0.500000 0.887670
#
# Coordination Sequence:
#
# PCOD8180110 Si02
#       7
#     8   8   8   8   8   8   8
#     4  10  21  38  60  82 108 147 188 228 275 323
#     4  11  21  32  52  79 104 133 170 217 268 314
#     4   8  16  32  51  71  98 132 168 205 252 314
#     4   9  21  39  54  74 106 141 179 221 265 318
#     4  10  21  38  60  83 110 146 184 227 277 325
#     4  10  21  37  58  86 118 149 184 226 268 317
#     4   9  18  34  54  73  98 135 173 210 259 320
#
# _framework density 18.507110999999998
#
# number of rings (size 3 to 8) (size 9 to 14) (size 15 to 20)
#    0.000    2.429    0.000    3.857    0.000    7.143 
#    0.000    5.714    0.000    1.714    0.000    0.000 
#    0.000    0.000    0.000    0.000    0.000    0.000 
#
# Total GULP energy -347158.746169 kJ/mol
# GULP energy per Si atom -12398.526649 kJ/mol
# Density = 1.846499 g / cm^3
# Si number density = 18.507111 Si / 1000 Ang^3
#
#
#
# Elastic Constant Matrix: (Units=GPa)
#
#
# Indices 1 2 3 4 5 6 
#
# 1 112.1556 56.3315 59.4000 0.0000 0.0000 0.0000
# 2 56.3315 96.9143 59.5377 0.0000 0.0000 0.0000
# 3 59.4000 59.5377 146.5477 0.0000 0.0000 0.0000
# 4 0.0000 0.0000 0.0000 33.6808 0.0000 0.0000
# 5 0.0000 0.0000 0.0000 0.0000 22.6436 0.0000
# 6 0.0000 0.0000 0.0000 0.0000 0.0000 28.0426
#
#
#
# Elastic Compliance Matrix: (Units=1/GPa)
#
#
# Indices 1 2 3 4 5 6 
#
# 1 0.013546 -0.005997 -0.003054 0.000000 0.000000 0.000000
# 2 -0.005997 0.016406 -0.004234 0.000000 0.000000 0.000000
# 3 -0.003054 -0.004234 0.009782 0.000000 0.000000 0.000000
# 4 0.000000 0.000000 0.000000 0.029691 0.000000 0.000000
# 5 0.000000 0.000000 0.000000 0.000000 0.044163 0.000000
# 6 0.000000 0.000000 0.000000 0.000000 0.000000 0.035660
#
#
# Mechanical properties :
#
#
# Convention : Reuss Voigt Hill
#
# Bulk Modulus (GPa) = 75.97519 78.46176 77.21847
# Shear Modulus (GPa) = 27.74620 28.89663 28.32142
#
# Velocity S-wave (km/s) = 3.87617 3.95572 3.91615
# Velocity P-wave (km/s) = 7.82138 7.95934 7.89066
#
# Compressibility (1/GPa) = 0.01316219
#
# Stress axis : x y z
#
# Youngs Moduli (GPa) = 73.82300 60.95488 102.23081
#
# Poissons Ratio (x) = 0.36557 0.31221
# Poissons Ratio (y) = 0.44275 0.43286
# Poissons Ratio (z) = 0.22545 0.25809
#
# Static dielectric constant tensor:
#      x y z
#    x 3.347330 0.000000 0.000000 
#    y 0.000000 3.360420 0.000000 
#    z 0.000000 0.000000 3.576230 
# 
# 
# High freq. dielectric constant tensor:
#      x y z
#    x 1.718760 0.000000 0.000000 
#    y 0.000000 1.714760 0.000000 
#    z 0.000000 0.000000 1.725840 
# 
# From -- ./inp_files/15479.got.cif
#   From: 2010.03.12/outbox.cif.g09.slc.cpg/sg38_8_cif.got.tgz:15479.got - 2010.04.14 02:38:36.
