data_PCOD8180936
_publ_section_title
;
Structure prediction by ZEFSAII (Michael W. Deem and Ramdas Pophale) SiO2 
 PCOD8180936
Probable space group: A B M 2
;
_chemical_formula_sum "Si O2"
_cell_formula_units_Z 64
_cell_length_a 14.472988
_cell_length_b 9.069940
_cell_length_c 24.765760
_cell_angle_alpha 90.000000
_cell_angle_beta 90.000000
_cell_angle_gamma 90.000000
_cell_volume 3250.979838
_symmetry_space_group_name_H-M "A B M 2"
_symmetry_group_IT_number 39
_symmetry_cell_setting 'orthorhombic'
loop_
_space_group_symop_operation_xyz
x,y,z
-x,-y,z
-x,1/2+y,z
x,1/2-y,z
x,1/2+y,1/2+z
-x,1/2-y,1/2+z
-x,y,1/2+z
x,-y,1/2+z
loop_
_atom_site_type_symbol
_atom_site_label
_atom_site_fract_x
_atom_site_fract_y
_atom_site_fract_z
Si Si1 0.288262 0.921848 0.743810
Si Si2 0.401224 0.577409 0.638427
Si Si3 0.132692 0.083657 0.396822
Si Si4 0.342956 0.583260 0.925818
Si Si5 0.088579 0.077723 0.002989
Si Si6 0.089216 0.920533 0.776542
Si Si7 0.707188 0.923063 0.031289
Si Si8 0.589556 0.075437 0.326380
O O1 0.306160 0.750000 0.757718
O O2 0.339707 0.970660 0.689399
O O3 0.178496 0.952333 0.738989
O O4 0.322518 0.022885 0.792642
O O5 0.500000 0.500000 0.639086
O O6 0.420441 0.750000 0.638667
O O7 0.341257 0.530364 0.586724
O O8 0.096156 0.250000 0.407382
O O9 0.242379 0.082588 0.400091
O O10 0.105592 0.023747 0.337826
O O11 0.090738 0.973189 0.440685
O O12 0.382217 0.750000 0.928528
O O13 0.406221 0.482432 0.887766
O O14 0.344947 0.514102 0.985264
O O15 0.071982 0.250000 0.005319
O O16 0.183914 0.033416 0.033172
O O17 0.000000 0.000000 0.031498
O O18 0.066565 0.750000 0.777484
O O19 0.000000 0.000000 0.751106
O O20 0.697350 0.750000 0.018795
O O21 0.580881 0.250000 0.325191
O O22 0.500000 0.000000 0.298754
#
# Coordination Sequence:
#
# PCOD8180936 Si02
#       8
#     8   8   8   8   8   8   8   8
#     4  10  21  41  62  83 115 153 192 241 293 343
#     4  10  22  41  66  87 110 145 191 242 294 348
#     4   9  17  31  51  76 110 151 191 230 276 332
#     4  10  19  35  57  83 117 154 189 233 287 342
#     4  10  19  31  50  77 113 151 193 234 276 334
#     4  10  20  34  53  80 115 152 191 234 281 338
#     4   9  20  38  57  83 115 151 192 235 287 348
#     4  12  24  37  57  85 117 153 190 235 289 351
#
# _framework density 19.686373
#
# number of rings (size 3 to 8) (size 9 to 14) (size 15 to 20)
#    0.000    2.000    1.250    2.625    0.000    5.500 
#    0.000    1.875    0.000    0.000    0.000    0.000 
#    0.000    0.000    0.000    0.000    0.000    0.000 
#
# Total GULP energy -396803.467261 kJ/mol
# GULP energy per Si atom -12400.108352 kJ/mol
# Density = 1.964157 g / cm^3
# Si number density = 19.686373 Si / 1000 Ang^3
#
#
#
# Elastic Constant Matrix: (Units=GPa)
#
#
# Indices 1 2 3 4 5 6 
#
# 1 132.8241 53.8324 61.6375 0.0000 0.0000 0.0000
# 2 53.8324 94.3075 48.2949 0.0000 0.0000 0.0000
# 3 61.6375 48.2949 106.2602 0.0000 0.0000 0.0000
# 4 0.0000 0.0000 0.0000 20.8540 0.0000 0.0000
# 5 0.0000 0.0000 0.0000 0.0000 23.0132 0.0000
# 6 0.0000 0.0000 0.0000 0.0000 0.0000 36.4202
#
#
#
# Elastic Compliance Matrix: (Units=1/GPa)
#
#
# Indices 1 2 3 4 5 6 
#
# 1 0.011382 -0.004061 -0.004756 0.000000 0.000000 0.000000
# 2 -0.004061 0.015269 -0.004584 0.000000 0.000000 0.000000
# 3 -0.004756 -0.004584 0.014253 0.000000 0.000000 0.000000
# 4 0.000000 0.000000 0.000000 0.047952 0.000000 0.000000
# 5 0.000000 0.000000 0.000000 0.000000 0.043453 0.000000
# 6 0.000000 0.000000 0.000000 0.000000 0.000000 0.027457
#
#
# Mechanical properties :
#
#
# Convention : Reuss Voigt Hill
#
# Bulk Modulus (GPa) = 70.91632 73.43569 72.17601
# Shear Modulus (GPa) = 26.14084 27.36596 26.75340
#
# Velocity S-wave (km/s) = 3.64794 3.73244 3.69043
# Velocity P-wave (km/s) = 7.33788 7.48055 7.40956
#
# Compressibility (1/GPa) = 0.01410113
#
# Stress axis : x y z
#
# Youngs Moduli (GPa) = 87.85812 65.49065 70.15908
#
# Poissons Ratio (x) = 0.26598 0.33371
# Poissons Ratio (y) = 0.35682 0.32161
# Poissons Ratio (z) = 0.41789 0.30021
#
# Static dielectric constant tensor:
#      x y z
#    x 3.791920 0.000000 0.000000 
#    y 0.000000 3.515880 0.000000 
#    z 0.000000 0.000000 3.427150 
# 
# 
# High freq. dielectric constant tensor:
#      x y z
#    x 1.780980 0.000000 0.000000 
#    y 0.000000 1.762730 0.000000 
#    z 0.000000 0.000000 1.741880 
# 
# From -- ./inp_files/16175.got.cif
#   From: 2010.03.12/outbox.cif.g09.slc.cpg/sg39_9_cif.got.tgz:16175.got - 2010.04.14 02:53:20.
