data_PCOD8180241
_publ_section_title
;
Structure prediction by ZEFSAII (Michael W. Deem and Ramdas Pophale) SiO2 
 PCOD8180241
Probable space group: A M M 2
;
_chemical_formula_sum "Si O2"
_cell_formula_units_Z 64
_cell_length_a 9.139931
_cell_length_b 22.342676
_cell_length_c 15.442520
_cell_angle_alpha 90.000000
_cell_angle_beta 90.000000
_cell_angle_gamma 90.000000
_cell_volume 3153.524993
_symmetry_space_group_name_H-M "A M M 2"
_symmetry_group_IT_number 38
_symmetry_cell_setting 'orthorhombic'
loop_
_space_group_symop_operation_xyz
x,y,z
-x,-y,z
-x,y,z
x,-y,z
x,1/2+y,1/2+z
-x,1/2-y,1/2+z
-x,1/2+y,1/2+z
x,1/2-y,1/2+z
loop_
_atom_site_type_symbol
_atom_site_label
_atom_site_fract_x
_atom_site_fract_y
_atom_site_fract_z
Si Si1 0.660887 0.929065 0.517370
Si Si2 0.831930 0.310265 0.252285
Si Si3 0.167008 0.066023 0.685768
Si Si4 0.325996 0.733154 0.612402
Si Si5 0.837244 0.929244 0.357621
Si Si6 0.826016 0.693352 0.446098
Si Si7 0.167773 0.881442 0.175829
Si Si8 0.167088 0.435440 0.497546
O O1 0.500000 0.900726 0.523656
O O2 0.747023 0.910543 0.602483
O O3 0.737506 0.901027 0.432811
O O4 0.653724 0.000000 0.508913
O O5 0.812570 0.382859 0.258329
O O6 0.729849 0.285499 0.176049
O O7 0.790891 0.285058 0.347976
O O8 0.000000 0.293997 0.230535
O O9 0.000000 0.060589 0.656510
O O10 0.221815 0.000000 0.718359
O O11 0.500000 0.737389 0.603489
O O12 0.254229 0.736517 0.515752
O O13 0.277959 0.671981 0.656839
O O14 0.776111 0.910175 0.264682
O O15 0.000000 0.903727 0.371000
O O16 0.837914 0.000000 0.363939
O O17 0.763843 0.624957 0.456498
O O18 0.000000 0.694432 0.465377
O O19 0.178431 0.931371 0.101617
O O20 0.000000 0.857745 0.182321
O O21 0.240543 0.500000 0.470426
O O22 0.000000 0.438101 0.466780
#
# Coordination Sequence:
#
# PCOD8180241 Si02
#       8
#     8   8   8   8   8   8   8   8
#     4   9  17  29  45  68 104 147 183 218 266 325
#     4  10  21  39  63  88 113 146 187 231 281 335
#     4   9  18  34  57  85 114 141 175 223 277 333
#     4  11  23  39  58  80 111 149 189 236 283 329
#     4   9  16  27  47  75 105 140 186 237 286 334
#     4   9  19  37  61  86 114 148 186 231 280 333
#     4   9  17  31  51  75 106 145 188 232 280 330
#     4   8  13  24  48  82 114 141 173 217 271 329
#
# _framework density 20.294750000000001
#
# number of rings (size 3 to 8) (size 9 to 14) (size 15 to 20)
#    0.000    2.750    0.000    2.625    0.000    5.000 
#    2.250    2.500    0.000    9.000    0.000    3.500 
#    0.000    0.000    0.000    0.000    0.000    0.000 
#
# Total GULP energy -396495.559836 kJ/mol
# GULP energy per Si atom -12390.486245 kJ/mol
# Density = 2.024856 g / cm^3
# Si number density = 20.294750 Si / 1000 Ang^3
#
#
#
# Elastic Constant Matrix: (Units=GPa)
#
#
# Indices 1 2 3 4 5 6 
#
# 1 87.5877 23.9707 48.3206 0.0000 0.0000 0.0000
# 2 23.9707 60.2506 23.4536 0.0000 0.0000 0.0000
# 3 48.3206 23.4536 114.2085 0.0000 0.0000 0.0000
# 4 0.0000 0.0000 0.0000 25.4445 0.0000 0.0000
# 5 0.0000 0.0000 0.0000 0.0000 12.0115 0.0000
# 6 0.0000 0.0000 0.0000 0.0000 0.0000 14.7160
#
#
#
# Elastic Compliance Matrix: (Units=1/GPa)
#
#
# Indices 1 2 3 4 5 6 
#
# 1 0.015727 -0.003985 -0.005836 0.000000 0.000000 0.000000
# 2 -0.003985 0.019049 -0.002226 0.000000 0.000000 0.000000
# 3 -0.005836 -0.002226 0.011682 0.000000 0.000000 0.000000
# 4 0.000000 0.000000 0.000000 0.039301 0.000000 0.000000
# 5 0.000000 0.000000 0.000000 0.000000 0.083254 0.000000
# 6 0.000000 0.000000 0.000000 0.000000 0.000000 0.067953
#
#
# Mechanical properties :
#
#
# Convention : Reuss Voigt Hill
#
# Bulk Modulus (GPa) = 44.71274 50.39297 47.55286
# Shear Modulus (GPa) = 18.62089 21.52118 20.07103
#
# Velocity S-wave (km/s) = 3.03235 3.25996 3.14821
# Velocity P-wave (km/s) = 5.86001 6.24934 6.05780
#
# Compressibility (1/GPa) = 0.02236499
#
# Stress axis : x y z
#
# Youngs Moduli (GPa) = 63.58378 52.49517 85.60182
#
# Poissons Ratio (x) = 0.20922 0.49954
# Poissons Ratio (y) = 0.25341 0.19053
# Poissons Ratio (z) = 0.37105 0.11684
#
# Static dielectric constant tensor:
#      x y z
#    x 3.499340 0.000000 0.000000 
#    y 0.000000 3.600270 0.000000 
#    z 0.000000 0.000000 3.742300 
# 
# 
# High freq. dielectric constant tensor:
#      x y z
#    x 1.755340 0.000000 0.000000 
#    y 0.000000 1.779300 0.000000 
#    z 0.000000 0.000000 1.796140 
# 
# From -- ./inp_files/12855.got.cif
#   From: 2010.03.12/outbox.cif.g09.slc.cpg/sg38_7_cif.got.tgz:12855.got - 2010.04.14 02:38:36.
