data_PCOD8180077
_publ_section_title
;
Structure prediction by ZEFSAII (Michael W. Deem and Ramdas Pophale) SiO2 
 PCOD8180077
Probable space group: A M M 2
;
_chemical_formula_sum "Si O2"
_cell_formula_units_Z 64
_cell_length_a 14.717734
_cell_length_b 9.106069
_cell_length_c 24.424831
_cell_angle_alpha 90.000000
_cell_angle_beta 90.000000
_cell_angle_gamma 90.000000
_cell_volume 3273.432980
_symmetry_space_group_name_H-M "A M M 2"
_symmetry_group_IT_number 38
_symmetry_cell_setting 'orthorhombic'
loop_
_space_group_symop_operation_xyz
x,y,z
-x,-y,z
-x,y,z
x,-y,z
x,1/2+y,1/2+z
-x,1/2-y,1/2+z
-x,1/2+y,1/2+z
x,1/2-y,1/2+z
loop_
_atom_site_type_symbol
_atom_site_label
_atom_site_fract_x
_atom_site_fract_y
_atom_site_fract_z
Si Si1 0.102466 0.672345 0.648420
Si Si2 0.106395 0.329735 0.375205
Si Si3 0.755216 0.825614 0.449077
Si Si4 0.892126 0.662351 0.253885
Si Si5 0.399133 0.674592 0.867284
Si Si6 0.392220 0.336993 0.747355
Si Si7 0.256944 0.325653 0.565279
Si Si8 0.392568 0.668822 0.141505
O O1 0.101111 0.500000 0.654621
O O2 0.143340 0.733058 0.705542
O O3 0.167357 0.721953 0.599112
O O4 0.000000 0.731764 0.636934
O O5 0.131044 0.500000 0.386232
O O6 0.153958 0.223590 0.418396
O O7 0.139141 0.283203 0.314022
O O8 0.000000 0.304260 0.382606
O O9 0.668891 0.769601 0.413937
O O10 0.751363 0.746143 0.506562
O O11 0.755097 0.000000 0.457189
O O12 0.853545 0.500000 0.242468
O O13 0.000000 0.658464 0.254136
O O14 0.500000 0.738306 0.879688
O O15 0.403542 0.500000 0.866304
O O16 0.363417 0.725595 0.807134
O O17 0.500000 0.348079 0.746540
O O18 0.351259 0.500000 0.736506
O O19 0.357510 0.227180 0.700366
O O20 0.265221 0.500000 0.560006
O O21 0.346881 0.263576 0.593903
O O22 0.500000 0.688961 0.135155
O O23 0.363452 0.500000 0.135859
#
# Coordination Sequence:
#
# PCOD8180077 Si02
#       8
#     8   8   8   8   8   8   8   8
#     4   9  19  36  57  80 106 138 176 220 271 324
#     4   9  19  37  58  79 109 148 181 213 264 327
#     4  11  23  37  55  81 109 139 184 235 275 315
#     4   8  15  30  54  83 111 139 173 214 265 325
#     4   8  16  33  56  80 108 142 175 212 266 328
#     4   8  14  29  55  83 109 139 175 212 258 325
#     4  11  24  40  56  76 106 146 190 228 267 324
#     4  10  21  37  57  82 112 143 176 222 276 320
#
# _framework density 19.551338999999999
#
# number of rings (size 3 to 8) (size 9 to 14) (size 15 to 20)
#    0.000    2.750    0.000    2.625    0.000    4.500 
#    0.000    8.750    0.000    2.625    0.000    0.000 
#    0.000    0.000    0.000    0.000    0.000    0.000 
#
# Total GULP energy -396707.444626 kJ/mol
# GULP energy per Si atom -12397.107645 kJ/mol
# Density = 1.950684 g / cm^3
# Si number density = 19.551339 Si / 1000 Ang^3
#
#
#
# Elastic Constant Matrix: (Units=GPa)
#
#
# Indices 1 2 3 4 5 6 
#
# 1 69.0850 40.2222 58.2160 0.0000 0.0000 0.0000
# 2 40.2222 72.8044 64.1363 0.0000 0.0000 0.0000
# 3 58.2160 64.1363 178.9766 0.0000 0.0000 0.0000
# 4 0.0000 0.0000 0.0000 211.8961 0.0000 0.0000
# 5 0.0000 0.0000 0.0000 0.0000 31.9688 0.0000
# 6 0.0000 0.0000 0.0000 0.0000 0.0000 24.3395
#
#
#
# Elastic Compliance Matrix: (Units=1/GPa)
#
#
# Indices 1 2 3 4 5 6 
#
# 1 0.023460 -0.009117 -0.004364 0.000000 0.000000 0.000000
# 2 -0.009117 0.023614 -0.005497 0.000000 0.000000 0.000000
# 3 -0.004364 -0.005497 0.008977 0.000000 0.000000 0.000000
# 4 0.000000 0.000000 0.000000 0.004719 0.000000 0.000000
# 5 0.000000 0.000000 0.000000 0.000000 0.031280 0.000000
# 6 0.000000 0.000000 0.000000 0.000000 0.000000 0.041085
#
#
# Mechanical properties :
#
#
# Convention : Reuss Voigt Hill
#
# Bulk Modulus (GPa) = 55.25992 71.77947 63.51969
# Shear Modulus (GPa) = 28.22889 64.19366 46.21127
#
# Velocity S-wave (km/s) = 3.80390 5.73626 4.86695
# Velocity P-wave (km/s) = 6.90060 8.98142 8.00888
#
# Compressibility (1/GPa) = 0.01809630
#
# Stress axis : x y z
#
# Youngs Moduli (GPa) = 42.62552 42.34687 111.40065
#
# Poissons Ratio (x) = 0.38606 0.48615
# Poissons Ratio (y) = 0.38860 0.61236
# Poissons Ratio (z) = 0.18602 0.23278
#
# Static dielectric constant tensor:
#      x y z
#    x 3.599700 0.000000 0.000000 
#    y 0.000000 2.604520 0.000000 
#    z 0.000000 0.000000 3.768500 
# 
# 
# High freq. dielectric constant tensor:
#      x y z
#    x 1.755280 0.000000 0.000000 
#    y 0.000000 1.747120 0.000000 
#    z 0.000000 0.000000 1.766100 
# 
# From -- ./inp_files/22907.got.cif
#   From: 2010.03.12/outbox.cif.g09.slc.cpg/sg38_12_cif.got.tgz:22907.got - 2010.04.14 02:38:36.
