data_PCOD8180645
_publ_section_title
;
Structure prediction by ZEFSAII (Michael W. Deem and Ramdas Pophale) SiO2 
 PCOD8180645
Probable space group: A B M 2
;
_chemical_formula_sum "Si O2"
_cell_formula_units_Z 64
_cell_length_a 19.523309
_cell_length_b 8.788928
_cell_length_c 20.431245
_cell_angle_alpha 90.000000
_cell_angle_beta 90.000000
_cell_angle_gamma 90.000000
_cell_volume 3505.776022
_symmetry_space_group_name_H-M "A B M 2"
_symmetry_group_IT_number 39
_symmetry_cell_setting 'orthorhombic'
loop_
_space_group_symop_operation_xyz
x,y,z
-x,-y,z
-x,1/2+y,z
x,1/2-y,z
x,1/2+y,1/2+z
-x,1/2-y,1/2+z
-x,y,1/2+z
x,-y,1/2+z
loop_
_atom_site_type_symbol
_atom_site_label
_atom_site_fract_x
_atom_site_fract_y
_atom_site_fract_z
Si Si1 0.285287 0.428531 0.066420
Si Si2 0.567738 0.069458 0.922901
Si Si3 0.925645 0.929357 0.255127
Si Si4 0.434068 0.570621 0.566512
Si Si5 0.145553 0.930405 0.623135
Si Si6 0.928970 0.571748 0.503284
Si Si7 0.160048 0.071757 0.378959
Si Si8 0.294439 0.429933 0.918154
O O1 0.275542 0.250000 0.061706
O O2 0.359819 0.465704 0.099593
O O3 0.222708 0.494895 0.109670
O O4 0.281963 0.491897 0.992223
O O5 0.565470 0.250000 0.919846
O O6 0.500000 0.000000 0.887426
O O7 0.636872 0.007288 0.888734
O O8 0.567914 0.009550 0.996720
O O9 0.935038 0.750000 0.255790
O O10 0.877744 0.982338 0.194994
O O11 0.889543 0.986648 0.321365
O O12 0.000000 0.000000 0.248223
O O13 0.500000 0.500000 0.605671
O O14 0.444370 0.750000 0.557600
O O15 0.142667 0.750000 0.615633
O O16 0.093151 0.001130 0.571827
O O17 0.938703 0.750000 0.511827
O O18 0.873709 0.531166 0.448182
O O19 0.000000 0.500000 0.480186
O O20 0.174903 0.250000 0.371485
O O21 0.231252 0.981631 0.373251
O O22 0.303677 0.250000 0.916078
#
# Coordination Sequence:
#
# PCOD8180645 Si02
#       8
#     8   8   8   8   8   8   8   8
#     4   8  15  27  45  69  97 126 162 202 247 298
#     4  10  17  26  41  65 100 138 172 208 249 299
#     4  10  22  38  56  74  99 131 169 212 258 311
#     4   9  15  24  38  62  95 132 169 204 246 298
#     4  10  19  35  55  75  99 131 168 210 256 304
#     4  11  22  34  51  74 100 127 161 204 254 309
#     4  10  21  36  51  74 101 130 167 210 257 306
#     4  10  18  30  49  73 100 133 169 210 256 305
#
# _framework density 18.255586999999998
#
# number of rings (size 3 to 8) (size 9 to 14) (size 15 to 20)
#    0.000    2.250    1.250    4.500    0.000    2.500 
#    0.000    0.625    0.000    0.000    0.000    0.875 
#    0.000    2.000    0.000    0.000    0.000    0.625 
#
# Total GULP energy -396632.666949 kJ/mol
# GULP energy per Si atom -12394.770842 kJ/mol
# Density = 1.821404 g / cm^3
# Si number density = 18.255587 Si / 1000 Ang^3
#
#
#
# Elastic Constant Matrix: (Units=GPa)
#
#
# Indices 1 2 3 4 5 6 
#
# 1 167.8012 51.3080 29.1805 0.0000 0.0000 0.0000
# 2 51.3080 74.7187 23.0188 0.0000 0.0000 0.0000
# 3 29.1805 23.0188 59.6494 0.0000 0.0000 0.0000
# 4 0.0000 0.0000 0.0000 15.0778 0.0000 0.0000
# 5 0.0000 0.0000 0.0000 0.0000 20.7831 0.0000
# 6 0.0000 0.0000 0.0000 0.0000 0.0000 34.2860
#
#
#
# Elastic Compliance Matrix: (Units=1/GPa)
#
#
# Indices 1 2 3 4 5 6 
#
# 1 0.007742 -0.004709 -0.001970 0.000000 0.000000 0.000000
# 2 -0.004709 0.018054 -0.004663 0.000000 0.000000 0.000000
# 3 -0.001970 -0.004663 0.019528 0.000000 0.000000 0.000000
# 4 0.000000 0.000000 0.000000 0.066323 0.000000 0.000000
# 5 0.000000 0.000000 0.000000 0.000000 0.048116 0.000000
# 6 0.000000 0.000000 0.000000 0.000000 0.000000 0.029166
#
#
# Mechanical properties :
#
#
# Convention : Reuss Voigt Hill
#
# Bulk Modulus (GPa) = 44.17230 56.57598 50.37414
# Shear Modulus (GPa) = 22.81434 27.27352 25.04393
#
# Velocity S-wave (km/s) = 3.53897 3.86940 3.70787
# Velocity P-wave (km/s) = 6.39908 7.14292 6.78121
#
# Compressibility (1/GPa) = 0.02263862
#
# Stress axis : x y z
#
# Youngs Moduli (GPa) = 129.16588 55.38948 51.20870
#
# Poissons Ratio (x) = 0.26085 0.10088
# Poissons Ratio (y) = 0.60829 0.23880
# Poissons Ratio (z) = 0.25446 0.25829
#
# Static dielectric constant tensor:
#      x y z
#    x 4.174270 0.000000 0.000000 
#    y 0.000000 3.261390 0.000000 
#    z 0.000000 0.000000 3.055220 
# 
# 
# High freq. dielectric constant tensor:
#      x y z
#    x 1.737710 0.000000 0.000000 
#    y 0.000000 1.701040 0.000000 
#    z 0.000000 0.000000 1.648950 
# 
# From -- ./inp_files/15066.got.cif
#   From: 2010.03.12/outbox.cif.g09.slc.cpg/sg39_8_cif.got.tgz:15066.got - 2010.04.14 02:53:20.
