data_PCOD8180664
_publ_section_title
;
Structure prediction by ZEFSAII (Michael W. Deem and Ramdas Pophale) SiO2 
 PCOD8180664
Probable space group: A B M 2
;
_chemical_formula_sum "Si O2"
_cell_formula_units_Z 40
_cell_length_a 9.303948
_cell_length_b 8.755298
_cell_length_c 26.079745
_cell_angle_alpha 90.000000
_cell_angle_beta 90.000000
_cell_angle_gamma 90.000000
_cell_volume 2124.425705
_symmetry_space_group_name_H-M "A B M 2"
_symmetry_group_IT_number 39
_symmetry_cell_setting 'orthorhombic'
loop_
_space_group_symop_operation_xyz
x,y,z
-x,-y,z
-x,1/2+y,z
x,1/2-y,z
x,1/2+y,1/2+z
-x,1/2-y,1/2+z
-x,y,1/2+z
x,-y,1/2+z
loop_
_atom_site_type_symbol
_atom_site_label
_atom_site_fract_x
_atom_site_fract_y
_atom_site_fract_z
Si Si1 0.155383 0.570483 0.961450
Si Si2 0.340431 0.069017 0.761318
Si Si3 0.656719 0.927188 0.048611
Si Si4 0.343696 0.930156 0.864050
Si Si5 0.654567 0.426284 0.662154
O O1 0.141392 0.750000 0.967312
O O2 0.245922 0.523573 0.911712
O O3 0.000000 0.500000 0.955110
O O4 0.230824 0.506477 0.011713
O O5 0.341329 0.250000 0.763743
O O6 0.500000 0.000000 0.759262
O O7 0.268895 0.001849 0.813026
O O8 0.260471 0.011703 0.708891
O O9 0.641024 0.750000 0.034530
O O10 0.724532 0.947558 0.105933
O O11 0.500000 0.000000 0.042346
O O12 0.358707 0.750000 0.857010
O O13 0.500000 0.000000 0.873886
O O14 0.500000 0.500000 0.656781
O O15 0.639845 0.250000 0.677206
#
# Coordination Sequence:
#
# PCOD8180664 Si02
#       5
#     8   8   8   8   8
#     4  11  24  39  56  76 103 139 177 219 267 316
#     4  10  17  26  45  73 104 136 167 207 254 302
#     4  10  20  34  55  81 109 140 176 217 261 309
#     4  10  20  34  53  78 105 136 172 213 258 307
#     4   9  16  27  45  72 105 137 167 206 253 302
#
# _framework density 18.828617999999999
#
# number of rings (size 3 to 8) (size 9 to 14) (size 15 to 20)
#    0.000    2.000    0.000    7.200    0.000    7.200 
#    0.000    0.000    0.000    1.200    0.000    5.600 
#    0.000    0.000    0.000    0.000    0.000    0.000 
#
# Total GULP energy -247881.891839 kJ/mol
# GULP energy per Si atom -12394.094592 kJ/mol
# Density = 1.878576 g / cm^3
# Si number density = 18.828618 Si / 1000 Ang^3
#
#
#
# Elastic Constant Matrix: (Units=GPa)
#
#
# Indices 1 2 3 4 5 6 
#
# 1 69.3682 39.1011 57.8427 0.0000 0.0000 0.0000
# 2 39.1011 122.8356 83.7450 0.0000 0.0000 0.0000
# 3 57.8427 83.7450 183.8770 0.0000 0.0000 0.0000
# 4 0.0000 0.0000 0.0000 32.4330 0.0000 0.0000
# 5 0.0000 0.0000 0.0000 0.0000 -14.5978 0.0000
# 6 0.0000 0.0000 0.0000 0.0000 0.0000 22.9506
#
#
#
# Elastic Compliance Matrix: (Units=1/GPa)
#
#
# Indices 1 2 3 4 5 6 
#
# 1 0.020304 -0.003058 -0.004994 0.000000 0.000000 0.000000
# 2 -0.003058 0.012268 -0.004625 0.000000 0.000000 0.000000
# 3 -0.004994 -0.004625 0.009116 0.000000 0.000000 0.000000
# 4 0.000000 0.000000 0.000000 0.030833 0.000000 0.000000
# 5 0.000000 0.000000 0.000000 0.000000 -0.068504 0.000000
# 6 0.000000 0.000000 0.000000 0.000000 0.000000 0.043572
#
#
# Mechanical properties :
#
#
# Convention : Reuss Voigt Hill
#
# Bulk Modulus (GPa) = 61.22791 81.93982 71.58387
# Shear Modulus (GPa) = 63.78471 21.18330 42.48400
#
# Velocity S-wave (km/s) = 5.82666 3.35783 4.75526
# Velocity P-wave (km/s) = 8.82359 7.65811 8.26143
#
# Compressibility (1/GPa) = 0.01633242
#
# Stress axis : x y z
#
# Youngs Moduli (GPa) = 49.25085 81.51440 109.69758
#
# Poissons Ratio (x) = 0.24930 0.54786
# Poissons Ratio (y) = 0.15063 0.50737
# Poissons Ratio (z) = 0.24597 0.37702
#
# Static dielectric constant tensor:
#      x y z
#    x 3.195400 0.000000 0.000000 
#    y 0.000000 3.659420 0.000000 
#    z 0.000000 0.000000 4.740650 
# 
# 
# High freq. dielectric constant tensor:
#      x y z
#    x 1.663250 0.000000 0.000000 
#    y 0.000000 1.753930 0.000000 
#    z 0.000000 0.000000 1.767310 
# 
# From -- ./inp_files/16734.got.cif
#   From: 2010.03.12/outbox.cif.g09.slc.cpg/sg39_9_cif.got.tgz:16734.got - 2010.04.14 02:53:20.
