data_PCOD8180888
_publ_section_title
;
Structure prediction by ZEFSAII (Michael W. Deem and Ramdas Pophale) SiO2 
 PCOD8180888
Probable space group: A B M 2
;
_chemical_formula_sum "Si O2"
_cell_formula_units_Z 64
_cell_length_a 14.212283
_cell_length_b 8.954440
_cell_length_c 31.212153
_cell_angle_alpha 90.000000
_cell_angle_beta 90.000000
_cell_angle_gamma 90.000000
_cell_volume 3972.153332
_symmetry_space_group_name_H-M "A B M 2"
_symmetry_group_IT_number 39
_symmetry_cell_setting 'orthorhombic'
loop_
_space_group_symop_operation_xyz
x,y,z
-x,-y,z
-x,1/2+y,z
x,1/2-y,z
x,1/2+y,1/2+z
-x,1/2-y,1/2+z
-x,y,1/2+z
x,-y,1/2+z
loop_
_atom_site_type_symbol
_atom_site_label
_atom_site_fract_x
_atom_site_fract_y
_atom_site_fract_z
Si Si1 0.903421 0.425497 0.882090
Si Si2 0.278506 0.574923 0.411802
Si Si3 0.723152 0.573904 0.750396
Si Si4 0.399172 0.424856 0.577268
Si Si5 0.600404 0.425397 0.331358
Si Si6 0.096393 0.925482 0.783448
Si Si7 0.600093 0.076378 0.171546
Si Si8 0.398330 0.573985 0.494615
O O1 0.912140 0.250000 0.888502
O O2 0.819908 0.488260 0.911364
O O3 0.883072 0.468957 0.832746
O O4 0.000000 0.500000 0.897802
O O5 0.257753 0.750000 0.407675
O O6 0.342605 0.518080 0.372661
O O7 0.331005 0.533312 0.455433
O O8 0.742711 0.750000 0.751127
O O9 0.656130 0.524710 0.789183
O O10 0.821370 0.488648 0.753696
O O11 0.674684 0.519387 0.706430
O O12 0.500000 0.500000 0.578800
O O13 0.407179 0.250000 0.567333
O O14 0.354389 0.453936 0.624305
O O15 0.347264 0.506411 0.537433
O O16 0.500000 0.500000 0.330902
O O17 0.584921 0.250000 0.333061
O O18 0.087937 0.750000 0.777160
O O19 0.000000 0.000000 0.767788
O O20 0.580140 0.250000 0.178226
O O21 0.500000 0.000000 0.178381
O O22 0.500000 0.500000 0.486773
O O23 0.412040 0.750000 0.499574
#
# Coordination Sequence:
#
# PCOD8180888 Si02
#       8
#     8   8   8   8   8   8   8   8
#     4  10  20  33  51  71  92 120 155 196 237 278
#     4  10  20  33  47  67  94 125 159 194 232 275
#     4  10  19  32  48  67  94 126 158 193 233 276
#     4   9  16  28  45  65  91 121 157 197 237 278
#     4  10  20  31  44  62  91 128 159 189 224 265
#     4  10  20  33  50  71  92 120 156 196 237 277
#     4   9  18  30  46  69  95 126 160 196 235 275
#     4  10  19  30  46  68  95 126 160 197 235 276
#
# _framework density 16.112166999999999
#
# number of rings (size 3 to 8) (size 9 to 14) (size 15 to 20)
#    0.000    2.250    1.250    3.000    0.000    4.000 
#    0.000    0.000    0.000    0.000    0.000    0.875 
#    0.000    6.000    0.000    0.000    0.000    0.000 
#
# Total GULP energy -396758.394498 kJ/mol
# GULP energy per Si atom -12398.699828 kJ/mol
# Density = 1.607549 g / cm^3
# Si number density = 16.112167 Si / 1000 Ang^3
#
#
#
# Elastic Constant Matrix: (Units=GPa)
#
#
# Indices 1 2 3 4 5 6 
#
# 1 119.3150 49.9933 66.0372 0.0000 0.0000 0.0000
# 2 49.9933 65.9515 48.4440 0.0000 0.0000 0.0000
# 3 66.0372 48.4440 136.2660 0.0000 0.0000 0.0000
# 4 0.0000 0.0000 0.0000 22.2348 0.0000 0.0000
# 5 0.0000 0.0000 0.0000 0.0000 11.5877 0.0000
# 6 0.0000 0.0000 0.0000 0.0000 0.0000 30.6951
#
#
#
# Elastic Compliance Matrix: (Units=1/GPa)
#
#
# Indices 1 2 3 4 5 6 
#
# 1 0.013721 -0.007466 -0.003995 0.000000 0.000000 0.000000
# 2 -0.007466 0.024584 -0.005122 0.000000 0.000000 0.000000
# 3 -0.003995 -0.005122 0.011095 0.000000 0.000000 0.000000
# 4 0.000000 0.000000 0.000000 0.044975 0.000000 0.000000
# 5 0.000000 0.000000 0.000000 0.000000 0.086299 0.000000
# 6 0.000000 0.000000 0.000000 0.000000 0.000000 0.032578
#
#
# Mechanical properties :
#
#
# Convention : Reuss Voigt Hill
#
# Bulk Modulus (GPa) = 61.59663 72.27573 66.93618
# Shear Modulus (GPa) = 19.85469 23.37405 21.61437
#
# Velocity S-wave (km/s) = 3.51419 3.81295 3.66661
# Velocity P-wave (km/s) = 7.40128 8.02122 7.71748
#
# Compressibility (1/GPa) = 0.01623465
#
# Stress axis : x y z
#
# Youngs Moduli (GPa) = 72.88301 40.67622 90.12687
#
# Poissons Ratio (x) = 0.30370 0.36005
# Poissons Ratio (y) = 0.54416 0.46161
# Poissons Ratio (z) = 0.29117 0.20833
#
# Static dielectric constant tensor:
#      x y z
#    x 2.873930 0.000000 0.000000 
#    y 0.000000 3.126910 0.000000 
#    z 0.000000 0.000000 3.526550 
# 
# 
# High freq. dielectric constant tensor:
#      x y z
#    x 1.596600 0.000000 0.000000 
#    y 0.000000 1.627800 0.000000 
#    z 0.000000 0.000000 1.615290 
# 
# From -- ./inp_files/17991.got.cif
#   From: 2010.03.12/outbox.cif.g09.slc.cpg/sg39_9_cif.got.tgz:17991.got - 2010.04.14 02:53:20.
