data_PCOD8180181
_publ_section_title
;
Structure prediction by ZEFSAII (Michael W. Deem and Ramdas Pophale) SiO2 
 PCOD8180181
Probable space group: A M M 2
;
_chemical_formula_sum "Si O2"
_cell_formula_units_Z 56
_cell_length_a 21.208262
_cell_length_b 8.602047
_cell_length_c 15.418512
_cell_angle_alpha 90.000000
_cell_angle_beta 90.000000
_cell_angle_gamma 90.000000
_cell_volume 2812.868011
_symmetry_space_group_name_H-M "A M M 2"
_symmetry_group_IT_number 38
_symmetry_cell_setting 'orthorhombic'
loop_
_space_group_symop_operation_xyz
x,y,z
-x,-y,z
-x,y,z
x,-y,z
x,1/2+y,1/2+z
-x,1/2-y,1/2+z
-x,1/2+y,1/2+z
x,1/2-y,1/2+z
loop_
_atom_site_type_symbol
_atom_site_label
_atom_site_fract_x
_atom_site_fract_y
_atom_site_fract_z
Si Si1 0.869732 0.684451 0.791110
Si Si2 0.869813 0.815611 0.970905
Si Si3 0.000000 0.316112 0.031603
Si Si4 0.573531 0.680088 0.283333
Si Si5 0.000000 0.683893 0.230808
Si Si6 0.211864 0.684368 0.631238
Si Si7 0.645258 0.682415 0.624763
Si Si8 0.427719 0.680844 0.964366
O O1 0.871298 0.500000 0.792435
O O2 0.842331 0.749467 0.881162
O O3 0.824101 0.749177 0.715743
O O4 0.939664 0.747710 0.778255
O O5 0.871461 0.000000 0.968755
O O6 0.939677 0.752292 0.984156
O O7 0.824075 0.752459 0.046421
O O8 0.000000 0.261660 0.131199
O O9 0.000000 0.500000 0.022457
O O10 0.500000 0.718424 0.272002
O O11 0.587997 0.500000 0.266424
O O12 0.611168 0.783190 0.215034
O O13 0.595705 0.725012 0.380063
O O14 0.000000 0.500000 0.239948
O O15 0.210475 0.500000 0.632574
O O16 0.283340 0.744703 0.631260
O O17 0.642196 0.500000 0.605250
O O18 0.613031 0.773435 0.546779
O O19 0.500000 0.722530 0.985890
O O20 0.419325 0.500000 0.944269
#
# Coordination Sequence:
#
# PCOD8180181 Si02
#       8
#     8   8   4   8   4   8   8   8
#     4  11  22  40  62  85 114 151 192 234 288 343
#     4  11  22  40  62  85 114 151 192 234 288 343
#     4  11  22  37  60  90 118 144 186 239 289 341
#     4  10  21  38  60  88 120 154 195 242 292 346
#     4  11  22  37  60  90 118 144 186 239 289 341
#     4   9  22  41  59  81 115 156 195 236 283 341
#     4  11  22  38  60  87 120 156 197 240 291 348
#     4  10  21  38  60  88 120 154 195 242 292 346
#
# _framework density 19.908505000000002
#
# number of rings (size 3 to 8) (size 9 to 14) (size 15 to 20)
#    0.000    1.571    1.429    3.429    0.000    5.143 
#    0.000    8.571    0.000    0.000    0.000    0.000 
#    0.000    0.000    0.000    0.000    0.000    0.000 
#
# Total GULP energy -347353.336902 kJ/mol
# GULP energy per Si atom -12405.476318 kJ/mol
# Density = 1.986319 g / cm^3
# Si number density = 19.908505 Si / 1000 Ang^3
#
#
#
# Elastic Constant Matrix: (Units=GPa)
#
#
# Indices 1 2 3 4 5 6 
#
# 1 116.6934 22.8943 68.1590 0.0000 0.0000 0.0000
# 2 22.8943 58.1319 26.0096 0.0000 0.0000 0.0000
# 3 68.1590 26.0096 162.5284 0.0000 0.0000 0.0000
# 4 0.0000 0.0000 0.0000 37.6085 0.0000 0.0000
# 5 0.0000 0.0000 0.0000 0.0000 -20.1066 0.0000
# 6 0.0000 0.0000 0.0000 0.0000 0.0000 16.6447
#
#
#
# Elastic Compliance Matrix: (Units=1/GPa)
#
#
# Indices 1 2 3 4 5 6 
#
# 1 0.011703 -0.002599 -0.004492 0.000000 0.000000 0.000000
# 2 -0.002599 0.019106 -0.001968 0.000000 0.000000 0.000000
# 3 -0.004492 -0.001968 0.008351 0.000000 0.000000 0.000000
# 4 0.000000 0.000000 0.000000 0.026590 0.000000 0.000000
# 5 0.000000 0.000000 0.000000 0.000000 -0.049735 0.000000
# 6 0.000000 0.000000 0.000000 0.000000 0.000000 0.060079
#
#
# Mechanical properties :
#
#
# Convention : Reuss Voigt Hill
#
# Bulk Modulus (GPa) = 47.52115 63.49773 55.50944
# Shear Modulus (GPa) = 49.39418 21.51538 35.45478
#
# Velocity S-wave (km/s) = 4.98643 3.29099 4.22463
# Velocity P-wave (km/s) = 7.55475 6.81211 7.19302
#
# Compressibility (1/GPa) = 0.02104326
#
# Stress axis : x y z
#
# Youngs Moduli (GPa) = 85.44743 52.33886 119.74031
#
# Poissons Ratio (x) = 0.13604 0.53786
# Poissons Ratio (y) = 0.22210 0.23559
# Poissons Ratio (z) = 0.38382 0.10298
#
# Static dielectric constant tensor:
#      x y z
#    x 3.723810 0.000000 0.000000 
#    y 0.000000 3.527920 0.000000 
#    z 0.000000 0.000000 3.895690 
# 
# 
# High freq. dielectric constant tensor:
#      x y z
#    x 1.771480 0.000000 0.000000 
#    y 0.000000 1.774510 0.000000 
#    z 0.000000 0.000000 1.795770 
# 
# From -- ./inp_files/15577.got.cif
#   From: 2010.03.12/outbox.cif.g09.slc.cpg/sg38_8_cif.got.tgz:15577.got - 2010.04.14 02:38:36.
