data_PCOD8180173
_publ_section_title
;
Structure prediction by ZEFSAII (Michael W. Deem and Ramdas Pophale) SiO2 
 PCOD8180173
Probable space group: A M M 2
;
_chemical_formula_sum "Si O2"
_cell_formula_units_Z 48
_cell_length_a 17.256506
_cell_length_b 8.880894
_cell_length_c 15.341160
_cell_angle_alpha 90.000000
_cell_angle_beta 90.000000
_cell_angle_gamma 90.000000
_cell_volume 2351.081871
_symmetry_space_group_name_H-M "A M M 2"
_symmetry_group_IT_number 38
_symmetry_cell_setting 'orthorhombic'
loop_
_space_group_symop_operation_xyz
x,y,z
-x,-y,z
-x,y,z
x,-y,z
x,1/2+y,1/2+z
-x,1/2-y,1/2+z
-x,1/2+y,1/2+z
x,1/2-y,1/2+z
loop_
_atom_site_type_symbol
_atom_site_label
_atom_site_fract_x
_atom_site_fract_y
_atom_site_fract_z
Si Si1 0.000000 0.323403 0.655360
Si Si2 0.589194 0.324449 0.757876
Si Si3 0.845567 0.834660 0.394699
Si Si4 0.698693 0.323940 0.601138
Si Si5 0.000000 0.823609 0.838371
Si Si6 0.148252 0.665718 0.095752
Si Si7 0.691100 0.822881 0.900302
O O1 0.923485 0.279798 0.602512
O O2 0.000000 0.500000 0.677258
O O3 0.000000 0.218075 0.738470
O O4 0.500000 0.280853 0.746350
O O5 0.601174 0.500000 0.776779
O O6 0.630057 0.278154 0.666908
O O7 0.620728 0.235738 0.841679
O O8 0.833474 0.857526 0.495842
O O9 0.770165 0.747134 0.360068
O O10 0.923377 0.742610 0.380941
O O11 0.851363 0.000000 0.349259
O O12 0.717050 0.500000 0.604325
O O13 0.775193 0.239370 0.637458
O O14 0.676528 0.277421 0.501739
O O15 0.000000 0.000000 0.853990
O O16 0.131632 0.500000 0.138040
O O17 0.697983 0.000000 0.890756
#
# Coordination Sequence:
#
# PCOD8180173 Si02
#       7
#     4   8   8   8   4   8   8
#     4  12  25  38  55  81 117 159 199 240 293 350
#     4  10  22  40  62  88 120 158 197 243 303 369
#     4  10  21  39  61  84 115 156 196 239 297 356
#     4   9  20  39  62  87 118 159 203 243 296 362
#     4  12  25  38  55  83 117 153 199 250 293 340
#     4  10  21  38  60  85 115 151 195 245 294 346
#     4  10  21  38  62  91 121 156 200 250 299 354
#
# _framework density 20.416132999999999
#
# number of rings (size 3 to 8) (size 9 to 14) (size 15 to 20)
#    0.000    1.833    0.000    3.500    2.333    6.333 
#    0.000    1.667    0.000    0.000    0.000    0.000 
#    0.000    0.000    0.000    0.000    0.000    0.000 
#
# Total GULP energy -297570.610455 kJ/mol
# GULP energy per Si atom -12398.775436 kJ/mol
# Density = 2.036966 g / cm^3
# Si number density = 20.416133 Si / 1000 Ang^3
#
#
#
# Elastic Constant Matrix: (Units=GPa)
#
#
# Indices 1 2 3 4 5 6 
#
# 1 168.2935 68.4469 50.6065 0.0000 0.0000 0.0000
# 2 68.4469 117.6180 38.2542 0.0000 0.0000 0.0000
# 3 50.6065 38.2542 74.9470 0.0000 0.0000 0.0000
# 4 0.0000 0.0000 0.0000 23.2492 0.0000 0.0000
# 5 0.0000 0.0000 0.0000 0.0000 35.3589 0.0000
# 6 0.0000 0.0000 0.0000 0.0000 0.0000 36.4993
#
#
#
# Elastic Compliance Matrix: (Units=1/GPa)
#
#
# Indices 1 2 3 4 5 6 
#
# 1 0.008650 -0.003758 -0.003923 0.000000 0.000000 0.000000
# 2 -0.003758 0.011827 -0.003499 0.000000 0.000000 0.000000
# 3 -0.003923 -0.003499 0.017778 0.000000 0.000000 0.000000
# 4 0.000000 0.000000 0.000000 0.043012 0.000000 0.000000
# 5 0.000000 0.000000 0.000000 0.000000 0.028281 0.000000
# 6 0.000000 0.000000 0.000000 0.000000 0.000000 0.027398
#
#
# Mechanical properties :
#
#
# Convention : Reuss Voigt Hill
#
# Bulk Modulus (GPa) = 62.91313 75.05265 68.98289
# Shear Modulus (GPa) = 30.37592 32.59152 31.48372
#
# Velocity S-wave (km/s) = 3.86144 3.99978 3.93122
# Velocity P-wave (km/s) = 7.12483 7.62707 7.38023
#
# Compressibility (1/GPa) = 0.01589493
#
# Stress axis : x y z
#
# Youngs Moduli (GPa) = 115.60759 84.55128 56.25088
#
# Poissons Ratio (x) = 0.31774 0.22065
# Poissons Ratio (y) = 0.43445 0.19684
# Poissons Ratio (z) = 0.45348 0.29587
#
# Static dielectric constant tensor:
#      x y z
#    x 3.577330 0.000000 0.000000 
#    y 0.000000 3.992650 0.000000 
#    z 0.000000 0.000000 3.680110 
# 
# 
# High freq. dielectric constant tensor:
#      x y z
#    x 1.798480 0.000000 0.000000 
#    y 0.000000 1.805780 0.000000 
#    z 0.000000 0.000000 1.793790 
# 
# From -- ./inp_files/18189.got.cif
#   From: 2010.03.12/outbox.cif.g09.slc.cpg/sg38_10_cif.got.tgz:18189.got - 2010.04.14 02:38:36.
