data_PCOD8180792
_publ_section_title
;
Structure prediction by ZEFSAII (Michael W. Deem and Ramdas Pophale) SiO2 
 PCOD8180792
Probable space group: A B M 2
;
_chemical_formula_sum "Si O2"
_cell_formula_units_Z 56
_cell_length_a 17.595686
_cell_length_b 9.595461
_cell_length_c 18.835162
_cell_angle_alpha 90.000000
_cell_angle_beta 90.000000
_cell_angle_gamma 90.000000
_cell_volume 3180.104620
_symmetry_space_group_name_H-M "A B M 2"
_symmetry_group_IT_number 39
_symmetry_cell_setting 'orthorhombic'
loop_
_space_group_symop_operation_xyz
x,y,z
-x,-y,z
-x,1/2+y,z
x,1/2-y,z
x,1/2+y,1/2+z
-x,1/2-y,1/2+z
-x,y,1/2+z
x,-y,1/2+z
loop_
_atom_site_type_symbol
_atom_site_label
_atom_site_fract_x
_atom_site_fract_y
_atom_site_fract_z
Si Si1 0.797553 0.913587 0.057840
Si Si2 0.205434 0.592477 0.342183
Si Si3 0.560390 0.600367 0.503985
Si Si4 0.573124 0.412346 0.164818
Si Si5 0.073898 0.407689 0.948485
Si Si6 0.282695 0.905143 0.944019
Si Si7 0.255466 0.909740 0.186101
O O1 0.776944 0.750000 0.064267
O O2 0.790230 0.987175 0.134049
O O3 0.880509 0.932929 0.022164
O O4 0.739356 0.992518 0.007338
O O5 0.228343 0.750000 0.365719
O O6 0.124747 0.555803 0.379017
O O7 0.265351 0.478879 0.369620
O O8 0.205601 0.580299 0.257604
O O9 0.500000 0.500000 0.468067
O O10 0.520911 0.750000 0.513098
O O11 0.585626 0.549281 0.582125
O O12 0.627779 0.611206 0.448419
O O13 0.500000 0.500000 0.194689
O O14 0.555324 0.250000 0.178500
O O15 0.655573 0.452559 0.199303
O O16 0.045825 0.250000 0.943989
O O17 0.000000 0.500000 0.947936
O O18 0.244821 0.750000 0.949117
O O19 0.254424 0.750000 0.156703
#
# Coordination Sequence:
#
# PCOD8180792 Si02
#       7
#     8   8   8   8   8   8   8
#     4  10  20  33  53  80 106 130 169 216 256 305
#     4   9  20  36  54  77 106 139 174 211 258 314
#     4   9  17  28  44  69  97 127 171 218 261 311
#     4   9  17  30  47  71 100 135 177 218 263 312
#     4   9  19  36  56  80 105 134 171 210 256 314
#     4  10  18  32  51  73 100 132 173 216 257 309
#     4  10  19  35  55  76 107 143 178 217 264 313
#
# _framework density 17.609483999999998
#
# number of rings (size 3 to 8) (size 9 to 14) (size 15 to 20)
#    0.000    2.571    1.429    1.714    0.000    5.143 
#    0.000    1.429    0.000    6.857    0.000    0.000 
#    0.000    0.000    0.000    0.000    0.000    0.000 
#
# Total GULP energy -346930.615613 kJ/mol
# GULP energy per Si atom -12390.379129 kJ/mol
# Density = 1.756940 g / cm^3
# Si number density = 17.609484 Si / 1000 Ang^3
#
#
#
# Elastic Constant Matrix: (Units=GPa)
#
#
# Indices 1 2 3 4 5 6 
#
# 1 98.7160 60.7998 39.3852 0.0000 0.0000 0.0000
# 2 60.7998 119.1466 53.8184 0.0000 0.0000 0.0000
# 3 39.3852 53.8184 78.1089 0.0000 0.0000 0.0000
# 4 0.0000 0.0000 0.0000 25.8535 0.0000 0.0000
# 5 0.0000 0.0000 0.0000 0.0000 18.7183 0.0000
# 6 0.0000 0.0000 0.0000 0.0000 0.0000 33.5321
#
#
#
# Elastic Compliance Matrix: (Units=1/GPa)
#
#
# Indices 1 2 3 4 5 6 
#
# 1 0.015373 -0.006306 -0.003407 0.000000 0.000000 0.000000
# 2 -0.006306 0.014772 -0.006999 0.000000 0.000000 0.000000
# 3 -0.003407 -0.006999 0.019343 0.000000 0.000000 0.000000
# 4 0.000000 0.000000 0.000000 0.038679 0.000000 0.000000
# 5 0.000000 0.000000 0.000000 0.000000 0.053424 0.000000
# 6 0.000000 0.000000 0.000000 0.000000 0.000000 0.029822
#
#
# Mechanical properties :
#
#
# Convention : Reuss Voigt Hill
#
# Bulk Modulus (GPa) = 62.24607 67.10871 64.67739
# Shear Modulus (GPa) = 23.78788 25.08532 24.43660
#
# Velocity S-wave (km/s) = 3.67939 3.77840 3.72922
# Velocity P-wave (km/s) = 7.31268 7.56486 7.43984
#
# Compressibility (1/GPa) = 0.01606527
#
# Stress axis : x y z
#
# Youngs Moduli (GPa) = 65.04830 67.69475 51.69947
#
# Poissons Ratio (x) = 0.42689 0.17613
# Poissons Ratio (y) = 0.41020 0.36182
# Poissons Ratio (z) = 0.22160 0.47377
#
# Static dielectric constant tensor:
#      x y z
#    x 3.121460 0.000000 0.000000 
#    y 0.000000 3.647230 0.000000 
#    z 0.000000 0.000000 3.171130 
# 
# 
# High freq. dielectric constant tensor:
#      x y z
#    x 1.663000 0.000000 0.000000 
#    y 0.000000 1.693980 0.000000 
#    z 0.000000 0.000000 1.656500 
# 
# From -- ./inp_files/14912.got.cif
#   From: 2010.03.12/outbox.cif.g09.slc.cpg/sg39_8_cif.got.tgz:14912.got - 2010.04.14 02:53:20.
