data_PCOD8180755
_publ_section_title
;
Structure prediction by ZEFSAII (Michael W. Deem and Ramdas Pophale) SiO2 
 PCOD8180755
Probable space group: A B M 2
;
_chemical_formula_sum "Si O2"
_cell_formula_units_Z 64
_cell_length_a 14.289240
_cell_length_b 8.702406
_cell_length_c 31.302883
_cell_angle_alpha 90.000000
_cell_angle_beta 90.000000
_cell_angle_gamma 90.000000
_cell_volume 3892.537539
_symmetry_space_group_name_H-M "A B M 2"
_symmetry_group_IT_number 39
_symmetry_cell_setting 'orthorhombic'
loop_
_space_group_symop_operation_xyz
x,y,z
-x,-y,z
-x,1/2+y,z
x,1/2-y,z
x,1/2+y,1/2+z
-x,1/2-y,1/2+z
-x,y,1/2+z
x,-y,1/2+z
loop_
_atom_site_type_symbol
_atom_site_label
_atom_site_fract_x
_atom_site_fract_y
_atom_site_fract_z
Si Si1 0.397900 0.430280 0.242880
Si Si2 0.708345 0.572177 0.499877
Si Si3 0.397870 0.567539 0.579000
Si Si4 0.096416 0.568036 0.625845
Si Si5 0.601921 0.930082 0.336382
Si Si6 0.603493 0.431219 0.421457
Si Si7 0.093219 0.427491 0.533705
Si Si8 0.711441 0.567674 0.162146
O O1 0.500000 0.500000 0.236934
O O2 0.410738 0.250000 0.236667
O O3 0.352468 0.464860 0.289827
O O4 0.328096 0.498381 0.206950
O O5 0.678959 0.750000 0.497470
O O6 0.666659 0.497835 0.542026
O O7 0.671606 0.484447 0.458683
O O8 0.820601 0.552234 0.501246
O O9 0.500000 0.500000 0.573511
O O10 0.401212 0.750000 0.575350
O O11 0.355577 0.510814 0.623969
O O12 0.090518 0.750000 0.626290
O O13 0.114684 0.514205 0.577720
O O14 0.182708 0.507862 0.654879
O O15 0.000000 0.500000 0.644640
O O16 0.597209 0.750000 0.345903
O O17 0.500000 0.000000 0.333756
O O18 0.651358 0.012377 0.376742
O O19 0.500000 0.500000 0.427894
O O20 0.594786 0.250000 0.421812
O O21 0.075173 0.250000 0.544563
O O22 0.000000 0.500000 0.512239
O O23 0.712162 0.750000 0.162826
#
# Coordination Sequence:
#
# PCOD8180755 Si02
#       8
#     8   8   8   8   8   8   8   8
#     4   9  17  30  47  69  95 126 159 193 233 278
#     4  11  22  35  49  69  95 125 161 196 233 281
#     4  11  21  33  46  64  94 131 165 195 230 272
#     4  10  18  31  49  68  92 122 158 199 240 281
#     4   9  16  28  47  68  93 121 155 196 237 280
#     4  11  21  33  50  70  96 127 160 197 238 283
#     4  10  20  33  51  71  93 120 155 198 240 282
#     4   9  18  31  47  67  94 127 160 193 233 280
#
# _framework density 16.441717000000001
#
# number of rings (size 3 to 8) (size 9 to 14) (size 15 to 20)
#    0.000    2.000    1.250    5.250    0.000    2.000 
#    0.000    1.875    0.000    0.000    0.000    0.875 
#    0.000    2.000    0.000    0.000    0.000    0.000 
#
# Total GULP energy -396657.061078 kJ/mol
# GULP energy per Si atom -12395.533159 kJ/mol
# Density = 1.640429 g / cm^3
# Si number density = 16.441717 Si / 1000 Ang^3
#
#
#
# Elastic Constant Matrix: (Units=GPa)
#
#
# Indices 1 2 3 4 5 6 
#
# 1 87.5002 33.9012 41.5340 0.0000 0.0000 0.0000
# 2 33.9012 91.5878 39.9467 0.0000 0.0000 0.0000
# 3 41.5340 39.9467 118.7017 0.0000 0.0000 0.0000
# 4 0.0000 0.0000 0.0000 21.5300 0.0000 0.0000
# 5 0.0000 0.0000 0.0000 0.0000 24.2479 0.0000
# 6 0.0000 0.0000 0.0000 0.0000 0.0000 22.7908
#
#
#
# Elastic Compliance Matrix: (Units=1/GPa)
#
#
# Indices 1 2 3 4 5 6 
#
# 1 0.014730 -0.003756 -0.003890 0.000000 0.000000 0.000000
# 2 -0.003756 0.013754 -0.003315 0.000000 0.000000 0.000000
# 3 -0.003890 -0.003315 0.010901 0.000000 0.000000 0.000000
# 4 0.000000 0.000000 0.000000 0.046447 0.000000 0.000000
# 5 0.000000 0.000000 0.000000 0.000000 0.041241 0.000000
# 6 0.000000 0.000000 0.000000 0.000000 0.000000 0.043877
#
#
# Mechanical properties :
#
#
# Convention : Reuss Voigt Hill
#
# Bulk Modulus (GPa) = 57.25846 58.72819 57.99333
# Shear Modulus (GPa) = 25.16443 25.87426 25.51935
#
# Velocity S-wave (km/s) = 3.91643 3.97129 3.94396
# Velocity P-wave (km/s) = 7.43989 7.53822 7.48922
#
# Compressibility (1/GPa) = 0.01746467
#
# Stress axis : x y z
#
# Youngs Moduli (GPa) = 67.88753 72.70436 91.73325
#
# Poissons Ratio (x) = 0.27305 0.35687
# Poissons Ratio (y) = 0.25496 0.30406
# Poissons Ratio (z) = 0.26410 0.24099
#
# Static dielectric constant tensor:
#      x y z
#    x 0.498330 0.000000 0.000000 
#    y 0.000000 3.177720 0.000000 
#    z 0.000000 0.000000 3.677030 
# 
# 
# High freq. dielectric constant tensor:
#      x y z
#    x 1.612990 0.000000 0.000000 
#    y 0.000000 1.641480 0.000000 
#    z 0.000000 0.000000 1.626260 
# 
# From -- ./inp_files/17958.got.cif
#   From: 2010.03.12/outbox.cif.g09.slc.cpg/sg39_9_cif.got.tgz:17958.got - 2010.04.14 02:53:20.
