data_PCOD8180590
_publ_section_title
;
Structure prediction by ZEFSAII (Michael W. Deem and Ramdas Pophale) SiO2 
 PCOD8180590
Probable space group: A B M 2
;
_chemical_formula_sum "Si O2"
_cell_formula_units_Z 64
_cell_length_a 21.134600
_cell_length_b 8.670256
_cell_length_c 19.120592
_cell_angle_alpha 90.000000
_cell_angle_beta 90.000000
_cell_angle_gamma 90.000000
_cell_volume 3503.703023
_symmetry_space_group_name_H-M "A B M 2"
_symmetry_group_IT_number 39
_symmetry_cell_setting 'orthorhombic'
loop_
_space_group_symop_operation_xyz
x,y,z
-x,-y,z
-x,1/2+y,z
x,1/2-y,z
x,1/2+y,1/2+z
-x,1/2-y,1/2+z
-x,y,1/2+z
x,-y,1/2+z
loop_
_atom_site_type_symbol
_atom_site_label
_atom_site_fract_x
_atom_site_fract_y
_atom_site_fract_z
Si Si1 0.170764 0.433642 0.655260
Si Si2 0.305571 0.919272 0.164690
Si Si3 0.934441 0.927285 0.250204
Si Si4 0.066426 0.571826 0.914768
Si Si5 0.561688 0.064776 0.154748
Si Si6 0.436367 0.068043 0.000482
Si Si7 0.175537 0.068436 0.005202
Si Si8 0.307946 0.578469 0.998562
O O1 0.175572 0.250000 0.648199
O O2 0.239201 0.505293 0.680832
O O3 0.120371 0.479744 0.712380
O O4 0.154005 0.498207 0.579227
O O5 0.299424 0.750000 0.197418
O O6 0.372380 0.988919 0.193330
O O7 0.313728 0.912005 0.081517
O O8 0.932458 0.750000 0.227211
O O9 0.925432 0.948505 0.332240
O O10 0.000000 0.000000 0.224655
O O11 0.068242 0.750000 0.937291
O O12 0.123647 0.480013 0.948900
O O13 0.000000 0.500000 0.939893
O O14 0.560056 0.250000 0.145958
O O15 0.500000 0.000000 0.196802
O O16 0.560333 0.979828 0.080896
O O17 0.436347 0.250000 0.992027
O O18 0.500000 0.000000 0.963073
O O19 0.370923 0.003015 0.967057
O O20 0.177405 0.250000 0.012751
O O21 0.244089 0.012345 0.978348
O O22 0.303347 0.750000 0.966494
#
# Coordination Sequence:
#
# PCOD8180590 Si02
#       8
#     8   8   8   8   8   8   8   8
#     4  10  19  33  52  73 100 133 166 201 245 292
#     4   7  13  24  38  56  82 117 152 188 231 279
#     4  10  21  37  56  77 100 127 161 201 245 294
#     4  10  21  38  57  76 100 129 161 200 246 294
#     4   9  14  21  32  49  76 112 153 192 232 279
#     4  10  16  22  33  52  79 115 157 197 238 285
#     4  11  21  33  51  76 103 131 166 204 245 296
#     4   9  16  28  42  59  87 122 158 197 243 289
#
# _framework density 18.266387999999999
#
# number of rings (size 3 to 8) (size 9 to 14) (size 15 to 20)
#    0.000    2.500    0.000    6.375    0.000    2.000 
#    0.000    4.375    0.000    0.000    0.000    0.000 
#    0.000    1.000    0.000    5.250    0.000   13.375 
#
# Total GULP energy -396431.381259 kJ/mol
# GULP energy per Si atom -12388.480664 kJ/mol
# Density = 1.822481 g / cm^3
# Si number density = 18.266388 Si / 1000 Ang^3
#
#
#
# Elastic Constant Matrix: (Units=GPa)
#
#
# Indices 1 2 3 4 5 6 
#
# 1 189.8026 61.6630 32.6352 0.0000 0.0000 0.0000
# 2 61.6630 126.6616 18.9781 0.0000 0.0000 0.0000
# 3 32.6352 18.9781 17.2879 0.0000 0.0000 0.0000
# 4 0.0000 0.0000 0.0000 16.6860 0.0000 0.0000
# 5 0.0000 0.0000 0.0000 0.0000 39.7746 0.0000
# 6 0.0000 0.0000 0.0000 0.0000 0.0000 36.7089
#
#
#
# Elastic Compliance Matrix: (Units=1/GPa)
#
#
# Indices 1 2 3 4 5 6 
#
# 1 0.008204 -0.002003 -0.013289 0.000000 0.000000 0.000000
# 2 -0.002003 0.009938 -0.007129 0.000000 0.000000 0.000000
# 3 -0.013289 -0.007129 0.090756 0.000000 0.000000 0.000000
# 4 0.000000 0.000000 0.000000 0.059931 0.000000 0.000000
# 5 0.000000 0.000000 0.000000 0.000000 0.025142 0.000000
# 6 0.000000 0.000000 0.000000 0.000000 0.000000 0.027241
#
#
# Mechanical properties :
#
#
# Convention : Reuss Voigt Hill
#
# Bulk Modulus (GPa) = 15.61104 62.25607 38.93356
# Shear Modulus (GPa) = 17.39701 33.33228 25.36464
#
# Velocity S-wave (km/s) = 3.08945 4.27639 3.73043
# Velocity P-wave (km/s) = 4.61424 7.65112 6.31786
#
# Compressibility (1/GPa) = 0.06405722
#
# Stress axis : x y z
#
# Youngs Moduli (GPa) = 121.88749 100.62077 11.01857
#
# Poissons Ratio (x) = 0.20154 0.14642
# Poissons Ratio (y) = 0.24414 0.07855
# Poissons Ratio (z) = 1.61974 0.71730
#
# Static dielectric constant tensor:
#      x y z
#    x 4.182750 0.000000 0.000000 
#    y 0.000000 3.438220 0.000000 
#    z 0.000000 0.000000 2.694730 
# 
# 
# High freq. dielectric constant tensor:
#      x y z
#    x 1.745250 0.000000 0.000000 
#    y 0.000000 1.713240 0.000000 
#    z 0.000000 0.000000 1.627390 
# 
# From -- ./inp_files/13190.got.cif
#   From: 2010.03.12/outbox.cif.g09.slc.cpg/sg39_7_cif.got.tgz:13190.got - 2010.04.14 02:53:20.
