data_PCOD8180847
_publ_section_title
;
Structure prediction by ZEFSAII (Michael W. Deem and Ramdas Pophale) SiO2 
 PCOD8180847
Probable space group: A B M 2
;
_chemical_formula_sum "Si O2"
_cell_formula_units_Z 64
_cell_length_a 15.496293
_cell_length_b 8.905326
_cell_length_c 23.859577
_cell_angle_alpha 90.000000
_cell_angle_beta 90.000000
_cell_angle_gamma 90.000000
_cell_volume 3292.610673
_symmetry_space_group_name_H-M "A B M 2"
_symmetry_group_IT_number 39
_symmetry_cell_setting 'orthorhombic'
loop_
_space_group_symop_operation_xyz
x,y,z
-x,-y,z
-x,1/2+y,z
x,1/2-y,z
x,1/2+y,1/2+z
-x,1/2-y,1/2+z
-x,y,1/2+z
x,-y,1/2+z
loop_
_atom_site_type_symbol
_atom_site_label
_atom_site_fract_x
_atom_site_fract_y
_atom_site_fract_z
Si Si1 0.147965 0.573210 0.973380
Si Si2 0.086346 0.573039 0.362999
Si Si3 0.588957 0.072003 0.858952
Si Si4 0.911851 0.573743 0.596681
Si Si5 0.254814 0.572775 0.294365
Si Si6 0.588939 0.571427 0.595540
Si Si7 0.342944 0.572332 0.977552
Si Si8 0.750660 0.427790 0.166284
O O1 0.145057 0.750000 0.960304
O O2 0.096220 0.484931 0.926150
O O3 0.245617 0.510892 0.974458
O O4 0.104055 0.533338 0.032084
O O5 0.075142 0.750000 0.363210
O O6 0.167924 0.523004 0.325938
O O7 0.000000 0.500000 0.336712
O O8 0.583109 0.250000 0.854530
O O9 0.605588 0.018058 0.922748
O O10 0.500000 0.000000 0.837719
O O11 0.665248 0.015244 0.819900
O O12 0.919098 0.750000 0.605789
O O13 0.833710 0.506678 0.633805
O O14 0.000000 0.500000 0.617861
O O15 0.271376 0.750000 0.299805
O O16 0.246096 0.520138 0.230367
O O17 0.500000 0.500000 0.616559
O O18 0.581114 0.750000 0.596718
O O19 0.609918 0.510507 0.532985
O O20 0.663406 0.512576 0.637184
O O21 0.338036 0.750000 0.981300
O O22 0.752346 0.250000 0.160821
#
# Coordination Sequence:
#
# PCOD8180847 Si02
#       8
#     8   8   8   8   8   8   8   8
#     4  10  18  34  59  84 112 145 183 224 276 337
#     4  11  23  37  56  83 114 147 186 230 280 333
#     4  11  22  37  59  85 115 148 184 227 279 333
#     4  10  20  35  58  84 111 144 181 224 275 332
#     4  10  22  40  59  81 109 146 193 237 275 322
#     4  10  19  35  58  83 110 143 180 220 271 327
#     4   9  17  32  57  84 110 144 180 219 273 332
#     4   9  19  38  60  78 106 148 186 224 273 326
#
# _framework density 19.437463999999999
#
# number of rings (size 3 to 8) (size 9 to 14) (size 15 to 20)
#    0.000    2.000    2.500    1.500    0.000    3.000 
#    0.000    4.375    0.000    0.000    0.000    0.000 
#    0.000    0.000    0.000    0.000    0.000    0.000 
#
# Total GULP energy -396882.893041 kJ/mol
# GULP energy per Si atom -12402.590408 kJ/mol
# Density = 1.939322 g / cm^3
# Si number density = 19.437464 Si / 1000 Ang^3
#
#
#
# Elastic Constant Matrix: (Units=GPa)
#
#
# Indices 1 2 3 4 5 6 
#
# 1 190.4256 45.6322 76.4251 0.0000 0.0000 0.0000
# 2 45.6322 40.7664 36.6064 0.0000 0.0000 0.0000
# 3 76.4251 36.6064 137.2840 0.0000 0.0000 0.0000
# 4 0.0000 0.0000 0.0000 21.0715 0.0000 0.0000
# 5 0.0000 0.0000 0.0000 0.0000 10.4674 0.0000
# 6 0.0000 0.0000 0.0000 0.0000 0.0000 32.7324
#
#
#
# Elastic Compliance Matrix: (Units=1/GPa)
#
#
# Indices 1 2 3 4 5 6 
#
# 1 0.007855 -0.006398 -0.002667 0.000000 0.000000 0.000000
# 2 -0.006398 0.037463 -0.006428 0.000000 0.000000 0.000000
# 3 -0.002667 -0.006428 0.010483 0.000000 0.000000 0.000000
# 4 0.000000 0.000000 0.000000 0.047457 0.000000 0.000000
# 5 0.000000 0.000000 0.000000 0.000000 0.095535 0.000000
# 6 0.000000 0.000000 0.000000 0.000000 0.000000 0.030551
#
#
# Mechanical properties :
#
#
# Convention : Reuss Voigt Hill
#
# Bulk Modulus (GPa) = 40.29652 76.20037 58.24845
# Shear Modulus (GPa) = 18.61498 26.84173 22.72836
#
# Velocity S-wave (km/s) = 3.09801 3.72011 3.42322
# Velocity P-wave (km/s) = 5.79424 7.59870 6.75698
#
# Compressibility (1/GPa) = 0.02481604
#
# Stress axis : x y z
#
# Youngs Moduli (GPa) = 127.31129 26.69278 95.39486
#
# Poissons Ratio (x) = 0.17077 0.25440
# Poissons Ratio (y) = 0.81449 0.61319
# Poissons Ratio (z) = 0.33951 0.17158
#
# Static dielectric constant tensor:
#      x y z
#    x 3.739160 0.000000 0.000000 
#    y 0.000000 3.177380 0.000000 
#    z 0.000000 0.000000 3.649080 
# 
# 
# High freq. dielectric constant tensor:
#      x y z
#    x 1.775670 0.000000 0.000000 
#    y 0.000000 1.724750 0.000000 
#    z 0.000000 0.000000 1.755830 
# 
# From -- ./inp_files/16157.got.cif
#   From: 2010.03.12/outbox.cif.g09.slc.cpg/sg39_9_cif.got.tgz:16157.got - 2010.04.14 02:53:20.
