data_PCOD8180321
_publ_section_title
;
Structure prediction by ZEFSAII (Michael W. Deem and Ramdas Pophale) SiO2 
 PCOD8180321
Probable space group: A M M 2
;
_chemical_formula_sum "Si O2"
_cell_formula_units_Z 64
_cell_length_a 18.477680
_cell_length_b 18.986926
_cell_length_c 9.294495
_cell_angle_alpha 90.000000
_cell_angle_beta 90.000000
_cell_angle_gamma 90.000000
_cell_volume 3260.828045
_symmetry_space_group_name_H-M "A M M 2"
_symmetry_group_IT_number 38
_symmetry_cell_setting 'orthorhombic'
loop_
_space_group_symop_operation_xyz
x,y,z
-x,-y,z
-x,y,z
x,-y,z
x,1/2+y,1/2+z
-x,1/2-y,1/2+z
-x,1/2+y,1/2+z
x,1/2-y,1/2+z
loop_
_atom_site_type_symbol
_atom_site_label
_atom_site_fract_x
_atom_site_fract_y
_atom_site_fract_z
Si Si1 0.323267 0.918107 0.044860
Si Si2 0.821157 0.830640 0.080740
Si Si3 0.084906 0.082144 0.592333
Si Si4 0.583394 0.422154 0.820545
Si Si5 0.416089 0.205131 0.516129
Si Si6 0.817177 0.691664 0.260308
Si Si7 0.349035 0.318548 0.316068
Si Si8 0.921159 0.582318 0.768475
O O1 0.257743 0.864704 0.072178
O O2 0.376993 0.902576 0.174274
O O3 0.299986 0.000000 0.035500
O O4 0.361430 0.894353 0.894514
O O5 0.831675 0.765984 0.187740
O O6 0.871670 0.891571 0.140027
O O7 0.845106 0.804446 0.923899
O O8 0.138290 0.128304 0.688926
O O9 0.108390 0.098840 0.428321
O O10 0.000000 0.100928 0.617418
O O11 0.097754 0.000000 0.629099
O O12 0.500000 0.417045 0.780309
O O13 0.605321 0.500000 0.874119
O O14 0.604194 0.370069 0.948302
O O15 0.500000 0.225832 0.490566
O O16 0.362655 0.260963 0.441735
O O17 0.403784 0.197774 0.686750
O O18 0.731372 0.680082 0.251378
O O19 0.927831 0.500000 0.749188
O O20 0.000000 0.617454 0.751148
#
# Coordination Sequence:
#
# PCOD8180321 Si02
#       8
#     8   8   8   8   8   8   8   8
#     4  10  22  39  59  83 114 151 189 237 298 359
#     4  11  22  37  57  83 115 150 192 238 291 354
#     4   9  20  40  63  88 121 160 203 251 306 371
#     4   9  19  36  57  81 110 146 188 233 284 346
#     4  11  22  38  61  86 117 158 201 247 301 363
#     4  11  23  37  58  84 117 156 194 246 304 354
#     4  11  23  38  57  85 118 151 196 248 300 359
#     4   9  19  37  60  84 112 149 193 241 290 346
#
# _framework density 19.626916000000001
#
# number of rings (size 3 to 8) (size 9 to 14) (size 15 to 20)
#    0.000    1.875    0.000    5.250    0.000    7.000 
#    0.000    2.500    0.000    0.000    0.000    0.000 
#    0.000    0.000    0.000    0.000    0.000    0.000 
#
# Total GULP energy -396689.222433 kJ/mol
# GULP energy per Si atom -12396.538201 kJ/mol
# Density = 1.958224 g / cm^3
# Si number density = 19.626916 Si / 1000 Ang^3
#
#
#
# Elastic Constant Matrix: (Units=GPa)
#
#
# Indices 1 2 3 4 5 6 
#
# 1 69.6295 39.7755 39.0965 0.0000 0.0000 0.0000
# 2 39.7755 87.5310 58.2236 0.0000 0.0000 0.0000
# 3 39.0965 58.2236 129.5092 0.0000 0.0000 0.0000
# 4 0.0000 0.0000 0.0000 44.2409 0.0000 0.0000
# 5 0.0000 0.0000 0.0000 0.0000 30.9470 0.0000
# 6 0.0000 0.0000 0.0000 0.0000 0.0000 32.5245
#
#
#
# Elastic Compliance Matrix: (Units=1/GPa)
#
#
# Indices 1 2 3 4 5 6 
#
# 1 0.020082 -0.007266 -0.002796 0.000000 0.000000 0.000000
# 2 -0.007266 0.018927 -0.006316 0.000000 0.000000 0.000000
# 3 -0.002796 -0.006316 0.011405 0.000000 0.000000 0.000000
# 4 0.000000 0.000000 0.000000 0.022604 0.000000 0.000000
# 5 0.000000 0.000000 0.000000 0.000000 0.032313 0.000000
# 6 0.000000 0.000000 0.000000 0.000000 0.000000 0.030746
#
#
# Mechanical properties :
#
#
# Convention : Reuss Voigt Hill
#
# Bulk Modulus (GPa) = 56.62733 62.31788 59.47260
# Shear Modulus (GPa) = 28.61737 31.51406 30.06571
#
# Velocity S-wave (km/s) = 3.82261 4.01141 3.91815
# Velocity P-wave (km/s) = 6.95684 7.29900 7.12997
#
# Compressibility (1/GPa) = 0.01765932
#
# Stress axis : x y z
#
# Youngs Moduli (GPa) = 49.79522 52.83356 87.68179
#
# Poissons Ratio (x) = 0.38388 0.24515
# Poissons Ratio (y) = 0.36181 0.55378
# Poissons Ratio (z) = 0.13922 0.33368
#
# Static dielectric constant tensor:
#      x y z
#    x 3.537190 0.000000 0.000000 
#    y 0.000000 3.696570 0.000000 
#    z 0.000000 0.000000 3.724980 
# 
# 
# High freq. dielectric constant tensor:
#      x y z
#    x 1.760570 0.000000 0.000000 
#    y 0.000000 1.771080 0.000000 
#    z 0.000000 0.000000 1.772420 
# 
# From -- ./inp_files/6823.got.cif
#   From: 2010.03.12/outbox.cif.g09.slc.cpg/sg38_4_cif.got.tgz:6823.got - 2010.04.14 02:38:36.
