data_PCOD8180366
_publ_section_title
;
Structure prediction by ZEFSAII (Michael W. Deem and Ramdas Pophale) SiO2 
 PCOD8180366
Probable space group: A M M 2
;
_chemical_formula_sum "Si O2"
_cell_formula_units_Z 64
_cell_length_a 14.596109
_cell_length_b 17.106449
_cell_length_c 11.797694
_cell_angle_alpha 90.000000
_cell_angle_beta 90.000000
_cell_angle_gamma 90.000000
_cell_volume 2945.737832
_symmetry_space_group_name_H-M "A M M 2"
_symmetry_group_IT_number 38
_symmetry_cell_setting 'orthorhombic'
loop_
_space_group_symop_operation_xyz
x,y,z
-x,-y,z
-x,y,z
x,-y,z
x,1/2+y,1/2+z
-x,1/2-y,1/2+z
-x,1/2+y,1/2+z
x,1/2-y,1/2+z
loop_
_atom_site_type_symbol
_atom_site_label
_atom_site_fract_x
_atom_site_fract_y
_atom_site_fract_z
Si Si1 0.752802 0.585162 0.245330
Si Si2 0.608274 0.410921 0.649023
Si Si3 0.601994 0.370746 0.399968
Si Si4 0.100526 0.089375 0.906477
Si Si5 0.892042 0.090305 0.336363
Si Si6 0.772579 0.670652 0.022804
Si Si7 0.395563 0.805995 0.360409
Si Si8 0.896268 0.191432 0.120467
O O1 0.792004 0.500000 0.215880
O O2 0.661768 0.574784 0.319796
O O3 0.829287 0.632101 0.320011
O O4 0.732410 0.626297 0.129357
O O5 0.500000 0.412104 0.651865
O O6 0.646160 0.500000 0.664238
O O7 0.641776 0.373592 0.529309
O O8 0.641355 0.354493 0.751352
O O9 0.500000 0.405730 0.403139
O O10 0.602469 0.286397 0.339293
O O11 0.000000 0.099265 0.852504
O O12 0.130260 0.000000 0.919698
O O13 0.103066 0.122081 0.031405
O O14 0.841262 0.117742 0.449913
O O15 0.862225 0.150360 0.236614
O O16 0.000000 0.097018 0.357915
O O17 0.865595 0.000000 0.308116
O O18 0.678205 0.686013 0.958841
O O19 0.826085 0.745205 0.072036
O O20 0.500000 0.833079 0.394505
O O21 0.000000 0.225778 0.134268
#
# Coordination Sequence:
#
# PCOD8180366 Si02
#       8
#     8   8   8   8   8   8   8   8
#     4  11  25  41  59  90 128 168 210 254 310 386
#     4   9  19  39  67  94 120 157 214 277 329 381
#     4  10  22  41  67  94 123 163 213 272 330 384
#     4   9  19  38  63  89 121 159 200 254 319 381
#     4  10  23  45  71  98 131 173 219 270 332 399
#     4  12  26  40  62  92 134 174 218 263 320 388
#     4  10  24  42  63  91 128 171 218 270 329 385
#     4  10  22  40  67  99 127 160 212 274 328 382
#
# _framework density 21.726306999999998
#
# number of rings (size 3 to 8) (size 9 to 14) (size 15 to 20)
#    0.000    1.875    0.000    2.250    5.250    5.750 
#    0.000    1.250    0.000    0.000    0.000    0.000 
#    0.000    0.000    0.000    0.000    0.000    0.000 
#
# Total GULP energy -396563.265391 kJ/mol
# GULP energy per Si atom -12392.602043 kJ/mol
# Density = 2.167686 g / cm^3
# Si number density = 21.726307 Si / 1000 Ang^3
#
#
#
# Elastic Constant Matrix: (Units=GPa)
#
#
# Indices 1 2 3 4 5 6 
#
# 1 97.0584 34.2897 60.3833 0.0000 0.0000 0.0000
# 2 34.2897 100.9860 51.6191 0.0000 0.0000 0.0000
# 3 60.3833 51.6191 138.8635 0.0000 0.0000 0.0000
# 4 0.0000 0.0000 0.0000 32.5827 0.0000 0.0000
# 5 0.0000 0.0000 0.0000 0.0000 34.3489 0.0000
# 6 0.0000 0.0000 0.0000 0.0000 0.0000 18.7871
#
#
#
# Elastic Compliance Matrix: (Units=1/GPa)
#
#
# Indices 1 2 3 4 5 6 
#
# 1 0.014475 -0.002096 -0.005515 0.000000 0.000000 0.000000
# 2 -0.002096 0.012529 -0.003746 0.000000 0.000000 0.000000
# 3 -0.005515 -0.003746 0.010992 0.000000 0.000000 0.000000
# 4 0.000000 0.000000 0.000000 0.030691 0.000000 0.000000
# 5 0.000000 0.000000 0.000000 0.000000 0.029113 0.000000
# 6 0.000000 0.000000 0.000000 0.000000 0.000000 0.053228
#
#
# Mechanical properties :
#
#
# Convention : Reuss Voigt Hill
#
# Bulk Modulus (GPa) = 65.43773 69.94357 67.69065
# Shear Modulus (GPa) = 27.95876 29.85146 28.90511
#
# Velocity S-wave (km/s) = 3.59118 3.71074 3.65145
# Velocity P-wave (km/s) = 6.88331 7.11494 7.00008
#
# Compressibility (1/GPa) = 0.01528170
#
# Stress axis : x y z
#
# Youngs Moduli (GPa) = 69.08650 79.81660 90.97582
#
# Poissons Ratio (x) = 0.16728 0.50174
# Poissons Ratio (y) = 0.14479 0.34079
# Poissons Ratio (z) = 0.38102 0.29899
#
# Static dielectric constant tensor:
#      x y z
#    x 4.046130 0.000000 0.000000 
#    y 0.000000 3.932920 0.000000 
#    z 0.000000 0.000000 4.027440 
# 
# 
# High freq. dielectric constant tensor:
#      x y z
#    x 1.860390 0.000000 0.000000 
#    y 0.000000 1.850340 0.000000 
#    z 0.000000 0.000000 1.853450 
# 
# From -- ./inp_files/10249.got.cif
#   From: 2010.03.12/outbox.cif.g09.slc.cpg/sg38_6_cif.got.tgz:10249.got - 2010.04.14 02:38:36.
