data_PCOD8180849
_publ_section_title
;
Structure prediction by ZEFSAII (Michael W. Deem and Ramdas Pophale) SiO2 
 PCOD8180849
Probable space group: A B M 2
;
_chemical_formula_sum "Si O2"
_cell_formula_units_Z 64
_cell_length_a 23.911397
_cell_length_b 8.829740
_cell_length_c 15.489110
_cell_angle_alpha 90.000000
_cell_angle_beta 90.000000
_cell_angle_gamma 90.000000
_cell_volume 3270.237766
_symmetry_space_group_name_H-M "A B M 2"
_symmetry_group_IT_number 39
_symmetry_cell_setting 'orthorhombic'
loop_
_space_group_symop_operation_xyz
x,y,z
-x,-y,z
-x,1/2+y,z
x,1/2-y,z
x,1/2+y,1/2+z
-x,1/2-y,1/2+z
-x,y,1/2+z
x,-y,1/2+z
loop_
_atom_site_type_symbol
_atom_site_label
_atom_site_fract_x
_atom_site_fract_y
_atom_site_fract_z
Si Si1 0.755083 0.427052 0.293020
Si Si2 0.939608 0.570823 0.893341
Si Si3 0.867377 0.071871 0.551921
Si Si4 0.367455 0.572986 0.232362
Si Si5 0.867306 0.572945 0.245099
Si Si6 0.560538 0.570359 0.894242
Si Si7 0.250230 0.429444 0.991016
Si Si8 0.632214 0.070342 0.555534
O O1 0.770662 0.250000 0.286046
O O2 0.697525 0.465853 0.245577
O O3 0.802425 0.528241 0.248556
O O4 0.749767 0.478329 0.391684
O O5 0.945408 0.750000 0.894948
O O6 0.902692 0.525398 0.811420
O O7 0.000000 0.500000 0.883847
O O8 0.910921 0.507624 0.981100
O O9 0.862388 0.250000 0.537499
O O10 0.888697 0.033952 0.648167
O O11 0.805500 0.002150 0.535766
O O12 0.376754 0.750000 0.220828
O O13 0.402845 0.512701 0.313435
O O14 0.389668 0.490581 0.146824
O O15 0.874608 0.750000 0.265616
O O16 0.500000 0.500000 0.887186
O O17 0.556108 0.750000 0.893848
O O18 0.590178 0.512433 0.981532
O O19 0.251908 0.250000 0.998489
O O20 0.305665 0.495986 0.036483
O O21 0.633397 0.250000 0.556867
#
# Coordination Sequence:
#
# PCOD8180849 Si02
#       8
#     8   8   8   8   8   8   8   8
#     4  10  18  34  60  85 115 154 188 225 282 345
#     4  11  23  42  63  83 112 154 196 238 286 336
#     4   9  19  35  59  85 113 149 186 225 278 337
#     4  10  21  37  58  85 116 149 188 235 287 343
#     4  11  22  37  59  91 121 148 188 236 282 338
#     4  10  22  40  59  80 110 152 196 239 288 342
#     4   9  15  31  59  84 109 147 186 222 274 341
#     4  10  20  36  60  85 111 148 190 232 285 345
#
# _framework density 19.570442
#
# number of rings (size 3 to 8) (size 9 to 14) (size 15 to 20)
#    0.000    2.000    2.500    1.500    0.000    3.500 
#    0.000    6.875    0.000    0.000    0.000    0.000 
#    0.000    0.000    0.000    0.000    0.000    0.000 
#
# Total GULP energy -396827.323245 kJ/mol
# GULP energy per Si atom -12400.853851 kJ/mol
# Density = 1.952590 g / cm^3
# Si number density = 19.570442 Si / 1000 Ang^3
#
#
#
# Elastic Constant Matrix: (Units=GPa)
#
#
# Indices 1 2 3 4 5 6 
#
# 1 122.9845 28.9723 57.4805 0.0000 0.0000 0.0000
# 2 28.9723 33.9015 31.4635 0.0000 0.0000 0.0000
# 3 57.4805 31.4635 153.4362 0.0000 0.0000 0.0000
# 4 0.0000 0.0000 0.0000 28.0317 0.0000 0.0000
# 5 0.0000 0.0000 0.0000 0.0000 12.5993 0.0000
# 6 0.0000 0.0000 0.0000 0.0000 0.0000 29.4981
#
#
#
# Elastic Compliance Matrix: (Units=1/GPa)
#
#
# Indices 1 2 3 4 5 6 
#
# 1 0.011026 -0.006903 -0.002715 0.000000 0.000000 0.000000
# 2 -0.006903 0.040752 -0.005771 0.000000 0.000000 0.000000
# 3 -0.002715 -0.005771 0.008718 0.000000 0.000000 0.000000
# 4 0.000000 0.000000 0.000000 0.035674 0.000000 0.000000
# 5 0.000000 0.000000 0.000000 0.000000 0.079370 0.000000
# 6 0.000000 0.000000 0.000000 0.000000 0.000000 0.033900
#
#
# Mechanical properties :
#
#
# Convention : Reuss Voigt Hill
#
# Bulk Modulus (GPa) = 33.64891 60.68386 47.16639
# Shear Modulus (GPa) = 19.99004 26.85287 23.42145
#
# Velocity S-wave (km/s) = 3.19947 3.70822 3.46320
# Velocity P-wave (km/s) = 5.55696 7.02921 6.33599
#
# Compressibility (1/GPa) = 0.02971864
#
# Stress axis : x y z
#
# Youngs Moduli (GPa) = 90.69179 24.53847 114.70767
#
# Poissons Ratio (x) = 0.16940 0.31145
# Poissons Ratio (y) = 0.62607 0.66192
# Poissons Ratio (z) = 0.24624 0.14160
#
# Static dielectric constant tensor:
#      x y z
#    x 3.675490 0.000000 0.000000 
#    y 0.000000 3.184050 0.000000 
#    z 0.000000 0.000000 3.764300 
# 
# 
# High freq. dielectric constant tensor:
#      x y z
#    x 1.763860 0.000000 0.000000 
#    y 0.000000 1.729200 0.000000 
#    z 0.000000 0.000000 1.779120 
# 
# From -- ./inp_files/10561.got.cif
#   From: 2010.03.12/outbox.cif.g09.slc.cpg/sg39_6_cif.got.tgz:10561.got - 2010.04.14 02:53:20.
