data_PCOD8180923
_publ_section_title
;
Structure prediction by ZEFSAII (Michael W. Deem and Ramdas Pophale) SiO2 
 PCOD8180923
Probable space group: A B M 2
;
_chemical_formula_sum "Si O2"
_cell_formula_units_Z 64
_cell_length_a 20.356514
_cell_length_b 8.685092
_cell_length_c 20.006293
_cell_angle_alpha 90.000000
_cell_angle_beta 90.000000
_cell_angle_gamma 90.000000
_cell_volume 3537.076529
_symmetry_space_group_name_H-M "A B M 2"
_symmetry_group_IT_number 39
_symmetry_cell_setting 'orthorhombic'
loop_
_space_group_symop_operation_xyz
x,y,z
-x,-y,z
-x,1/2+y,z
x,1/2-y,z
x,1/2+y,1/2+z
-x,1/2-y,1/2+z
-x,y,1/2+z
x,-y,1/2+z
loop_
_atom_site_type_symbol
_atom_site_label
_atom_site_fract_x
_atom_site_fract_y
_atom_site_fract_z
Si Si1 0.931670 0.069250 0.373440
Si Si2 0.931313 0.067372 0.524850
Si Si3 0.825209 0.431249 0.777019
Si Si4 0.177364 0.067447 0.125654
Si Si5 0.569750 0.066148 0.878678
Si Si6 0.569575 0.933732 0.022401
Si Si7 0.323118 0.566714 0.626573
Si Si8 0.323046 0.567716 0.774808
O O1 0.938967 0.250000 0.371331
O O2 0.917231 0.012129 0.449065
O O3 0.872446 0.019565 0.326779
O O4 0.000000 0.000000 0.346746
O O5 0.934251 0.250000 0.529755
O O6 0.874492 0.998636 0.572748
O O7 0.000000 0.000000 0.550702
O O8 0.834958 0.250000 0.786570
O O9 0.841745 0.481646 0.701031
O O10 0.750753 0.482189 0.794645
O O11 0.177687 0.250000 0.121320
O O12 0.250289 0.006255 0.107127
O O13 0.566302 0.250000 0.881616
O O14 0.624715 0.002594 0.827735
O O15 0.500000 0.000000 0.854639
O O16 0.588972 0.000431 0.950662
O O17 0.566103 0.750000 0.018917
O O18 0.623957 0.996064 0.074055
O O19 0.500000 0.000000 0.046584
O O20 0.323375 0.750000 0.626464
O O21 0.341052 0.505515 0.700797
O O22 0.326668 0.750000 0.773877
#
# Coordination Sequence:
#
# PCOD8180923 Si02
#       8
#     8   8   8   8   8   8   8   8
#     4  10  20  33  49  70  98 128 159 196 235 279
#     4   9  18  32  49  69  93 122 154 190 230 271
#     4   9  17  32  53  73  95 124 157 194 237 285
#     4   8  15  30  51  72  93 120 156 194 231 275
#     4  10  19  32  49  69  96 127 160 197 236 282
#     4  10  19  31  49  71  96 125 157 196 238 281
#     4   8  15  29  49  71  93 121 158 193 228 277
#     4   8  16  31  50  71  95 125 159 194 235 284
#
# _framework density 18.094038000000001
#
# number of rings (size 3 to 8) (size 9 to 14) (size 15 to 20)
#    0.000    3.000    0.000    3.375    0.000    2.500 
#    0.000    4.375    0.000    9.750    0.000    0.000 
#    0.000    0.000    0.000    0.000    0.000    0.000 
#
# Total GULP energy -396685.534977 kJ/mol
# GULP energy per Si atom -12396.422968 kJ/mol
# Density = 1.805286 g / cm^3
# Si number density = 18.094038 Si / 1000 Ang^3
#
#
#
# Elastic Constant Matrix: (Units=GPa)
#
#
# Indices 1 2 3 4 5 6 
#
# 1 167.3345 27.7978 116.3816 0.0000 0.0000 0.0000
# 2 27.7978 37.0825 24.7016 0.0000 0.0000 0.0000
# 3 116.3816 24.7016 127.0874 0.0000 0.0000 0.0000
# 4 0.0000 0.0000 0.0000 18.0167 0.0000 0.0000
# 5 0.0000 0.0000 0.0000 0.0000 41.9245 0.0000
# 6 0.0000 0.0000 0.0000 0.0000 0.0000 23.7651
#
#
#
# Elastic Compliance Matrix: (Units=1/GPa)
#
#
# Indices 1 2 3 4 5 6 
#
# 1 0.016687 -0.002676 -0.014761 0.000000 0.000000 0.000000
# 2 -0.002676 0.031407 -0.003654 0.000000 0.000000 0.000000
# 3 -0.014761 -0.003654 0.022096 0.000000 0.000000 0.000000
# 4 0.000000 0.000000 0.000000 0.055504 0.000000 0.000000
# 5 0.000000 0.000000 0.000000 0.000000 0.023852 0.000000
# 6 0.000000 0.000000 0.000000 0.000000 0.000000 0.042079
#
#
# Mechanical properties :
#
#
# Convention : Reuss Voigt Hill
#
# Bulk Modulus (GPa) = 35.70380 74.36294 55.03337
# Shear Modulus (GPa) = 20.56397 27.58281 24.07339
#
# Velocity S-wave (km/s) = 3.37487 3.90861 3.65150
# Velocity P-wave (km/s) = 5.91282 7.84582 6.94688
#
# Compressibility (1/GPa) = 0.02800823
#
# Stress axis : x y z
#
# Youngs Moduli (GPa) = 59.92663 31.84017 45.25608
#
# Poissons Ratio (x) = 0.08521 0.66803
# Poissons Ratio (y) = 0.16037 0.16535
# Poissons Ratio (z) = 0.88459 0.11634
#
# Static dielectric constant tensor:
#      x y z
#    x 3.643440 0.000000 0.000000 
#    y 0.000000 2.984700 0.000000 
#    z 0.000000 0.000000 3.616970 
# 
# 
# High freq. dielectric constant tensor:
#      x y z
#    x 1.708930 0.000000 0.000000 
#    y 0.000000 1.669360 0.000000 
#    z 0.000000 0.000000 1.703680 
# 
# From -- ./inp_files/15054.got.cif
#   From: 2010.03.12/outbox.cif.g09.slc.cpg/sg39_8_cif.got.tgz:15054.got - 2010.04.14 02:53:20.
