data_PCOD8180415
_publ_section_title
;
Structure prediction by ZEFSAII (Michael W. Deem and Ramdas Pophale) SiO2 
 PCOD8180415
Probable space group: A M M 2
;
_chemical_formula_sum "Si O2"
_cell_formula_units_Z 48
_cell_length_a 7.658116
_cell_length_b 34.253490
_cell_length_c 8.725463
_cell_angle_alpha 90.000000
_cell_angle_beta 90.000000
_cell_angle_gamma 90.000000
_cell_volume 2288.839021
_symmetry_space_group_name_H-M "A M M 2"
_symmetry_group_IT_number 38
_symmetry_cell_setting 'orthorhombic'
loop_
_space_group_symop_operation_xyz
x,y,z
-x,-y,z
-x,y,z
x,-y,z
x,1/2+y,1/2+z
-x,1/2-y,1/2+z
-x,1/2+y,1/2+z
x,1/2-y,1/2+z
loop_
_atom_site_type_symbol
_atom_site_label
_atom_site_fract_x
_atom_site_fract_y
_atom_site_fract_z
Si Si1 0.500000 0.207786 0.242720
Si Si2 0.804738 0.657581 0.236512
Si Si3 0.500000 0.706880 0.380339
Si Si4 0.696652 0.921156 0.870593
Si Si5 0.198157 0.921986 0.206957
Si Si6 0.707322 0.500000 0.224951
Si Si7 0.795702 0.344512 0.881713
Si Si8 0.293596 0.000000 0.376391
O O1 0.500000 0.250953 0.307324
O O2 0.322668 0.187156 0.297014
O O3 0.500000 0.209869 0.061351
O O4 0.673542 0.684452 0.330013
O O5 0.809696 0.614228 0.305738
O O6 0.000000 0.674998 0.252492
O O7 0.747502 0.655993 0.060095
O O8 0.500000 0.916116 0.808158
O O9 0.780962 0.961573 0.809969
O O10 0.686850 0.921366 0.054418
O O11 0.256220 0.887048 0.318514
O O12 0.218151 0.962154 0.295754
O O13 0.000000 0.916355 0.154214
O O14 0.500000 0.500000 0.237384
O O15 0.772650 0.500000 0.050713
O O16 0.000000 0.334880 0.852948
O O17 0.500000 0.000000 0.364985
#
# Coordination Sequence:
#
# PCOD8180415 Si02
#       8
#     4   8   4   8   8   4   8   4
#     4  12  26  44  74  95 136 165 216 262 322 386
#     4  11  23  43  68  97 134 171 215 267 321 383
#     4  12  26  46  68 105 126 175 210 264 322 390
#     4  11  21  37  61  92 126 166 215 265 322 382
#     4  11  23  39  58  88 127 167 214 266 325 384
#     4   9  21  37  56  84 120 162 213 272 322 378
#     4  10  24  43  67  98 132 173 216 266 323 385
#     4  11  22  37  58  84 116 165 218 271 326 374
#
# _framework density 20.971329000000001
#
# number of rings (size 3 to 8) (size 9 to 14) (size 15 to 20)
#    0.000    1.167    0.833    5.250    2.333    3.333 
#    0.000    3.750    0.000    0.000    0.000    0.000 
#    0.000    0.000    0.000    0.000    0.000    0.000 
#
# Total GULP energy -297724.013037 kJ/mol
# GULP energy per Si atom -12405.167210 kJ/mol
# Density = 2.092360 g / cm^3
# Si number density = 20.971329 Si / 1000 Ang^3
#
#
#
# Elastic Constant Matrix: (Units=GPa)
#
#
# Indices 1 2 3 4 5 6 
#
# 1 82.5421 49.5445 44.1468 0.0000 0.0000 0.0000
# 2 49.5445 173.2517 77.3831 0.0000 0.0000 0.0000
# 3 44.1468 77.3831 183.0930 0.0000 0.0000 0.0000
# 4 0.0000 0.0000 0.0000 50.0672 0.0000 0.0000
# 5 0.0000 0.0000 0.0000 0.0000 2.0666 0.0000
# 6 0.0000 0.0000 0.0000 0.0000 0.0000 -20.5206
#
#
#
# Elastic Compliance Matrix: (Units=1/GPa)
#
#
# Indices 1 2 3 4 5 6 
#
# 1 0.015359 -0.003375 -0.002277 0.000000 0.000000 0.000000
# 2 -0.003375 0.007857 -0.002507 0.000000 0.000000 0.000000
# 3 -0.002277 -0.002507 0.007070 0.000000 0.000000 0.000000
# 4 0.000000 0.000000 0.000000 0.019973 0.000000 0.000000
# 5 0.000000 0.000000 0.000000 0.000000 0.483876 0.000000
# 6 0.000000 0.000000 0.000000 0.000000 0.000000 -0.048732
#
#
# Mechanical properties :
#
#
# Convention : Reuss Voigt Hill
#
# Bulk Modulus (GPa) = 71.59150 86.78172 79.18661
# Shear Modulus (GPa) = 9.87407 24.17682 17.02544
#
# Velocity S-wave (km/s) = 2.17223 3.39905 2.85238
# Velocity P-wave (km/s) = 6.36423 7.54160 6.97779
#
# Compressibility (1/GPa) = 0.01396814
#
# Stress axis : x y z
#
# Youngs Moduli (GPa) = 65.11011 127.27795 141.43967
#
# Poissons Ratio (x) = 0.42959 0.32202
# Poissons Ratio (y) = 0.21976 0.35456
# Poissons Ratio (z) = 0.14824 0.31906
#
# Static dielectric constant tensor:
#      x y z
#    x 3.796500 0.000000 0.000000 
#    y 0.000000 3.844380 0.000000 
#    z 0.000000 0.000000 3.899640 
# 
# 
# High freq. dielectric constant tensor:
#      x y z
#    x 1.827860 0.000000 0.000000 
#    y 0.000000 1.824020 0.000000 
#    z 0.000000 0.000000 1.836210 
# 
# From -- ./inp_files/3894.got.cif
#   From: 2010.03.12/outbox.cif.g09.slc.cpg/sg38_2_cif.got.tgz:3894.got - 2010.04.14 02:38:36.
