data_PCOD8180274
_publ_section_title
;
Structure prediction by ZEFSAII (Michael W. Deem and Ramdas Pophale) SiO2 
 PCOD8180274
Probable space group: A M M 2
;
_chemical_formula_sum "Si O2"
_cell_formula_units_Z 40
_cell_length_a 11.945258
_cell_length_b 15.061578
_cell_length_c 7.813547
_cell_angle_alpha 90.000000
_cell_angle_beta 90.000000
_cell_angle_gamma 90.000000
_cell_volume 1405.769895
_symmetry_space_group_name_H-M "A M M 2"
_symmetry_group_IT_number 38
_symmetry_cell_setting 'orthorhombic'
loop_
_space_group_symop_operation_xyz
x,y,z
-x,-y,z
-x,y,z
x,-y,z
x,1/2+y,1/2+z
-x,1/2-y,1/2+z
-x,1/2+y,1/2+z
x,1/2-y,1/2+z
loop_
_atom_site_type_symbol
_atom_site_label
_atom_site_fract_x
_atom_site_fract_y
_atom_site_fract_z
Si Si1 0.867163 0.355438 0.399720
Si Si2 0.630607 0.271501 0.505802
Si Si3 0.132558 0.839991 0.513586
Si Si4 0.633454 0.897325 0.693635
Si Si5 0.742721 0.092854 0.207589
O O1 0.821073 0.259704 0.473058
O O2 0.825864 0.375716 0.202068
O O3 0.820937 0.423070 0.538868
O O4 0.000000 0.354747 0.394112
O O5 0.500000 0.264509 0.482168
O O6 0.671490 0.165218 0.526259
O O7 0.677362 0.341037 0.361104
O O8 0.658291 0.322619 0.687320
O O9 0.169426 0.903620 0.362430
O O10 0.000000 0.833233 0.518573
O O11 0.500000 0.897278 0.702437
O O12 0.675518 0.000000 0.683885
O O13 0.673875 0.000000 0.227965
#
# Coordination Sequence:
#
# PCOD8180274 Si02
#       5
#     8   8   8   8   8
#     4  10  21  40  68  98 131 178 230 289 359 425
#     4  10  23  43  68 100 140 183 233 295 350 410
#     4  10  21  40  68  99 133 177 230 291 357 426
#     4   9  19  40  69  96 128 179 235 287 353 420
#     4  12  26  41  66 102 140 188 239 291 353 424
#
# _framework density 28.454158
#
# number of rings (size 3 to 8) (size 9 to 14) (size 15 to 20)
#    0.000    1.800    2.000    1.200    2.800    3.600 
#    0.000    4.000    0.000    9.600    0.000    0.000 
#    0.000    0.000    0.000    0.000    0.000    0.000 
#
# Total GULP energy -247893.315128 kJ/mol
# GULP energy per Si atom -12394.665756 kJ/mol
# Density = 2.838939 g / cm^3
# Si number density = 28.454158 Si / 1000 Ang^3
#
#
#
# Elastic Constant Matrix: (Units=GPa)
#
#
# Indices 1 2 3 4 5 6 
#
# 1 97.4603 62.5416 62.3746 0.0000 0.0000 0.0000
# 2 62.5416 245.1719 36.7126 0.0000 0.0000 0.0000
# 3 62.3746 36.7126 148.6482 0.0000 0.0000 0.0000
# 4 0.0000 0.0000 0.0000 10.9418 0.0000 0.0000
# 5 0.0000 0.0000 0.0000 0.0000 50.9299 0.0000
# 6 0.0000 0.0000 0.0000 0.0000 0.0000 34.1586
#
#
#
# Elastic Compliance Matrix: (Units=1/GPa)
#
#
# Indices 1 2 3 4 5 6 
#
# 1 0.016161 -0.003226 -0.005985 0.000000 0.000000 0.000000
# 2 -0.003226 0.004880 0.000149 0.000000 0.000000 0.000000
# 3 -0.005985 0.000149 0.009202 0.000000 0.000000 0.000000
# 4 0.000000 0.000000 0.000000 0.091392 0.000000 0.000000
# 5 0.000000 0.000000 0.000000 0.000000 0.019635 0.000000
# 6 0.000000 0.000000 0.000000 0.000000 0.000000 0.029275
#
#
# Mechanical properties :
#
#
# Convention : Reuss Voigt Hill
#
# Bulk Modulus (GPa) = 82.52267 90.50425 86.51346
# Shear Modulus (GPa) = 25.94590 41.18284 33.56437
#
# Velocity S-wave (km/s) = 3.02296 3.80852 3.43825
# Velocity P-wave (km/s) = 6.42256 7.15652 6.79945
#
# Compressibility (1/GPa) = 0.01211788
#
# Stress axis : x y z
#
# Youngs Moduli (GPa) = 61.87672 204.93704 108.67489
#
# Poissons Ratio (x) = 0.66122 0.65037
# Poissons Ratio (y) = 0.19964 -0.01616
# Poissons Ratio (z) = 0.37031 -0.03048
#
# Static dielectric constant tensor:
#      x y z
#    x 5.741780 0.000000 0.000000 
#    y 0.000000 5.446030 0.000000 
#    z 0.000000 0.000000 5.593330 
# 
# 
# High freq. dielectric constant tensor:
#      x y z
#    x 2.227890 0.000000 0.000000 
#    y 0.000000 2.147770 0.000000 
#    z 0.000000 0.000000 2.170940 
# 
# From -- ./inp_files/5227.got.cif
#   From: 2010.03.12/outbox.cif.g09.slc.cpg/sg38_3_cif.got.tgz:5227.got - 2010.04.14 02:38:36.
