data_PCOD8180538
_publ_section_title
;
Structure prediction by ZEFSAII (Michael W. Deem and Ramdas Pophale) SiO2 
 PCOD8180538
Probable space group: A M M 2
;
_chemical_formula_sum "Si O2"
_cell_formula_units_Z 64
_cell_length_a 14.161252
_cell_length_b 9.611965
_cell_length_c 26.241711
_cell_angle_alpha 90.000000
_cell_angle_beta 90.000000
_cell_angle_gamma 90.000000
_cell_volume 3571.955010
_symmetry_space_group_name_H-M "A M M 2"
_symmetry_group_IT_number 38
_symmetry_cell_setting 'orthorhombic'
loop_
_space_group_symop_operation_xyz
x,y,z
-x,-y,z
-x,y,z
x,-y,z
x,1/2+y,1/2+z
-x,1/2-y,1/2+z
-x,1/2+y,1/2+z
x,1/2-y,1/2+z
loop_
_atom_site_type_symbol
_atom_site_label
_atom_site_fract_x
_atom_site_fract_y
_atom_site_fract_z
Si Si1 0.793094 0.837429 0.370210
Si Si2 0.611903 0.346251 0.228605
Si Si3 0.111521 0.341142 0.173629
Si Si4 0.111540 0.660058 0.767911
Si Si5 0.603823 0.665111 0.116259
Si Si6 0.892165 0.666234 0.970496
Si Si7 0.792542 0.165330 0.571215
Si Si8 0.606013 0.161535 0.321705
O O1 0.843389 0.778114 0.319655
O O2 0.837546 0.771107 0.421273
O O3 0.679869 0.807986 0.367552
O O4 0.814687 0.000000 0.372218
O O5 0.500000 0.355274 0.229126
O O6 0.654400 0.500000 0.239467
O O7 0.641658 0.290817 0.172527
O O8 0.645752 0.240316 0.272035
O O9 0.144356 0.500000 0.182303
O O10 0.150846 0.250525 0.220702
O O11 0.152298 0.280273 0.120910
O O12 0.000000 0.329270 0.169882
O O13 0.141216 0.500000 0.758952
O O14 0.000000 0.675774 0.773090
O O15 0.500000 0.729831 0.103474
O O16 0.594306 0.500000 0.116407
O O17 0.682357 0.713269 0.075107
O O18 0.888642 0.500000 0.971064
O O19 0.000000 0.718864 0.969789
O O20 0.839712 0.728012 0.020353
O O21 0.800049 0.000000 0.569242
O O22 0.500000 0.209485 0.337899
O O23 0.606438 0.000000 0.307318
#
# Coordination Sequence:
#
# PCOD8180538 Si02
#       8
#     8   8   8   8   8   8   8   8
#     4   9  17  28  42  60  83 112 147 183 219 257
#     4   8  14  25  41  60  84 117 152 179 205 248
#     4   9  17  28  42  64  92 114 135 173 224 268
#     4   9  17  29  44  62  85 113 144 177 215 261
#     4   8  14  24  37  56  84 115 146 179 214 255
#     4   9  16  27  43  61  82 112 151 189 221 259
#     4   9  16  25  40  62  87 114 144 179 222 263
#     4   9  17  28  41  60  89 119 144 176 219 260
#
# _framework density 17.917359999999999
#
# number of rings (size 3 to 8) (size 9 to 14) (size 15 to 20)
#    0.000    3.250    0.000    1.500    1.750    3.000 
#    0.000    0.625    0.000    3.750    0.000    1.750 
#    0.000    6.000    0.000    6.875    0.000    7.000 
#
# Total GULP energy -396548.089585 kJ/mol
# GULP energy per Si atom -12392.127800 kJ/mol
# Density = 1.787658 g / cm^3
# Si number density = 17.917360 Si / 1000 Ang^3
#
#
#
# Elastic Constant Matrix: (Units=GPa)
#
#
# Indices 1 2 3 4 5 6 
#
# 1 97.2904 18.4872 81.4749 0.0000 0.0000 0.0000
# 2 18.4872 24.0604 27.4087 0.0000 0.0000 0.0000
# 3 81.4749 27.4087 160.4625 0.0000 0.0000 0.0000
# 4 0.0000 0.0000 0.0000 16.4502 0.0000 0.0000
# 5 0.0000 0.0000 0.0000 0.0000 33.8356 0.0000
# 6 0.0000 0.0000 0.0000 0.0000 0.0000 9.1029
#
#
#
# Elastic Compliance Matrix: (Units=1/GPa)
#
#
# Indices 1 2 3 4 5 6 
#
# 1 0.018234 -0.004300 -0.008524 0.000000 0.000000 0.000000
# 2 -0.004300 0.052617 -0.006804 0.000000 0.000000 0.000000
# 3 -0.008524 -0.006804 0.011722 0.000000 0.000000 0.000000
# 4 0.000000 0.000000 0.000000 0.060790 0.000000 0.000000
# 5 0.000000 0.000000 0.000000 0.000000 0.029555 0.000000
# 6 0.000000 0.000000 0.000000 0.000000 0.000000 0.109856
#
#
# Mechanical properties :
#
#
# Convention : Reuss Voigt Hill
#
# Bulk Modulus (GPa) = 23.08570 59.61723 41.35146
# Shear Modulus (GPa) = 14.86026 22.17390 18.51708
#
# Velocity S-wave (km/s) = 2.88302 3.52172 3.21825
# Velocity P-wave (km/s) = 4.89846 7.06274 6.07772
#
# Compressibility (1/GPa) = 0.04331687
#
# Stress axis : x y z
#
# Youngs Moduli (GPa) = 54.84356 19.00519 85.30923
#
# Poissons Ratio (x) = 0.08173 0.72714
# Poissons Ratio (y) = 0.23585 0.58045
# Poissons Ratio (z) = 0.46747 0.12931
#
# Static dielectric constant tensor:
#      x y z
#    x 3.544740 0.000000 0.000000 
#    y 0.000000 2.931030 0.000000 
#    z 0.000000 0.000000 3.512290 
# 
# 
# High freq. dielectric constant tensor:
#      x y z
#    x 1.711580 0.000000 0.000000 
#    y 0.000000 1.623960 0.000000 
#    z 0.000000 0.000000 1.681930 
# 
# From -- ./inp_files/22876.got.cif
#   From: 2010.03.12/outbox.cif.g09.slc.cpg/sg38_12_cif.got.tgz:22876.got - 2010.04.14 02:38:36.
