data_PCOD8180092
_publ_section_title
;
Structure prediction by ZEFSAII (Michael W. Deem and Ramdas Pophale) SiO2 
 PCOD8180092
Probable space group: A M M 2
;
_chemical_formula_sum "Si O2"
_cell_formula_units_Z 64
_cell_length_a 15.407305
_cell_length_b 8.852080
_cell_length_c 24.010028
_cell_angle_alpha 90.000000
_cell_angle_beta 90.000000
_cell_angle_gamma 90.000000
_cell_volume 3274.648400
_symmetry_space_group_name_H-M "A M M 2"
_symmetry_group_IT_number 38
_symmetry_cell_setting 'orthorhombic'
loop_
_space_group_symop_operation_xyz
x,y,z
-x,-y,z
-x,y,z
x,-y,z
x,1/2+y,1/2+z
-x,1/2-y,1/2+z
-x,1/2+y,1/2+z
x,1/2-y,1/2+z
loop_
_atom_site_type_symbol
_atom_site_label
_atom_site_fract_x
_atom_site_fract_y
_atom_site_fract_z
Si Si1 0.400517 0.823924 0.778940
Si Si2 0.346765 0.321762 0.156771
Si Si3 0.838046 0.177534 0.157088
Si Si4 0.904230 0.679086 0.777017
Si Si5 0.745339 0.821442 0.476338
Si Si6 0.903588 0.326424 0.052004
Si Si7 0.746583 0.820534 0.350487
Si Si8 0.597352 0.672473 0.547916
O O1 0.500000 0.790251 0.794350
O O2 0.381904 0.766317 0.716422
O O3 0.341411 0.734452 0.822019
O O4 0.378445 0.000000 0.783646
O O5 0.355292 0.500000 0.150400
O O6 0.248481 0.272374 0.148311
O O7 0.403778 0.245988 0.108915
O O8 0.882830 0.229001 0.214250
O O9 0.900800 0.221393 0.106514
O O10 0.817355 0.000000 0.156912
O O11 0.904860 0.500000 0.781223
O O12 0.831096 0.745572 0.818407
O O13 0.000000 0.742259 0.792997
O O14 0.833443 0.769455 0.507003
O O15 0.749552 0.759442 0.413430
O O16 0.661245 0.755725 0.506006
O O17 0.736304 0.000000 0.476756
O O18 0.884748 0.500000 0.068746
O O19 0.000000 0.310324 0.025885
O O20 0.747594 0.000000 0.348330
O O21 0.500000 0.684502 0.523554
O O22 0.627801 0.500000 0.553283
#
# Coordination Sequence:
#
# PCOD8180092 Si02
#       8
#     8   8   8   8   8   8   8   8
#     4  10  22  39  59  84 115 151 187 228 286 347
#     4  11  21  36  60  87 117 151 187 231 288 348
#     4  11  20  33  57  87 119 152 187 231 288 346
#     4   9  18  33  55  84 117 150 185 229 282 337
#     4  10  22  39  59  83 114 153 194 240 289 335
#     4  10  21  37  57  84 117 153 193 236 285 343
#     4  10  21  38  59  84 113 149 197 243 281 326
#     4  11  24  40  60  87 116 149 189 235 288 345
#
# _framework density 19.544083000000001
#
# number of rings (size 3 to 8) (size 9 to 14) (size 15 to 20)
#    0.000    1.750    2.500    1.875    0.000    4.500 
#    0.000    5.000    0.000    1.125    0.000    1.750 
#    0.000    0.000    0.000    0.000    0.000    0.000 
#
# Total GULP energy -396866.896673 kJ/mol
# GULP energy per Si atom -12402.090521 kJ/mol
# Density = 1.949960 g / cm^3
# Si number density = 19.544083 Si / 1000 Ang^3
#
#
#
# Elastic Constant Matrix: (Units=GPa)
#
#
# Indices 1 2 3 4 5 6 
#
# 1 130.6068 12.3280 64.0992 0.0000 0.0000 0.0000
# 2 12.3280 19.0116 28.8585 0.0000 0.0000 0.0000
# 3 64.0992 28.8585 161.2746 0.0000 0.0000 0.0000
# 4 0.0000 0.0000 0.0000 23.9567 0.0000 0.0000
# 5 0.0000 0.0000 0.0000 0.0000 11.1862 0.0000
# 6 0.0000 0.0000 0.0000 0.0000 0.0000 25.0929
#
#
#
# Elastic Compliance Matrix: (Units=1/GPa)
#
#
# Indices 1 2 3 4 5 6 
#
# 1 0.009517 -0.000590 -0.003677 0.000000 0.000000 0.000000
# 2 -0.000590 0.072251 -0.012694 0.000000 0.000000 0.000000
# 3 -0.003677 -0.012694 0.009934 0.000000 0.000000 0.000000
# 4 0.000000 0.000000 0.000000 0.041742 0.000000 0.000000
# 5 0.000000 0.000000 0.000000 0.000000 0.089396 0.000000
# 6 0.000000 0.000000 0.000000 0.000000 0.000000 0.039852
#
#
# Mechanical properties :
#
#
# Convention : Reuss Voigt Hill
#
# Bulk Modulus (GPa) = 17.30719 57.94049 37.62384
# Shear Modulus (GPa) = 15.82918 25.75432 20.79175
#
# Velocity S-wave (km/s) = 2.84900 3.63403 3.26519
# Velocity P-wave (km/s) = 4.43814 6.87885 5.78860
#
# Compressibility (1/GPa) = 0.05777947
#
# Stress axis : x y z
#
# Youngs Moduli (GPa) = 105.07717 13.84066 100.66902
#
# Poissons Ratio (x) = 0.00816 0.37016
# Poissons Ratio (y) = 0.06196 1.27791
# Poissons Ratio (z) = 0.38637 0.17570
#
# Static dielectric constant tensor:
#      x y z
#    x 3.719480 0.000000 0.000000 
#    y 0.000000 3.364360 0.000000 
#    z 0.000000 0.000000 3.704510 
# 
# 
# High freq. dielectric constant tensor:
#      x y z
#    x 1.776270 0.000000 0.000000 
#    y 0.000000 1.742560 0.000000 
#    z 0.000000 0.000000 1.759340 
# 
# From -- ./inp_files/22934.got.cif
#   From: 2010.03.12/outbox.cif.g09.slc.cpg/sg38_12_cif.got.tgz:22934.got - 2010.04.14 02:38:36.
