data_PCOD8180531
_publ_section_title
;
Structure prediction by ZEFSAII (Michael W. Deem and Ramdas Pophale) SiO2 
 PCOD8180531
Probable space group: A M M 2
;
_chemical_formula_sum "Si O2"
_cell_formula_units_Z 64
_cell_length_a 9.698256
_cell_length_b 14.635117
_cell_length_c 27.810345
_cell_angle_alpha 90.000000
_cell_angle_beta 90.000000
_cell_angle_gamma 90.000000
_cell_volume 3947.264412
_symmetry_space_group_name_H-M "A M M 2"
_symmetry_group_IT_number 38
_symmetry_cell_setting 'orthorhombic'
loop_
_space_group_symop_operation_xyz
x,y,z
-x,-y,z
-x,y,z
x,-y,z
x,1/2+y,1/2+z
-x,1/2-y,1/2+z
-x,1/2+y,1/2+z
x,1/2-y,1/2+z
loop_
_atom_site_type_symbol
_atom_site_label
_atom_site_fract_x
_atom_site_fract_y
_atom_site_fract_z
Si Si1 0.157358 0.401166 0.570320
Si Si2 0.660287 0.894215 0.345871
Si Si3 0.348146 0.846983 0.615401
Si Si4 0.664153 0.288202 0.753035
Si Si5 0.663944 0.901604 0.717266
Si Si6 0.839120 0.292772 0.032772
Si Si7 0.840982 0.394890 0.936748
Si Si8 0.651551 0.644181 0.652667
O O1 0.174982 0.500000 0.543262
O O2 0.202225 0.315246 0.536900
O O3 0.243491 0.410816 0.619428
O O4 0.000000 0.385953 0.585939
O O5 0.500000 0.873772 0.356058
O O6 0.719254 0.834193 0.301724
O O7 0.746577 0.865096 0.392328
O O8 0.683625 0.000000 0.332959
O O9 0.500000 0.884578 0.600130
O O10 0.286699 0.900399 0.661524
O O11 0.243454 0.854781 0.570896
O O12 0.364596 0.743670 0.631158
O O13 0.500000 0.286002 0.753684
O O14 0.723371 0.183982 0.748027
O O15 0.710620 0.348970 0.707149
O O16 0.500000 0.892469 0.716544
O O17 0.710105 0.000000 0.739567
O O18 0.000000 0.308476 0.042848
O O19 0.798828 0.328109 0.980131
O O20 0.812934 0.500000 0.951602
O O21 0.000000 0.381170 0.922149
O O22 0.500000 0.596814 0.652480
#
# Coordination Sequence:
#
# PCOD8180531 Si02
#       8
#     8   8   8   8   8   8   8   8
#     4   9  17  28  41  59  84 111 138 167 196 231
#     4   9  17  29  45  64  83 103 131 169 210 246
#     4   8  14  24  38  59  85 109 136 168 195 224
#     4   8  14  25  41  61  84 109 138 169 199 237
#     4   8  13  22  38  61  88 115 139 163 194 234
#     4   9  17  29  44  60  80 108 138 166 201 244
#     4   9  18  32  47  62  80 102 131 168 209 252
#     4   8  14  25  40  58  82 111 139 165 194 229
#
# _framework density 16.213761000000002
#
# number of rings (size 3 to 8) (size 9 to 14) (size 15 to 20)
#    0.000    3.500    0.000    1.500    0.000    1.750 
#    0.000    1.875    0.000    3.000    0.000    0.000 
#    0.000    0.000    0.000    0.000    0.000    0.000 
#
# Total GULP energy -396437.086087 kJ/mol
# GULP energy per Si atom -12388.658940 kJ/mol
# Density = 1.617686 g / cm^3
# Si number density = 16.213761 Si / 1000 Ang^3
#
#
#
# Elastic Constant Matrix: (Units=GPa)
#
#
# Indices 1 2 3 4 5 6 
#
# 1 41.0727 25.0436 44.2028 0.0000 0.0000 0.0000
# 2 25.0436 91.5671 60.7857 0.0000 0.0000 0.0000
# 3 44.2028 60.7857 125.0094 0.0000 0.0000 0.0000
# 4 0.0000 0.0000 0.0000 22.2913 0.0000 0.0000
# 5 0.0000 0.0000 0.0000 0.0000 14.8038 0.0000
# 6 0.0000 0.0000 0.0000 0.0000 0.0000 11.3914
#
#
#
# Elastic Compliance Matrix: (Units=1/GPa)
#
#
# Indices 1 2 3 4 5 6 
#
# 1 0.039620 -0.002268 -0.012907 0.000000 0.000000 0.000000
# 2 -0.002268 0.016256 -0.007103 0.000000 0.000000 0.000000
# 3 -0.012907 -0.007103 0.016017 0.000000 0.000000 0.000000
# 4 0.000000 0.000000 0.000000 0.044861 0.000000 0.000000
# 5 0.000000 0.000000 0.000000 0.000000 0.067550 0.000000
# 6 0.000000 0.000000 0.000000 0.000000 0.000000 0.087786
#
#
# Mechanical properties :
#
#
# Convention : Reuss Voigt Hill
#
# Bulk Modulus (GPa) = 36.57851 57.52371 47.05111
# Shear Modulus (GPa) = 15.34883 18.20509 16.77696
#
# Velocity S-wave (km/s) = 3.08011 3.35448 3.22022
# Velocity P-wave (km/s) = 5.93790 7.11047 6.55047
#
# Compressibility (1/GPa) = 0.02733846
#
# Stress axis : x y z
#
# Youngs Moduli (GPa) = 25.23956 61.51478 62.43467
#
# Poissons Ratio (x) = 0.13953 0.80582
# Poissons Ratio (y) = 0.05725 0.44345
# Poissons Ratio (z) = 0.32576 0.43691
#
# Static dielectric constant tensor:
#      x y z
#    x 3.102990 0.000000 0.000000 
#    y 0.000000 3.271670 0.000000 
#    z 0.000000 0.000000 3.047500 
# 
# 
# High freq. dielectric constant tensor:
#      x y z
#    x 1.596420 0.000000 0.000000 
#    y 0.000000 1.624840 0.000000 
#    z 0.000000 0.000000 1.599030 
# 
# From -- ./inp_files/24778.got.cif
#   From: 2010.03.12/outbox.cif.g09.slc.cpg/sg38_13_cif.got.tgz:24778.got - 2010.04.14 02:38:36.
