data_PCOD8180845
_publ_section_title
;
Structure prediction by ZEFSAII (Michael W. Deem and Ramdas Pophale) SiO2 
 PCOD8180845
Probable space group: A B M 2
;
_chemical_formula_sum "Si O2"
_cell_formula_units_Z 64
_cell_length_a 19.266355
_cell_length_b 8.974687
_cell_length_c 20.384124
_cell_angle_alpha 90.000000
_cell_angle_beta 90.000000
_cell_angle_gamma 90.000000
_cell_volume 3524.608806
_symmetry_space_group_name_H-M "A B M 2"
_symmetry_group_IT_number 39
_symmetry_cell_setting 'orthorhombic'
loop_
_space_group_symop_operation_xyz
x,y,z
-x,-y,z
-x,1/2+y,z
x,1/2-y,z
x,1/2+y,1/2+z
-x,1/2-y,1/2+z
-x,y,1/2+z
x,-y,1/2+z
loop_
_atom_site_type_symbol
_atom_site_label
_atom_site_fract_x
_atom_site_fract_y
_atom_site_fract_z
Si Si1 0.200200 0.076828 0.976610
Si Si2 0.430347 0.424872 0.894683
Si Si3 0.569004 0.925737 0.044775
Si Si4 0.711560 0.926677 0.097823
Si Si5 0.927568 0.074098 0.175491
Si Si6 0.717677 0.422832 0.343819
Si Si7 0.070781 0.575939 0.024231
Si Si8 0.207776 0.573219 0.724868
O O1 0.182812 0.250000 0.986253
O O2 0.243041 0.047812 0.911377
O O3 0.128840 0.985910 0.975081
O O4 0.243946 0.011632 0.037272
O O5 0.500000 0.500000 0.865360
O O6 0.441430 0.250000 0.891664
O O7 0.362873 0.470772 0.852279
O O8 0.418336 0.476693 0.969679
O O9 0.560859 0.750000 0.048908
O O10 0.632681 0.983892 0.089400
O O11 0.500000 0.000000 0.073840
O O12 0.711810 0.750000 0.094574
O O13 0.743754 0.984807 0.165535
O O14 0.932191 0.250000 0.187545
O O15 0.866973 0.005363 0.220317
O O16 0.911455 0.034972 0.099686
O O17 0.000000 0.000000 0.197234
O O18 0.723419 0.250000 0.323078
O O19 0.753422 0.527370 0.290752
O O20 0.062702 0.750000 0.014304
O O21 0.000000 0.500000 0.002126
O O22 0.196945 0.750000 0.722744
#
# Coordination Sequence:
#
# PCOD8180845 Si02
#       8
#     8   8   8   8   8   8   8   8
#     4  10  18  34  58  79 104 141 181 221 267 322
#     4   9  17  31  53  78 104 137 177 223 270 322
#     4   9  16  30  51  78 106 135 176 223 272 322
#     4   9  17  32  55  78 103 138 179 217 265 323
#     4  10  20  35  56  82 111 143 180 222 269 325
#     4  10  21  37  56  79 110 148 185 224 274 328
#     4  10  20  33  53  83 114 142 176 224 272 320
#     4  11  22  36  56  81 111 146 183 228 273 324
#
# _framework density 18.158044
#
# number of rings (size 3 to 8) (size 9 to 14) (size 15 to 20)
#    0.000    2.250    2.500    1.125    0.000    2.000 
#    0.000    3.125    0.000    6.000    0.000    0.000 
#    0.000    0.000    0.000    0.000    0.000    0.000 
#
# Total GULP energy -396817.455822 kJ/mol
# GULP energy per Si atom -12400.545494 kJ/mol
# Density = 1.811672 g / cm^3
# Si number density = 18.158044 Si / 1000 Ang^3
#
#
#
# Elastic Constant Matrix: (Units=GPa)
#
#
# Indices 1 2 3 4 5 6 
#
# 1 166.7077 54.8513 45.8947 0.0000 0.0000 0.0000
# 2 54.8513 59.9693 30.7813 0.0000 0.0000 0.0000
# 3 45.8947 30.7813 60.6555 0.0000 0.0000 0.0000
# 4 0.0000 0.0000 0.0000 22.1155 0.0000 0.0000
# 5 0.0000 0.0000 0.0000 0.0000 27.0344 0.0000
# 6 0.0000 0.0000 0.0000 0.0000 0.0000 35.1664
#
#
#
# Elastic Compliance Matrix: (Units=1/GPa)
#
#
# Indices 1 2 3 4 5 6 
#
# 1 0.009131 -0.006498 -0.003611 0.000000 0.000000 0.000000
# 2 -0.006498 0.027173 -0.008873 0.000000 0.000000 0.000000
# 3 -0.003611 -0.008873 0.023722 0.000000 0.000000 0.000000
# 4 0.000000 0.000000 0.000000 0.045217 0.000000 0.000000
# 5 0.000000 0.000000 0.000000 0.000000 0.036990 0.000000
# 6 0.000000 0.000000 0.000000 0.000000 0.000000 0.028436
#
#
# Mechanical properties :
#
#
# Convention : Reuss Voigt Hill
#
# Bulk Modulus (GPa) = 45.32846 61.15413 53.24129
# Shear Modulus (GPa) = 23.14958 27.25027 25.19992
#
# Velocity S-wave (km/s) = 3.57444 3.87812 3.72937
# Velocity P-wave (km/s) = 6.48483 7.33519 6.92308
#
# Compressibility (1/GPa) = 0.02206120
#
# Stress axis : x y z
#
# Youngs Moduli (GPa) = 109.52139 36.80133 42.15530
#
# Poissons Ratio (x) = 0.23913 0.15223
# Poissons Ratio (y) = 0.71165 0.37405
# Poissons Ratio (z) = 0.39550 0.32654
#
# Static dielectric constant tensor:
#      x y z
#    x 3.562220 0.000000 0.000000 
#    y 0.000000 3.168760 0.000000 
#    z 0.000000 0.000000 3.144450 
# 
# 
# High freq. dielectric constant tensor:
#      x y z
#    x 1.721140 0.000000 0.000000 
#    y 0.000000 1.691780 0.000000 
#    z 0.000000 0.000000 1.673800 
# 
# From -- ./inp_files/13110.got.cif
#   From: 2010.03.12/outbox.cif.g09.slc.cpg/sg39_7_cif.got.tgz:13110.got - 2010.04.14 02:53:20.
