data_PCOD8180842
_publ_section_title
;
Structure prediction by ZEFSAII (Michael W. Deem and Ramdas Pophale) SiO2 
 PCOD8180842
Probable space group: A B M 2
;
_chemical_formula_sum "Si O2"
_cell_formula_units_Z 56
_cell_length_a 15.514370
_cell_length_b 8.454067
_cell_length_c 20.405157
_cell_angle_alpha 90.000000
_cell_angle_beta 90.000000
_cell_angle_gamma 90.000000
_cell_volume 2676.330668
_symmetry_space_group_name_H-M "A B M 2"
_symmetry_group_IT_number 39
_symmetry_cell_setting 'orthorhombic'
loop_
_space_group_symop_operation_xyz
x,y,z
-x,-y,z
-x,1/2+y,z
x,1/2-y,z
x,1/2+y,1/2+z
-x,1/2-y,1/2+z
-x,y,1/2+z
x,-y,1/2+z
loop_
_atom_site_type_symbol
_atom_site_label
_atom_site_fract_x
_atom_site_fract_y
_atom_site_fract_z
Si Si1 0.911721 0.932954 0.790330
Si Si2 0.592134 0.438196 0.013494
Si Si3 0.733825 0.435937 0.750475
Si Si4 0.263677 0.065037 0.614015
Si Si5 0.912095 0.936020 0.063655
Si Si6 0.318425 0.068600 0.388610
Si Si7 0.874483 0.069111 0.923837
O O1 0.899273 0.750000 0.772065
O O2 0.835341 0.035705 0.759549
O O3 0.914636 0.955256 0.868885
O O4 0.000000 0.000000 0.759511
O O5 0.500000 0.500000 0.037240
O O6 0.592760 0.250000 0.013876
O O7 0.665313 0.501025 0.063223
O O8 0.611907 0.504415 0.939575
O O9 0.717620 0.250000 0.742172
O O10 0.700104 0.527738 0.686655
O O11 0.684315 0.506644 0.815269
O O12 0.249057 0.250000 0.603976
O O13 0.171955 0.979351 0.605840
O O14 0.915989 0.750000 0.054555
O O15 0.000000 0.000000 0.098442
O O16 0.910347 0.021095 0.993687
O O17 0.340749 0.250000 0.377229
O O18 0.228115 0.048683 0.425632
O O19 0.899640 0.250000 0.907438
#
# Coordination Sequence:
#
# PCOD8180842 Si02
#       7
#     8   8   8   8   8   8   8
#     4  11  21  34  52  80 115 156 207 256 305 359
#     4  10  21  40  66  95 123 158 199 248 308 367
#     4  10  21  38  61  86 116 158 203 247 307 367
#     4  11  23  42  63  87 125 165 204 254 311 365
#     4  12  24  37  56  85 120 162 211 257 308 365
#     4   8  16  35  61  86 116 153 190 239 300 355
#     4  10  18  34  56  81 116 157 200 252 311 358
#
# _framework density 20.924171000000001
#
# number of rings (size 3 to 8) (size 9 to 14) (size 15 to 20)
#    0.000    1.714    1.429    5.143    0.000    1.714 
#    0.000    5.000    0.000    3.429    0.000    0.000 
#    0.000    0.000    0.000    0.000    0.000    0.000 
#
# Total GULP energy -347133.319483 kJ/mol
# GULP energy per Si atom -12397.618553 kJ/mol
# Density = 2.087655 g / cm^3
# Si number density = 20.924171 Si / 1000 Ang^3
#
#
#
# Elastic Constant Matrix: (Units=GPa)
#
#
# Indices 1 2 3 4 5 6 
#
# 1 103.7680 19.9277 50.6070 0.0000 0.0000 0.0000
# 2 19.9277 60.5106 6.9967 0.0000 0.0000 0.0000
# 3 50.6070 6.9967 119.5349 0.0000 0.0000 0.0000
# 4 0.0000 0.0000 0.0000 31.2327 0.0000 0.0000
# 5 0.0000 0.0000 0.0000 0.0000 4.8535 0.0000
# 6 0.0000 0.0000 0.0000 0.0000 0.0000 26.9359
#
#
#
# Elastic Compliance Matrix: (Units=1/GPa)
#
#
# Indices 1 2 3 4 5 6 
#
# 1 0.012894 -0.003640 -0.005246 0.000000 0.000000 0.000000
# 2 -0.003640 0.017666 0.000507 0.000000 0.000000 0.000000
# 3 -0.005246 0.000507 0.010557 0.000000 0.000000 0.000000
# 4 0.000000 0.000000 0.000000 0.032018 0.000000 0.000000
# 5 0.000000 0.000000 0.000000 0.000000 0.206038 0.000000
# 6 0.000000 0.000000 0.000000 0.000000 0.000000 0.037125
#
#
# Mechanical properties :
#
#
# Convention : Reuss Voigt Hill
#
# Bulk Modulus (GPa) = 41.05137 48.76406 44.90771
# Shear Modulus (GPa) = 14.65521 26.35653 20.50587
#
# Velocity S-wave (km/s) = 2.64937 3.55296 3.13391
# Velocity P-wave (km/s) = 5.38708 6.33933 5.88250
#
# Compressibility (1/GPa) = 0.02435972
#
# Stress axis : x y z
#
# Youngs Moduli (GPa) = 77.55356 56.60549 94.72346
#
# Poissons Ratio (x) = 0.20604 0.49692
# Poissons Ratio (y) = 0.28228 -0.04802
# Poissons Ratio (z) = 0.40684 -0.02870
#
# Static dielectric constant tensor:
#      x y z
#    x 3.792880 0.000000 0.000000 
#    y 0.000000 3.556410 0.000000 
#    z 0.000000 0.000000 4.005450 
# 
# 
# High freq. dielectric constant tensor:
#      x y z
#    x 1.800390 0.000000 0.000000 
#    y 0.000000 1.804300 0.000000 
#    z 0.000000 0.000000 1.824690 
# 
# From -- ./inp_files/14782.got.cif
#   From: 2010.03.12/outbox.cif.g09.slc.cpg/sg39_8_cif.got.tgz:14782.got - 2010.04.14 02:53:20.
