data_PCOD8180167
_publ_section_title
;
Structure prediction by ZEFSAII (Michael W. Deem and Ramdas Pophale) SiO2 
 PCOD8180167
Probable space group: A M M 2
;
_chemical_formula_sum "Si O2"
_cell_formula_units_Z 48
_cell_length_a 8.984857
_cell_length_b 18.223581
_cell_length_c 14.863176
_cell_angle_alpha 90.000000
_cell_angle_beta 90.000000
_cell_angle_gamma 90.000000
_cell_volume 2433.640988
_symmetry_space_group_name_H-M "A M M 2"
_symmetry_group_IT_number 38
_symmetry_cell_setting 'orthorhombic'
loop_
_space_group_symop_operation_xyz
x,y,z
-x,-y,z
-x,y,z
x,-y,z
x,1/2+y,1/2+z
-x,1/2-y,1/2+z
-x,1/2+y,1/2+z
x,1/2-y,1/2+z
loop_
_atom_site_type_symbol
_atom_site_label
_atom_site_fract_x
_atom_site_fract_y
_atom_site_fract_z
Si Si1 0.665988 0.000000 0.661780
Si Si2 0.669211 0.500000 0.373418
Si Si3 0.832472 0.395516 0.042343
Si Si4 0.675757 0.730736 0.778561
Si Si5 0.670175 0.079507 0.363270
Si Si6 0.832202 0.233041 0.091574
Si Si7 0.823547 0.152267 0.913155
O O1 0.747007 0.073656 0.629045
O O2 0.500000 0.000000 0.622631
O O3 0.666321 0.000000 0.767397
O O4 0.500000 0.500000 0.411304
O O5 0.755732 0.571768 0.405553
O O6 0.822085 0.308709 0.038081
O O7 0.000000 0.423532 0.049722
O O8 0.763979 0.428514 0.952987
O O9 0.500000 0.743003 0.787308
O O10 0.726751 0.648158 0.804769
O O11 0.720477 0.736713 0.674673
O O12 0.754360 0.791507 0.840578
O O13 0.500000 0.093794 0.390407
O O14 0.686713 0.000000 0.312346
O O15 0.000000 0.218717 0.127101
O O16 0.785385 0.174305 0.016005
O O17 0.000000 0.150814 0.896023
#
# Coordination Sequence:
#
# PCOD8180167 Si02
#       7
#     4   4   8   8   8   8   8
#     4  11  23  37  55  86 125 158 193 247 310 372
#     4  11  25  43  63  92 123 160 209 257 314 374
#     4  11  21  35  58  88 118 153 200 247 299 362
#     4  11  23  39  64  94 124 163 210 259 311 369
#     4  10  21  38  59  86 123 160 195 245 308 363
#     4  10  23  41  62  89 122 162 209 256 308 370
#     4  11  23  43  67  90 125 167 208 260 316 372
#
# _framework density 19.723534000000001
#
# number of rings (size 3 to 8) (size 9 to 14) (size 15 to 20)
#    0.000    1.333    2.500    3.000    0.000    7.333 
#    1.500    0.000    0.000    0.000    0.000    0.000 
#    0.000    0.000    0.000    0.000    0.000    0.000 
#
# Total GULP energy -297560.399972 kJ/mol
# GULP energy per Si atom -12398.349999 kJ/mol
# Density = 1.967864 g / cm^3
# Si number density = 19.723534 Si / 1000 Ang^3
#
#
#
# Elastic Constant Matrix: (Units=GPa)
#
#
# Indices 1 2 3 4 5 6 
#
# 1 111.0400 57.5943 43.8396 0.0000 0.0000 0.0000
# 2 57.5943 153.1033 47.4586 0.0000 0.0000 0.0000
# 3 43.8396 47.4586 86.8807 0.0000 0.0000 0.0000
# 4 0.0000 0.0000 0.0000 30.5992 0.0000 0.0000
# 5 0.0000 0.0000 0.0000 0.0000 25.1444 0.0000
# 6 0.0000 0.0000 0.0000 0.0000 0.0000 5.4453
#
#
#
# Elastic Compliance Matrix: (Units=1/GPa)
#
#
# Indices 1 2 3 4 5 6 
#
# 1 0.012497 -0.003306 -0.004500 0.000000 0.000000 0.000000
# 2 -0.003306 0.008738 -0.003105 0.000000 0.000000 0.000000
# 3 -0.004500 -0.003105 0.015477 0.000000 0.000000 0.000000
# 4 0.000000 0.000000 0.000000 0.032681 0.000000 0.000000
# 5 0.000000 0.000000 0.000000 0.000000 0.039770 0.000000
# 6 0.000000 0.000000 0.000000 0.000000 0.000000 0.183644
#
#
# Mechanical properties :
#
#
# Convention : Reuss Voigt Hill
#
# Bulk Modulus (GPa) = 67.16036 72.08988 69.62512
# Shear Modulus (GPa) = 15.64497 25.71321 20.67909
#
# Velocity S-wave (km/s) = 2.81946 3.61457 3.24149
# Velocity P-wave (km/s) = 6.68760 7.35185 7.02758
#
# Compressibility (1/GPa) = 0.01488974
#
# Stress axis : x y z
#
# Youngs Moduli (GPa) = 80.01693 114.44702 64.61363
#
# Poissons Ratio (x) = 0.37840 0.29076
# Poissons Ratio (y) = 0.26456 0.20060
# Poissons Ratio (z) = 0.36008 0.35531
#
# Static dielectric constant tensor:
#      x y z
#    x 3.860820 0.000000 0.000000 
#    y 0.000000 4.289800 0.000000 
#    z 0.000000 0.000000 3.392130 
# 
# 
# High freq. dielectric constant tensor:
#      x y z
#    x 1.779340 0.000000 0.000000 
#    y 0.000000 1.787310 0.000000 
#    z 0.000000 0.000000 1.754680 
# 
# From -- ./inp_files/12064.got.cif
#   From: 2010.03.12/outbox.cif.g09.slc.cpg/sg38_7_cif.got.tgz:12064.got - 2010.04.14 02:38:36.
