data_PCOD8180757
_publ_section_title
;
Structure prediction by ZEFSAII (Michael W. Deem and Ramdas Pophale) SiO2 
 PCOD8180757
Probable space group: A B M 2
;
_chemical_formula_sum "Si O2"
_cell_formula_units_Z 56
_cell_length_a 17.640315
_cell_length_b 9.124383
_cell_length_c 19.158716
_cell_angle_alpha 90.000000
_cell_angle_beta 90.000000
_cell_angle_gamma 90.000000
_cell_volume 3083.729265
_symmetry_space_group_name_H-M "A B M 2"
_symmetry_group_IT_number 39
_symmetry_cell_setting 'orthorhombic'
loop_
_space_group_symop_operation_xyz
x,y,z
-x,-y,z
-x,1/2+y,z
x,1/2-y,z
x,1/2+y,1/2+z
-x,1/2-y,1/2+z
-x,y,1/2+z
x,-y,1/2+z
loop_
_atom_site_type_symbol
_atom_site_label
_atom_site_fract_x
_atom_site_fract_y
_atom_site_fract_z
Si Si1 0.297276 0.575971 0.805180
Si Si2 0.074002 0.414306 0.128252
Si Si3 0.755076 0.578632 0.936400
Si Si4 0.706785 0.083039 0.591262
Si Si5 0.920332 0.414787 0.472474
Si Si6 0.196009 0.922885 0.200258
Si Si7 0.422114 0.583584 0.695187
O O1 0.287505 0.750000 0.804233
O O2 0.297282 0.514533 0.883581
O O3 0.225447 0.499424 0.769667
O O4 0.371421 0.527879 0.760908
O O5 0.060883 0.250000 0.156556
O O6 0.112666 0.411716 0.051820
O O7 0.113522 0.510101 0.187680
O O8 0.000000 0.500000 0.109302
O O9 0.751538 0.750000 0.917498
O O10 0.712609 0.549309 0.009692
O O11 0.844154 0.525779 0.933059
O O12 0.735016 0.250000 0.608396
O O13 0.621496 0.064498 0.621229
O O14 0.756787 0.965418 0.631918
O O15 0.938977 0.250000 0.448224
O O16 0.000000 0.500000 0.458934
O O17 0.192953 0.750000 0.210364
O O18 0.500000 0.500000 0.691549
O O19 0.443559 0.750000 0.708946
#
# Coordination Sequence:
#
# PCOD8180757 Si02
#       7
#     8   8   8   8   8   8   8
#     4  10  22  38  55  78 109 145 181 224 274 323
#     4  10  18  31  49  74 106 140 178 228 280 324
#     4  10  19  35  56  80 110 146 184 225 274 325
#     4   9  18  35  56  79 109 141 172 218 273 318
#     4   9  18  31  50  75 106 144 181 222 273 321
#     4  11  20  32  52  78 103 137 182 225 267 322
#     4   9  19  36  59  82 108 141 177 218 272 329
#
# _framework density 18.159829999999999
#
# number of rings (size 3 to 8) (size 9 to 14) (size 15 to 20)
#    0.000    2.286    1.429    3.000    0.000    4.571 
#    0.000    1.429    0.000    5.143    0.000    0.000 
#    0.000    0.000    0.000    0.000    0.000    0.000 
#
# Total GULP energy -346919.155610 kJ/mol
# GULP energy per Si atom -12389.969843 kJ/mol
# Density = 1.811850 g / cm^3
# Si number density = 18.159830 Si / 1000 Ang^3
#
#
#
# Elastic Constant Matrix: (Units=GPa)
#
#
# Indices 1 2 3 4 5 6 
#
# 1 82.7685 34.6191 39.7675 0.0000 0.0000 0.0000
# 2 34.6191 87.8579 40.8271 0.0000 0.0000 0.0000
# 3 39.7675 40.8271 96.1502 0.0000 0.0000 0.0000
# 4 0.0000 0.0000 0.0000 26.5134 0.0000 0.0000
# 5 0.0000 0.0000 0.0000 0.0000 21.4254 0.0000
# 6 0.0000 0.0000 0.0000 0.0000 0.0000 33.2818
#
#
#
# Elastic Compliance Matrix: (Units=1/GPa)
#
#
# Indices 1 2 3 4 5 6 
#
# 1 0.016165 -0.004065 -0.004960 0.000000 0.000000 0.000000
# 2 -0.004065 0.015202 -0.004774 0.000000 0.000000 0.000000
# 3 -0.004960 -0.004774 0.014479 0.000000 0.000000 0.000000
# 4 0.000000 0.000000 0.000000 0.037717 0.000000 0.000000
# 5 0.000000 0.000000 0.000000 0.000000 0.046674 0.000000
# 6 0.000000 0.000000 0.000000 0.000000 0.000000 0.030046
#
#
# Mechanical properties :
#
#
# Convention : Reuss Voigt Hill
#
# Bulk Modulus (GPa) = 54.79768 55.24491 55.02130
# Shear Modulus (GPa) = 25.77810 26.34829 26.06320
#
# Velocity S-wave (km/s) = 3.77173 3.81321 3.79253
# Velocity P-wave (km/s) = 7.01489 7.06222 7.03860
#
# Compressibility (1/GPa) = 0.01824895
#
# Stress axis : x y z
#
# Youngs Moduli (GPa) = 61.86165 65.78037 69.06621
#
# Poissons Ratio (x) = 0.26738 0.34256
# Poissons Ratio (y) = 0.25146 0.32971
# Poissons Ratio (z) = 0.30683 0.31403
#
# Static dielectric constant tensor:
#      x y z
#    x 3.232420 0.000000 0.000000 
#    y 0.000000 3.319410 0.000000 
#    z 0.000000 0.000000 3.313130 
# 
# 
# High freq. dielectric constant tensor:
#      x y z
#    x 1.692640 0.000000 0.000000 
#    y 0.000000 1.704430 0.000000 
#    z 0.000000 0.000000 1.690200 
# 
# From -- ./inp_files/14908.got.cif
#   From: 2010.03.12/outbox.cif.g09.slc.cpg/sg39_8_cif.got.tgz:14908.got - 2010.04.14 02:53:20.
