data_PCOD8180543
_publ_section_title
;
Structure prediction by ZEFSAII (Michael W. Deem and Ramdas Pophale) SiO2 
 PCOD8180543
Probable space group: A M M 2
;
_chemical_formula_sum "Si O2"
_cell_formula_units_Z 64
_cell_length_a 9.433326
_cell_length_b 26.338368
_cell_length_c 18.532852
_cell_angle_alpha 90.000000
_cell_angle_beta 90.000000
_cell_angle_gamma 90.000000
_cell_volume 4604.642971
_symmetry_space_group_name_H-M "A M M 2"
_symmetry_group_IT_number 38
_symmetry_cell_setting 'orthorhombic'
loop_
_space_group_symop_operation_xyz
x,y,z
-x,-y,z
-x,y,z
x,-y,z
x,1/2+y,1/2+z
-x,1/2-y,1/2+z
-x,1/2+y,1/2+z
x,1/2-y,1/2+z
loop_
_atom_site_type_symbol
_atom_site_label
_atom_site_fract_x
_atom_site_fract_y
_atom_site_fract_z
Si Si1 0.334870 0.653933 0.136640
Si Si2 0.162568 0.259652 0.056729
Si Si3 0.159652 0.208334 0.196142
Si Si4 0.334724 0.558048 0.895995
Si Si5 0.159977 0.357912 0.821221
Si Si6 0.331834 0.555469 0.057945
Si Si7 0.834673 0.748914 0.895464
Si Si8 0.335854 0.290349 0.274574
O O1 0.500000 0.661297 0.117347
O O2 0.249130 0.694032 0.089584
O O3 0.280103 0.597891 0.114567
O O4 0.311066 0.660417 0.223082
O O5 0.175807 0.209711 0.108938
O O6 0.000000 0.277605 0.050195
O O7 0.220398 0.245974 0.977531
O O8 0.177165 0.153471 0.234730
O O9 0.281951 0.243482 0.227454
O O10 0.000000 0.228657 0.216518
O O11 0.500000 0.569503 0.890195
O O12 0.301363 0.500000 0.874366
O O13 0.258475 0.595183 0.840347
O O14 0.278951 0.568953 0.977140
O O15 0.201970 0.307176 0.865664
O O16 0.000000 0.373592 0.840134
O O17 0.500000 0.552453 0.055707
O O18 0.271823 0.500000 0.081286
O O19 0.751914 0.791971 0.849193
O O20 0.000000 0.761062 0.889021
O O21 0.500000 0.282937 0.293545
#
# Coordination Sequence:
#
# PCOD8180543 Si02
#       8
#     8   8   8   8   8   8   8   8
#     4   9  16  25  38  56  75  96 125 156 183 214
#     4   9  16  26  40  55  73  99 126 151 181 217
#     4   8  15  27  39  52  72  96 122 152 182 216
#     4   9  17  27  38  53  72  95 124 153 179 211
#     4   9  16  25  37  53  73  96 121 149 180 212
#     4   8  14  25  39  53  71  96 124 153 182 210
#     4   9  17  27  38  54  75  99 127 152 177 216
#     4   9  16  24  35  53  75  97 121 151 184 215
#
# _framework density 13.899016
#
# number of rings (size 3 to 8) (size 9 to 14) (size 15 to 20)
#    0.000    3.250    0.000    2.625    0.000    3.250 
#    0.000    0.000    0.000    1.125    0.000    0.000 
#    0.000    1.000    0.000    7.000    0.000    1.250 
#
# Total GULP energy -396423.346861 kJ/mol
# GULP energy per Si atom -12388.229589 kJ/mol
# Density = 1.386738 g / cm^3
# Si number density = 13.899016 Si / 1000 Ang^3
#
#
#
# Elastic Constant Matrix: (Units=GPa)
#
#
# Indices 1 2 3 4 5 6 
#
# 1 43.0778 32.9456 37.1525 0.0000 0.0000 0.0000
# 2 32.9456 77.1592 55.0768 0.0000 0.0000 0.0000
# 3 37.1525 55.0768 114.7814 0.0000 0.0000 0.0000
# 4 0.0000 0.0000 0.0000 23.7352 0.0000 0.0000
# 5 0.0000 0.0000 0.0000 0.0000 19.4846 0.0000
# 6 0.0000 0.0000 0.0000 0.0000 0.0000 14.4237
#
#
#
# Elastic Compliance Matrix: (Units=1/GPa)
#
#
# Indices 1 2 3 4 5 6 
#
# 1 0.037669 -0.011226 -0.006806 0.000000 0.000000 0.000000
# 2 -0.011226 0.023057 -0.007430 0.000000 0.000000 0.000000
# 3 -0.006806 -0.007430 0.014481 0.000000 0.000000 0.000000
# 4 0.000000 0.000000 0.000000 0.042132 0.000000 0.000000
# 5 0.000000 0.000000 0.000000 0.000000 0.051323 0.000000
# 6 0.000000 0.000000 0.000000 0.000000 0.000000 0.069330
#
#
# Mechanical properties :
#
#
# Convention : Reuss Voigt Hill
#
# Bulk Modulus (GPa) = 41.18175 53.92977 47.55576
# Shear Modulus (GPa) = 16.83446 18.85160 17.84303
#
# Velocity S-wave (km/s) = 3.48400 3.68683 3.58685
# Velocity P-wave (km/s) = 6.77333 7.55043 7.17241
#
# Compressibility (1/GPa) = 0.02428260
#
# Stress axis : x y z
#
# Youngs Moduli (GPa) = 26.54688 43.37052 69.05804
#
# Poissons Ratio (x) = 0.48687 0.47002
# Poissons Ratio (y) = 0.29801 0.51312
# Poissons Ratio (z) = 0.18068 0.32225
#
# Static dielectric constant tensor:
#      x y z
#    x 2.687160 0.000000 0.000000 
#    y 0.000000 2.656760 0.000000 
#    z 0.000000 0.000000 3.005120 
# 
# 
# High freq. dielectric constant tensor:
#      x y z
#    x 1.527180 0.000000 0.000000 
#    y 0.000000 1.491950 0.000000 
#    z 0.000000 0.000000 1.526070 
# 
# From -- ./inp_files/17333.got.cif
#   From: 2010.03.12/outbox.cif.g09.slc.cpg/sg38_9_cif.got.tgz:17333.got - 2010.04.14 02:38:36.
