data_PCOD8180384
_publ_section_title
;
Structure prediction by ZEFSAII (Michael W. Deem and Ramdas Pophale) SiO2 
 PCOD8180384
Probable space group: A M M 2
;
_chemical_formula_sum "Si O2"
_cell_formula_units_Z 48
_cell_length_a 15.503248
_cell_length_b 18.011420
_cell_length_c 7.731332
_cell_angle_alpha 90.000000
_cell_angle_beta 90.000000
_cell_angle_gamma 90.000000
_cell_volume 2158.862442
_symmetry_space_group_name_H-M "A M M 2"
_symmetry_group_IT_number 38
_symmetry_cell_setting 'orthorhombic'
loop_
_space_group_symop_operation_xyz
x,y,z
-x,-y,z
-x,y,z
x,-y,z
x,1/2+y,1/2+z
-x,1/2-y,1/2+z
-x,1/2+y,1/2+z
x,1/2-y,1/2+z
loop_
_atom_site_type_symbol
_atom_site_label
_atom_site_fract_x
_atom_site_fract_y
_atom_site_fract_z
Si Si1 0.657897 0.414971 0.841860
Si Si2 0.000000 0.653849 0.473980
Si Si3 0.160711 0.416315 0.988826
Si Si4 0.334438 0.670354 0.511936
Si Si5 0.821877 0.584748 0.381169
Si Si6 0.000000 0.323969 0.876590
Si Si7 0.402725 0.681569 0.137288
O O1 0.635318 0.500000 0.820148
O O2 0.760937 0.400632 0.857605
O O3 0.622398 0.374316 0.670351
O O4 0.607359 0.388439 0.011998
O O5 0.080017 0.607025 0.407147
O O6 0.000000 0.735765 0.394517
O O7 0.000000 0.654654 0.678489
O O8 0.124257 0.500000 0.962025
O O9 0.084970 0.357191 0.964996
O O10 0.201146 0.408176 0.179424
O O11 0.236861 0.641800 0.488293
O O12 0.385854 0.657397 0.334411
O O13 0.335353 0.756504 0.568195
O O14 0.806354 0.500000 0.445421
O O15 0.500000 0.712864 0.124630
#
# Coordination Sequence:
#
# PCOD8180384 Si02
#       7
#     8   4   8   8   8   4   8
#     4  11  25  46  73 107 144 189 241 301 368 442
#     4  12  27  40  65  97 147 185 245 301 353 421
#     4  10  22  43  68  95 138 186 237 296 363 432
#     4  12  25  44  77 105 143 191 245 295 363 446
#     4  11  24  44  69 102 142 191 241 297 363 432
#     4  12  25  40  61  97 135 187 245 295 357 419
#     4  12  27  47  73 107 144 185 238 303 375 442
#
# _framework density 22.233930000000001
#
# number of rings (size 3 to 8) (size 9 to 14) (size 15 to 20)
#    0.000    0.667    3.333    4.000    2.333    7.000 
#    0.000    0.000    0.000    4.500    0.000    0.000 
#    0.000    0.000    0.000    0.000    0.000    0.000 
#
# Total GULP energy -297718.534493 kJ/mol
# GULP energy per Si atom -12404.938937 kJ/mol
# Density = 2.218332 g / cm^3
# Si number density = 22.233930 Si / 1000 Ang^3
#
#
#
# Elastic Constant Matrix: (Units=GPa)
#
#
# Indices 1 2 3 4 5 6 
#
# 1 86.7019 28.6110 16.4741 0.0000 0.0000 0.0000
# 2 28.6110 86.4990 26.9274 0.0000 0.0000 0.0000
# 3 16.4741 26.9274 139.5732 0.0000 0.0000 0.0000
# 4 0.0000 0.0000 0.0000 27.2608 0.0000 0.0000
# 5 0.0000 0.0000 0.0000 0.0000 20.3454 0.0000
# 6 0.0000 0.0000 0.0000 0.0000 0.0000 81.1628
#
#
#
# Elastic Compliance Matrix: (Units=1/GPa)
#
#
# Indices 1 2 3 4 5 6 
#
# 1 0.013021 -0.004073 -0.000751 0.000000 0.000000 0.000000
# 2 -0.004073 0.013574 -0.002138 0.000000 0.000000 0.000000
# 3 -0.000751 -0.002138 0.007666 0.000000 0.000000 0.000000
# 4 0.000000 0.000000 0.000000 0.036683 0.000000 0.000000
# 5 0.000000 0.000000 0.000000 0.000000 0.049151 0.000000
# 6 0.000000 0.000000 0.000000 0.000000 0.000000 0.012321
#
#
# Mechanical properties :
#
#
# Convention : Reuss Voigt Hill
#
# Bulk Modulus (GPa) = 49.17394 50.75545 49.96470
# Shear Modulus (GPa) = 32.65472 41.80458 37.22965
#
# Velocity S-wave (km/s) = 3.83651 4.34085 4.09645
# Velocity P-wave (km/s) = 6.46449 6.92831 6.70041
#
# Compressibility (1/GPa) = 0.02033597
#
# Stress axis : x y z
#
# Youngs Moduli (GPa) = 76.80182 73.67256 130.44920
#
# Poissons Ratio (x) = 0.30006 0.09797
# Poissons Ratio (y) = 0.31281 0.27890
# Poissons Ratio (z) = 0.05768 0.15751
#
# Static dielectric constant tensor:
#      x y z
#    x 3.865540 0.000000 0.000000 
#    y 0.000000 4.974430 0.000000 
#    z 0.000000 0.000000 4.234710 
# 
# 
# High freq. dielectric constant tensor:
#      x y z
#    x 1.864830 0.000000 0.000000 
#    y 0.000000 1.878450 0.000000 
#    z 0.000000 0.000000 1.897590 
# 
# From -- ./inp_files/5504.got.cif
#   From: 2010.03.12/outbox.cif.g09.slc.cpg/sg38_3_cif.got.tgz:5504.got - 2010.04.14 02:38:36.
