data_PCOD8180050
_publ_section_title
;
Structure prediction by ZEFSAII (Michael W. Deem and Ramdas Pophale) SiO2 
 PCOD8180050
Probable space group: A M M 2
;
_chemical_formula_sum "Si O2"
_cell_formula_units_Z 48
_cell_length_a 7.686040
_cell_length_b 8.957717
_cell_length_c 34.356510
_cell_angle_alpha 90.000000
_cell_angle_beta 90.000000
_cell_angle_gamma 90.000000
_cell_volume 2365.424109
_symmetry_space_group_name_H-M "A M M 2"
_symmetry_group_IT_number 38
_symmetry_cell_setting 'orthorhombic'
loop_
_space_group_symop_operation_xyz
x,y,z
-x,-y,z
-x,y,z
x,-y,z
x,1/2+y,1/2+z
-x,1/2-y,1/2+z
-x,1/2+y,1/2+z
x,1/2-y,1/2+z
loop_
_atom_site_type_symbol
_atom_site_label
_atom_site_fract_x
_atom_site_fract_y
_atom_site_fract_z
Si Si1 0.704025 0.670240 0.935080
Si Si2 0.000000 0.678296 0.659185
Si Si3 0.697599 0.337099 0.785110
Si Si4 0.698169 0.675564 0.515041
Si Si5 0.000000 0.323506 0.571055
Si Si6 0.295323 0.674877 0.208908
Si Si7 0.196922 0.666065 0.358992
O O1 0.500000 0.682798 0.927840
O O2 0.767980 0.500000 0.934898
O O3 0.798756 0.757975 0.900923
O O4 0.757614 0.742858 0.975826
O O5 0.822029 0.740677 0.677418
O O6 0.000000 0.500000 0.662612
O O7 0.000000 0.736926 0.614816
O O8 0.500000 0.364838 0.774250
O O9 0.792460 0.500000 0.785753
O O10 0.772518 0.231180 0.751188
O O11 0.702022 0.262118 0.827279
O O12 0.500000 0.717955 0.526494
O O13 0.716962 0.500000 0.507679
O O14 0.825545 0.732613 0.549156
O O15 0.000000 0.500000 0.571638
O O16 0.500000 0.708686 0.201221
O O17 0.257604 0.500000 0.206715
O O18 0.278806 0.500000 0.361537
O O19 0.000000 0.656773 0.344635
#
# Coordination Sequence:
#
# PCOD8180050 Si02
#       7
#     8   4   8   8   4   8   8
#     4  10  21  37  56  80 111 147 189 238 289 341
#     4  11  23  39  63  94 125 158 195 247 305 360
#     4  10  21  38  60  85 113 148 192 242 293 345
#     4   9  18  35  59  84 113 151 192 237 288 344
#     4   9  20  37  59  88 117 148 191 237 289 354
#     4  10  22  41  64  89 121 162 204 247 297 358
#     4  11  24  37  52  79 114 153 194 237 284 339
#
# _framework density 20.292342999999999
#
# number of rings (size 3 to 8) (size 9 to 14) (size 15 to 20)
#    0.000    2.000    0.000    2.750    2.333    7.000 
#    0.000    3.333    0.000    2.000    0.000    0.000 
#    0.000    0.000    0.000    0.000    0.000    0.000 
#
# Total GULP energy -297584.881094 kJ/mol
# GULP energy per Si atom -12399.370046 kJ/mol
# Density = 2.024616 g / cm^3
# Si number density = 20.292343 Si / 1000 Ang^3
#
#
#
# Elastic Constant Matrix: (Units=GPa)
#
#
# Indices 1 2 3 4 5 6 
#
# 1 79.3479 39.0857 54.7219 0.0000 0.0000 0.0000
# 2 39.0857 133.4518 69.2123 0.0000 0.0000 0.0000
# 3 54.7219 69.2123 166.9693 0.0000 0.0000 0.0000
# 4 0.0000 0.0000 0.0000 30.8706 0.0000 0.0000
# 5 0.0000 0.0000 0.0000 0.0000 33.4086 0.0000
# 6 0.0000 0.0000 0.0000 0.0000 0.0000 22.4715
#
#
#
# Elastic Compliance Matrix: (Units=1/GPa)
#
#
# Indices 1 2 3 4 5 6 
#
# 1 0.016994 -0.002661 -0.004467 0.000000 0.000000 0.000000
# 2 -0.002661 0.009962 -0.003257 0.000000 0.000000 0.000000
# 3 -0.004467 -0.003257 0.008803 0.000000 0.000000 0.000000
# 4 0.000000 0.000000 0.000000 0.032393 0.000000 0.000000
# 5 0.000000 0.000000 0.000000 0.000000 0.029932 0.000000
# 6 0.000000 0.000000 0.000000 0.000000 0.000000 0.044501
#
#
# Mechanical properties :
#
#
# Convention : Reuss Voigt Hill
#
# Bulk Modulus (GPa) = 66.71289 78.42319 72.56804
# Shear Modulus (GPa) = 29.69982 31.80010 30.74996
#
# Velocity S-wave (km/s) = 3.82985 3.96295 3.89697
# Velocity P-wave (km/s) = 7.24598 7.72467 7.48915
#
# Compressibility (1/GPa) = 0.01498961
#
# Stress axis : x y z
#
# Youngs Moduli (GPa) = 58.84549 100.38108 113.59428
#
# Poissons Ratio (x) = 0.26708 0.50737
# Poissons Ratio (y) = 0.15657 0.37003
# Poissons Ratio (z) = 0.26284 0.32699
#
# Static dielectric constant tensor:
#      x y z
#    x 3.641590 0.000000 0.000000 
#    y 0.000000 3.830510 0.000000 
#    z 0.000000 0.000000 3.693930 
# 
# 
# High freq. dielectric constant tensor:
#      x y z
#    x 1.793100 0.000000 0.000000 
#    y 0.000000 1.795490 0.000000 
#    z 0.000000 0.000000 1.789670 
# 
# From -- ./inp_files/24302.got.cif
#   From: 2010.03.12/outbox.cif.g09.slc.cpg/sg38_13_cif.got.tgz:24302.got - 2010.04.14 02:38:36.
