data_PCOD8180861
_publ_section_title
;
Structure prediction by ZEFSAII (Michael W. Deem and Ramdas Pophale) SiO2 
 PCOD8180861
Probable space group: A B M 2
;
_chemical_formula_sum "Si O2"
_cell_formula_units_Z 64
_cell_length_a 23.743871
_cell_length_b 8.952778
_cell_length_c 15.400766
_cell_angle_alpha 90.000000
_cell_angle_beta 90.000000
_cell_angle_gamma 90.000000
_cell_volume 3273.796363
_symmetry_space_group_name_H-M "A B M 2"
_symmetry_group_IT_number 39
_symmetry_cell_setting 'orthorhombic'
loop_
_space_group_symop_operation_xyz
x,y,z
-x,-y,z
-x,1/2+y,z
x,1/2-y,z
x,1/2+y,1/2+z
-x,1/2-y,1/2+z
-x,y,1/2+z
x,-y,1/2+z
loop_
_atom_site_type_symbol
_atom_site_label
_atom_site_fract_x
_atom_site_fract_y
_atom_site_fract_z
Si Si1 0.242946 0.077697 0.151520
Si Si2 0.137731 0.574102 0.900126
Si Si3 0.560414 0.427994 0.737528
Si Si4 0.755940 0.074812 0.332200
Si Si5 0.940009 0.426644 0.742162
Si Si6 0.876042 0.078568 0.571145
Si Si7 0.369478 0.073483 0.886829
Si Si8 0.638814 0.926521 0.081211
O O1 0.249850 0.250000 0.181401
O O2 0.190172 0.059198 0.088673
O O3 0.297997 0.017598 0.101347
O O4 0.232630 0.977418 0.235027
O O5 0.144401 0.750000 0.900175
O O6 0.199556 0.502259 0.895889
O O7 0.100303 0.518679 0.819538
O O8 0.107381 0.520344 0.988205
O O9 0.500000 0.500000 0.725942
O O10 0.555841 0.250000 0.739807
O O11 0.587462 0.483849 0.826931
O O12 0.597005 0.486243 0.655652
O O13 0.764810 0.250000 0.339981
O O14 0.693610 0.027999 0.361156
O O15 0.946648 0.250000 0.744278
O O16 0.912447 0.480480 0.652100
O O17 0.000000 0.500000 0.755045
O O18 0.890725 0.250000 0.551372
O O19 0.379719 0.250000 0.875388
O O20 0.380394 0.018951 0.985847
O O21 0.639222 0.750000 0.081045
#
# Coordination Sequence:
#
# PCOD8180861 Si02
#       8
#     8   8   8   8   8   8   8   8
#     4  10  18  36  62  86 121 158 190 234 296 360
#     4  11  23  40  61  88 121 158 199 243 293 355
#     4  11  23  40  61  84 113 153 198 244 292 343
#     4  11  21  34  59  92 124 156 193 240 295 351
#     4  10  23  42  62  84 116 157 200 248 299 348
#     4  10  21  39  62  88 119 155 193 241 300 354
#     4  10  21  39  61  88 120 153 192 238 289 349
#     4   9  19  36  61  86 114 154 191 230 289 348
#
# _framework density 19.54917
#
# number of rings (size 3 to 8) (size 9 to 14) (size 15 to 20)
#    0.000    1.750    2.500    1.875    0.000    5.500 
#    0.000    5.625    0.000    0.000    0.000    0.000 
#    0.000    0.000    0.000    0.000    0.000    0.000 
#
# Total GULP energy -396901.289920 kJ/mol
# GULP energy per Si atom -12403.165310 kJ/mol
# Density = 1.950467 g / cm^3
# Si number density = 19.549170 Si / 1000 Ang^3
#
#
#
# Elastic Constant Matrix: (Units=GPa)
#
#
# Indices 1 2 3 4 5 6 
#
# 1 97.0482 28.7151 25.3558 0.0000 0.0000 0.0000
# 2 28.7151 41.1618 23.5817 0.0000 0.0000 0.0000
# 3 25.3558 23.5817 120.1719 0.0000 0.0000 0.0000
# 4 0.0000 0.0000 0.0000 29.7526 0.0000 0.0000
# 5 0.0000 0.0000 0.0000 0.0000 14.3416 0.0000
# 6 0.0000 0.0000 0.0000 0.0000 0.0000 27.4052
#
#
#
# Elastic Compliance Matrix: (Units=1/GPa)
#
#
# Indices 1 2 3 4 5 6 
#
# 1 0.013111 -0.008519 -0.001095 0.000000 0.000000 0.000000
# 2 -0.008519 0.032907 -0.004660 0.000000 0.000000 0.000000
# 3 -0.001095 -0.004660 0.009467 0.000000 0.000000 0.000000
# 4 0.000000 0.000000 0.000000 0.033610 0.000000 0.000000
# 5 0.000000 0.000000 0.000000 0.000000 0.069727 0.000000
# 6 0.000000 0.000000 0.000000 0.000000 0.000000 0.036489
#
#
# Mechanical properties :
#
#
# Convention : Reuss Voigt Hill
#
# Bulk Modulus (GPa) = 37.12324 45.96524 41.54424
# Shear Modulus (GPa) = 21.47412 26.34851 23.91131
#
# Velocity S-wave (km/s) = 3.31791 3.67523 3.50113
# Velocity P-wave (km/s) = 5.80594 6.44775 6.13524
#
# Compressibility (1/GPa) = 0.02693730
#
# Stress axis : x y z
#
# Youngs Moduli (GPa) = 76.27266 30.38849 105.63226
#
# Poissons Ratio (x) = 0.25889 0.11562
# Poissons Ratio (y) = 0.64978 0.49224
# Poissons Ratio (z) = 0.08349 0.14161
#
# Static dielectric constant tensor:
#      x y z
#    x 3.651690 0.000000 0.000000 
#    y 0.000000 3.372140 0.000000 
#    z 0.000000 0.000000 3.822540 
# 
# 
# High freq. dielectric constant tensor:
#      x y z
#    x 1.762030 0.000000 0.000000 
#    y 0.000000 1.744400 0.000000 
#    z 0.000000 0.000000 1.776120 
# 
# From -- ./inp_files/10571.got.cif
#   From: 2010.03.12/outbox.cif.g09.slc.cpg/sg39_6_cif.got.tgz:10571.got - 2010.04.14 02:53:20.
