data_PCOD8180432
_publ_section_title
;
Structure prediction by ZEFSAII (Michael W. Deem and Ramdas Pophale) SiO2 
 PCOD8180432
Probable space group: A M M 2
;
_chemical_formula_sum "Si O2"
_cell_formula_units_Z 48
_cell_length_a 8.503801
_cell_length_b 18.295282
_cell_length_c 14.993710
_cell_angle_alpha 90.000000
_cell_angle_beta 90.000000
_cell_angle_gamma 90.000000
_cell_volume 2332.712966
_symmetry_space_group_name_H-M "A M M 2"
_symmetry_group_IT_number 38
_symmetry_cell_setting 'orthorhombic'
loop_
_space_group_symop_operation_xyz
x,y,z
-x,-y,z
-x,y,z
x,-y,z
x,1/2+y,1/2+z
-x,1/2-y,1/2+z
-x,1/2+y,1/2+z
x,1/2-y,1/2+z
loop_
_atom_site_type_symbol
_atom_site_label
_atom_site_fract_x
_atom_site_fract_y
_atom_site_fract_z
Si Si1 0.317185 0.620221 0.942760
Si Si2 0.317113 0.224538 0.188960
Si Si3 0.313093 0.000000 0.773916
Si Si4 0.819278 0.080120 0.264027
Si Si5 0.184422 0.345451 0.325511
Si Si6 0.686334 0.500000 0.075586
Si Si7 0.179456 0.737284 0.499029
O O1 0.500000 0.641000 0.952087
O O2 0.289583 0.577797 0.851153
O O3 0.207802 0.690874 0.940278
O O4 0.255452 0.572033 0.025104
O O5 0.500000 0.214417 0.208210
O O6 0.231059 0.146986 0.201464
O O7 0.259728 0.289454 0.253949
O O8 0.290855 0.242841 0.085167
O O9 0.251028 0.926919 0.819540
O O10 0.243961 0.000000 0.674031
O O11 0.500000 0.000000 0.775623
O O12 0.000000 0.091548 0.291410
O O13 0.797547 0.000000 0.216909
O O14 0.222113 0.326334 0.428768
O O15 0.000000 0.343982 0.306589
O O16 0.500000 0.500000 0.075398
O O17 0.000000 0.731196 0.531461
#
# Coordination Sequence:
#
# PCOD8180432 Si02
#       7
#     8   8   4   8   8   4   8
#     4  11  20  35  61  92 127 163 207 260 318 376
#     4  12  25  42  68  97 128 167 217 270 323 383
#     4  11  23  41  65  94 129 170 217 267 322 376
#     4  11  23  40  62  91 129 170 211 257 319 384
#     4  11  24  44  68  94 130 173 216 264 324 387
#     4   9  20  35  55  90 127 160 199 255 318 376
#     4  11  24  42  65  92 126 170 218 264 319 385
#
# _framework density 20.576899000000001
#
# number of rings (size 3 to 8) (size 9 to 14) (size 15 to 20)
#    0.000    1.000    2.500    4.750    0.000    4.333 
#    1.500    2.500    0.000    0.000    0.000    0.000 
#    0.000    0.000    0.000    0.000    0.000    0.000 
#
# Total GULP energy -297560.765227 kJ/mol
# GULP energy per Si atom -12398.365218 kJ/mol
# Density = 2.053006 g / cm^3
# Si number density = 20.576899 Si / 1000 Ang^3
#
#
#
# Elastic Constant Matrix: (Units=GPa)
#
#
# Indices 1 2 3 4 5 6 
#
# 1 73.5140 42.3089 35.6607 0.0000 0.0000 0.0000
# 2 42.3089 151.5079 34.1436 0.0000 0.0000 0.0000
# 3 35.6607 34.1436 81.9628 0.0000 0.0000 0.0000
# 4 0.0000 0.0000 0.0000 35.5772 0.0000 0.0000
# 5 0.0000 0.0000 0.0000 0.0000 31.1628 0.0000
# 6 0.0000 0.0000 0.0000 0.0000 0.0000 29.8425
#
#
#
# Elastic Compliance Matrix: (Units=1/GPa)
#
#
# Indices 1 2 3 4 5 6 
#
# 1 0.019045 -0.003808 -0.006699 0.000000 0.000000 0.000000
# 2 -0.003808 0.008046 -0.001695 0.000000 0.000000 0.000000
# 3 -0.006699 -0.001695 0.015821 0.000000 0.000000 0.000000
# 4 0.000000 0.000000 0.000000 0.028108 0.000000 0.000000
# 5 0.000000 0.000000 0.000000 0.000000 0.032090 0.000000
# 6 0.000000 0.000000 0.000000 0.000000 0.000000 0.033509
#
#
# Mechanical properties :
#
#
# Convention : Reuss Voigt Hill
#
# Bulk Modulus (GPa) = 54.03486 59.02345 56.52916
# Shear Modulus (GPa) = 29.90566 32.30793 31.10680
#
# Velocity S-wave (km/s) = 3.81643 3.96676 3.89232
# Velocity P-wave (km/s) = 6.76293 7.05172 6.90883
#
# Compressibility (1/GPa) = 0.01850657
#
# Stress axis : x y z
#
# Youngs Moduli (GPa) = 52.50850 124.28940 63.20537
#
# Poissons Ratio (x) = 0.47335 0.42344
# Poissons Ratio (y) = 0.19998 0.10711
# Poissons Ratio (z) = 0.35178 0.21063
#
# Static dielectric constant tensor:
#      x y z
#    x 3.649950 0.000000 0.000000 
#    y 0.000000 3.837960 0.000000 
#    z 0.000000 0.000000 3.722260 
# 
# 
# High freq. dielectric constant tensor:
#      x y z
#    x 1.808270 0.000000 0.000000 
#    y 0.000000 1.817570 0.000000 
#    z 0.000000 0.000000 1.798720 
# 
# From -- ./inp_files/12135.got.cif
#   From: 2010.03.12/outbox.cif.g09.slc.cpg/sg38_7_cif.got.tgz:12135.got - 2010.04.14 02:38:36.
