data_PCOD8180938
_publ_section_title
;
Structure prediction by ZEFSAII (Michael W. Deem and Ramdas Pophale) SiO2 
 PCOD8180938
Probable space group: A B M 2
;
_chemical_formula_sum "Si O2"
_cell_formula_units_Z 64
_cell_length_a 16.294593
_cell_length_b 9.188915
_cell_length_c 22.636871
_cell_angle_alpha 90.000000
_cell_angle_beta 90.000000
_cell_angle_gamma 90.000000
_cell_volume 3389.410320
_symmetry_space_group_name_H-M "A B M 2"
_symmetry_group_IT_number 39
_symmetry_cell_setting 'orthorhombic'
loop_
_space_group_symop_operation_xyz
x,y,z
-x,-y,z
-x,1/2+y,z
x,1/2-y,z
x,1/2+y,1/2+z
-x,1/2-y,1/2+z
-x,y,1/2+z
x,-y,1/2+z
loop_
_atom_site_type_symbol
_atom_site_label
_atom_site_fract_x
_atom_site_fract_y
_atom_site_fract_z
Si Si1 0.241254 0.580527 0.310310
Si Si2 0.702853 0.907064 0.063647
Si Si3 0.423623 0.916597 0.126357
Si Si4 0.417632 0.921018 0.261815
Si Si5 0.784429 0.912521 0.945441
Si Si6 0.086356 0.924175 0.749006
Si Si7 0.117859 0.087635 0.113714
Si Si8 0.924639 0.419631 0.001784
O O1 0.228328 0.750000 0.293028
O O2 0.330815 0.524445 0.288823
O O3 0.247525 0.557513 0.380298
O O4 0.164370 0.489068 0.284756
O O5 0.660654 0.750000 0.077114
O O6 0.786744 0.911390 0.099585
O O7 0.653655 0.044099 0.086886
O O8 0.711228 0.923216 0.992951
O O9 0.442879 0.750000 0.120591
O O10 0.408682 0.963587 0.193536
O O11 0.500000 0.000000 0.098656
O O12 0.429367 0.750000 0.272812
O O13 0.500000 0.000000 0.287821
O O14 0.824145 0.750000 0.950211
O O15 0.847034 0.037869 0.963103
O O16 0.081511 0.750000 0.760039
O O17 0.101573 0.962369 0.680548
O O18 0.000000 0.000000 0.768956
O O19 0.081660 0.250000 0.102826
O O20 0.076894 0.972289 0.069843
O O21 0.937304 0.250000 0.000144
O O22 0.000000 0.500000 0.969824
#
# Coordination Sequence:
#
# PCOD8180938 Si02
#       8
#     8   8   8   8   8   8   8   8
#     4  10  21  39  60  80 108 147 188 231 276 322
#     4   9  17  32  53  76 103 134 169 212 264 319
#     4  10  19  31  50  78 109 137 168 208 258 318
#     4   9  19  35  57  85 112 140 177 221 271 326
#     4   9  20  38  56  74 102 140 179 219 266 320
#     4  11  23  37  55  81 113 149 187 228 275 328
#     4   9  19  35  54  78 108 140 174 216 271 329
#     4  11  21  33  53  78 104 135 175 223 271 320
#
# _framework density 18.882341
#
# number of rings (size 3 to 8) (size 9 to 14) (size 15 to 20)
#    0.000    2.250    0.000    3.750    0.000    6.000 
#    0.000    0.625    0.000    1.500    0.000    0.000 
#    0.000    0.000    0.000    0.000    0.000    0.000 
#
# Total GULP energy -396583.536201 kJ/mol
# GULP energy per Si atom -12393.235506 kJ/mol
# Density = 1.883936 g / cm^3
# Si number density = 18.882341 Si / 1000 Ang^3
#
#
#
# Elastic Constant Matrix: (Units=GPa)
#
#
# Indices 1 2 3 4 5 6 
#
# 1 122.6977 58.2554 50.3627 0.0000 0.0000 0.0000
# 2 58.2554 103.7606 41.4986 0.0000 0.0000 0.0000
# 3 50.3627 41.4986 78.6588 0.0000 0.0000 0.0000
# 4 0.0000 0.0000 0.0000 -15.9597 0.0000 0.0000
# 5 0.0000 0.0000 0.0000 0.0000 1.9348 0.0000
# 6 0.0000 0.0000 0.0000 0.0000 0.0000 36.4206
#
#
#
# Elastic Compliance Matrix: (Units=1/GPa)
#
#
# Indices 1 2 3 4 5 6 
#
# 1 0.012790 -0.004950 -0.005577 0.000000 0.000000 0.000000
# 2 -0.004950 0.014131 -0.004286 0.000000 0.000000 0.000000
# 3 -0.005577 -0.004286 0.018545 0.000000 0.000000 0.000000
# 4 0.000000 0.000000 0.000000 -0.062658 0.000000 0.000000
# 5 0.000000 0.000000 0.000000 0.000000 0.516854 0.000000
# 6 0.000000 0.000000 0.000000 0.000000 0.000000 0.027457
#
#
# Mechanical properties :
#
#
# Convention : Reuss Voigt Hill
#
# Bulk Modulus (GPa) = 63.13333 67.26116 65.19725
# Shear Modulus (GPa) = 8.89641 14.81249 11.85445
#
# Velocity S-wave (km/s) = 2.17295 2.80386 2.50832
# Velocity P-wave (km/s) = 6.30899 6.79564 6.55683
#
# Compressibility (1/GPa) = 0.01583949
#
# Stress axis : x y z
#
# Youngs Moduli (GPa) = 78.18879 70.76755 53.92250
#
# Poissons Ratio (x) = 0.35030 0.30074
# Poissons Ratio (y) = 0.38703 0.23110
# Poissons Ratio (z) = 0.43608 0.30329
#
# Static dielectric constant tensor:
#      x y z
#    x 3.739050 0.000000 0.000000 
#    y 0.000000 3.538160 0.000000 
#    z 0.000000 0.000000 3.405410 
# 
# 
# High freq. dielectric constant tensor:
#      x y z
#    x 1.733160 0.000000 0.000000 
#    y 0.000000 1.735880 0.000000 
#    z 0.000000 0.000000 1.720870 
# 
# From -- ./inp_files/16236.got.cif
#   From: 2010.03.12/outbox.cif.g09.slc.cpg/sg39_9_cif.got.tgz:16236.got - 2010.04.14 02:53:20.
