data_PCOD8180481
_publ_section_title
;
Structure prediction by ZEFSAII (Michael W. Deem and Ramdas Pophale) SiO2 
 PCOD8180481
Probable space group: A M M 2
;
_chemical_formula_sum "Si O2"
_cell_formula_units_Z 64
_cell_length_a 23.938005
_cell_length_b 8.572051
_cell_length_c 15.600408
_cell_angle_alpha 90.000000
_cell_angle_beta 90.000000
_cell_angle_gamma 90.000000
_cell_volume 3201.169396
_symmetry_space_group_name_H-M "A M M 2"
_symmetry_group_IT_number 38
_symmetry_cell_setting 'orthorhombic'
loop_
_space_group_symop_operation_xyz
x,y,z
-x,-y,z
-x,y,z
x,-y,z
x,1/2+y,1/2+z
-x,1/2-y,1/2+z
-x,1/2+y,1/2+z
x,1/2-y,1/2+z
loop_
_atom_site_type_symbol
_atom_site_label
_atom_site_fract_x
_atom_site_fract_y
_atom_site_fract_z
Si Si1 0.439576 0.684945 0.280880
Si Si2 0.321944 0.683740 0.341418
Si Si3 0.324307 0.316022 0.018870
Si Si4 0.936554 0.815265 0.342074
Si Si5 0.740014 0.683738 0.679467
Si Si6 0.439279 0.185092 0.588382
Si Si7 0.936565 0.184710 0.020953
Si Si8 0.867514 0.814734 0.181621
O O1 0.500000 0.744629 0.317602
O O2 0.440256 0.500000 0.277526
O O3 0.386815 0.741191 0.336734
O O4 0.431834 0.750600 0.184628
O O5 0.315648 0.500000 0.325974
O O6 0.299285 0.730811 0.435167
O O7 0.286965 0.773248 0.269988
O O8 0.322071 0.500000 0.004180
O O9 0.289000 0.274400 0.102235
O O10 0.388028 0.253264 0.031135
O O11 0.912891 0.750134 0.431559
O O12 0.898373 0.747454 0.265773
O O13 0.000000 0.757423 0.327060
O O14 0.933793 0.000000 0.344706
O O15 0.735032 0.500000 0.663403
O O16 0.803823 0.741157 0.681771
O O17 0.500000 0.239969 0.551624
O O18 0.436580 0.000000 0.591921
O O19 0.898297 0.251853 0.097283
O O20 0.000000 0.242561 0.036120
O O21 0.933828 0.000000 0.018162
O O22 0.871718 0.000000 0.182345
#
# Coordination Sequence:
#
# PCOD8180481 Si02
#       8
#     8   8   8   8   8   8   8   8
#     4   8  14  28  53  81 107 137 173 218 274 332
#     4  11  22  38  59  83 110 145 185 228 278 333
#     4  11  22  38  59  83 110 145 185 228 278 333
#     4   9  17  32  55  82 111 141 174 215 264 318
#     4  11  23  40  58  79 110 147 190 237 276 320
#     4   8  14  28  53  81 107 137 173 218 274 332
#     4   9  17  32  55  82 111 141 174 215 264 318
#     4   9  19  35  56  79 105 142 184 221 264 318
#
# _framework density 19.992692999999999
#
# number of rings (size 3 to 8) (size 9 to 14) (size 15 to 20)
#    0.000    2.500    1.250    2.250    0.000    3.000 
#    0.000    5.625    0.000    6.000    0.000    0.000 
#    0.000    0.000    0.000    0.000    0.000    0.000 
#
# Total GULP energy -396679.147435 kJ/mol
# GULP energy per Si atom -12396.223357 kJ/mol
# Density = 1.994719 g / cm^3
# Si number density = 19.992693 Si / 1000 Ang^3
#
#
#
# Elastic Constant Matrix: (Units=GPa)
#
#
# Indices 1 2 3 4 5 6 
#
# 1 127.8745 15.3495 68.6783 0.0000 0.0000 0.0000
# 2 15.3495 22.2718 6.9291 0.0000 0.0000 0.0000
# 3 68.6783 6.9291 142.5640 0.0000 0.0000 0.0000
# 4 0.0000 0.0000 0.0000 29.6438 0.0000 0.0000
# 5 0.0000 0.0000 0.0000 0.0000 7.4597 0.0000
# 6 0.0000 0.0000 0.0000 0.0000 0.0000 20.2720
#
#
#
# Elastic Compliance Matrix: (Units=1/GPa)
#
#
# Indices 1 2 3 4 5 6 
#
# 1 0.011336 -0.006208 -0.005159 0.000000 0.000000 0.000000
# 2 -0.006208 0.048988 0.000609 0.000000 0.000000 0.000000
# 3 -0.005159 0.000609 0.009470 0.000000 0.000000 0.000000
# 4 0.000000 0.000000 0.000000 0.033734 0.000000 0.000000
# 5 0.000000 0.000000 0.000000 0.000000 0.134054 0.000000
# 6 0.000000 0.000000 0.000000 0.000000 0.000000 0.049329
#
#
# Mechanical properties :
#
#
# Convention : Reuss Voigt Hill
#
# Bulk Modulus (GPa) = 20.71264 52.73603 36.72434
# Shear Modulus (GPa) = 15.40737 24.92533 20.16635
#
# Velocity S-wave (km/s) = 2.77907 3.53473 3.17943
# Velocity P-wave (km/s) = 4.54755 6.56460 5.64687
#
# Compressibility (1/GPa) = 0.04827969
#
# Stress axis : x y z
#
# Youngs Moduli (GPa) = 88.21224 20.41301 105.59391
#
# Poissons Ratio (x) = 0.12672 0.54480
# Poissons Ratio (y) = 0.54759 -0.06435
# Poissons Ratio (z) = 0.45512 -0.01244
#
# Static dielectric constant tensor:
#      x y z
#    x 3.966160 0.000000 0.000000 
#    y 0.000000 3.173630 0.000000 
#    z 0.000000 0.000000 3.695090 
# 
# 
# High freq. dielectric constant tensor:
#      x y z
#    x 1.782230 0.000000 0.000000 
#    y 0.000000 1.741620 0.000000 
#    z 0.000000 0.000000 1.785290 
# 
# From -- ./inp_files/15755.got.cif
#   From: 2010.03.12/outbox.cif.g09.slc.cpg/sg38_8_cif.got.tgz:15755.got - 2010.04.14 02:38:36.
