data_PCOD8180551
_publ_section_title
;
Structure prediction by ZEFSAII (Michael W. Deem and Ramdas Pophale) SiO2 
 PCOD8180551
Probable space group: A M M 2
;
_chemical_formula_sum "Si O2"
_cell_formula_units_Z 64
_cell_length_a 9.194948
_cell_length_b 21.273645
_cell_length_c 21.964647
_cell_angle_alpha 90.000000
_cell_angle_beta 90.000000
_cell_angle_gamma 90.000000
_cell_volume 4296.505908
_symmetry_space_group_name_H-M "A M M 2"
_symmetry_group_IT_number 38
_symmetry_cell_setting 'orthorhombic'
loop_
_space_group_symop_operation_xyz
x,y,z
-x,-y,z
-x,y,z
x,-y,z
x,1/2+y,1/2+z
-x,1/2-y,1/2+z
-x,1/2+y,1/2+z
x,1/2-y,1/2+z
loop_
_atom_site_type_symbol
_atom_site_label
_atom_site_fract_x
_atom_site_fract_y
_atom_site_fract_z
Si Si1 0.160503 0.756795 0.454800
Si Si2 0.164094 0.349355 0.352414
Si Si3 0.669477 0.237989 0.774403
Si Si4 0.669982 0.927794 0.273279
Si Si5 0.170842 0.341839 0.852154
Si Si6 0.668867 0.670052 0.674249
Si Si7 0.330693 0.928148 0.942969
Si Si8 0.328705 0.825327 0.039534
O O1 0.169318 0.707432 0.399791
O O2 0.193325 0.825073 0.424071
O O3 0.271904 0.738666 0.507884
O O4 0.000000 0.756115 0.483835
O O5 0.245845 0.326660 0.290546
O O6 0.244299 0.409205 0.381954
O O7 0.000000 0.368541 0.335508
O O8 0.500000 0.228119 0.789216
O O9 0.731029 0.294363 0.814108
O O10 0.693566 0.260801 0.704507
O O11 0.500000 0.914278 0.285976
O O12 0.763917 0.909995 0.333953
O O13 0.730387 0.886402 0.216429
O O14 0.698233 0.000000 0.257253
O O15 0.000000 0.336161 0.835256
O O16 0.500000 0.656101 0.666059
O O17 0.740822 0.668774 0.607042
O O18 0.500000 0.917429 0.929511
O O19 0.295357 0.000000 0.959364
O O20 0.280266 0.886218 0.000560
O O21 0.500000 0.818729 0.042789
#
# Coordination Sequence:
#
# PCOD8180551 Si02
#       8
#     8   8   8   8   8   8   8   8
#     4   8  15  26  38  54  75  98 125 161 204 241
#     4   9  16  26  40  57  76  99 129 165 205 243
#     4   9  15  25  41  58  77 100 127 162 203 243
#     4   9  17  28  41  57  79 108 139 168 197 230
#     4   9  16  26  40  57  77 100 128 164 204 242
#     4   8  15  26  39  57  80 106 135 165 197 230
#     4   9  17  27  39  57  80 107 139 170 197 228
#     4   9  16  26  40  57  78 106 138 167 193 227
#
# _framework density 14.895826
#
# number of rings (size 3 to 8) (size 9 to 14) (size 15 to 20)
#    0.000    3.250    0.000    2.625    0.000    4.500 
#    0.000    5.625    0.000    0.000    0.000    5.250 
#    0.000    1.000    0.000    9.000    0.000    6.500 
#
# Total GULP energy -396459.932937 kJ/mol
# GULP energy per Si atom -12389.372904 kJ/mol
# Density = 1.486192 g / cm^3
# Si number density = 14.895826 Si / 1000 Ang^3
#
#
#
# Elastic Constant Matrix: (Units=GPa)
#
#
# Indices 1 2 3 4 5 6 
#
# 1 59.5860 31.8553 38.2360 0.0000 0.0000 0.0000
# 2 31.8553 52.1591 60.0442 0.0000 0.0000 0.0000
# 3 38.2360 60.0442 80.8064 0.0000 0.0000 0.0000
# 4 0.0000 0.0000 0.0000 17.1848 0.0000 0.0000
# 5 0.0000 0.0000 0.0000 0.0000 11.2045 0.0000
# 6 0.0000 0.0000 0.0000 0.0000 0.0000 17.3692
#
#
#
# Elastic Compliance Matrix: (Units=1/GPa)
#
#
# Indices 1 2 3 4 5 6 
#
# 1 0.025049 -0.011436 -0.003355 0.000000 0.000000 0.000000
# 2 -0.011436 0.137802 -0.096984 0.000000 0.000000 0.000000
# 3 -0.003355 -0.096984 0.086028 0.000000 0.000000 0.000000
# 4 0.000000 0.000000 0.000000 0.058191 0.000000 0.000000
# 5 0.000000 0.000000 0.000000 0.000000 0.089250 0.000000
# 6 0.000000 0.000000 0.000000 0.000000 0.000000 0.057573
#
#
# Mechanical properties :
#
#
# Convention : Reuss Voigt Hill
#
# Bulk Modulus (GPa) = 39.48096 50.31360 44.89728
# Shear Modulus (GPa) = 7.28983 13.31278 10.30131
#
# Velocity S-wave (km/s) = 2.21461 2.99277 2.63260
# Velocity P-wave (km/s) = 5.75340 6.76702 6.28069
#
# Compressibility (1/GPa) = 0.02532867
#
# Stress axis : x y z
#
# Youngs Moduli (GPa) = 39.92129 7.25678 11.62415
#
# Poissons Ratio (x) = 0.08299 0.03900
# Poissons Ratio (y) = 0.45656 1.12736
# Poissons Ratio (z) = 0.13393 0.70379
#
# Static dielectric constant tensor:
#      x y z
#    x 2.911780 0.000000 0.000000 
#    y 0.000000 2.873760 0.000000 
#    z 0.000000 0.000000 3.047310 
# 
# 
# High freq. dielectric constant tensor:
#      x y z
#    x 1.569060 0.000000 0.000000 
#    y 0.000000 1.540660 0.000000 
#    z 0.000000 0.000000 1.544910 
# 
# From -- ./inp_files/20286.got.cif
#   From: 2010.03.12/outbox.cif.g09.slc.cpg/sg38_11_cif.got.tgz:20286.got - 2010.04.14 02:38:36.
