data_PCOD8180567
_publ_section_title
;
Structure prediction by ZEFSAII (Michael W. Deem and Ramdas Pophale) SiO2 
 PCOD8180567
Probable space group: A M M 2
;
_chemical_formula_sum "Si O2"
_cell_formula_units_Z 32
_cell_length_a 24.000000
_cell_length_b 9.000000
_cell_length_c 15.000000
_cell_angle_alpha 90.000000
_cell_angle_beta 90.000000
_cell_angle_gamma 90.000000
_cell_volume 3240.000000
_symmetry_space_group_name_H-M "A M M 2"
_symmetry_group_IT_number 38
_symmetry_cell_setting 'orthorhombic'
loop_
_space_group_symop_operation_xyz
x,y,z
-x,-y,z
-x,y,z
x,-y,z
x,1/2+y,1/2+z
-x,1/2-y,1/2+z
-x,1/2+y,1/2+z
x,1/2-y,1/2+z
loop_
_atom_site_type_symbol
_atom_site_label
_atom_site_fract_x
_atom_site_fract_y
_atom_site_fract_z
Si Si1 0.869552 0.171883 0.941640
Si Si2 0.744758 0.166942 0.963117
Si Si3 0.745562 0.829351 0.642241
Si Si4 0.562575 0.176658 0.049127
Si Si5 0.359649 0.325401 0.705539
Si Si6 0.629155 0.329642 0.378004
Si Si7 0.065503 0.328149 0.785823
Si Si8 0.128631 0.674414 0.130210
O O1 0.804339 0.187623 0.914906
O O2 0.905503 0.267933 0.874269
O O3 0.888313 0.000000 0.937856
O O4 0.880360 0.234166 0.040063
O O5 0.695224 0.190248 0.893612
O O6 0.740872 0.000000 0.004727
O O7 0.737296 0.287946 0.039402
O O8 0.703259 0.735713 0.701953
O O9 0.809468 0.796962 0.669744
O O10 0.730156 0.000000 0.655917
O O11 0.500000 0.242232 0.055428
O O12 0.601128 0.239944 0.127917
O O13 0.560765 0.000000 0.054069
O O14 0.591893 0.229668 0.958881
O O15 0.356409 0.500000 0.700301
O O16 0.388384 0.273140 0.796240
O O17 0.614968 0.500000 0.356498
O O18 0.081846 0.500000 0.771709
O O19 0.084346 0.232463 0.701202
O O20 0.000000 0.307961 0.797903
O O21 0.119213 0.500000 0.111481
#
# Coordination Sequence:
#
# PCOD8180567 Si02
#       8
#     8   8   8   8   8   8   8   8
#     4  10  21  38  62  90 121 156 196 242 296 357
#     4   9  18  35  58  85 118 153 190 236 294 351
#     4  10  20  35  58  87 120 153 192 240 292 349
#     4   9  19  38  61  81 111 157 200 239 288 346
#     4  11  22  36  56  86 118 154 195 238 292 348
#     4  10  20  36  57  84 117 152 192 239 290 345
#     4  11  25  43  62  87 120 158 202 247 292 351
#     4  10  22  40  62  89 120 157 199 247 300 352
#
# _framework density 9.8765429999999999
#
# number of rings (size 3 to 8) (size 9 to 14) (size 15 to 20)
#    0.000    2.000    1.250    1.875    1.750    4.500 
#    0.000    0.000    0.000    2.625    0.000    0.000 
#    0.000    0.000    0.000    0.000    0.000    0.000 
#
# Total GULP energy -396828.535931 kJ/mol
# GULP energy per Si atom -12400.891748 kJ/mol
# Density = 0.985406 g / cm^3
# Si number density = 9.876543 Si / 1000 Ang^3
#
#
#
# Elastic Constant Matrix: (Units=GPa)
#
#
# Indices 1 2 3 4 5 6 
#
# 1 99.7920 37.8488 41.5455 0.0000 0.0000 0.0000
# 2 37.8488 68.0398 27.3483 0.0000 0.0000 0.0000
# 3 41.5455 27.3483 88.8379 0.0000 0.0000 0.0000
# 4 0.0000 0.0000 0.0000 35.9237 0.0000 0.0000
# 5 0.0000 0.0000 0.0000 0.0000 14.8434 0.0000
# 6 0.0000 0.0000 0.0000 0.0000 0.0000 19.8816
#
#
#
# Elastic Compliance Matrix: (Units=1/GPa)
#
#
# Indices 1 2 3 4 5 6 
#
# 1 0.014320 -0.006019 -0.004844 0.000000 0.000000 0.000000
# 2 -0.006019 0.019303 -0.003127 0.000000 0.000000 0.000000
# 3 -0.004844 -0.003127 0.014485 0.000000 0.000000 0.000000
# 4 0.000000 0.000000 0.000000 0.027837 0.000000 0.000000
# 5 0.000000 0.000000 0.000000 0.000000 0.067370 0.000000
# 6 0.000000 0.000000 0.000000 0.000000 0.000000 0.050298
#
#
# Mechanical properties :
#
#
# Convention : Reuss Voigt Hill
#
# Bulk Modulus (GPa) = 49.68558 52.23944 50.96251
# Shear Modulus (GPa) = 21.90084 24.12488 23.01286
#
# Velocity S-wave (km/s) = 3.33337 3.49853 3.41695
# Velocity P-wave (km/s) = 6.32638 6.54395 6.43608
#
# Compressibility (1/GPa) = 0.02012656
#
# Stress axis : x y z
#
# Youngs Moduli (GPa) = 69.83043 51.80666 69.03897
#
# Poissons Ratio (x) = 0.31182 0.33443
# Poissons Ratio (y) = 0.42031 0.21591
# Poissons Ratio (z) = 0.33826 0.16202
#
# Static dielectric constant tensor:
#      x y z
#    x 3.760980 0.000000 0.000000 
#    y 0.000000 3.536020 0.000000 
#    z 0.000000 0.000000 3.476950 
# 
# 
# High freq. dielectric constant tensor:
#      x y z
#    x 1.772260 0.000000 0.000000 
#    y 0.000000 1.763020 0.000000 
#    z 0.000000 0.000000 1.764370 
# 
# From -- ./inp_files/15768.got.cif
#   From: 2010.03.12/outbox.ucp.g09.slc.cvg/sg38_8_cif.got.tgz:15768.got - 2010.05.04 21:14:20.
