data_PCOD8181725
_publ_section_title
;
Structure prediction by ZEFSAII (Michael W. Deem and Ramdas Pophale) SiO2 
 PCOD8181725
Probable space group: A B M 2
;
_chemical_formula_sum "Si O2"
_cell_formula_units_Z 48
_cell_length_a 9.487645
_cell_length_b 14.678762
_cell_length_c 16.249780
_cell_angle_alpha 90.000000
_cell_angle_beta 90.000000
_cell_angle_gamma 90.000000
_cell_volume 2263.056208
_symmetry_space_group_name_H-M "A B M 2"
_symmetry_group_IT_number 39
_symmetry_cell_setting 'orthorhombic'
loop_
_space_group_symop_operation_xyz
x,y,z
-x,-y,z
-x,1/2+y,z
x,1/2-y,z
x,1/2+y,1/2+z
-x,1/2-y,1/2+z
-x,y,1/2+z
x,-y,1/2+z
loop_
_atom_site_type_symbol
_atom_site_label
_atom_site_fract_x
_atom_site_fract_y
_atom_site_fract_z
Si Si1 0.333010 0.520974 0.655410
Si Si2 0.238917 0.355909 0.302703
Si Si3 0.754478 0.853094 0.576676
Si Si4 0.977874 0.605974 0.440073
Si Si5 0.273879 0.648528 0.502269
Si Si6 0.442149 0.354511 0.436634
O O1 0.500000 0.500000 0.670073
O O2 0.252823 0.580771 0.723530
O O3 0.248006 0.424319 0.652456
O O4 0.293735 0.573571 0.571797
O O5 0.258870 0.250000 0.276733
O O6 0.091563 0.365192 0.352946
O O7 0.362386 0.399198 0.359944
O O8 0.742181 0.750000 0.611242
O O9 0.889204 0.859539 0.517982
O O10 0.617374 0.886648 0.524944
O O11 0.000000 0.500000 0.443673
O O12 0.129949 0.650504 0.451561
O O13 0.301512 0.750000 0.539204
O O14 0.392061 0.626810 0.432712
O O15 0.396523 0.250000 0.429792
#
# Coordination Sequence:
#
# PCOD8181725 Si02
#       6
#     8   8   8   8   8   8
#     4  12  24  39  66 105 133 172 220 281 341 400
#     4  10  23  44  66  94 137 180 213 269 343 401
#     4  10  20  40  66  94 128 171 219 271 332 393
#     4  11  22  41  69  97 128 172 227 271 320 400
#     4  11  21  38  68 101 129 166 222 280 329 393
#     4   8  17  36  67  94 121 163 215 270 327 388
#
# _framework density 21.210255
#
# number of rings (size 3 to 8) (size 9 to 14) (size 15 to 20)
#    0.000    1.667    3.333    3.000    0.000    2.000 
#    3.000    0.000    0.000    2.000    0.000    0.000 
#    0.000    0.000    0.000    0.000    0.000    0.000 
#
# Total GULP energy -297352.338936 kJ/mol
# GULP energy per Si atom -12389.680789 kJ/mol
# Density = 2.116198 g / cm^3
# Si number density = 21.210255 Si / 1000 Ang^3
#
#
#
# Elastic Constant Matrix: (Units=GPa)
#
#
# Indices 1 2 3 4 5 6 
#
# 1 150.6051 28.3052 41.2052 0.0000 0.0000 0.0000
# 2 28.3052 145.7681 52.9462 0.0000 0.0000 0.0000
# 3 41.2052 52.9462 85.8384 0.0000 0.0000 0.0000
# 4 0.0000 0.0000 0.0000 32.5619 0.0000 0.0000
# 5 0.0000 0.0000 0.0000 0.0000 17.6992 0.0000
# 6 0.0000 0.0000 0.0000 0.0000 0.0000 31.1294
#
#
#
# Elastic Compliance Matrix: (Units=1/GPa)
#
#
# Indices 1 2 3 4 5 6 
#
# 1 0.007648 -0.000195 -0.003551 0.000000 0.000000 0.000000
# 2 -0.000195 0.008846 -0.005362 0.000000 0.000000 0.000000
# 3 -0.003551 -0.005362 0.016662 0.000000 0.000000 0.000000
# 4 0.000000 0.000000 0.000000 0.030711 0.000000 0.000000
# 5 0.000000 0.000000 0.000000 0.000000 0.056500 0.000000
# 6 0.000000 0.000000 0.000000 0.000000 0.000000 0.032124
#
#
# Mechanical properties :
#
#
# Convention : Reuss Voigt Hill
#
# Bulk Modulus (GPa) = 66.94064 69.68053 68.31058
# Shear Modulus (GPa) = 28.45965 33.59510 31.02737
#
# Velocity S-wave (km/s) = 3.66702 3.98415 3.82887
# Velocity P-wave (km/s) = 7.03977 7.35447 7.19884
#
# Compressibility (1/GPa) = 0.01493861
#
# Stress axis : x y z
#
# Youngs Moduli (GPa) = 130.75152 113.04638 60.01698
#
# Poissons Ratio (x) = 0.02209 0.21311
# Poissons Ratio (y) = 0.02554 0.32184
# Poissons Ratio (z) = 0.46428 0.60621
#
# Static dielectric constant tensor:
#      x y z
#    x 4.249730 0.000000 0.000000 
#    y 0.000000 3.986730 0.000000 
#    z 0.000000 0.000000 3.574820 
# 
# 
# High freq. dielectric constant tensor:
#      x y z
#    x 1.835230 0.000000 0.000000 
#    y 0.000000 1.851990 0.000000 
#    z 0.000000 0.000000 1.794940 
# 
# From -- ./inp_files/11611.got.cif
#   From: 2010.03.12/outbox.cif.g09.slc.cpg/sg39_6_cif.got.tgz:11611.got - 2010.04.14 02:53:20.
