data_PCOD8181985
_publ_section_title
;
Structure prediction by ZEFSAII (Michael W. Deem and Ramdas Pophale) SiO2 
 PCOD8181985
Probable space group: A B M 2
;
_chemical_formula_sum "Si O2"
_cell_formula_units_Z 56
_cell_length_a 5.079643
_cell_length_b 15.273325
_cell_length_c 33.415178
_cell_angle_alpha 90.000000
_cell_angle_beta 90.000000
_cell_angle_gamma 90.000000
_cell_volume 2592.451039
_symmetry_space_group_name_H-M "A B M 2"
_symmetry_group_IT_number 39
_symmetry_cell_setting 'orthorhombic'
loop_
_space_group_symop_operation_xyz
x,y,z
-x,-y,z
-x,1/2+y,z
x,1/2-y,z
x,1/2+y,1/2+z
-x,1/2-y,1/2+z
-x,y,1/2+z
x,-y,1/2+z
loop_
_atom_site_type_symbol
_atom_site_label
_atom_site_fract_x
_atom_site_fract_y
_atom_site_fract_z
Si Si1 0.914333 0.854217 0.019880
Si Si2 0.995941 0.103814 0.246234
Si Si3 0.410991 0.646992 0.969390
Si Si4 0.000000 0.500000 0.584084
Si Si5 0.078555 0.900708 0.335060
Si Si6 0.489470 0.652113 0.698629
Si Si7 0.578244 0.849397 0.380704
Si Si8 0.500000 0.000000 0.637202
O O1 0.921688 0.750000 0.030377
O O2 0.930707 0.912263 0.059550
O O3 0.652450 0.882485 0.996712
O O4 0.148388 0.884668 0.991071
O O5 0.928956 0.140002 0.290536
O O6 0.781723 0.139207 0.215342
O O7 0.282107 0.139626 0.234490
O O8 0.000000 0.000000 0.244538
O O9 0.403487 0.750000 0.964263
O O10 0.427557 0.606148 0.924837
O O11 0.750206 0.524970 0.610698
O O12 0.373925 0.898700 0.352070
O O13 0.874298 0.851147 0.363765
O O14 0.000000 0.000000 0.331898
O O15 0.466605 0.750000 0.680940
O O16 0.425077 0.583879 0.663710
O O17 0.480837 0.750000 0.383353
#
# Coordination Sequence:
#
# PCOD8181985 Si02
#       8
#     8   8   8   4   8   8   8   4
#     4  10  21  41  64  91 125 162 209 257 306 376
#     4  11  22  43  66  88 133 176 212 270 323 367
#     4   9  19  38  62  85 121 168 207 257 315 360
#     4  12  26  42  68  98 122 166 202 246 326 390
#     4  11  24  39  58  91 132 171 210 266 328 363
#     4  12  25  43  71  99 125 171 218 255 317 387
#     4  11  22  39  61  88 127 172 219 268 317 366
#     4  12  26  46  66  94 138 156 196 266 320 380
#
# _framework density 21.601178999999998
#
# number of rings (size 3 to 8) (size 9 to 14) (size 15 to 20)
#    0.000    1.143    1.429    4.714    0.000    9.143 
#    7.714    0.000    0.000    0.000    0.000    0.000 
#    0.000    0.000    0.000    0.000    0.000    0.000 
#
# Total GULP energy -347322.935954 kJ/mol
# GULP energy per Si atom -12404.390570 kJ/mol
# Density = 2.155201 g / cm^3
# Si number density = 21.601179 Si / 1000 Ang^3
#
#
#
# Elastic Constant Matrix: (Units=GPa)
#
#
# Indices 1 2 3 4 5 6 
#
# 1 132.0477 8.7188 38.9347 0.0000 0.0000 0.0000
# 2 8.7188 88.0646 31.6690 0.0000 0.0000 0.0000
# 3 38.9347 31.6690 126.7974 0.0000 0.0000 0.0000
# 4 0.0000 0.0000 0.0000 72.6400 0.0000 0.0000
# 5 0.0000 0.0000 0.0000 0.0000 46.9881 0.0000
# 6 0.0000 0.0000 0.0000 0.0000 0.0000 22.0842
#
#
#
# Elastic Compliance Matrix: (Units=1/GPa)
#
#
# Indices 1 2 3 4 5 6 
#
# 1 0.008328 0.000104 -0.002583 0.000000 0.000000 0.000000
# 2 0.000104 0.012477 -0.003148 0.000000 0.000000 0.000000
# 3 -0.002583 -0.003148 0.009466 0.000000 0.000000 0.000000
# 4 0.000000 0.000000 0.000000 0.013767 0.000000 0.000000
# 5 0.000000 0.000000 0.000000 0.000000 0.021282 0.000000
# 6 0.000000 0.000000 0.000000 0.000000 0.000000 0.045281
#
#
# Mechanical properties :
#
#
# Convention : Reuss Voigt Hill
#
# Bulk Modulus (GPa) = 52.58509 56.17274 54.37892
# Shear Modulus (GPa) = 39.00335 46.18161 42.59248
#
# Velocity S-wave (km/s) = 4.25386 4.62878 4.44528
# Velocity P-wave (km/s) = 6.96589 7.39110 7.18164
#
# Compressibility (1/GPa) = 0.01901680
#
# Stress axis : x y z
#
# Youngs Moduli (GPa) = 120.07975 80.14656 105.63947
#
# Poissons Ratio (x) = -0.00837 0.27289
# Poissons Ratio (y) = -0.01255 0.33259
# Poissons Ratio (z) = 0.31020 0.25233
#
# Static dielectric constant tensor:
#      x y z
#    x 4.066930 0.000000 0.000000 
#    y 0.000000 3.860920 0.000000 
#    z 0.000000 0.000000 4.053610 
# 
# 
# High freq. dielectric constant tensor:
#      x y z
#    x 1.863560 0.000000 0.000000 
#    y 0.000000 1.845900 0.000000 
#    z 0.000000 0.000000 1.850090 
# 
# From -- ./inp_files/17306.got.cif
#   From: 2010.03.12/outbox.cif.g09.slc.cpg/sg39_9_cif.got.tgz:17306.got - 2010.04.14 02:53:20.
