data_PCOD8181798
_publ_section_title
;
Structure prediction by ZEFSAII (Michael W. Deem and Ramdas Pophale) SiO2 
 PCOD8181798
Probable space group: A B M 2
;
_chemical_formula_sum "Si O2"
_cell_formula_units_Z 64
_cell_length_a 20.101507
_cell_length_b 17.790781
_cell_length_c 9.315270
_cell_angle_alpha 90.000000
_cell_angle_beta 90.000000
_cell_angle_gamma 90.000000
_cell_volume 3331.340912
_symmetry_space_group_name_H-M "A B M 2"
_symmetry_group_IT_number 39
_symmetry_cell_setting 'orthorhombic'
loop_
_space_group_symop_operation_xyz
x,y,z
-x,-y,z
-x,1/2+y,z
x,1/2-y,z
x,1/2+y,1/2+z
-x,1/2-y,1/2+z
-x,y,1/2+z
x,-y,1/2+z
loop_
_atom_site_type_symbol
_atom_site_label
_atom_site_fract_x
_atom_site_fract_y
_atom_site_fract_z
Si Si1 0.322528 0.560329 0.487060
Si Si2 0.201404 0.662174 0.439328
Si Si3 0.529573 0.416764 0.525454
Si Si4 0.440915 0.163589 0.311122
Si Si5 0.950734 0.339620 0.946043
Si Si6 0.074673 0.839364 0.266540
Si Si7 0.693491 0.412437 0.814480
Si Si8 0.172813 0.162322 0.263869
O O1 0.270182 0.617775 0.415040
O O2 0.397358 0.587921 0.453075
O O3 0.311536 0.553527 0.656153
O O4 0.313204 0.477459 0.429274
O O5 0.218372 0.750000 0.425230
O O6 0.147839 0.635592 0.320383
O O7 0.169891 0.644168 0.594789
O O8 0.500000 0.500000 0.512423
O O9 0.482563 0.355430 0.452285
O O10 0.532971 0.393500 0.690788
O O11 0.451285 0.250000 0.266519
O O12 0.362968 0.150117 0.340341
O O13 0.951210 0.250000 0.951095
O O14 0.892764 0.369726 0.841213
O O15 0.019843 0.370010 0.879380
O O16 0.939648 0.371691 0.107097
O O17 0.070656 0.750000 0.263752
O O18 0.764210 0.374446 0.840433
O O19 0.178376 0.250000 0.291088
#
# Coordination Sequence:
#
# PCOD8181798 Si02
#       8
#     8   8   8   8   8   8   8   8
#     4  10  22  36  58  78 106 147 186 226 279 346
#     4   9  18  33  52  76 106 140 182 233 282 332
#     4  11  22  39  61  84 116 154 193 235 291 355
#     4  11  23  38  60  88 116 148 192 244 291 342
#     4   9  16  26  45  74 106 144 182 223 278 336
#     4   9  16  27  45  73 108 142 181 227 277 336
#     4  10  21  37  55  78 108 144 186 227 281 343
#     4   9  17  31  51  74 103 138 178 226 277 329
#
# _framework density 19.211483000000001
#
# number of rings (size 3 to 8) (size 9 to 14) (size 15 to 20)
#    0.000    2.250    1.250    1.875    1.750    7.500 
#    0.000    0.000    0.000    4.500    0.000    5.250 
#    0.000    0.000    0.000    0.000    0.000    0.000 
#
# Total GULP energy -396809.810646 kJ/mol
# GULP energy per Si atom -12400.306583 kJ/mol
# Density = 1.916776 g / cm^3
# Si number density = 19.211483 Si / 1000 Ang^3
#
#
#
# Elastic Constant Matrix: (Units=GPa)
#
#
# Indices 1 2 3 4 5 6 
#
# 1 120.1415 37.5133 37.1451 0.0000 0.0000 0.0000
# 2 37.5133 57.0259 24.4448 0.0000 0.0000 0.0000
# 3 37.1451 24.4448 62.2037 0.0000 0.0000 0.0000
# 4 0.0000 0.0000 0.0000 21.0856 0.0000 0.0000
# 5 0.0000 0.0000 0.0000 0.0000 31.9538 0.0000
# 6 0.0000 0.0000 0.0000 0.0000 0.0000 24.4562
#
#
#
# Elastic Compliance Matrix: (Units=1/GPa)
#
#
# Indices 1 2 3 4 5 6 
#
# 1 0.011509 -0.005562 -0.004687 0.000000 0.000000 0.000000
# 2 -0.005562 0.023776 -0.006022 0.000000 0.000000 0.000000
# 3 -0.004687 -0.006022 0.021242 0.000000 0.000000 0.000000
# 4 0.000000 0.000000 0.000000 0.047426 0.000000 0.000000
# 5 0.000000 0.000000 0.000000 0.000000 0.031295 0.000000
# 6 0.000000 0.000000 0.000000 0.000000 0.000000 0.040889
#
#
# Mechanical properties :
#
#
# Convention : Reuss Voigt Hill
#
# Bulk Modulus (GPa) = 41.69326 48.61972 45.15649
# Shear Modulus (GPa) = 23.07603 24.85033 23.96318
#
# Velocity S-wave (km/s) = 3.46953 3.60045 3.53560
# Velocity P-wave (km/s) = 6.14814 6.53046 6.34218
#
# Compressibility (1/GPa) = 0.02398469
#
# Stress axis : x y z
#
# Youngs Moduli (GPa) = 86.88581 42.05881 47.07716
#
# Poissons Ratio (x) = 0.23393 0.22065
# Poissons Ratio (y) = 0.48326 0.28351
# Poissons Ratio (z) = 0.40724 0.25329
#
# Static dielectric constant tensor:
#      x y z
#    x 3.824980 0.000000 0.000000 
#    y 0.000000 3.121220 0.000000 
#    z 0.000000 0.000000 3.526080 
# 
# 
# High freq. dielectric constant tensor:
#      x y z
#    x 1.763950 0.000000 0.000000 
#    y 0.000000 1.712450 0.000000 
#    z 0.000000 0.000000 1.745570 
# 
# From -- ./inp_files/3859.got.cif
#   From: 2010.03.12/outbox.cif.g09.slc.cpg/sg39_2_cif.got.tgz:3859.got - 2010.04.14 02:53:20.
