data_PCOD8181933
_publ_section_title
;
Structure prediction by ZEFSAII (Michael W. Deem and Ramdas Pophale) SiO2 
 PCOD8181933
Probable space group: A B M 2
;
_chemical_formula_sum "Si O2"
_cell_formula_units_Z 64
_cell_length_a 6.033275
_cell_length_b 27.868118
_cell_length_c 18.590219
_cell_angle_alpha 90.000000
_cell_angle_beta 90.000000
_cell_angle_gamma 90.000000
_cell_volume 3125.685427
_symmetry_space_group_name_H-M "A B M 2"
_symmetry_group_IT_number 39
_symmetry_cell_setting 'orthorhombic'
loop_
_space_group_symop_operation_xyz
x,y,z
-x,-y,z
-x,1/2+y,z
x,1/2-y,z
x,1/2+y,1/2+z
-x,1/2-y,1/2+z
-x,y,1/2+z
x,-y,1/2+z
loop_
_atom_site_type_symbol
_atom_site_label
_atom_site_fract_x
_atom_site_fract_y
_atom_site_fract_z
Si Si1 0.300296 0.366819 0.825590
Si Si2 0.984761 0.053782 0.781922
Si Si3 0.068518 0.806507 0.205144
Si Si4 0.961622 0.949626 0.545346
Si Si5 0.669171 0.459132 0.913757
Si Si6 0.648602 0.385052 0.478595
Si Si7 0.316541 0.370711 0.225922
Si Si8 0.653710 0.131378 0.105227
O O1 0.168167 0.327548 0.779026
O O2 0.251590 0.354180 0.911066
O O3 0.560665 0.364128 0.803038
O O4 0.214670 0.420990 0.806112
O O5 0.830801 0.052824 0.850322
O O6 0.867469 0.087362 0.722866
O O7 0.000000 0.000000 0.750471
O O8 0.085860 0.750000 0.207047
O O9 0.199421 0.823934 0.133110
O O10 0.809790 0.821942 0.202068
O O11 0.820272 0.973046 0.480877
O O12 0.812806 0.913498 0.590851
O O13 0.176194 0.919682 0.518238
O O14 0.000000 0.000000 0.589620
O O15 0.500000 0.500000 0.890955
O O16 0.529811 0.412817 0.931768
O O17 0.505903 0.354746 0.537443
O O18 0.499715 0.386425 0.169274
#
# Coordination Sequence:
#
# PCOD8181933 Si02
#       8
#     8   8   8   8   8   8   8   8
#     4  10  21  39  64  95 122 155 206 261 314 371
#     4  11  21  33  57  89 130 168 214 258 299 356
#     4  10  23  46  70  89 115 157 207 264 332 399
#     4  11  21  36  58  89 131 175 217 253 295 359
#     4  11  19  30  55  89 122 171 219 247 296 357
#     4  11  20  36  61  91 129 165 203 260 308 362
#     4  10  22  42  59  86 121 164 207 257 318 378
#     4  10  24  40  62  89 125 167 214 253 311 379
#
# _framework density 20.475508000000001
#
# number of rings (size 3 to 8) (size 9 to 14) (size 15 to 20)
#    0.000    1.500    3.750    1.875    0.000    2.000 
#    0.000   15.625    0.000    3.750    0.000    0.000 
#    0.000    0.000    0.000    0.000    0.000    0.000 
#
# Total GULP energy -396446.409894 kJ/mol
# GULP energy per Si atom -12388.950309 kJ/mol
# Density = 2.042890 g / cm^3
# Si number density = 20.475508 Si / 1000 Ang^3
#
#
#
# Elastic Constant Matrix: (Units=GPa)
#
#
# Indices 1 2 3 4 5 6 
#
# 1 106.0564 51.2564 39.9935 0.0000 0.0000 0.0000
# 2 51.2564 126.5549 44.3001 0.0000 0.0000 0.0000
# 3 39.9935 44.3001 97.2117 0.0000 0.0000 0.0000
# 4 0.0000 0.0000 0.0000 23.9895 0.0000 0.0000
# 5 0.0000 0.0000 0.0000 0.0000 48.3787 0.0000
# 6 0.0000 0.0000 0.0000 0.0000 0.0000 17.6173
#
#
#
# Elastic Compliance Matrix: (Units=1/GPa)
#
#
# Indices 1 2 3 4 5 6 
#
# 1 0.012603 -0.003914 -0.003401 0.000000 0.000000 0.000000
# 2 -0.003914 0.010617 -0.003228 0.000000 0.000000 0.000000
# 3 -0.003401 -0.003228 0.013157 0.000000 0.000000 0.000000
# 4 0.000000 0.000000 0.000000 0.041685 0.000000 0.000000
# 5 0.000000 0.000000 0.000000 0.000000 0.020670 0.000000
# 6 0.000000 0.000000 0.000000 0.000000 0.000000 0.056762
#
#
# Mechanical properties :
#
#
# Convention : Reuss Voigt Hill
#
# Bulk Modulus (GPa) = 65.39933 66.76922 66.08427
# Shear Modulus (GPa) = 27.52122 30.94864 29.23493
#
# Velocity S-wave (km/s) = 3.67018 3.89201 3.78272
# Velocity P-wave (km/s) = 7.06894 7.27167 7.17102
#
# Compressibility (1/GPa) = 0.01529068
#
# Stress axis : x y z
#
# Youngs Moduli (GPa) = 79.34543 94.19051 76.00383
#
# Poissons Ratio (x) = 0.36864 0.25853
# Poissons Ratio (y) = 0.31054 0.24534
# Poissons Ratio (z) = 0.26989 0.30405
#
# Static dielectric constant tensor:
#      x y z
#    x 3.923550 0.000000 0.000000 
#    y 0.000000 3.408480 0.000000 
#    z 0.000000 0.000000 4.032370 
# 
# 
# High freq. dielectric constant tensor:
#      x y z
#    x 1.824060 0.000000 0.000000 
#    y 0.000000 1.755270 0.000000 
#    z 0.000000 0.000000 1.803870 
# 
# From -- ./inp_files/11250.got.cif
#   From: 2010.03.12/outbox.cif.g09.slc.cpg/sg39_6_cif.got.tgz:11250.got - 2010.04.14 02:53:20.
