data_PCOD8181380
_publ_section_title
;
Structure prediction by ZEFSAII (Michael W. Deem and Ramdas Pophale) SiO2 
 PCOD8181380
Probable space group: A B M 2
;
_chemical_formula_sum "Si O2"
_cell_formula_units_Z 64
_cell_length_a 19.302353
_cell_length_b 9.028285
_cell_length_c 20.336941
_cell_angle_alpha 90.000000
_cell_angle_beta 90.000000
_cell_angle_gamma 90.000000
_cell_volume 3544.060627
_symmetry_space_group_name_H-M "A B M 2"
_symmetry_group_IT_number 39
_symmetry_cell_setting 'orthorhombic'
loop_
_space_group_symop_operation_xyz
x,y,z
-x,-y,z
-x,1/2+y,z
x,1/2-y,z
x,1/2+y,1/2+z
-x,1/2-y,1/2+z
-x,y,1/2+z
x,-y,1/2+z
loop_
_atom_site_type_symbol
_atom_site_label
_atom_site_fract_x
_atom_site_fract_y
_atom_site_fract_z
Si Si1 0.426562 0.576711 0.883360
Si Si2 0.571714 0.919668 0.628710
Si Si3 0.785617 0.075089 0.203528
Si Si4 0.791261 0.073296 0.565234
Si Si5 0.663904 0.924616 0.508864
Si Si6 0.066909 0.083311 0.560542
Si Si7 0.935575 0.912110 0.716565
Si Si8 0.354411 0.918644 0.265662
O O1 0.500000 0.500000 0.894986
O O2 0.440948 0.750000 0.880066
O O3 0.391275 0.527964 0.815678
O O4 0.374134 0.534407 0.941318
O O5 0.554873 0.750000 0.615633
O O6 0.615282 0.982298 0.567756
O O7 0.614456 0.945575 0.694340
O O8 0.500000 0.000000 0.635263
O O9 0.788688 0.250000 0.184832
O O10 0.859507 0.021466 0.233888
O O11 0.727371 0.044697 0.258648
O O12 0.769354 0.986526 0.136960
O O13 0.794402 0.250000 0.566326
O O14 0.735219 0.016142 0.512238
O O15 0.865075 0.009766 0.541982
O O16 0.679772 0.750000 0.514855
O O17 0.071966 0.250000 0.531559
O O18 0.058416 0.092156 0.638438
O O19 0.000000 0.000000 0.530188
O O20 0.941620 0.750000 0.747436
O O21 0.000000 0.000000 0.747943
O O22 0.366044 0.750000 0.289311
#
# Coordination Sequence:
#
# PCOD8181380 Si02
#       8
#     8   8   8   8   8   8   8   8
#     4  11  24  40  59  79 105 138 174 219 268 322
#     4  10  20  34  54  76  99 130 168 209 261 317
#     4   9  17  32  50  70 102 143 177 212 262 314
#     4  11  20  29  48  78 107 137 175 222 267 314
#     4  10  21  39  56  73 102 141 177 213 265 321
#     4   9  16  27  43  66 102 143 179 216 259 313
#     4   8  14  23  39  63  95 134 171 205 247 298
#     4  10  20  36  57  77 103 138 175 218 265 319
#
# _framework density 18.058382000000002
#
# number of rings (size 3 to 8) (size 9 to 14) (size 15 to 20)
#    0.000    2.250    1.250    3.375    0.000    6.500 
#    0.000    0.000    0.000    0.000    0.000    0.875 
#    0.000    4.000    0.000    0.000    0.000    0.000 
#
# Total GULP energy -396741.162710 kJ/mol
# GULP energy per Si atom -12398.161335 kJ/mol
# Density = 1.801728 g / cm^3
# Si number density = 18.058382 Si / 1000 Ang^3
#
#
#
# Elastic Constant Matrix: (Units=GPa)
#
#
# Indices 1 2 3 4 5 6 
#
# 1 47.1678 25.3975 -80.3990 0.0000 0.0000 0.0000
# 2 25.3975 82.2822 -8.7935 0.0000 0.0000 0.0000
# 3 -80.3990 -8.7935 -70.9653 0.0000 0.0000 0.0000
# 4 0.0000 0.0000 0.0000 17.3744 0.0000 0.0000
# 5 0.0000 0.0000 0.0000 0.0000 26.8393 0.0000
# 6 0.0000 0.0000 0.0000 0.0000 0.0000 31.0879
#
#
#
# Elastic Compliance Matrix: (Units=1/GPa)
#
#
# Indices 1 2 3 4 5 6 
#
# 1 0.008113 -0.003441 -0.008765 0.000000 0.000000 0.000000
# 2 -0.003441 0.013454 0.002231 0.000000 0.000000 0.000000
# 3 -0.008765 0.002231 -0.004437 0.000000 0.000000 0.000000
# 4 0.000000 0.000000 0.000000 0.057556 0.000000 0.000000
# 5 0.000000 0.000000 0.000000 0.000000 0.037259 0.000000
# 6 0.000000 0.000000 0.000000 0.000000 0.000000 0.032167
#
#
# Mechanical properties :
#
#
# Convention : Reuss Voigt Hill
#
# Bulk Modulus (GPa) = -354.56773 -7.67838 -181.12306
# Shear Modulus (GPa) = 30.65212 23.21230 26.93221
#
# Velocity S-wave (km/s) = 4.12441 3.58914 3.86605
# Velocity P-wave (km/s) = 13.19434 3.59370 8.97708
#
# Compressibility (1/GPa) = -0.00282034
#
# Stress axis : x y z
#
# Youngs Moduli (GPa) = 123.25739 74.32815 -225.35404
#
# Poissons Ratio (x) = 0.25576 -1.97528
# Poissons Ratio (y) = 0.42412 0.50283
# Poissons Ratio (z) = 1.08038 -0.16585
#
# Static dielectric constant tensor:
#      x y z
#    x 3.349210 0.000000 0.000000 
#    y 0.000000 3.384430 0.000000 
#    z 0.000000 0.000000 2.917700 
# 
# 
# High freq. dielectric constant tensor:
#      x y z
#    x 1.722600 0.000000 0.000000 
#    y 0.000000 1.698360 0.000000 
#    z 0.000000 0.000000 1.647160 
# 
# From -- ./inp_files/13240.got.cif
#   From: 2010.03.12/outbox.cif.g09.slc.cpg/sg39_7_cif.got.tgz:13240.got - 2010.04.14 02:53:20.
