data_PCOD8181240
_publ_section_title
;
Structure prediction by ZEFSAII (Michael W. Deem and Ramdas Pophale) SiO2 
 PCOD8181240
Probable space group: A B M 2
;
_chemical_formula_sum "Si O2"
_cell_formula_units_Z 64
_cell_length_a 15.408685
_cell_length_b 8.941641
_cell_length_c 23.539631
_cell_angle_alpha 90.000000
_cell_angle_beta 90.000000
_cell_angle_gamma 90.000000
_cell_volume 3243.265161
_symmetry_space_group_name_H-M "A B M 2"
_symmetry_group_IT_number 39
_symmetry_cell_setting 'orthorhombic'
loop_
_space_group_symop_operation_xyz
x,y,z
-x,-y,z
-x,1/2+y,z
x,1/2-y,z
x,1/2+y,1/2+z
-x,1/2-y,1/2+z
-x,y,1/2+z
x,-y,1/2+z
loop_
_atom_site_type_symbol
_atom_site_label
_atom_site_fract_x
_atom_site_fract_y
_atom_site_fract_z
Si Si1 0.912529 0.925877 0.679640
Si Si2 0.743239 0.922523 0.612526
Si Si3 0.347338 0.575499 0.800651
Si Si4 0.146587 0.077063 0.291391
Si Si5 0.742397 0.576373 0.479289
Si Si6 0.410696 0.572776 0.412991
Si Si7 0.912883 0.576447 0.416220
Si Si8 0.410833 0.574521 0.676725
O O1 0.924653 0.750000 0.677440
O O2 0.832304 0.979201 0.641004
O O3 0.897836 0.974994 0.744360
O O4 0.000000 0.000000 0.655264
O O5 0.726025 0.750000 0.627946
O O6 0.750815 0.948025 0.545898
O O7 0.664931 0.020000 0.635821
O O8 0.360027 0.750000 0.815007
O O9 0.246708 0.533152 0.797912
O O10 0.392425 0.477711 0.848746
O O11 0.390917 0.529657 0.741442
O O12 0.137337 0.250000 0.273548
O O13 0.098552 0.041370 0.349912
O O14 0.727354 0.750000 0.462959
O O15 0.663377 0.480182 0.455808
O O16 0.830221 0.514548 0.450595
O O17 0.500000 0.500000 0.434442
O O18 0.418698 0.750000 0.415004
O O19 0.922380 0.750000 0.428548
O O20 0.000000 0.500000 0.439160
O O21 0.500000 0.500000 0.656824
O O22 0.419523 0.750000 0.669482
#
# Coordination Sequence:
#
# PCOD8181240 Si02
#       8
#     8   8   8   8   8   8   8   8
#     4  11  23  38  59  90 123 159 201 246 299 359
#     4  10  23  42  64  87 116 157 206 254 301 352
#     4  10  20  38  63  91 123 160 195 240 301 359
#     4  10  19  36  61  89 120 158 195 241 301 356
#     4  10  22  44  65  84 117 160 203 253 304 352
#     4  12  25  40  63  93 123 158 199 246 299 359
#     4  10  21  37  60  87 119 154 194 241 296 354
#     4  11  23  39  63  91 123 158 197 243 299 359
#
# _framework density 19.7332
#
# number of rings (size 3 to 8) (size 9 to 14) (size 15 to 20)
#    0.000    1.500    2.500    2.625    0.000    6.500 
#    0.000    0.000    0.000    0.000    0.000    0.000 
#    0.000    0.000    0.000    0.000    0.000    0.000 
#
# Total GULP energy -396993.764575 kJ/mol
# GULP energy per Si atom -12406.055143 kJ/mol
# Density = 1.968829 g / cm^3
# Si number density = 19.733200 Si / 1000 Ang^3
#
#
#
# Elastic Constant Matrix: (Units=GPa)
#
#
# Indices 1 2 3 4 5 6 
#
# 1 168.1129 57.3576 44.6773 0.0000 0.0000 0.0000
# 2 57.3576 76.0599 33.4467 0.0000 0.0000 0.0000
# 3 44.6773 33.4467 78.8074 0.0000 0.0000 0.0000
# 4 0.0000 0.0000 0.0000 21.0274 0.0000 0.0000
# 5 0.0000 0.0000 0.0000 0.0000 6.7850 0.0000
# 6 0.0000 0.0000 0.0000 0.0000 0.0000 37.1230
#
#
#
# Elastic Compliance Matrix: (Units=1/GPa)
#
#
# Indices 1 2 3 4 5 6 
#
# 1 0.008407 -0.005218 -0.002551 0.000000 0.000000 0.000000
# 2 -0.005218 0.019403 -0.005277 0.000000 0.000000 0.000000
# 3 -0.002551 -0.005277 0.016375 0.000000 0.000000 0.000000
# 4 0.000000 0.000000 0.000000 0.047557 0.000000 0.000000
# 5 0.000000 0.000000 0.000000 0.000000 0.147385 0.000000
# 6 0.000000 0.000000 0.000000 0.000000 0.000000 0.026937
#
#
# Mechanical properties :
#
#
# Convention : Reuss Voigt Hill
#
# Bulk Modulus (GPa) = 55.27056 65.99369 60.63213
# Shear Modulus (GPa) = 16.76807 25.48698 21.12752
#
# Velocity S-wave (km/s) = 2.91819 3.59775 3.27564
# Velocity P-wave (km/s) = 6.27887 7.12559 6.71559
#
# Compressibility (1/GPa) = 0.01809281
#
# Stress axis : x y z
#
# Youngs Moduli (GPa) = 118.95421 51.53975 61.06814
#
# Poissons Ratio (x) = 0.26891 0.15581
# Poissons Ratio (y) = 0.62064 0.32224
# Poissons Ratio (z) = 0.30351 0.27196
#
# Static dielectric constant tensor:
#      x y z
#    x 3.766660 0.000000 0.000000 
#    y 0.000000 3.700280 0.000000 
#    z 0.000000 0.000000 3.539630 
# 
# 
# High freq. dielectric constant tensor:
#      x y z
#    x 1.788490 0.000000 0.000000 
#    y 0.000000 1.763050 0.000000 
#    z 0.000000 0.000000 1.765690 
# 
# From -- ./inp_files/16187.got.cif
#   From: 2010.03.12/outbox.cif.g09.slc.cpg/sg39_9_cif.got.tgz:16187.got - 2010.04.14 02:53:20.
