data_PCOD8181982
_publ_section_title
;
Structure prediction by ZEFSAII (Michael W. Deem and Ramdas Pophale) SiO2 
 PCOD8181982
Probable space group: A B M 2
;
_chemical_formula_sum "Si O2"
_cell_formula_units_Z 56
_cell_length_a 8.681686
_cell_length_b 24.935415
_cell_length_c 12.478579
_cell_angle_alpha 90.000000
_cell_angle_beta 90.000000
_cell_angle_gamma 90.000000
_cell_volume 2701.380792
_symmetry_space_group_name_H-M "A B M 2"
_symmetry_group_IT_number 39
_symmetry_cell_setting 'orthorhombic'
loop_
_space_group_symop_operation_xyz
x,y,z
-x,-y,z
-x,1/2+y,z
x,1/2-y,z
x,1/2+y,1/2+z
-x,1/2-y,1/2+z
-x,y,1/2+z
x,-y,1/2+z
loop_
_atom_site_type_symbol
_atom_site_label
_atom_site_fract_x
_atom_site_fract_y
_atom_site_fract_z
Si Si1 0.216837 0.968833 0.235070
Si Si2 0.828291 0.512474 0.023509
Si Si3 0.025907 0.878125 0.756906
Si Si4 0.478169 0.888476 0.237024
Si Si5 0.246294 0.312965 0.849886
Si Si6 0.724515 0.935381 0.380708
Si Si7 0.254568 0.873725 0.565963
O O1 0.069454 0.931679 0.240221
O O2 0.365469 0.935219 0.199994
O O3 0.183824 0.016873 0.152103
O O4 0.240118 0.002333 0.342933
O O5 0.767068 0.572082 0.993356
O O6 0.000000 0.500000 0.981453
O O7 0.729531 0.456091 0.003052
O O8 0.918141 0.830451 0.800183
O O9 0.149370 0.891003 0.849907
O O10 0.109685 0.862319 0.645143
O O11 0.384738 0.836896 0.278030
O O12 0.563477 0.912908 0.341333
O O13 0.590397 0.873923 0.138285
O O14 0.259664 0.250000 0.839742
O O15 0.263259 0.327950 0.975558
#
# Coordination Sequence:
#
# PCOD8181982 Si02
#       7
#     8   8   8   8   8   8   8
#     4  11  19  35  56  90 131 166 194 228 304 383
#     4  12  20  32  61  93 130 172 197 240 305 376
#     4  10  21  41  63  92 124 161 210 257 307 378
#     4  10  24  41  59  91 128 167 210 257 305 385
#     4  11  26  47  67  86 118 165 218 281 331 358
#     4  11  21  35  59  90 131 166 202 248 299 378
#     4  11  23  41  66  97 127 164 214 256 308 381
#
# _framework density 20.730139000000001
#
# number of rings (size 3 to 8) (size 9 to 14) (size 15 to 20)
#    0.000    1.143    4.286    4.286    2.000    1.143 
#    0.000    2.143    0.000    0.000    0.000    0.000 
#    0.000    0.000    0.000    0.000    0.000    0.000 
#
# Total GULP energy -346926.714275 kJ/mol
# GULP energy per Si atom -12390.239796 kJ/mol
# Density = 2.068296 g / cm^3
# Si number density = 20.730139 Si / 1000 Ang^3
#
#
#
# Elastic Constant Matrix: (Units=GPa)
#
#
# Indices 1 2 3 4 5 6 
#
# 1 87.7184 48.1147 40.9255 0.0000 0.0000 0.0000
# 2 48.1147 125.5044 29.6975 0.0000 0.0000 0.0000
# 3 40.9255 29.6975 50.9243 0.0000 0.0000 0.0000
# 4 0.0000 0.0000 0.0000 29.4596 0.0000 0.0000
# 5 0.0000 0.0000 0.0000 0.0000 24.8664 0.0000
# 6 0.0000 0.0000 0.0000 0.0000 0.0000 13.7254
#
#
#
# Elastic Compliance Matrix: (Units=1/GPa)
#
#
# Indices 1 2 3 4 5 6 
#
# 1 0.020246 -0.004538 -0.013624 0.000000 0.000000 0.000000
# 2 -0.004538 0.010260 -0.002337 0.000000 0.000000 0.000000
# 3 -0.013624 -0.002337 0.031949 0.000000 0.000000 0.000000
# 4 0.000000 0.000000 0.000000 0.033945 0.000000 0.000000
# 5 0.000000 0.000000 0.000000 0.000000 0.040215 0.000000
# 6 0.000000 0.000000 0.000000 0.000000 0.000000 0.072858
#
#
# Mechanical properties :
#
#
# Convention : Reuss Voigt Hill
#
# Bulk Modulus (GPa) = 46.60386 55.73584 51.16985
# Shear Modulus (GPa) = 19.40827 23.30422 21.35624
#
# Velocity S-wave (km/s) = 3.06311 3.35650 3.21316
# Velocity P-wave (km/s) = 5.91948 6.47814 6.20510
#
# Compressibility (1/GPa) = 0.02145745
#
# Stress axis : x y z
#
# Youngs Moduli (GPa) = 49.39360 97.46181 31.30005
#
# Poissons Ratio (x) = 0.44226 0.42644
# Poissons Ratio (y) = 0.22413 0.07314
# Poissons Ratio (z) = 0.67294 0.22775
#
# Static dielectric constant tensor:
#      x y z
#    x 4.179750 0.000000 0.000000 
#    y 0.000000 3.366900 0.000000 
#    z 0.000000 0.000000 3.816010 
# 
# 
# High freq. dielectric constant tensor:
#      x y z
#    x 1.821960 0.000000 0.000000 
#    y 0.000000 1.775190 0.000000 
#    z 0.000000 0.000000 1.827830 
# 
# From -- ./inp_files/8628.got.cif
#   From: 2010.03.12/outbox.cif.g09.slc.cpg/sg39_5_cif.got.tgz:8628.got - 2010.04.14 02:53:20.
