data_PCOD8181793
_publ_section_title
;
Structure prediction by ZEFSAII (Michael W. Deem and Ramdas Pophale) SiO2 
 PCOD8181793
Probable space group: A B M 2
;
_chemical_formula_sum "Si O2"
_cell_formula_units_Z 48
_cell_length_a 9.926990
_cell_length_b 14.666419
_cell_length_c 17.779608
_cell_angle_alpha 90.000000
_cell_angle_beta 90.000000
_cell_angle_gamma 90.000000
_cell_volume 2588.593486
_symmetry_space_group_name_H-M "A B M 2"
_symmetry_group_IT_number 39
_symmetry_cell_setting 'orthorhombic'
loop_
_space_group_symop_operation_xyz
x,y,z
-x,-y,z
-x,1/2+y,z
x,1/2-y,z
x,1/2+y,1/2+z
-x,1/2-y,1/2+z
-x,y,1/2+z
x,-y,1/2+z
loop_
_atom_site_type_symbol
_atom_site_label
_atom_site_fract_x
_atom_site_fract_y
_atom_site_fract_z
Si Si1 0.861292 0.951515 0.038160
Si Si2 0.486075 0.750000 0.057171
Si Si3 0.874534 0.058646 0.716838
Si Si4 0.379455 0.070755 0.477824
Si Si5 0.439350 0.750000 0.720114
Si Si6 0.194237 0.250000 0.034009
Si Si7 0.871477 0.750000 0.194341
Si Si8 0.611513 0.575393 0.308043
O O1 0.843354 0.945677 0.128279
O O2 0.846309 0.849986 0.998623
O O3 0.000000 0.000000 0.015400
O O4 0.749124 0.020775 0.010748
O O5 0.463133 0.750000 0.147475
O O6 0.644412 0.750000 0.038678
O O7 0.414098 0.660551 0.025163
O O8 0.924424 0.161098 0.737164
O O9 0.740180 0.035924 0.762977
O O10 0.000000 0.000000 0.744024
O O11 0.346293 0.101213 0.392635
O O12 0.500000 0.000000 0.482122
O O13 0.289080 0.750000 0.690568
O O14 0.462024 0.838963 0.770197
O O15 0.095306 0.250000 0.106424
O O16 0.500000 0.500000 0.308996
#
# Coordination Sequence:
#
# PCOD8181793 Si02
#       8
#     8   4   8   8   4   4   4   8
#     4  10  21  36  60  89 121 159 205 253 302 368
#     4  11  21  34  64  89 115 156 203 254 294 357
#     4   9  18  34  57  81 110 153 193 238 289 357
#     4  11  23  37  57  89 119 158 201 247 305 368
#     4   9  19  35  56  83 109 154 187 237 294 347
#     4   9  16  34  55  80 119 152 185 247 314 344
#     4   7  14  29  51  78 103 140 181 218 292 336
#     4  10  22  37  57  83 119 153 190 245 301 359
#
# _framework density 18.542888000000001
#
# number of rings (size 3 to 8) (size 9 to 14) (size 15 to 20)
#    0.000    2.333    1.667    1.500    2.333    1.333 
#    0.000    1.667    0.000    2.000    0.000    0.000 
#    0.000    0.000    0.000    0.000    0.000    0.000 
#
# Total GULP energy -297316.216660 kJ/mol
# GULP energy per Si atom -12388.175694 kJ/mol
# Density = 1.850068 g / cm^3
# Si number density = 18.542888 Si / 1000 Ang^3
#
#
#
# Elastic Constant Matrix: (Units=GPa)
#
#
# Indices 1 2 3 4 5 6 
#
# 1 99.2823 60.5197 38.3073 0.0000 0.0000 0.0000
# 2 60.5197 153.6489 51.9586 0.0000 0.0000 0.0000
# 3 38.3073 51.9586 91.5578 0.0000 0.0000 0.0000
# 4 0.0000 0.0000 0.0000 30.2809 0.0000 0.0000
# 5 0.0000 0.0000 0.0000 0.0000 19.5345 0.0000
# 6 0.0000 0.0000 0.0000 0.0000 0.0000 35.7578
#
#
#
# Elastic Compliance Matrix: (Units=1/GPa)
#
#
# Indices 1 2 3 4 5 6 
#
# 1 0.014056 -0.004390 -0.003390 0.000000 0.000000 0.000000
# 2 -0.004390 0.009425 -0.003512 0.000000 0.000000 0.000000
# 3 -0.003390 -0.003512 0.014333 0.000000 0.000000 0.000000
# 4 0.000000 0.000000 0.000000 0.033024 0.000000 0.000000
# 5 0.000000 0.000000 0.000000 0.000000 0.051191 0.000000
# 6 0.000000 0.000000 0.000000 0.000000 0.000000 0.027966
#
#
# Mechanical properties :
#
#
# Convention : Reuss Voigt Hill
#
# Bulk Modulus (GPa) = 65.65481 71.78446 68.71964
# Shear Modulus (GPa) = 28.14413 30.02821 29.08617
#
# Velocity S-wave (km/s) = 3.90010 4.02853 3.96484
# Velocity P-wave (km/s) = 7.46759 7.77403 7.62235
#
# Compressibility (1/GPa) = 0.01523118
#
# Stress axis : x y z
#
# Youngs Moduli (GPa) = 71.14225 106.09852 69.76794
#
# Poissons Ratio (x) = 0.46580 0.23649
# Poissons Ratio (y) = 0.31234 0.24502
# Poissons Ratio (z) = 0.24115 0.37260
#
# Static dielectric constant tensor:
#      x y z
#    x 3.437920 0.000000 0.000000 
#    y 0.000000 3.260150 0.000000 
#    z 0.000000 0.000000 3.442330 
# 
# 
# High freq. dielectric constant tensor:
#      x y z
#    x 1.702120 0.000000 0.000000 
#    y 0.000000 1.741890 0.000000 
#    z 0.000000 0.000000 1.701620 
# 
# From -- ./inp_files/11649.got.cif
#   From: 2010.03.12/outbox.cif.g09.slc.cpg/sg39_6_cif.got.tgz:11649.got - 2010.04.14 02:53:20.
