data_PCOD8181459
_publ_section_title
;
Structure prediction by ZEFSAII (Michael W. Deem and Ramdas Pophale) SiO2 
 PCOD8181459
Probable space group: A B M 2
;
_chemical_formula_sum "Si O2"
_cell_formula_units_Z 64
_cell_length_a 13.977627
_cell_length_b 8.816720
_cell_length_c 25.554130
_cell_angle_alpha 90.000000
_cell_angle_beta 90.000000
_cell_angle_gamma 90.000000
_cell_volume 3149.209809
_symmetry_space_group_name_H-M "A B M 2"
_symmetry_group_IT_number 39
_symmetry_cell_setting 'orthorhombic'
loop_
_space_group_symop_operation_xyz
x,y,z
-x,-y,z
-x,1/2+y,z
x,1/2-y,z
x,1/2+y,1/2+z
-x,1/2-y,1/2+z
-x,y,1/2+z
x,-y,1/2+z
loop_
_atom_site_type_symbol
_atom_site_label
_atom_site_fract_x
_atom_site_fract_y
_atom_site_fract_z
Si Si1 0.712914 0.573367 0.148290
Si Si2 0.710324 0.577641 0.450944
Si Si3 0.103055 0.928715 0.299851
Si Si4 0.398411 0.071869 0.554673
Si Si5 0.396510 0.071547 0.858575
Si Si6 0.102943 0.929362 0.182861
Si Si7 0.900190 0.076885 0.900243
Si Si8 0.397926 0.427051 0.253478
O O1 0.722419 0.750000 0.135872
O O2 0.640751 0.498835 0.107767
O O3 0.817790 0.497124 0.143863
O O4 0.672451 0.541264 0.205715
O O5 0.678600 0.750000 0.437783
O O6 0.676090 0.532283 0.508717
O O7 0.664743 0.464745 0.409342
O O8 0.825739 0.562274 0.448463
O O9 0.102073 0.750000 0.305888
O O10 0.137097 0.974922 0.241813
O O11 0.156745 0.001792 0.349916
O O12 0.000000 0.000000 0.309360
O O13 0.411608 0.250000 0.562821
O O14 0.500000 0.000000 0.540055
O O15 0.404630 0.250000 0.851695
O O16 0.500000 0.000000 0.866403
O O17 0.350783 0.003578 0.805051
O O18 0.095279 0.750000 0.175816
O O19 0.000000 0.000000 0.169672
O O20 0.922537 0.250000 0.886330
O O21 0.000000 0.000000 0.916993
O O22 0.500000 0.500000 0.240418
O O23 0.412848 0.250000 0.263835
#
# Coordination Sequence:
#
# PCOD8181459 Si02
#       8
#     8   8   8   8   8   8   8   8
#     4  11  24  40  62  90 120 158 204 250 305 363
#     4  10  23  41  61  87 119 158 202 248 302 359
#     4   9  17  30  50  79 114 155 198 239 287 343
#     4  11  24  44  68  91 119 154 200 254 308 365
#     4  11  22  36  58  86 119 155 193 241 298 362
#     4  10  21  37  58  86 123 162 205 252 300 359
#     4  10  20  35  56  83 119 158 199 246 294 350
#     4  10  21  37  57  84 119 156 193 240 298 363
#
# _framework density 20.322557
#
# number of rings (size 3 to 8) (size 9 to 14) (size 15 to 20)
#    0.000    1.750    0.000    5.625    1.750    7.500 
#    0.000    0.625    0.000    1.500    0.000    0.000 
#    0.000    0.000    0.000    0.000    0.000    0.000 
#
# Total GULP energy -396749.564501 kJ/mol
# GULP energy per Si atom -12398.423891 kJ/mol
# Density = 2.027630 g / cm^3
# Si number density = 20.322557 Si / 1000 Ang^3
#
#
#
# Elastic Constant Matrix: (Units=GPa)
#
#
# Indices 1 2 3 4 5 6 
#
# 1 83.9003 45.7326 38.9878 0.0000 0.0000 0.0000
# 2 45.7326 122.3216 46.2116 0.0000 0.0000 0.0000
# 3 38.9878 46.2116 71.9968 0.0000 0.0000 0.0000
# 4 0.0000 0.0000 0.0000 24.5481 0.0000 0.0000
# 5 0.0000 0.0000 0.0000 0.0000 40.3941 0.0000
# 6 0.0000 0.0000 0.0000 0.0000 0.0000 30.9811
#
#
#
# Elastic Compliance Matrix: (Units=1/GPa)
#
#
# Indices 1 2 3 4 5 6 
#
# 1 0.017194 -0.003843 -0.006845 0.000000 0.000000 0.000000
# 2 -0.003843 0.011651 -0.005397 0.000000 0.000000 0.000000
# 3 -0.006845 -0.005397 0.021060 0.000000 0.000000 0.000000
# 4 0.000000 0.000000 0.000000 0.040736 0.000000 0.000000
# 5 0.000000 0.000000 0.000000 0.000000 0.024756 0.000000
# 6 0.000000 0.000000 0.000000 0.000000 0.000000 0.032278
#
#
# Mechanical properties :
#
#
# Convention : Reuss Voigt Hill
#
# Bulk Modulus (GPa) = 56.38170 60.00918 58.19544
# Shear Modulus (GPa) = 26.91698 29.00379 27.96038
#
# Velocity S-wave (km/s) = 3.64330 3.78189 3.71324
# Velocity P-wave (km/s) = 6.74550 6.97587 6.86165
#
# Compressibility (1/GPa) = 0.01773625
#
# Stress axis : x y z
#
# Youngs Moduli (GPa) = 58.15968 85.83061 47.48267
#
# Poissons Ratio (x) = 0.32981 0.32500
# Poissons Ratio (y) = 0.22348 0.25628
# Poissons Ratio (z) = 0.39808 0.46326
#
# Static dielectric constant tensor:
#      x y z
#    x 3.620500 0.000000 0.000000 
#    y 0.000000 3.795000 0.000000 
#    z 0.000000 0.000000 3.719690 
# 
# 
# High freq. dielectric constant tensor:
#      x y z
#    x 1.796770 0.000000 0.000000 
#    y 0.000000 1.806930 0.000000 
#    z 0.000000 0.000000 1.780140 
# 
# From -- ./inp_files/16246.got.cif
#   From: 2010.03.12/outbox.cif.g09.slc.cpg/sg39_9_cif.got.tgz:16246.got - 2010.04.14 02:53:20.
