data_PCOD8181145
_publ_section_title
;
Structure prediction by ZEFSAII (Michael W. Deem and Ramdas Pophale) SiO2 
 PCOD8181145
Probable space group: A B M 2
;
_chemical_formula_sum "Si O2"
_cell_formula_units_Z 56
_cell_length_a 15.286769
_cell_length_b 8.529502
_cell_length_c 20.073437
_cell_angle_alpha 90.000000
_cell_angle_beta 90.000000
_cell_angle_gamma 90.000000
_cell_volume 2617.345877
_symmetry_space_group_name_H-M "A B M 2"
_symmetry_group_IT_number 39
_symmetry_cell_setting 'orthorhombic'
loop_
_space_group_symop_operation_xyz
x,y,z
-x,-y,z
-x,1/2+y,z
x,1/2-y,z
x,1/2+y,1/2+z
-x,1/2-y,1/2+z
-x,y,1/2+z
x,-y,1/2+z
loop_
_atom_site_type_symbol
_atom_site_label
_atom_site_fract_x
_atom_site_fract_y
_atom_site_fract_z
Si Si1 0.229639 0.066143 0.437120
Si Si2 0.628376 0.928993 0.612168
Si Si3 0.826972 0.928762 0.580096
Si Si4 0.411260 0.934803 0.753559
Si Si5 0.233790 0.567298 0.300881
Si Si6 0.092707 0.432526 0.201986
Si Si7 0.589475 0.068032 0.477104
O O1 0.217964 0.250000 0.426388
O O2 0.176845 0.011717 0.503356
O O3 0.192016 0.975075 0.372886
O O4 0.331800 0.029153 0.445205
O O5 0.601154 0.750000 0.595968
O O6 0.732611 0.944521 0.613765
O O7 0.591880 0.980274 0.682613
O O8 0.587986 0.043067 0.556702
O O9 0.860191 0.750000 0.582718
O O10 0.893103 0.034604 0.623189
O O11 0.415323 0.750000 0.744349
O O12 0.500000 0.000000 0.788736
O O13 0.326356 0.978325 0.796584
O O14 0.251729 0.750000 0.294096
O O15 0.168200 0.517173 0.243227
O O16 0.096023 0.250000 0.217022
O O17 0.000000 0.500000 0.225276
O O18 0.600143 0.250000 0.459462
O O19 0.500000 0.000000 0.446048
#
# Coordination Sequence:
#
# PCOD8181145 Si02
#       7
#     8   8   8   8   8   8   8
#     4  10  22  41  64  90 124 167 212 259 321 382
#     4  10  19  34  56  84 121 162 206 263 322 375
#     4   9  19  38  65  94 127 161 203 258 315 376
#     4  12  24  38  58  87 124 170 220 269 323 380
#     4  12  25  44  66  94 133 172 216 267 324 386
#     4  12  25  43  71 102 133 168 212 262 321 385
#     4  11  21  34  53  81 118 162 215 268 320 376
#
# _framework density 21.395717999999999
#
# number of rings (size 3 to 8) (size 9 to 14) (size 15 to 20)
#    0.000    1.143    1.429    7.286    0.000    3.429 
#    0.000    3.571    0.000    3.429    0.000    0.000 
#    0.000    0.000    0.000    0.000    0.000    0.000 
#
# Total GULP energy -347299.039136 kJ/mol
# GULP energy per Si atom -12403.537112 kJ/mol
# Density = 2.134702 g / cm^3
# Si number density = 21.395718 Si / 1000 Ang^3
#
#
#
# Elastic Constant Matrix: (Units=GPa)
#
#
# Indices 1 2 3 4 5 6 
#
# 1 77.1726 24.0368 25.7246 0.0000 0.0000 0.0000
# 2 24.0368 95.3246 14.0586 0.0000 0.0000 0.0000
# 3 25.7246 14.0586 98.3788 0.0000 0.0000 0.0000
# 4 0.0000 0.0000 0.0000 36.2678 0.0000 0.0000
# 5 0.0000 0.0000 0.0000 0.0000 3.5584 0.0000
# 6 0.0000 0.0000 0.0000 0.0000 0.0000 33.2095
#
#
#
# Elastic Compliance Matrix: (Units=1/GPa)
#
#
# Indices 1 2 3 4 5 6 
#
# 1 0.015151 -0.003306 -0.003489 0.000000 0.000000 0.000000
# 2 -0.003306 0.011438 -0.000770 0.000000 0.000000 0.000000
# 3 -0.003489 -0.000770 0.011187 0.000000 0.000000 0.000000
# 4 0.000000 0.000000 0.000000 0.027573 0.000000 0.000000
# 5 0.000000 0.000000 0.000000 0.000000 0.281021 0.000000
# 6 0.000000 0.000000 0.000000 0.000000 0.000000 0.030112
#
#
# Mechanical properties :
#
#
# Convention : Reuss Voigt Hill
#
# Bulk Modulus (GPa) = 44.15916 44.27955 44.21936
# Shear Modulus (GPa) = 12.52630 28.41087 20.46859
#
# Velocity S-wave (km/s) = 2.42225 3.64796 3.09636
# Velocity P-wave (km/s) = 5.33921 6.20354 5.78753
#
# Compressibility (1/GPa) = 0.02264536
#
# Stress axis : x y z
#
# Youngs Moduli (GPa) = 66.00346 87.43083 89.38766
#
# Poissons Ratio (x) = 0.28903 0.31190
# Poissons Ratio (y) = 0.21819 0.06883
# Poissons Ratio (z) = 0.23030 0.06733
#
# Static dielectric constant tensor:
#      x y z
#    x 3.766760 0.000000 0.000000 
#    y 0.000000 3.828540 0.000000 
#    z 0.000000 0.000000 3.972530 
# 
# 
# High freq. dielectric constant tensor:
#      x y z
#    x 1.820960 0.000000 0.000000 
#    y 0.000000 1.845270 0.000000 
#    z 0.000000 0.000000 1.842540 
# 
# From -- ./inp_files/14797.got.cif
#   From: 2010.03.12/outbox.cif.g09.slc.cpg/sg39_8_cif.got.tgz:14797.got - 2010.04.14 02:53:20.
