data_PCOD8181967
_publ_section_title
;
Structure prediction by ZEFSAII (Michael W. Deem and Ramdas Pophale) SiO2 
 PCOD8181967
Probable space group: A B M 2
;
_chemical_formula_sum "Si O2"
_cell_formula_units_Z 64
_cell_length_a 20.597958
_cell_length_b 16.099909
_cell_length_c 9.576427
_cell_angle_alpha 90.000000
_cell_angle_beta 90.000000
_cell_angle_gamma 90.000000
_cell_volume 3175.784992
_symmetry_space_group_name_H-M "A B M 2"
_symmetry_group_IT_number 39
_symmetry_cell_setting 'orthorhombic'
loop_
_space_group_symop_operation_xyz
x,y,z
-x,-y,z
-x,1/2+y,z
x,1/2-y,z
x,1/2+y,1/2+z
-x,1/2-y,1/2+z
-x,y,1/2+z
x,-y,1/2+z
loop_
_atom_site_type_symbol
_atom_site_label
_atom_site_fract_x
_atom_site_fract_y
_atom_site_fract_z
Si Si1 0.621016 0.931299 0.950810
Si Si2 0.928292 0.845802 0.287418
Si Si3 0.578223 0.079964 0.139811
Si Si4 0.246909 0.005600 0.448451
Si Si5 0.559283 0.843109 0.173376
Si Si6 0.965775 0.414873 0.087540
Si Si7 0.657816 0.655809 0.414856
Si Si8 0.845477 0.001218 0.706007
O O1 0.611612 0.938789 0.786706
O O2 0.697568 0.938202 0.978266
O O3 0.594370 0.846638 0.020860
O O4 0.582099 0.001503 0.037209
O O5 0.905748 0.750000 0.279648
O O6 0.946247 0.866704 0.447379
O O7 0.869958 0.904700 0.234467
O O8 0.989164 0.857743 0.184147
O O9 0.504249 0.100479 0.174440
O O10 0.617883 0.152928 0.060983
O O11 0.279939 0.095138 0.415261
O O12 0.199818 0.971241 0.330262
O O13 0.200643 0.008957 0.577352
O O14 0.537262 0.750000 0.204976
O O15 0.609223 0.874232 0.291953
O O16 0.904874 0.437867 0.185702
O O17 0.000000 0.500000 0.038717
O O18 0.681998 0.750000 0.390383
#
# Coordination Sequence:
#
# PCOD8181967 Si02
#       8
#     8   8   8   8   8   8   8   8
#     4  11  23  39  60  86 120 156 207 255 310 368
#     4  11  23  40  66 100 134 162 200 260 314 355
#     4  11  22  38  61  89 117 153 202 261 322 389
#     4  11  22  40  61  86 121 167 215 254 291 363
#     4  11  23  39  60  87 119 153 197 259 330 391
#     4  10  21  40  66  97 130 167 206 249 306 367
#     4  10  22  40  61  88 123 163 205 262 326 379
#     4  11  22  40  65  91 123 171 218 248 295 371
#
# _framework density 20.152497
#
# number of rings (size 3 to 8) (size 9 to 14) (size 15 to 20)
#    0.000    1.250    1.250    6.750    1.750    4.500 
#    0.000    0.625    0.000    2.250    0.000    0.000 
#    0.000    0.000    0.000    0.000    0.000    0.000 
#
# Total GULP energy -396682.989713 kJ/mol
# GULP energy per Si atom -12396.343429 kJ/mol
# Density = 2.010663 g / cm^3
# Si number density = 20.152497 Si / 1000 Ang^3
#
#
#
# Elastic Constant Matrix: (Units=GPa)
#
#
# Indices 1 2 3 4 5 6 
#
# 1 99.3845 18.3494 8.3297 0.0000 0.0000 0.0000
# 2 18.3494 53.8663 10.1131 0.0000 0.0000 0.0000
# 3 8.3297 10.1131 87.7704 0.0000 0.0000 0.0000
# 4 0.0000 0.0000 0.0000 17.7670 0.0000 0.0000
# 5 0.0000 0.0000 0.0000 0.0000 48.5369 0.0000
# 6 0.0000 0.0000 0.0000 0.0000 0.0000 20.4700
#
#
#
# Elastic Compliance Matrix: (Units=1/GPa)
#
#
# Indices 1 2 3 4 5 6 
#
# 1 0.010769 -0.003554 -0.000613 0.000000 0.000000 0.000000
# 2 -0.003554 0.020148 -0.001984 0.000000 0.000000 0.000000
# 3 -0.000613 -0.001984 0.011680 0.000000 0.000000 0.000000
# 4 0.000000 0.000000 0.000000 0.056284 0.000000 0.000000
# 5 0.000000 0.000000 0.000000 0.000000 0.020603 0.000000
# 6 0.000000 0.000000 0.000000 0.000000 0.000000 0.048852
#
#
# Mechanical properties :
#
#
# Convention : Reuss Voigt Hill
#
# Bulk Modulus (GPa) = 33.00730 34.95617 33.98173
# Shear Modulus (GPa) = 26.21433 30.97006 28.59219
#
# Velocity S-wave (km/s) = 3.61057 3.92444 3.77077
# Velocity P-wave (km/s) = 5.81343 6.15779 5.98809
#
# Compressibility (1/GPa) = 0.03029633
#
# Stress axis : x y z
#
# Youngs Moduli (GPa) = 92.85595 49.63391 85.61550
#
# Poissons Ratio (x) = 0.17638 0.05245
# Poissons Ratio (y) = 0.32997 0.16988
# Poissons Ratio (z) = 0.05688 0.09848
#
# Static dielectric constant tensor:
#      x y z
#    x 3.819170 0.000000 0.000000 
#    y 0.000000 3.625970 0.000000 
#    z 0.000000 0.000000 3.927580 
# 
# 
# High freq. dielectric constant tensor:
#      x y z
#    x 1.792710 0.000000 0.000000 
#    y 0.000000 1.771100 0.000000 
#    z 0.000000 0.000000 1.805730 
# 
# From -- ./inp_files/4014.got.cif
#   From: 2010.03.12/outbox.cif.g09.slc.cpg/sg39_3_cif.got.tgz:4014.got - 2010.04.14 02:53:20.
