data_PCOD8181585
_publ_section_title
;
Structure prediction by ZEFSAII (Michael W. Deem and Ramdas Pophale) SiO2 
 PCOD8181585
Probable space group: A B M 2
;
_chemical_formula_sum "Si O2"
_cell_formula_units_Z 64
_cell_length_a 10.697405
_cell_length_b 18.398031
_cell_length_c 13.632027
_cell_angle_alpha 90.000000
_cell_angle_beta 90.000000
_cell_angle_gamma 90.000000
_cell_volume 2682.935440
_symmetry_space_group_name_H-M "A B M 2"
_symmetry_group_IT_number 39
_symmetry_cell_setting 'orthorhombic'
loop_
_space_group_symop_operation_xyz
x,y,z
-x,-y,z
-x,1/2+y,z
x,1/2-y,z
x,1/2+y,1/2+z
-x,1/2-y,1/2+z
-x,y,1/2+z
x,-y,1/2+z
loop_
_atom_site_type_symbol
_atom_site_label
_atom_site_fract_x
_atom_site_fract_y
_atom_site_fract_z
Si Si1 0.124941 0.964775 0.190150
Si Si2 0.674344 0.169988 0.685897
Si Si3 0.722928 0.665154 0.669030
Si Si4 0.453427 0.669449 0.339777
Si Si5 0.619773 0.596626 0.485494
Si Si6 0.286889 0.050065 0.047678
Si Si7 0.072266 0.065978 0.904962
Si Si8 0.841975 0.335780 0.859986
O O1 0.146991 0.879867 0.158880
O O2 0.128678 0.971201 0.307306
O O3 0.236795 0.009627 0.144089
O O4 0.000000 0.000000 0.146009
O O5 0.689003 0.250000 0.640081
O O6 0.565159 0.169115 0.763740
O O7 0.639399 0.117254 0.595478
O O8 0.802292 0.149789 0.746353
O O9 0.750715 0.750000 0.654201
O O10 0.671215 0.647995 0.779414
O O11 0.620302 0.637581 0.590394
O O12 0.438460 0.750000 0.384649
O O13 0.489125 0.614746 0.428608
O O14 0.625568 0.508759 0.493252
O O15 0.743682 0.624680 0.430723
O O16 0.185148 0.087779 0.976404
O O17 0.981433 0.133430 0.879479
O O18 0.000000 0.000000 0.959622
O O19 0.841430 0.250000 0.883800
#
# Coordination Sequence:
#
# PCOD8181585 Si02
#       8
#     8   8   8   8   8   8   8   8
#     4  10  23  39  59  89 133 172 217 273 334 399
#     4   9  19  38  62  90 128 170 219 277 336 403
#     4  10  21  40  67  99 131 171 224 277 334 405
#     4   9  19  39  69  96 128 172 217 276 337 393
#     4  10  20  38  64  97 128 168 222 276 337 411
#     4  11  22  36  64  91 126 175 224 270 340 405
#     4  11  21  37  58  83 123 173 213 273 334 393
#     4  10  20  36  61  91 124 169 223 275 336 408
#
# _framework density 23.854468000000001
#
# number of rings (size 3 to 8) (size 9 to 14) (size 15 to 20)
#    0.000    2.000    1.250    3.750    3.500    1.000 
#    2.250    3.125    0.000    0.000    0.000    0.000 
#    0.000    1.000    0.000    0.000    0.000    0.000 
#
# Total GULP energy -396598.681047 kJ/mol
# GULP energy per Si atom -12393.708783 kJ/mol
# Density = 2.380017 g / cm^3
# Si number density = 23.854468 Si / 1000 Ang^3
#
#
#
# Elastic Constant Matrix: (Units=GPa)
#
#
# Indices 1 2 3 4 5 6 
#
# 1 63.5749 40.0752 9.6682 0.0000 0.0000 0.0000
# 2 40.0752 166.7990 51.0107 0.0000 0.0000 0.0000
# 3 9.6682 51.0107 86.1164 0.0000 0.0000 0.0000
# 4 0.0000 0.0000 0.0000 45.1322 0.0000 0.0000
# 5 0.0000 0.0000 0.0000 0.0000 21.3504 0.0000
# 6 0.0000 0.0000 0.0000 0.0000 0.0000 29.1524
#
#
#
# Elastic Compliance Matrix: (Units=1/GPa)
#
#
# Indices 1 2 3 4 5 6 
#
# 1 0.018570 -0.004670 0.000681 0.000000 0.000000 0.000000
# 2 -0.004670 0.008496 -0.004508 0.000000 0.000000 0.000000
# 3 0.000681 -0.004508 0.014206 0.000000 0.000000 0.000000
# 4 0.000000 0.000000 0.000000 0.022157 0.000000 0.000000
# 5 0.000000 0.000000 0.000000 0.000000 0.046838 0.000000
# 6 0.000000 0.000000 0.000000 0.000000 0.000000 0.034302
#
#
# Mechanical properties :
#
#
# Convention : Reuss Voigt Hill
#
# Bulk Modulus (GPa) = 41.18924 57.55538 49.37231
# Shear Modulus (GPa) = 29.47153 33.50939 31.49046
#
# Velocity S-wave (km/s) = 3.51874 3.75206 3.63727
# Velocity P-wave (km/s) = 5.81490 6.55368 6.19531
#
# Compressibility (1/GPa) = 0.02427819
#
# Stress axis : x y z
#
# Youngs Moduli (GPa) = 53.85138 117.70282 70.39207
#
# Poissons Ratio (x) = 0.54967 -0.04797
# Poissons Ratio (y) = 0.25148 0.31735
# Poissons Ratio (z) = -0.03670 0.53064
#
# Static dielectric constant tensor:
#      x y z
#    x 4.185400 0.000000 0.000000 
#    y 0.000000 4.415830 0.000000 
#    z 0.000000 0.000000 4.427310 
# 
# 
# High freq. dielectric constant tensor:
#      x y z
#    x 1.928840 0.000000 0.000000 
#    y 0.000000 1.949190 0.000000 
#    z 0.000000 0.000000 1.951950 
# 
# From -- ./inp_files/9491.got.cif
#   From: 2010.03.12/outbox.cif.g09.slc.cpg/sg39_5_cif.got.tgz:9491.got - 2010.04.14 02:53:20.
