data_PCOD8181369
_publ_section_title
;
Structure prediction by ZEFSAII (Michael W. Deem and Ramdas Pophale) SiO2 
 PCOD8181369
Probable space group: A B M 2
;
_chemical_formula_sum "Si O2"
_cell_formula_units_Z 64
_cell_length_a 20.070850
_cell_length_b 8.883514
_cell_length_c 19.477693
_cell_angle_alpha 90.000000
_cell_angle_beta 90.000000
_cell_angle_gamma 90.000000
_cell_volume 3472.866370
_symmetry_space_group_name_H-M "A B M 2"
_symmetry_group_IT_number 39
_symmetry_cell_setting 'orthorhombic'
loop_
_space_group_symop_operation_xyz
x,y,z
-x,-y,z
-x,1/2+y,z
x,1/2-y,z
x,1/2+y,1/2+z
-x,1/2-y,1/2+z
-x,y,1/2+z
x,-y,1/2+z
loop_
_atom_site_type_symbol
_atom_site_label
_atom_site_fract_x
_atom_site_fract_y
_atom_site_fract_z
Si Si1 0.568621 0.424199 0.920080
Si Si2 0.431178 0.075326 0.581164
Si Si3 0.328095 0.573130 0.321475
Si Si4 0.932591 0.574064 0.416591
Si Si5 0.185326 0.075735 0.670151
Si Si6 0.932272 0.927255 0.572585
Si Si7 0.324947 0.071777 0.177561
Si Si8 0.825249 0.579417 0.826353
O O1 0.500000 0.500000 0.895954
O O2 0.566542 0.250000 0.899215
O O3 0.629080 0.505949 0.882743
O O4 0.580126 0.446640 0.000512
O O5 0.432365 0.250000 0.601926
O O6 0.500000 0.000000 0.604889
O O7 0.371543 0.990471 0.617997
O O8 0.340608 0.750000 0.313912
O O9 0.348446 0.496547 0.249949
O O10 0.251560 0.537789 0.339217
O O11 0.943189 0.750000 0.413016
O O12 0.919261 0.520209 0.494510
O O13 0.869625 0.531201 0.371055
O O14 0.000000 0.500000 0.387373
O O15 0.204575 0.250000 0.656860
O O16 0.129452 0.015936 0.617986
O O17 0.156877 0.056019 0.746684
O O18 0.250150 0.975275 0.658535
O O19 0.939954 0.750000 0.579017
O O20 0.000000 0.000000 0.601239
O O21 0.330350 0.250000 0.181219
O O22 0.840017 0.750000 0.849183
#
# Coordination Sequence:
#
# PCOD8181369 Si02
#       8
#     8   8   8   8   8   8   8   8
#     4  10  21  37  58  83 111 143 180 222 267 319
#     4  10  21  38  58  81 111 144 179 222 270 318
#     4  10  21  38  58  80 110 144 178 221 272 321
#     4  10  20  34  53  76 104 137 173 215 260 311
#     4   9  19  37  56  76 105 139 175 217 268 317
#     4   9  19  35  54  76 103 136 174 216 262 312
#     4  11  22  36  56  82 110 142 183 224 265 318
#     4   9  19  35  54  76 104 137 171 213 262 312
#
# _framework density 18.428581000000001
#
# number of rings (size 3 to 8) (size 9 to 14) (size 15 to 20)
#    0.000    2.250    0.000    3.375    0.000    7.000 
#    0.000    7.500    0.000    0.000    0.000    0.000 
#    0.000    0.000    0.000    0.000    0.000    0.000 
#
# Total GULP energy -396926.803745 kJ/mol
# GULP energy per Si atom -12403.962617 kJ/mol
# Density = 1.838664 g / cm^3
# Si number density = 18.428581 Si / 1000 Ang^3
#
#
#
# Elastic Constant Matrix: (Units=GPa)
#
#
# Indices 1 2 3 4 5 6 
#
# 1 106.1945 58.0509 62.8062 0.0000 0.0000 0.0000
# 2 58.0509 110.1865 45.9139 0.0000 0.0000 0.0000
# 3 62.8062 45.9139 71.0945 0.0000 0.0000 0.0000
# 4 0.0000 0.0000 0.0000 30.3641 0.0000 0.0000
# 5 0.0000 0.0000 0.0000 0.0000 29.9747 0.0000
# 6 0.0000 0.0000 0.0000 0.0000 0.0000 38.3673
#
#
#
# Elastic Compliance Matrix: (Units=1/GPa)
#
#
# Indices 1 2 3 4 5 6 
#
# 1 0.021317 -0.004629 -0.015842 0.000000 0.000000 0.000000
# 2 -0.004629 0.013422 -0.004579 0.000000 0.000000 0.000000
# 3 -0.015842 -0.004579 0.031018 0.000000 0.000000 0.000000
# 4 0.000000 0.000000 0.000000 0.032934 0.000000 0.000000
# 5 0.000000 0.000000 0.000000 0.000000 0.033361 0.000000
# 6 0.000000 0.000000 0.000000 0.000000 0.000000 0.026064
#
#
# Mechanical properties :
#
#
# Convention : Reuss Voigt Hill
#
# Bulk Modulus (GPa) = 63.86920 69.00195 66.43558
# Shear Modulus (GPa) = 23.42643 27.78818 25.60730
#
# Velocity S-wave (km/s) = 3.56926 3.88736 3.73170
# Velocity P-wave (km/s) = 7.19160 7.59427 7.39568
#
# Compressibility (1/GPa) = 0.01565700
#
# Stress axis : x y z
#
# Youngs Moduli (GPa) = 46.91201 74.50241 32.23963
#
# Poissons Ratio (x) = 0.34489 0.51073
# Poissons Ratio (y) = 0.21717 0.14762
# Poissons Ratio (z) = 0.74317 0.34113
#
# Static dielectric constant tensor:
#      x y z
#    x 3.400770 0.000000 0.000000 
#    y 0.000000 3.432360 0.000000 
#    z 0.000000 0.000000 3.402580 
# 
# 
# High freq. dielectric constant tensor:
#      x y z
#    x 1.719490 0.000000 0.000000 
#    y 0.000000 1.722670 0.000000 
#    z 0.000000 0.000000 1.712720 
# 
# From -- ./inp_files/13231.got.cif
#   From: 2010.03.12/outbox.cif.g09.slc.cpg/sg39_7_cif.got.tgz:13231.got - 2010.04.14 02:53:20.
