data_PCOD8181215
_publ_section_title
;
Structure prediction by ZEFSAII (Michael W. Deem and Ramdas Pophale) SiO2 
 PCOD8181215
Probable space group: A B M 2
;
_chemical_formula_sum "Si O2"
_cell_formula_units_Z 64
_cell_length_a 9.615142
_cell_length_b 18.487385
_cell_length_c 18.648374
_cell_angle_alpha 90.000000
_cell_angle_beta 90.000000
_cell_angle_gamma 90.000000
_cell_volume 3314.913181
_symmetry_space_group_name_H-M "A B M 2"
_symmetry_group_IT_number 39
_symmetry_cell_setting 'orthorhombic'
loop_
_space_group_symop_operation_xyz
x,y,z
-x,-y,z
-x,1/2+y,z
x,1/2-y,z
x,1/2+y,1/2+z
-x,1/2-y,1/2+z
-x,y,1/2+z
x,-y,1/2+z
loop_
_atom_site_type_symbol
_atom_site_label
_atom_site_fract_x
_atom_site_fract_y
_atom_site_fract_z
Si Si1 0.641588 0.043091 0.322880
Si Si2 0.065903 0.388249 0.459820
Si Si3 0.219364 0.039657 0.965772
Si Si4 0.763635 0.670328 0.750022
Si Si5 0.849087 0.466538 0.731375
Si Si6 0.061299 0.168713 0.304659
Si Si7 0.762789 0.168497 0.086670
Si Si8 0.346437 0.015604 0.602981
O O1 0.666673 0.061522 0.405924
O O2 0.641014 0.114743 0.272285
O O3 0.500000 0.000000 0.309958
O O4 0.776277 0.996329 0.302518
O O5 0.148031 0.462699 0.453869
O O6 0.101820 0.345634 0.387050
O O7 0.113855 0.342182 0.529198
O O8 0.900917 0.399981 0.469896
O O9 0.310209 0.037110 0.037550
O O10 0.701768 0.750000 0.763185
O O11 0.817565 0.662252 0.668296
O O12 0.896072 0.655041 0.799969
O O13 0.859450 0.380756 0.745950
O O14 0.761274 0.492157 0.663758
O O15 0.000000 0.500000 0.722676
O O16 0.102024 0.250000 0.283769
O O17 0.697827 0.250000 0.075089
O O18 0.657251 0.100601 0.079356
O O19 0.500000 0.000000 0.631841
#
# Coordination Sequence:
#
# PCOD8181215 Si02
#       8
#     8   8   8   8   8   8   8   8
#     4  12  22  38  63  89 121 163 206 256 310 376
#     4  10  19  35  60  92 116 159 206 262 309 370
#     4  10  21  35  60  88 121 154 210 257 305 364
#     4  10  21  37  58  89 123 158 201 253 315 373
#     4  12  22  38  62  90 120 156 208 261 302 367
#     4  11  21  36  60  90 125 158 199 262 318 361
#     4  10  21  37  60  88 124 165 209 256 319 385
#     4  11  24  40  62  90 124 165 209 261 317 381
#
# _framework density 19.306691000000001
#
# number of rings (size 3 to 8) (size 9 to 14) (size 15 to 20)
#    0.000    1.250    5.000    1.125    5.250    0.000 
#    0.000    1.250    0.000    4.500    0.000    0.000 
#    0.000    0.000    0.000    0.000    0.000    0.000 
#
# Total GULP energy -396588.515183 kJ/mol
# GULP energy per Si atom -12393.391099 kJ/mol
# Density = 1.926275 g / cm^3
# Si number density = 19.306691 Si / 1000 Ang^3
#
#
#
# Elastic Constant Matrix: (Units=GPa)
#
#
# Indices 1 2 3 4 5 6 
#
# 1 107.4853 47.2762 43.3908 0.0000 0.0000 0.0000
# 2 47.2762 143.7257 42.0625 0.0000 0.0000 0.0000
# 3 43.3908 42.0625 111.9961 0.0000 0.0000 0.0000
# 4 0.0000 0.0000 0.0000 28.0396 0.0000 0.0000
# 5 0.0000 0.0000 0.0000 0.0000 15.5290 0.0000
# 6 0.0000 0.0000 0.0000 0.0000 0.0000 22.5252
#
#
#
# Elastic Compliance Matrix: (Units=1/GPa)
#
#
# Indices 1 2 3 4 5 6 
#
# 1 0.012023 -0.002912 -0.003565 0.000000 0.000000 0.000000
# 2 -0.002912 0.008522 -0.002073 0.000000 0.000000 0.000000
# 3 -0.003565 -0.002073 0.011088 0.000000 0.000000 0.000000
# 4 0.000000 0.000000 0.000000 0.035664 0.000000 0.000000
# 5 0.000000 0.000000 0.000000 0.000000 0.064396 0.000000
# 6 0.000000 0.000000 0.000000 0.000000 0.000000 0.044395
#
#
# Mechanical properties :
#
#
# Convention : Reuss Voigt Hill
#
# Bulk Modulus (GPa) = 68.79522 69.85177 69.32349
# Shear Modulus (GPa) = 25.24862 28.58394 26.91628
#
# Velocity S-wave (km/s) = 3.62023 3.85193 3.73787
# Velocity P-wave (km/s) = 7.29280 7.48610 7.39008
#
# Compressibility (1/GPa) = 0.01453589
#
# Stress axis : x y z
#
# Youngs Moduli (GPa) = 83.17203 117.34363 90.18485
#
# Poissons Ratio (x) = 0.34166 0.32148
# Poissons Ratio (y) = 0.24217 0.18691
# Poissons Ratio (z) = 0.29648 0.24320
#
# Static dielectric constant tensor:
#      x y z
#    x 3.264030 0.000000 0.000000 
#    y 0.000000 3.732200 0.000000 
#    z 0.000000 0.000000 3.688280 
# 
# 
# High freq. dielectric constant tensor:
#      x y z
#    x 1.717990 0.000000 0.000000 
#    y 0.000000 1.751410 0.000000 
#    z 0.000000 0.000000 1.767810 
# 
# From -- ./inp_files/14178.got.cif
#   From: 2010.03.12/outbox.cif.g09.slc.cpg/sg39_8_cif.got.tgz:14178.got - 2010.04.14 02:53:20.
