data_PCOD8181925
_publ_section_title
;
Structure prediction by ZEFSAII (Michael W. Deem and Ramdas Pophale) SiO2 
 PCOD8181925
Probable space group: A B M 2
;
_chemical_formula_sum "Si O2"
_cell_formula_units_Z 56
_cell_length_a 17.671842
_cell_length_b 25.238870
_cell_length_c 5.028916
_cell_angle_alpha 90.000000
_cell_angle_beta 90.000000
_cell_angle_gamma 90.000000
_cell_volume 2242.983651
_symmetry_space_group_name_H-M "A B M 2"
_symmetry_group_IT_number 39
_symmetry_cell_setting 'orthorhombic'
loop_
_space_group_symop_operation_xyz
x,y,z
-x,-y,z
-x,1/2+y,z
x,1/2-y,z
x,1/2+y,1/2+z
-x,1/2-y,1/2+z
-x,y,1/2+z
x,-y,1/2+z
loop_
_atom_site_type_symbol
_atom_site_label
_atom_site_fract_x
_atom_site_fract_y
_atom_site_fract_z
Si Si1 0.155141 0.147128 0.602060
Si Si2 0.048346 0.187552 0.202782
Si Si3 0.332798 0.352255 0.561020
Si Si4 0.706609 0.750000 0.312822
Si Si5 0.328828 0.969476 0.027043
Si Si6 0.149118 0.030139 0.599797
Si Si7 0.452301 0.187971 0.929390
Si Si8 0.188006 0.250000 0.816051
O O1 0.126995 0.160260 0.301206
O O2 0.244734 0.144876 0.622792
O O3 0.122614 0.089608 0.680714
O O4 0.134338 0.196414 0.812285
O O5 0.065458 0.250000 0.206406
O O6 0.013223 0.168810 0.925167
O O7 0.346122 0.303008 0.351002
O O8 0.357421 0.410034 0.454520
O O9 0.375806 0.341611 0.839181
O O10 0.773053 0.750000 0.527854
O O11 0.745220 0.750000 0.027008
O O12 0.238768 0.971549 0.057088
O O13 0.361562 0.991002 0.304456
O O14 0.115990 0.009841 0.320171
O O15 0.433481 0.250000 0.914252
O O16 0.481266 0.171423 0.220325
#
# Coordination Sequence:
#
# PCOD8181925 Si02
#       8
#     8   8   8   4   8   8   8   4
#     4  10  21  39  63  90 121 156 200 253 298 351
#     4  10  22  39  58  84 121 161 195 235 299 369
#     4  10  21  39  63  90 121 156 200 253 298 351
#     4  10  22  34  52  88 120 142 181 242 299 334
#     4   9  19  34  55  83 115 152 196 243 294 348
#     4   9  19  34  55  83 115 152 196 243 294 348
#     4  10  22  39  58  84 121 161 195 235 299 369
#     4  10  22  34  52  88 120 142 181 242 299 334
#
# _framework density 24.966746000000001
#
# number of rings (size 3 to 8) (size 9 to 14) (size 15 to 20)
#    0.000    2.286    1.429    0.000    0.000   14.857 
#    0.000    0.000    0.000    5.143    0.000    0.000 
#    0.000    0.000    0.000    0.000    0.000    0.000 
#
# Total GULP energy -346949.281056 kJ/mol
# GULP energy per Si atom -12391.045752 kJ/mol
# Density = 2.490992 g / cm^3
# Si number density = 24.966746 Si / 1000 Ang^3
#
#
#
# Elastic Constant Matrix: (Units=GPa)
#
#
# Indices 1 2 3 4 5 6 
#
# 1 53.2722 5.7583 -13.5591 0.0000 0.0000 0.0000
# 2 5.7583 215.0182 51.2705 0.0000 0.0000 0.0000
# 3 -13.5591 51.2705 62.5112 0.0000 0.0000 0.0000
# 4 0.0000 0.0000 0.0000 31.5595 0.0000 0.0000
# 5 0.0000 0.0000 0.0000 0.0000 -13.3159 0.0000
# 6 0.0000 0.0000 0.0000 0.0000 0.0000 9.8713
#
#
#
# Elastic Compliance Matrix: (Units=1/GPa)
#
#
# Indices 1 2 3 4 5 6 
#
# 1 0.020541 -0.002004 0.006099 0.000000 0.000000 0.000000
# 2 -0.002004 0.005977 -0.005337 0.000000 0.000000 0.000000
# 3 0.006099 -0.005337 0.021698 0.000000 0.000000 0.000000
# 4 0.000000 0.000000 0.000000 0.031686 0.000000 0.000000
# 5 0.000000 0.000000 0.000000 0.000000 -0.075098 0.000000
# 6 0.000000 0.000000 0.000000 0.000000 0.000000 0.101303
#
#
# Mechanical properties :
#
#
# Convention : Reuss Voigt Hill
#
# Bulk Modulus (GPa) = 21.86699 46.41566 34.14132
# Shear Modulus (GPa) = 40.37645 24.77844 32.57745
#
# Velocity S-wave (km/s) = 4.02582 3.15375 3.61617
# Velocity P-wave (km/s) = 5.51245 5.64738 5.58032
#
# Compressibility (1/GPa) = 0.04573104
#
# Stress axis : x y z
#
# Youngs Moduli (GPa) = 48.68395 167.30639 46.08824
#
# Poissons Ratio (x) = 0.33536 -0.28111
# Poissons Ratio (y) = 0.09759 0.24598
# Poissons Ratio (z) = -0.29695 0.89292
#
# Static dielectric constant tensor:
#      x y z
#    x 4.638690 0.000000 0.000000 
#    y 0.000000 5.499810 0.000000 
#    z 0.000000 0.000000 4.899200 
# 
# 
# High freq. dielectric constant tensor:
#      x y z
#    x 1.974220 0.000000 0.000000 
#    y 0.000000 1.986430 0.000000 
#    z 0.000000 0.000000 2.000220 
# 
# From -- ./inp_files/1106.got.cif
#   From: 2010.03.12/outbox.cif.g09.slc.cpg/sg39_1_cif.got.tgz:1106.got - 2010.04.14 02:53:20.
