data_PCOD8181371
_publ_section_title
;
Structure prediction by ZEFSAII (Michael W. Deem and Ramdas Pophale) SiO2 
 PCOD8181371
Probable space group: A B M 2
;
_chemical_formula_sum "Si O2"
_cell_formula_units_Z 64
_cell_length_a 20.246376
_cell_length_b 8.596204
_cell_length_c 19.793953
_cell_angle_alpha 90.000000
_cell_angle_beta 90.000000
_cell_angle_gamma 90.000000
_cell_volume 3444.978740
_symmetry_space_group_name_H-M "A B M 2"
_symmetry_group_IT_number 39
_symmetry_cell_setting 'orthorhombic'
loop_
_space_group_symop_operation_xyz
x,y,z
-x,-y,z
-x,1/2+y,z
x,1/2-y,z
x,1/2+y,1/2+z
-x,1/2-y,1/2+z
-x,y,1/2+z
x,-y,1/2+z
loop_
_atom_site_type_symbol
_atom_site_label
_atom_site_fract_x
_atom_site_fract_y
_atom_site_fract_z
Si Si1 0.929644 0.066988 0.371550
Si Si2 0.930076 0.932002 0.515273
Si Si3 0.822018 0.567067 0.761901
Si Si4 0.172469 0.067562 0.116998
Si Si5 0.429747 0.065995 0.862418
Si Si6 0.569373 0.933546 0.017068
Si Si7 0.320901 0.566594 0.616925
Si Si8 0.317213 0.566085 0.768690
O O1 0.936033 0.250000 0.377463
O O2 0.874988 0.016610 0.317706
O O3 0.907416 0.002692 0.444065
O O4 0.000000 0.000000 0.348357
O O5 0.938133 0.750000 0.506427
O O6 0.876172 0.968843 0.571317
O O7 0.000000 0.000000 0.539273
O O8 0.824207 0.750000 0.746685
O O9 0.840404 0.471977 0.694952
O O10 0.750218 0.519457 0.789979
O O11 0.160741 0.250000 0.105266
O O12 0.246794 0.015894 0.097102
O O13 0.427733 0.250000 0.851542
O O14 0.500000 0.000000 0.838051
O O15 0.373969 0.983553 0.819248
O O16 0.416846 0.017637 0.939944
O O17 0.566391 0.750000 0.024036
O O18 0.626961 0.006820 0.064115
O O19 0.500000 0.000000 0.042884
O O20 0.326231 0.750000 0.612755
O O21 0.337451 0.511956 0.693079
O O22 0.305325 0.750000 0.771510
#
# Coordination Sequence:
#
# PCOD8181371 Si02
#       8
#     8   8   8   8   8   8   8   8
#     4  10  21  37  57  80 108 141 178 222 270 321
#     4  11  22  37  57  81 110 142 179 222 268 322
#     4  10  21  37  56  80 110 144 183 224 269 323
#     4  10  20  36  57  80 109 144 181 223 271 320
#     4  10  20  34  53  76 104 138 174 217 265 318
#     4   9  18  34  53  74 101 133 171 212 257 308
#     4   8  17  34  54  75 101 135 172 212 259 309
#     4  10  20  35  55  78 106 139 176 220 268 319
#
# _framework density 18.577763000000001
#
# number of rings (size 3 to 8) (size 9 to 14) (size 15 to 20)
#    0.000    2.250    0.000    4.500    0.000    4.500 
#    0.000    8.750    0.000    0.000    0.000    0.000 
#    0.000    0.000    0.000    0.000    0.000    0.000 
#
# Total GULP energy -396851.990909 kJ/mol
# GULP energy per Si atom -12401.624716 kJ/mol
# Density = 1.853548 g / cm^3
# Si number density = 18.577763 Si / 1000 Ang^3
#
#
#
# Elastic Constant Matrix: (Units=GPa)
#
#
# Indices 1 2 3 4 5 6 
#
# 1 142.0627 25.1025 89.1875 0.0000 0.0000 0.0000
# 2 25.1025 48.8186 20.2047 0.0000 0.0000 0.0000
# 3 89.1875 20.2047 95.3362 0.0000 0.0000 0.0000
# 4 0.0000 0.0000 0.0000 27.6630 0.0000 0.0000
# 5 0.0000 0.0000 0.0000 0.0000 35.8150 0.0000
# 6 0.0000 0.0000 0.0000 0.0000 0.0000 33.1037
#
#
#
# Elastic Compliance Matrix: (Units=1/GPa)
#
#
# Indices 1 2 3 4 5 6 
#
# 1 0.017312 -0.002410 -0.015684 0.000000 0.000000 0.000000
# 2 -0.002410 0.022789 -0.002575 0.000000 0.000000 0.000000
# 3 -0.015684 -0.002575 0.025708 0.000000 0.000000 0.000000
# 4 0.000000 0.000000 0.000000 0.036149 0.000000 0.000000
# 5 0.000000 0.000000 0.000000 0.000000 0.027921 0.000000
# 6 0.000000 0.000000 0.000000 0.000000 0.000000 0.030208
#
#
# Mechanical properties :
#
#
# Convention : Reuss Voigt Hill
#
# Bulk Modulus (GPa) = 40.86741 61.68967 51.27854
# Shear Modulus (GPa) = 23.85690 29.43119 26.64405
#
# Velocity S-wave (km/s) = 3.58741 3.98454 3.79118
# Velocity P-wave (km/s) = 6.26140 7.37882 6.84296
#
# Compressibility (1/GPa) = 0.02446938
#
# Stress axis : x y z
#
# Youngs Moduli (GPa) = 57.76406 43.88073 38.89879
#
# Poissons Ratio (x) = 0.10577 0.61011
# Poissons Ratio (y) = 0.13923 0.10016
# Poissons Ratio (z) = 0.90600 0.11298
#
# Static dielectric constant tensor:
#      x y z
#    x 3.553250 0.000000 0.000000 
#    y 0.000000 3.386010 0.000000 
#    z 0.000000 0.000000 3.545260 
# 
# 
# High freq. dielectric constant tensor:
#      x y z
#    x 1.728250 0.000000 0.000000 
#    y 0.000000 1.722490 0.000000 
#    z 0.000000 0.000000 1.720990 
# 
# From -- ./inp_files/15053.got.cif
#   From: 2010.03.12/outbox.cif.g09.slc.cpg/sg39_8_cif.got.tgz:15053.got - 2010.04.14 02:53:20.
