data_PCOD8181911
_publ_section_title
;
Structure prediction by ZEFSAII (Michael W. Deem and Ramdas Pophale) SiO2 
 PCOD8181911
Probable space group: A B M 2
;
_chemical_formula_sum "Si O2"
_cell_formula_units_Z 44
_cell_length_a 8.680342
_cell_length_b 23.295013
_cell_length_c 10.511642
_cell_angle_alpha 90.000000
_cell_angle_beta 90.000000
_cell_angle_gamma 90.000000
_cell_volume 2125.545251
_symmetry_space_group_name_H-M "A B M 2"
_symmetry_group_IT_number 39
_symmetry_cell_setting 'orthorhombic'
loop_
_space_group_symop_operation_xyz
x,y,z
-x,-y,z
-x,1/2+y,z
x,1/2-y,z
x,1/2+y,1/2+z
-x,1/2-y,1/2+z
-x,y,1/2+z
x,-y,1/2+z
loop_
_atom_site_type_symbol
_atom_site_label
_atom_site_fract_x
_atom_site_fract_y
_atom_site_fract_z
Si Si1 0.227725 0.913370 0.582550
Si Si2 0.536701 0.125834 0.010087
Si Si3 0.000000 0.500000 0.474491
Si Si4 0.089945 0.683090 0.415797
Si Si5 0.396048 0.814981 0.274439
Si Si6 0.826144 0.397830 0.864389
O O1 0.394667 0.919450 0.514397
O O2 0.139054 0.856215 0.535088
O O3 0.258137 0.903954 0.730742
O O4 0.133069 0.971943 0.561335
O O5 0.551123 0.150811 0.151003
O O6 0.497940 0.171630 0.899573
O O7 0.698752 0.097172 0.975152
O O8 0.059419 0.450742 0.381685
O O9 0.080191 0.750000 0.457339
O O10 0.214811 0.674515 0.303097
O O11 0.922444 0.661715 0.369021
O O12 0.427805 0.750000 0.238904
#
# Coordination Sequence:
#
# PCOD8181911 Si02
#       6
#     8   8   4   8   8   8
#     4  10  22  44  64  93 128 166 216 267 321 386
#     4  11  22  41  63  94 129 168 213 267 322 384
#     4  10  24  44  68  92 120 166 214 272 326 378
#     4   9  22  39  63  95 130 170 213 265 317 386
#     4  10  21  39  61  92 133 173 214 259 316 384
#     4  11  23  42  66  93 126 166 217 263 324 385
#
# _framework density 20.700571
#
# number of rings (size 3 to 8) (size 9 to 14) (size 15 to 20)
#    0.000    1.818    1.818    1.091    5.091    3.636 
#    3.273    1.818    0.000    0.000    0.000    0.000 
#    0.000    0.000    0.000    0.000    0.000    0.000 
#
# Total GULP energy -272750.009364 kJ/mol
# GULP energy per Si atom -12397.727698 kJ/mol
# Density = 2.065346 g / cm^3
# Si number density = 20.700571 Si / 1000 Ang^3
#
#
#
# Elastic Constant Matrix: (Units=GPa)
#
#
# Indices 1 2 3 4 5 6 
#
# 1 122.2483 39.6522 30.3479 0.0000 0.0000 0.0000
# 2 39.6522 99.6527 23.6005 0.0000 0.0000 0.0000
# 3 30.3479 23.6005 109.8014 0.0000 0.0000 0.0000
# 4 0.0000 0.0000 0.0000 18.4338 0.0000 0.0000
# 5 0.0000 0.0000 0.0000 0.0000 30.0479 0.0000
# 6 0.0000 0.0000 0.0000 0.0000 0.0000 24.1384
#
#
#
# Elastic Compliance Matrix: (Units=1/GPa)
#
#
# Indices 1 2 3 4 5 6 
#
# 1 0.009779 -0.003425 -0.001967 0.000000 0.000000 0.000000
# 2 -0.003425 0.011773 -0.001584 0.000000 0.000000 0.000000
# 3 -0.001967 -0.001584 0.009991 0.000000 0.000000 0.000000
# 4 0.000000 0.000000 0.000000 0.054248 0.000000 0.000000
# 5 0.000000 0.000000 0.000000 0.000000 0.033280 0.000000
# 6 0.000000 0.000000 0.000000 0.000000 0.000000 0.041428
#
#
# Mechanical properties :
#
#
# Convention : Reuss Voigt Hill
#
# Bulk Modulus (GPa) = 56.84412 57.65595 57.25004
# Shear Modulus (GPa) = 27.72919 30.39747 29.06333
#
# Velocity S-wave (km/s) = 3.66394 3.83618 3.75105
# Velocity P-wave (km/s) = 6.73937 6.89452 6.81739
#
# Compressibility (1/GPa) = 0.01759197
#
# Stress axis : x y z
#
# Youngs Moduli (GPa) = 102.25599 84.94063 100.08706
#
# Poissons Ratio (x) = 0.29096 0.19684
# Poissons Ratio (y) = 0.35028 0.15851
# Poissons Ratio (z) = 0.20110 0.13452
#
# Static dielectric constant tensor:
#      x y z
#    x 3.988460 0.000000 0.000000 
#    y 0.000000 3.615200 0.000000 
#    z 0.000000 0.000000 3.578330 
# 
# 
# High freq. dielectric constant tensor:
#      x y z
#    x 1.823030 0.000000 0.000000 
#    y 0.000000 1.794530 0.000000 
#    z 0.000000 0.000000 1.808720 
# 
# From -- ./inp_files/5126.got.cif
#   From: 2010.03.12/outbox.cif.g09.slc.cpg/sg39_3_cif.got.tgz:5126.got - 2010.04.14 02:53:20.
