data_PCOD8181554
_publ_section_title
;
Structure prediction by ZEFSAII (Michael W. Deem and Ramdas Pophale) SiO2 
 PCOD8181554
Probable space group: A B M 2
;
_chemical_formula_sum "Si O2"
_cell_formula_units_Z 56
_cell_length_a 8.822223
_cell_length_b 21.248101
_cell_length_c 14.952622
_cell_angle_alpha 90.000000
_cell_angle_beta 90.000000
_cell_angle_gamma 90.000000
_cell_volume 2802.951014
_symmetry_space_group_name_H-M "A B M 2"
_symmetry_group_IT_number 39
_symmetry_cell_setting 'orthorhombic'
loop_
_space_group_symop_operation_xyz
x,y,z
-x,-y,z
-x,1/2+y,z
x,1/2-y,z
x,1/2+y,1/2+z
-x,1/2-y,1/2+z
-x,y,1/2+z
x,-y,1/2+z
loop_
_atom_site_type_symbol
_atom_site_label
_atom_site_fract_x
_atom_site_fract_y
_atom_site_fract_z
Si Si1 0.836174 0.023195 0.803340
Si Si2 0.209132 0.118139 0.462279
Si Si3 0.478555 0.932353 0.056578
Si Si4 0.427036 0.819178 0.832943
Si Si5 0.894266 0.824891 0.008077
Si Si6 0.282788 0.125558 0.172346
Si Si7 0.674338 0.093207 0.388209
O O1 0.848793 0.067380 0.890388
O O2 0.767425 0.060042 0.718551
O O3 0.737836 0.962108 0.826596
O O4 0.000000 0.000000 0.773760
O O5 0.300530 0.083479 0.542638
O O6 0.329658 0.166556 0.421105
O O7 0.070461 0.157712 0.501182
O O8 0.559699 0.881397 0.118950
O O9 0.500000 0.000000 0.103109
O O10 0.567423 0.937195 0.962671
O O11 0.494584 0.750000 0.842042
O O12 0.314785 0.823285 0.748530
O O13 0.569498 0.865534 0.822530
O O14 0.869877 0.750000 0.996139
O O15 0.844900 0.847331 0.106656
O O16 0.803682 0.862671 0.931550
#
# Coordination Sequence:
#
# PCOD8181554 Si02
#       7
#     8   8   8   8   8   8   8
#     4  11  21  40  62  94 126 154 204 256 316 369
#     4  10  21  37  67  89 116 162 207 259 303 359
#     4  10  20  36  58  91 118 150 196 251 303 362
#     4  10  21  40  60  88 123 164 208 251 303 364
#     4  11  22  42  63  91 123 164 212 252 303 367
#     4  10  25  37  60  89 126 167 192 255 318 361
#     4  10  21  37  65  89 116 160 203 252 298 362
#
# _framework density 19.978943999999998
#
# number of rings (size 3 to 8) (size 9 to 14) (size 15 to 20)
#    0.000    1.714    2.857    1.286    2.000    1.143 
#    0.000    2.143    0.000    0.000    0.000    0.000 
#    0.000    0.000    0.000    0.000    0.000    0.000 
#
# Total GULP energy -347182.813990 kJ/mol
# GULP energy per Si atom -12399.386214 kJ/mol
# Density = 1.993347 g / cm^3
# Si number density = 19.978944 Si / 1000 Ang^3
#
#
#
# Elastic Constant Matrix: (Units=GPa)
#
#
# Indices 1 2 3 4 5 6 
#
# 1 104.7287 37.2939 27.9660 0.0000 0.0000 0.0000
# 2 37.2939 130.6338 27.7471 0.0000 0.0000 0.0000
# 3 27.9660 27.7471 63.5294 0.0000 0.0000 0.0000
# 4 0.0000 0.0000 0.0000 20.9923 0.0000 0.0000
# 5 0.0000 0.0000 0.0000 0.0000 21.8140 0.0000
# 6 0.0000 0.0000 0.0000 0.0000 0.0000 31.2289
#
#
#
# Elastic Compliance Matrix: (Units=1/GPa)
#
#
# Indices 1 2 3 4 5 6 
#
# 1 0.011480 -0.002429 -0.003992 0.000000 0.000000 0.000000
# 2 -0.002429 0.008952 -0.002840 0.000000 0.000000 0.000000
# 3 -0.003992 -0.002840 0.018739 0.000000 0.000000 0.000000
# 4 0.000000 0.000000 0.000000 0.047637 0.000000 0.000000
# 5 0.000000 0.000000 0.000000 0.000000 0.045842 0.000000
# 6 0.000000 0.000000 0.000000 0.000000 0.000000 0.032022
#
#
# Mechanical properties :
#
#
# Convention : Reuss Voigt Hill
#
# Bulk Modulus (GPa) = 48.43529 53.87843 51.15686
# Shear Modulus (GPa) = 26.30518 28.53271 27.41895
#
# Velocity S-wave (km/s) = 3.63250 3.78317 3.70860
# Velocity P-wave (km/s) = 6.47219 6.79039 6.63319
#
# Compressibility (1/GPa) = 0.02064610
#
# Stress axis : x y z
#
# Youngs Moduli (GPa) = 87.11071 111.70915 53.36518
#
# Poissons Ratio (x) = 0.27137 0.21306
# Poissons Ratio (y) = 0.21161 0.15158
# Poissons Ratio (z) = 0.34778 0.31730
#
# Static dielectric constant tensor:
#      x y z
#    x 3.709830 0.000000 0.000000 
#    y 0.000000 3.631010 0.000000 
#    z 0.000000 0.000000 3.479300 
# 
# 
# High freq. dielectric constant tensor:
#      x y z
#    x 1.783050 0.000000 0.000000 
#    y 0.000000 1.782960 0.000000 
#    z 0.000000 0.000000 1.766810 
# 
# From -- ./inp_files/8602.got.cif
#   From: 2010.03.12/outbox.cif.g09.slc.cpg/sg39_5_cif.got.tgz:8602.got - 2010.04.14 02:53:20.
