data_PCOD8181496
_publ_section_title
;
Structure prediction by ZEFSAII (Michael W. Deem and Ramdas Pophale) SiO2 
 PCOD8181496
Probable space group: A B M 2
;
_chemical_formula_sum "Si O2"
_cell_formula_units_Z 48
_cell_length_a 7.474179
_cell_length_b 10.004499
_cell_length_c 31.091529
_cell_angle_alpha 90.000000
_cell_angle_beta 90.000000
_cell_angle_gamma 90.000000
_cell_volume 2324.882025
_symmetry_space_group_name_H-M "A B M 2"
_symmetry_group_IT_number 39
_symmetry_cell_setting 'orthorhombic'
loop_
_space_group_symop_operation_xyz
x,y,z
-x,-y,z
-x,1/2+y,z
x,1/2-y,z
x,1/2+y,1/2+z
-x,1/2-y,1/2+z
-x,y,1/2+z
x,-y,1/2+z
loop_
_atom_site_type_symbol
_atom_site_label
_atom_site_fract_x
_atom_site_fract_y
_atom_site_fract_z
Si Si1 0.650822 0.600930 0.060950
Si Si2 0.209916 0.512193 0.740052
Si Si3 0.500000 0.500000 0.424062
Si Si4 0.444439 0.250000 0.364581
Si Si5 0.267233 0.250000 0.787821
Si Si6 0.840226 0.596558 0.976182
Si Si7 0.169019 0.905442 0.650161
Si Si8 0.155310 0.750000 0.799447
O O1 0.500000 0.500000 0.045687
O O2 0.569927 0.750000 0.058395
O O3 0.708273 0.567765 0.109203
O O4 0.816072 0.588527 0.027813
O O5 0.303311 0.377793 0.757382
O O6 0.283562 0.554743 0.692990
O O7 0.240544 0.623511 0.775680
O O8 0.000000 0.500000 0.732578
O O9 0.452323 0.378844 0.393574
O O10 0.336923 0.542730 0.453794
O O11 0.601842 0.250000 0.328557
O O12 0.243271 0.250000 0.346051
O O13 0.059884 0.250000 0.803634
O O14 0.880295 0.750000 0.962120
O O15 0.000000 0.500000 0.961681
O O16 0.108115 0.750000 0.653099
O O17 0.000000 0.000000 0.644552
#
# Coordination Sequence:
#
# PCOD8181496 Si02
#       8
#     8   8   4   4   4   8   8   4
#     4  10  22  41  62  93 135 174 216 267 319 382
#     4   9  18  35  59  84 122 165 213 264 316 373
#     4  12  26  46  68  98 140 166 218 280 342 406
#     4  12  26  42  68  94 126 174 212 272 342 402
#     4  10  22  40  60  91 123 164 221 263 324 396
#     4  11  25  45  74 103 133 178 222 268 336 403
#     4  10  20  35  58  90 127 169 221 265 314 377
#     4  10  20  40  64  85 123 168 207 271 324 378
#
# _framework density 20.646208999999999
#
# number of rings (size 3 to 8) (size 9 to 14) (size 15 to 20)
#    0.000    1.667    2.500    1.500    4.667    2.667 
#    3.000    0.000    0.000    0.000    0.000    0.000 
#    0.000    0.000    0.000    0.000    0.000    0.000 
#
# Total GULP energy -297548.366034 kJ/mol
# GULP energy per Si atom -12397.848585 kJ/mol
# Density = 2.059922 g / cm^3
# Si number density = 20.646209 Si / 1000 Ang^3
#
#
#
# Elastic Constant Matrix: (Units=GPa)
#
#
# Indices 1 2 3 4 5 6 
#
# 1 77.5443 46.3171 31.7941 0.0000 0.0000 0.0000
# 2 46.3171 166.3580 51.1345 0.0000 0.0000 0.0000
# 3 31.7941 51.1345 116.5053 0.0000 0.0000 0.0000
# 4 0.0000 0.0000 0.0000 35.9303 0.0000 0.0000
# 5 0.0000 0.0000 0.0000 0.0000 19.7469 0.0000
# 6 0.0000 0.0000 0.0000 0.0000 0.0000 28.8377
#
#
#
# Elastic Compliance Matrix: (Units=1/GPa)
#
#
# Indices 1 2 3 4 5 6 
#
# 1 0.016236 -0.003651 -0.002828 0.000000 0.000000 0.000000
# 2 -0.003651 0.007770 -0.002414 0.000000 0.000000 0.000000
# 3 -0.002828 -0.002414 0.010415 0.000000 0.000000 0.000000
# 4 0.000000 0.000000 0.000000 0.027832 0.000000 0.000000
# 5 0.000000 0.000000 0.000000 0.000000 0.050641 0.000000
# 6 0.000000 0.000000 0.000000 0.000000 0.000000 0.034677
#
#
# Mechanical properties :
#
#
# Convention : Reuss Voigt Hill
#
# Bulk Modulus (GPa) = 60.11764 68.76656 64.44210
# Shear Modulus (GPa) = 29.25671 32.31377 30.78524
#
# Velocity S-wave (km/s) = 3.76846 3.96045 3.86565
# Velocity P-wave (km/s) = 6.93659 7.36838 7.15574
#
# Compressibility (1/GPa) = 0.01663405
#
# Stress axis : x y z
#
# Youngs Moduli (GPa) = 61.59029 128.70699 96.01955
#
# Poissons Ratio (x) = 0.46992 0.27158
# Poissons Ratio (y) = 0.22487 0.23176
# Poissons Ratio (z) = 0.17420 0.31066
#
# Static dielectric constant tensor:
#      x y z
#    x 3.441030 0.000000 0.000000 
#    y 0.000000 3.896540 0.000000 
#    z 0.000000 0.000000 4.019130 
# 
# 
# High freq. dielectric constant tensor:
#      x y z
#    x 1.785010 0.000000 0.000000 
#    y 0.000000 1.827530 0.000000 
#    z 0.000000 0.000000 1.822440 
# 
# From -- ./inp_files/17722.got.cif
#   From: 2010.03.12/outbox.cif.g09.slc.cpg/sg39_9_cif.got.tgz:17722.got - 2010.04.14 02:53:20.
