data_PCOD8181752
_publ_section_title
;
Structure prediction by ZEFSAII (Michael W. Deem and Ramdas Pophale) SiO2 
 PCOD8181752
Probable space group: A B M 2
;
_chemical_formula_sum "Si O2"
_cell_formula_units_Z 40
_cell_length_a 24.467699
_cell_length_b 13.961423
_cell_length_c 5.181137
_cell_angle_alpha 90.000000
_cell_angle_beta 90.000000
_cell_angle_gamma 90.000000
_cell_volume 1769.896583
_symmetry_space_group_name_H-M "A B M 2"
_symmetry_group_IT_number 39
_symmetry_cell_setting 'orthorhombic'
loop_
_space_group_symop_operation_xyz
x,y,z
-x,-y,z
-x,1/2+y,z
x,1/2-y,z
x,1/2+y,1/2+z
-x,1/2-y,1/2+z
-x,y,1/2+z
x,-y,1/2+z
loop_
_atom_site_type_symbol
_atom_site_label
_atom_site_fract_x
_atom_site_fract_y
_atom_site_fract_z
Si Si1 0.439732 0.457674 0.195300
Si Si2 0.666106 0.750000 0.769428
Si Si3 0.261944 0.436851 0.762167
Si Si4 0.595604 0.250000 0.769789
Si Si5 0.139318 0.941454 0.210317
Si Si6 0.972963 0.640373 0.799611
O O1 0.500000 0.500000 0.147942
O O2 0.408498 0.510849 0.431868
O O3 0.442085 0.343553 0.229044
O O4 0.700921 0.655314 0.724439
O O5 0.617583 0.750000 0.560689
O O6 0.643966 0.750000 0.061474
O O7 0.273865 0.512958 0.535719
O O8 0.199647 0.397899 0.751217
O O9 0.092525 0.864815 0.273354
O O10 0.132309 0.028620 0.412134
O O11 0.990939 0.750000 0.813009
O O12 0.004597 0.590013 0.560128
#
# Coordination Sequence:
#
# PCOD8181752 Si02
#       6
#     8   4   8   4   8   8
#     4  10  23  42  67  96 133 178 211 258 315 351
#     4  12  26  42  69  96 128 177 206 268 334 358
#     4  10  23  43  64  92 127 162 214 267 318 389
#     4  12  26  42  65 104 130 163 232 254 302 400
#     4  10  21  37  58  83 110 151 198 247 305 369
#     4  10  21  35  52  80 114 150 191 242 302 366
#
# _framework density 22.600189
#
# number of rings (size 3 to 8) (size 9 to 14) (size 15 to 20)
#    0.000    1.600    0.000    3.600    1.400   10.400 
#    0.000    0.000    0.000    0.000    0.000    0.000 
#    0.000    0.000    0.000    0.000    0.000    0.000 
#
# Total GULP energy -247957.112452 kJ/mol
# GULP energy per Si atom -12397.855623 kJ/mol
# Density = 2.254875 g / cm^3
# Si number density = 22.600189 Si / 1000 Ang^3
#
#
#
# Elastic Constant Matrix: (Units=GPa)
#
#
# Indices 1 2 3 4 5 6 
#
# 1 70.4434 26.9461 3.2835 0.0000 0.0000 0.0000
# 2 26.9461 102.1210 12.5907 0.0000 0.0000 0.0000
# 3 3.2835 12.5907 150.8584 0.0000 0.0000 0.0000
# 4 0.0000 0.0000 0.0000 20.6734 0.0000 0.0000
# 5 0.0000 0.0000 0.0000 0.0000 22.5826 0.0000
# 6 0.0000 0.0000 0.0000 0.0000 0.0000 39.6422
#
#
#
# Elastic Compliance Matrix: (Units=1/GPa)
#
#
# Indices 1 2 3 4 5 6 
#
# 1 0.015789 -0.004167 0.000004 0.000000 0.000000 0.000000
# 2 -0.004167 0.010994 -0.000827 0.000000 0.000000 0.000000
# 3 0.000004 -0.000827 0.006698 0.000000 0.000000 0.000000
# 4 0.000000 0.000000 0.000000 0.048371 0.000000 0.000000
# 5 0.000000 0.000000 0.000000 0.000000 0.044282 0.000000
# 6 0.000000 0.000000 0.000000 0.000000 0.000000 0.025226
#
#
# Mechanical properties :
#
#
# Convention : Reuss Voigt Hill
#
# Bulk Modulus (GPa) = 42.54999 45.45150 44.00074
# Shear Modulus (GPa) = 29.55561 35.28648 32.42105
#
# Velocity S-wave (km/s) = 3.62022 3.95566 3.79165
# Velocity P-wave (km/s) = 6.02850 6.40451 6.21935
#
# Compressibility (1/GPa) = 0.02350177
#
# Stress axis : x y z
#
# Youngs Moduli (GPa) = 63.33329 90.96100 149.30608
#
# Poissons Ratio (x) = 0.37902 -0.00061
# Poissons Ratio (y) = 0.26390 0.12345
# Poissons Ratio (z) = -0.00026 0.07521
#
# Static dielectric constant tensor:
#      x y z
#    x 4.041620 0.000000 0.000000 
#    y 0.000000 3.759390 0.000000 
#    z 0.000000 0.000000 5.085150 
# 
# 
# High freq. dielectric constant tensor:
#      x y z
#    x 1.885530 0.000000 0.000000 
#    y 0.000000 1.876180 0.000000 
#    z 0.000000 0.000000 1.924210 
# 
# From -- ./inp_files/1223.got.cif
#   From: 2010.03.12/outbox.cif.g09.slc.cpg/sg39_1_cif.got.tgz:1223.got - 2010.04.14 02:53:20.
