data_PCOD8181236
_publ_section_title
;
Structure prediction by ZEFSAII (Michael W. Deem and Ramdas Pophale) SiO2 
 PCOD8181236
Probable space group: A B M 2
;
_chemical_formula_sum "Si O2"
_cell_formula_units_Z 64
_cell_length_a 12.489046
_cell_length_b 18.304387
_cell_length_c 13.519439
_cell_angle_alpha 90.000000
_cell_angle_beta 90.000000
_cell_angle_gamma 90.000000
_cell_volume 3090.602311
_symmetry_space_group_name_H-M "A B M 2"
_symmetry_group_IT_number 39
_symmetry_cell_setting 'orthorhombic'
loop_
_space_group_symop_operation_xyz
x,y,z
-x,-y,z
-x,1/2+y,z
x,1/2-y,z
x,1/2+y,1/2+z
-x,1/2-y,1/2+z
-x,y,1/2+z
x,-y,1/2+z
loop_
_atom_site_type_symbol
_atom_site_label
_atom_site_fract_x
_atom_site_fract_y
_atom_site_fract_z
Si Si1 0.927025 0.830323 0.076930
Si Si2 0.204083 0.926646 0.867632
Si Si3 0.690116 0.163782 0.575337
Si Si4 0.816887 0.922116 0.768417
Si Si5 0.090099 0.440408 0.558695
Si Si6 0.611279 0.664371 0.288036
Si Si7 0.626623 0.165168 0.359687
Si Si8 0.986472 0.331486 0.803443
O O1 0.918469 0.750000 0.030118
O O2 0.810447 0.869543 0.073967
O O3 0.971943 0.828413 0.186664
O O4 0.016402 0.874210 0.014652
O O5 0.319564 0.887674 0.860398
O O6 0.122216 0.862368 0.846345
O O7 0.192264 0.992454 0.791178
O O8 0.177518 0.960952 0.975538
O O9 0.700592 0.250000 0.581864
O O10 0.628206 0.137969 0.674225
O O11 0.629191 0.139868 0.475016
O O12 0.840111 0.916604 0.652320
O O13 0.706901 0.881564 0.793287
O O14 0.912249 0.883205 0.830255
O O15 0.000000 0.500000 0.587803
O O16 0.641739 0.750000 0.302428
O O17 0.489697 0.649846 0.316675
O O18 0.658546 0.250000 0.350452
O O19 0.007764 0.250000 0.844688
#
# Coordination Sequence:
#
# PCOD8181236 Si02
#       8
#     8   8   8   8   8   8   8   8
#     4   9  18  34  58  87 120 156 199 245 305 370
#     4  12  24  38  62  89 123 165 209 253 314 379
#     4   9  18  36  63  91 119 158 205 258 309 367
#     4  11  24  41  60  87 129 162 204 258 316 374
#     4  11  25  40  57  90 129 166 204 255 318 378
#     4  10  22  42  65  92 125 164 214 268 317 369
#     4  10  23  41  65  94 122 165 217 263 316 374
#     4  10  19  36  60  88 121 160 200 249 309 375
#
# _framework density 20.707937000000001
#
# number of rings (size 3 to 8) (size 9 to 14) (size 15 to 20)
#    0.000    1.750    1.250    3.375    3.500    3.000 
#    0.000    1.250    0.000    3.000    0.000    0.000 
#    0.000    0.000    0.000    0.000    0.000    0.000 
#
# Total GULP energy -396690.916946 kJ/mol
# GULP energy per Si atom -12396.591155 kJ/mol
# Density = 2.066080 g / cm^3
# Si number density = 20.707937 Si / 1000 Ang^3
#
#
#
# Elastic Constant Matrix: (Units=GPa)
#
#
# Indices 1 2 3 4 5 6 
#
# 1 134.9131 48.2855 63.8376 0.0000 0.0000 0.0000
# 2 48.2855 84.2710 22.0698 0.0000 0.0000 0.0000
# 3 63.8376 22.0698 98.9102 0.0000 0.0000 0.0000
# 4 0.0000 0.0000 0.0000 13.1183 0.0000 0.0000
# 5 0.0000 0.0000 0.0000 0.0000 29.4581 0.0000
# 6 0.0000 0.0000 0.0000 0.0000 0.0000 30.2829
#
#
#
# Elastic Compliance Matrix: (Units=1/GPa)
#
#
# Indices 1 2 3 4 5 6 
#
# 1 0.012641 -0.005423 -0.006949 0.000000 0.000000 0.000000
# 2 -0.005423 0.014930 0.000169 0.000000 0.000000 0.000000
# 3 -0.006949 0.000169 0.014557 0.000000 0.000000 0.000000
# 4 0.000000 0.000000 0.000000 0.076229 0.000000 0.000000
# 5 0.000000 0.000000 0.000000 0.000000 0.033947 0.000000
# 6 0.000000 0.000000 0.000000 0.000000 0.000000 0.033022
#
#
# Mechanical properties :
#
#
# Convention : Reuss Voigt Hill
#
# Bulk Modulus (GPa) = 56.42663 65.16447 60.79555
# Shear Modulus (GPa) = 23.18694 26.83195 25.00944
#
# Velocity S-wave (km/s) = 3.34984 3.60353 3.47900
# Velocity P-wave (km/s) = 6.50153 6.98932 6.74983
#
# Compressibility (1/GPa) = 0.01772213
#
# Stress axis : x y z
#
# Youngs Moduli (GPa) = 79.10721 66.98073 68.69484
#
# Poissons Ratio (x) = 0.36326 0.47733
# Poissons Ratio (y) = 0.42902 -0.01161
# Poissons Ratio (z) = 0.54968 -0.01132
#
# Static dielectric constant tensor:
#      x y z
#    x 3.683970 0.000000 0.000000 
#    y 0.000000 3.872340 0.000000 
#    z 0.000000 0.000000 3.838640 
# 
# 
# High freq. dielectric constant tensor:
#      x y z
#    x 1.800760 0.000000 0.000000 
#    y 0.000000 1.803640 0.000000 
#    z 0.000000 0.000000 1.816320 
# 
# From -- ./inp_files/9467.got.cif
#   From: 2010.03.12/outbox.cif.g09.slc.cpg/sg39_5_cif.got.tgz:9467.got - 2010.04.14 02:53:20.
