data_PCOD8181015
_publ_section_title
;
Structure prediction by ZEFSAII (Michael W. Deem and Ramdas Pophale) SiO2 
 PCOD8181015
Probable space group: A B M 2
;
_chemical_formula_sum "Si O2"
_cell_formula_units_Z 64
_cell_length_a 14.556633
_cell_length_b 8.855189
_cell_length_c 24.418389
_cell_angle_alpha 90.000000
_cell_angle_beta 90.000000
_cell_angle_gamma 90.000000
_cell_volume 3147.572743
_symmetry_space_group_name_H-M "A B M 2"
_symmetry_group_IT_number 39
_symmetry_cell_setting 'orthorhombic'
loop_
_space_group_symop_operation_xyz
x,y,z
-x,-y,z
-x,1/2+y,z
x,1/2-y,z
x,1/2+y,1/2+z
-x,1/2-y,1/2+z
-x,y,1/2+z
x,-y,1/2+z
loop_
_atom_site_type_symbol
_atom_site_label
_atom_site_fract_x
_atom_site_fract_y
_atom_site_fract_z
Si Si1 0.411868 0.426011 0.682810
Si Si2 0.899254 0.571194 0.538509
Si Si3 0.167460 0.423210 0.821548
Si Si4 0.782800 0.926946 0.942708
Si Si5 0.406874 0.076727 0.413069
Si Si6 0.214372 0.923468 0.144921
Si Si7 0.649548 0.423653 0.791410
Si Si8 0.911615 0.424607 0.726421
O O1 0.500000 0.500000 0.652096
O O2 0.427247 0.250000 0.695262
O O3 0.324086 0.449984 0.643079
O O4 0.407431 0.516934 0.739985
O O5 0.910254 0.750000 0.533163
O O6 0.847275 0.508311 0.485995
O O7 0.834687 0.524223 0.589329
O O8 0.000000 0.500000 0.545098
O O9 0.146745 0.250000 0.808196
O O10 0.164511 0.456836 0.885810
O O11 0.265391 0.464705 0.796654
O O12 0.092482 0.524383 0.790034
O O13 0.774190 0.750000 0.955671
O O14 0.680763 0.995776 0.940579
O O15 0.404622 0.250000 0.432173
O O16 0.408406 0.064057 0.347269
O O17 0.500000 0.000000 0.435440
O O18 0.190957 0.750000 0.157542
O O19 0.179414 0.024030 0.195063
O O20 0.681686 0.250000 0.782212
O O21 0.924758 0.250000 0.721810
O O22 0.000000 0.500000 0.697714
#
# Coordination Sequence:
#
# PCOD8181015 Si02
#       8
#     8   8   8   8   8   8   8   8
#     4  11  22  36  57  85 122 162 203 249 298 357
#     4  11  24  44  69  93 118 153 202 256 311 369
#     4  10  20  36  57  84 122 161 198 245 301 359
#     4  10  22  40  63  90 121 159 203 253 308 362
#     4  10  20  34  55  86 125 165 208 252 298 360
#     4  10  23  43  64  88 121 159 201 253 306 358
#     4  10  19  32  53  84 120 162 207 246 295 354
#     4  12  24  37  59  88 121 159 200 245 302 368
#
# _framework density 20.333127999999999
#
# number of rings (size 3 to 8) (size 9 to 14) (size 15 to 20)
#    0.000    1.500    1.250    4.125    0.000    7.000 
#    0.000    0.625    0.000    1.500    0.000    0.000 
#    0.000    0.000    0.000    0.000    0.000    0.000 
#
# Total GULP energy -396809.543302 kJ/mol
# GULP energy per Si atom -12400.298228 kJ/mol
# Density = 2.028685 g / cm^3
# Si number density = 20.333128 Si / 1000 Ang^3
#
#
#
# Elastic Constant Matrix: (Units=GPa)
#
#
# Indices 1 2 3 4 5 6 
#
# 1 132.7053 60.5804 55.6961 0.0000 0.0000 0.0000
# 2 60.5804 124.0937 53.7192 0.0000 0.0000 0.0000
# 3 55.6961 53.7192 91.7299 0.0000 0.0000 0.0000
# 4 0.0000 0.0000 0.0000 20.4056 0.0000 0.0000
# 5 0.0000 0.0000 0.0000 0.0000 23.7312 0.0000
# 6 0.0000 0.0000 0.0000 0.0000 0.0000 39.9361
#
#
#
# Elastic Compliance Matrix: (Units=1/GPa)
#
#
# Indices 1 2 3 4 5 6 
#
# 1 0.011056 -0.003338 -0.004759 0.000000 0.000000 0.000000
# 2 -0.003338 0.011803 -0.004885 0.000000 0.000000 0.000000
# 3 -0.004759 -0.004885 0.016652 0.000000 0.000000 0.000000
# 4 0.000000 0.000000 0.000000 0.049006 0.000000 0.000000
# 5 0.000000 0.000000 0.000000 0.000000 0.042139 0.000000
# 6 0.000000 0.000000 0.000000 0.000000 0.000000 0.025040
#
#
# Mechanical properties :
#
#
# Convention : Reuss Voigt Hill
#
# Bulk Modulus (GPa) = 73.81313 76.50226 75.15770
# Shear Modulus (GPa) = 26.85656 28.71680 27.78668
#
# Velocity S-wave (km/s) = 3.63826 3.76216 3.70073
# Velocity P-wave (km/s) = 7.35051 7.52183 7.43666
#
# Compressibility (1/GPa) = 0.01354772
#
# Stress axis : x y z
#
# Youngs Moduli (GPa) = 90.44677 84.72697 60.05343
#
# Poissons Ratio (x) = 0.28278 0.28577
# Poissons Ratio (y) = 0.30187 0.29339
# Poissons Ratio (z) = 0.43039 0.41393
#
# Static dielectric constant tensor:
#      x y z
#    x 3.773320 0.000000 0.000000 
#    y 0.000000 3.759710 0.000000 
#    z 0.000000 0.000000 3.595920 
# 
# 
# High freq. dielectric constant tensor:
#      x y z
#    x 1.804670 0.000000 0.000000 
#    y 0.000000 1.807170 0.000000 
#    z 0.000000 0.000000 1.771360 
# 
# From -- ./inp_files/16201.got.cif
#   From: 2010.03.12/outbox.cif.g09.slc.cpg/sg39_9_cif.got.tgz:16201.got - 2010.04.14 02:53:20.
