data_PCOD8181756
_publ_section_title
;
Structure prediction by ZEFSAII (Michael W. Deem and Ramdas Pophale) SiO2 
 PCOD8181756
Probable space group: A B M 2
;
_chemical_formula_sum "Si O2"
_cell_formula_units_Z 64
_cell_length_a 18.581245
_cell_length_b 8.934377
_cell_length_c 21.291620
_cell_angle_alpha 90.000000
_cell_angle_beta 90.000000
_cell_angle_gamma 90.000000
_cell_volume 3534.661182
_symmetry_space_group_name_H-M "A B M 2"
_symmetry_group_IT_number 39
_symmetry_cell_setting 'orthorhombic'
loop_
_space_group_symop_operation_xyz
x,y,z
-x,-y,z
-x,1/2+y,z
x,1/2-y,z
x,1/2+y,1/2+z
-x,1/2-y,1/2+z
-x,y,1/2+z
x,-y,1/2+z
loop_
_atom_site_type_symbol
_atom_site_label
_atom_site_fract_x
_atom_site_fract_y
_atom_site_fract_z
Si Si1 0.197304 0.927166 0.826440
Si Si2 0.578234 0.927368 0.515571
Si Si3 0.423292 0.076373 0.894423
Si Si4 0.786234 0.080759 0.448478
Si Si5 0.576610 0.923113 0.755167
Si Si6 0.073552 0.419038 0.885355
Si Si7 0.288795 0.077264 0.209240
Si Si8 0.294127 0.576346 0.570736
O O1 0.191460 0.750000 0.828615
O O2 0.234061 0.984700 0.761972
O O3 0.242280 0.984511 0.888197
O O4 0.116631 0.997687 0.828665
O O5 0.570648 0.750000 0.513343
O O6 0.500000 0.000000 0.526619
O O7 0.617312 0.991817 0.451549
O O8 0.632424 0.979195 0.570138
O O9 0.431017 0.250000 0.911726
O O10 0.390327 0.052956 0.825389
O O11 0.500000 0.000000 0.893307
O O12 0.757614 0.250000 0.437929
O O13 0.873978 0.077049 0.446780
O O14 0.760364 0.019586 0.516122
O O15 0.565358 0.750000 0.739800
O O16 0.500000 0.000000 0.745376
O O17 0.635126 0.992689 0.709245
O O18 0.056760 0.250000 0.864324
O O19 0.000000 0.500000 0.902755
O O20 0.304581 0.250000 0.223530
O O21 0.256855 0.053010 0.139035
O O22 0.314002 0.750000 0.561233
#
# Coordination Sequence:
#
# PCOD8181756 Si02
#       8
#     8   8   8   8   8   8   8   8
#     4   9  18  33  54  83 112 142 177 217 262 314
#     4  11  22  35  52  75 100 133 177 230 283 332
#     4   9  17  30  47  69  93 122 156 204 265 322
#     4   8  18  34  55  80 107 143 179 215 262 312
#     4  10  21  35  53  74 101 135 178 230 282 334
#     4   9  17  31  55  89 117 145 177 216 261 305
#     4  10  22  37  55  77 106 145 184 225 273 327
#     4  10  21  39  56  74 105 145 185 224 272 329
#
# _framework density 18.106404000000001
#
# number of rings (size 3 to 8) (size 9 to 14) (size 15 to 20)
#    0.750    1.750    0.000    3.000    1.750    4.000 
#    0.000    0.000    0.000    0.750    0.000    1.750 
#    0.000    0.000    0.000    0.000    0.000    0.000 
#
# Total GULP energy -396453.257080 kJ/mol
# GULP energy per Si atom -12389.164284 kJ/mol
# Density = 1.806519 g / cm^3
# Si number density = 18.106404 Si / 1000 Ang^3
#
#
#
# Elastic Constant Matrix: (Units=GPa)
#
#
# Indices 1 2 3 4 5 6 
#
# 1 81.3414 36.4873 51.4275 0.0000 0.0000 0.0000
# 2 36.4873 99.6963 44.5487 0.0000 0.0000 0.0000
# 3 51.4275 44.5487 117.1071 0.0000 0.0000 0.0000
# 4 0.0000 0.0000 0.0000 20.2213 0.0000 0.0000
# 5 0.0000 0.0000 0.0000 0.0000 14.0496 0.0000
# 6 0.0000 0.0000 0.0000 0.0000 0.0000 25.8594
#
#
#
# Elastic Compliance Matrix: (Units=1/GPa)
#
#
# Indices 1 2 3 4 5 6 
#
# 1 0.018085 -0.003699 -0.006535 0.000000 0.000000 0.000000
# 2 -0.003699 0.012841 -0.003261 0.000000 0.000000 0.000000
# 3 -0.006535 -0.003261 0.012649 0.000000 0.000000 0.000000
# 4 0.000000 0.000000 0.000000 0.049453 0.000000 0.000000
# 5 0.000000 0.000000 0.000000 0.000000 0.071177 0.000000
# 6 0.000000 0.000000 0.000000 0.000000 0.000000 0.038671
#
#
# Mechanical properties :
#
#
# Convention : Reuss Voigt Hill
#
# Bulk Modulus (GPa) = 60.28885 62.56355 61.42620
# Shear Modulus (GPa) = 21.24116 23.07148 22.15632
#
# Velocity S-wave (km/s) = 3.42881 3.57349 3.50190
# Velocity P-wave (km/s) = 7.00321 7.18712 7.09576
#
# Compressibility (1/GPa) = 0.01658682
#
# Stress axis : x y z
#
# Youngs Moduli (GPa) = 55.29587 77.87500 79.05553
#
# Poissons Ratio (x) = 0.28803 0.51661
# Poissons Ratio (y) = 0.20452 0.25777
# Poissons Ratio (z) = 0.36135 0.25392
#
# Static dielectric constant tensor:
#      x y z
#    x 3.052960 0.000000 0.000000 
#    y 0.000000 3.342900 0.000000 
#    z 0.000000 0.000000 3.705870 
# 
# 
# High freq. dielectric constant tensor:
#      x y z
#    x 1.672310 0.000000 0.000000 
#    y 0.000000 1.707420 0.000000 
#    z 0.000000 0.000000 1.691100 
# 
# From -- ./inp_files/15063.got.cif
#   From: 2010.03.12/outbox.cif.g09.slc.cpg/sg39_8_cif.got.tgz:15063.got - 2010.04.14 02:53:20.
