data_PCOD8181878
_publ_section_title
;
Structure prediction by ZEFSAII (Michael W. Deem and Ramdas Pophale) SiO2 
 PCOD8181878
Probable space group: A B M 2
;
_chemical_formula_sum "Si O2"
_cell_formula_units_Z 64
_cell_length_a 9.411864
_cell_length_b 29.733339
_cell_length_c 11.502735
_cell_angle_alpha 90.000000
_cell_angle_beta 90.000000
_cell_angle_gamma 90.000000
_cell_volume 3218.996023
_symmetry_space_group_name_H-M "A B M 2"
_symmetry_group_IT_number 39
_symmetry_cell_setting 'orthorhombic'
loop_
_space_group_symop_operation_xyz
x,y,z
-x,-y,z
-x,1/2+y,z
x,1/2-y,z
x,1/2+y,1/2+z
-x,1/2-y,1/2+z
-x,y,1/2+z
x,-y,1/2+z
loop_
_atom_site_type_symbol
_atom_site_label
_atom_site_fract_x
_atom_site_fract_y
_atom_site_fract_z
Si Si1 0.370832 0.845016 0.122700
Si Si2 0.845338 0.092603 0.064028
Si Si3 0.179717 0.544317 0.839445
Si Si4 0.418236 0.700283 0.897177
Si Si5 0.254434 0.300880 0.833121
Si Si6 0.657048 0.874639 0.227295
Si Si7 0.143872 0.556031 0.310034
Si Si8 0.852243 0.872688 0.003811
O O1 0.286697 0.875996 0.030364
O O2 0.248819 0.824291 0.206931
O O3 0.492473 0.873764 0.188624
O O4 0.430541 0.807092 0.036264
O O5 0.801176 0.078785 0.193786
O O6 0.839644 0.050252 0.978041
O O7 0.990051 0.120705 0.052308
O O8 0.297275 0.577336 0.783112
O O9 0.219641 0.492482 0.819950
O O10 0.025023 0.553916 0.786326
O O11 0.355324 0.750000 0.873666
O O12 0.579294 0.697602 0.857415
O O13 0.322209 0.665465 0.821512
O O14 0.195481 0.250000 0.830202
O O15 0.158665 0.327883 0.925588
O O16 0.749319 0.866686 0.112535
O O17 0.189371 0.584508 0.423349
#
# Coordination Sequence:
#
# PCOD8181878 Si02
#       8
#     8   8   8   8   8   8   8   8
#     4  11  21  39  64  88 126 163 203 254 318 372
#     4  11  22  39  65  87 125 162 202 253 317 370
#     4  10  22  38  63  93 119 158 214 260 306 371
#     4  10  21  38  63  93 120 161 213 257 308 377
#     4  10  21  38  62  91 121 161 210 255 309 376
#     4  11  22  38  64  91 124 160 207 263 312 368
#     4  10  22  38  65  92 120 162 211 257 309 376
#     4  11  22  39  64  90 122 161 206 258 311 368
#
# _framework density 19.881974
#
# number of rings (size 3 to 8) (size 9 to 14) (size 15 to 20)
#    0.000    1.500    5.000    0.375    1.750    2.000 
#    0.000    1.875    0.000    0.000    0.000    0.000 
#    0.000    0.000    0.000    0.000    0.000    0.000 
#
# Total GULP energy -396550.492065 kJ/mol
# GULP energy per Si atom -12392.202877 kJ/mol
# Density = 1.983672 g / cm^3
# Si number density = 19.881974 Si / 1000 Ang^3
#
#
#
# Elastic Constant Matrix: (Units=GPa)
#
#
# Indices 1 2 3 4 5 6 
#
# 1 56.8899 48.2977 31.9760 0.0000 0.0000 0.0000
# 2 48.2977 150.7026 45.0876 0.0000 0.0000 0.0000
# 3 31.9760 45.0876 104.0498 0.0000 0.0000 0.0000
# 4 0.0000 0.0000 0.0000 25.5888 0.0000 0.0000
# 5 0.0000 0.0000 0.0000 0.0000 26.4299 0.0000
# 6 0.0000 0.0000 0.0000 0.0000 0.0000 24.9180
#
#
#
# Elastic Compliance Matrix: (Units=1/GPa)
#
#
# Indices 1 2 3 4 5 6 
#
# 1 0.026302 -0.006907 -0.005090 0.000000 0.000000 0.000000
# 2 -0.006907 0.009438 -0.001967 0.000000 0.000000 0.000000
# 3 -0.005090 -0.001967 0.012027 0.000000 0.000000 0.000000
# 4 0.000000 0.000000 0.000000 0.039080 0.000000 0.000000
# 5 0.000000 0.000000 0.000000 0.000000 0.037836 0.000000
# 6 0.000000 0.000000 0.000000 0.000000 0.000000 0.040132
#
#
# Mechanical properties :
#
#
# Convention : Reuss Voigt Hill
#
# Bulk Modulus (GPa) = 50.40433 62.48500 56.44467
# Shear Modulus (GPa) = 25.08081 27.80607 26.44344
#
# Velocity S-wave (km/s) = 3.55559 3.74379 3.65090
# Velocity P-wave (km/s) = 6.50101 7.08407 6.79879
#
# Compressibility (1/GPa) = 0.01983956
#
# Stress axis : x y z
#
# Youngs Moduli (GPa) = 38.01940 105.95995 83.14288
#
# Poissons Ratio (x) = 0.73182 0.42322
# Poissons Ratio (y) = 0.26258 0.16355
# Poissons Ratio (z) = 0.19353 0.20843
#
# Static dielectric constant tensor:
#      x y z
#    x 3.367530 0.000000 0.000000 
#    y 0.000000 3.717470 0.000000 
#    z 0.000000 0.000000 3.751040 
# 
# 
# High freq. dielectric constant tensor:
#      x y z
#    x 1.748820 0.000000 0.000000 
#    y 0.000000 1.774690 0.000000 
#    z 0.000000 0.000000 1.796190 
# 
# From -- ./inp_files/5392.got.cif
#   From: 2010.03.12/outbox.cif.g09.slc.cpg/sg39_3_cif.got.tgz:5392.got - 2010.04.14 02:53:20.
