data_PCOD8181006
_publ_section_title
;
Structure prediction by ZEFSAII (Michael W. Deem and Ramdas Pophale) SiO2 
 PCOD8181006
Probable space group: A B M 2
;
_chemical_formula_sum "Si O2"
_cell_formula_units_Z 64
_cell_length_a 14.604970
_cell_length_b 8.806164
_cell_length_c 24.663973
_cell_angle_alpha 90.000000
_cell_angle_beta 90.000000
_cell_angle_gamma 90.000000
_cell_volume 3172.126330
_symmetry_space_group_name_H-M "A B M 2"
_symmetry_group_IT_number 39
_symmetry_cell_setting 'orthorhombic'
loop_
_space_group_symop_operation_xyz
x,y,z
-x,-y,z
-x,1/2+y,z
x,1/2-y,z
x,1/2+y,1/2+z
-x,1/2-y,1/2+z
-x,y,1/2+z
x,-y,1/2+z
loop_
_atom_site_type_symbol
_atom_site_label
_atom_site_fract_x
_atom_site_fract_y
_atom_site_fract_z
Si Si1 0.174091 0.074637 0.290060
Si Si2 0.898836 0.429352 0.997306
Si Si3 0.792195 0.071058 0.398181
Si Si4 0.408993 0.078023 0.867661
Si Si5 0.350011 0.574817 0.248522
Si Si6 0.409499 0.429451 0.138599
Si Si7 0.088805 0.923688 0.682147
Si Si8 0.780658 0.426897 0.590656
O O1 0.176106 0.250000 0.308674
O O2 0.094975 0.041894 0.246202
O O3 0.158434 0.965261 0.341104
O O4 0.265444 0.036632 0.257263
O O5 0.911237 0.250000 0.995909
O O6 0.849152 0.482917 0.942876
O O7 0.000000 0.500000 0.003803
O O8 0.830241 0.474642 0.045215
O O9 0.796770 0.250000 0.409324
O O10 0.686379 0.012370 0.393136
O O11 0.414423 0.250000 0.886545
O O12 0.411758 0.062555 0.802564
O O13 0.500000 0.000000 0.891976
O O14 0.318878 0.750000 0.240449
O O15 0.402896 0.515288 0.196122
O O16 0.500000 0.500000 0.110475
O O17 0.417506 0.250000 0.149151
O O18 0.326809 0.465026 0.096872
O O19 0.074252 0.750000 0.670670
O O20 0.177772 0.975961 0.648744
O O21 0.000000 0.000000 0.656697
O O22 0.795328 0.250000 0.576471
#
# Coordination Sequence:
#
# PCOD8181006 Si02
#       8
#     8   8   8   8   8   8   8   8
#     4  10  19  35  56  84 123 164 202 248 304 363
#     4  12  26  45  70  96 117 152 202 255 312 370
#     4  10  22  41  62  89 123 159 203 256 307 361
#     4   9  19  33  53  84 121 161 203 245 294 350
#     4  10  19  32  52  82 120 165 211 251 297 355
#     4  11  22  37  58  87 124 163 205 252 305 362
#     4  10  21  36  56  85 119 157 197 238 301 364
#     4  10  22  43  64  87 122 160 200 254 307 358
#
# _framework density 20.175742
#
# number of rings (size 3 to 8) (size 9 to 14) (size 15 to 20)
#    0.000    1.750    1.250    4.125    0.000    8.000 
#    0.000    1.875    0.000    0.000    0.000    0.000 
#    0.000    0.000    0.000    0.000    0.000    0.000 
#
# Total GULP energy -396647.123787 kJ/mol
# GULP energy per Si atom -12395.222618 kJ/mol
# Density = 2.012982 g / cm^3
# Si number density = 20.175742 Si / 1000 Ang^3
#
#
#
# Elastic Constant Matrix: (Units=GPa)
#
#
# Indices 1 2 3 4 5 6 
#
# 1 130.0250 50.5965 56.0411 0.0000 0.0000 0.0000
# 2 50.5965 73.4564 42.5795 0.0000 0.0000 0.0000
# 3 56.0411 42.5795 88.2128 0.0000 0.0000 0.0000
# 4 0.0000 0.0000 0.0000 32.0752 0.0000 0.0000
# 5 0.0000 0.0000 0.0000 0.0000 19.6075 0.0000
# 6 0.0000 0.0000 0.0000 0.0000 0.0000 37.0887
#
#
#
# Elastic Compliance Matrix: (Units=1/GPa)
#
#
# Indices 1 2 3 4 5 6 
#
# 1 0.011913 -0.005302 -0.005009 0.000000 0.000000 0.000000
# 2 -0.005302 0.021262 -0.006895 0.000000 0.000000 0.000000
# 3 -0.005009 -0.006895 0.017846 0.000000 0.000000 0.000000
# 4 0.000000 0.000000 0.000000 0.031177 0.000000 0.000000
# 5 0.000000 0.000000 0.000000 0.000000 0.051001 0.000000
# 6 0.000000 0.000000 0.000000 0.000000 0.000000 0.026962
#
#
# Mechanical properties :
#
#
# Convention : Reuss Voigt Hill
#
# Bulk Modulus (GPa) = 60.20456 65.56983 62.88719
# Shear Modulus (GPa) = 24.98634 27.25275 26.11954
#
# Velocity S-wave (km/s) = 3.52296 3.67927 3.60196
# Velocity P-wave (km/s) = 6.81566 7.11472 6.96679
#
# Compressibility (1/GPa) = 0.01661004
#
# Stress axis : x y z
#
# Youngs Moduli (GPa) = 83.94273 47.03207 56.03396
#
# Poissons Ratio (x) = 0.24937 0.28067
# Poissons Ratio (y) = 0.44507 0.38633
# Poissons Ratio (z) = 0.42046 0.32427
#
# Static dielectric constant tensor:
#      x y z
#    x 3.766020 0.000000 0.000000 
#    y 0.000000 3.633040 0.000000 
#    z 0.000000 0.000000 3.661470 
# 
# 
# High freq. dielectric constant tensor:
#      x y z
#    x 1.793920 0.000000 0.000000 
#    y 0.000000 1.788890 0.000000 
#    z 0.000000 0.000000 1.769990 
# 
# From -- ./inp_files/16264.got.cif
#   From: 2010.03.12/outbox.cif.g09.slc.cpg/sg39_9_cif.got.tgz:16264.got - 2010.04.14 02:53:20.
