data_PCOD8181353
_publ_section_title
;
Structure prediction by ZEFSAII (Michael W. Deem and Ramdas Pophale) SiO2 
 PCOD8181353
Probable space group: A B M 2
;
_chemical_formula_sum "Si O2"
_cell_formula_units_Z 64
_cell_length_a 20.772543
_cell_length_b 8.938029
_cell_length_c 18.596175
_cell_angle_alpha 90.000000
_cell_angle_beta 90.000000
_cell_angle_gamma 90.000000
_cell_volume 3452.669835
_symmetry_space_group_name_H-M "A B M 2"
_symmetry_group_IT_number 39
_symmetry_cell_setting 'orthorhombic'
loop_
_space_group_symop_operation_xyz
x,y,z
-x,-y,z
-x,1/2+y,z
x,1/2-y,z
x,1/2+y,1/2+z
-x,1/2-y,1/2+z
-x,y,1/2+z
x,-y,1/2+z
loop_
_atom_site_type_symbol
_atom_site_label
_atom_site_fract_x
_atom_site_fract_y
_atom_site_fract_z
Si Si1 0.826936 0.571671 0.675580
Si Si2 0.564038 0.080708 0.510626
Si Si3 0.685461 0.585409 0.683667
Si Si4 0.934538 0.578251 0.436361
Si Si5 0.437453 0.416070 0.182260
Si Si6 0.064925 0.078939 0.266009
Si Si7 0.309475 0.917662 0.013237
Si Si8 0.822458 0.071661 0.522243
O O1 0.831231 0.750000 0.664857
O O2 0.756139 0.525057 0.705143
O O3 0.876406 0.514320 0.734213
O O4 0.840850 0.493512 0.599828
O O5 0.564683 0.250000 0.481946
O O6 0.564154 0.077793 0.596550
O O7 0.500000 0.000000 0.481065
O O8 0.627169 0.996497 0.480139
O O9 0.674320 0.750000 0.715900
O O10 0.628540 0.483009 0.714691
O O11 0.682327 0.591477 0.598095
O O12 0.933039 0.750000 0.463630
O O13 0.929629 0.571501 0.351068
O O14 0.875417 0.484220 0.466544
O O15 0.000000 0.500000 0.463421
O O16 0.500000 0.500000 0.212436
O O17 0.442424 0.250000 0.211924
O O18 0.065931 0.250000 0.238486
O O19 0.000000 0.000000 0.238596
O O20 0.302779 0.750000 0.981273
O O21 0.246426 0.013415 0.993848
O O22 0.821156 0.250000 0.525651
#
# Coordination Sequence:
#
# PCOD8181353 Si02
#       8
#     8   8   8   8   8   8   8   8
#     4  10  20  34  52  74 102 133 165 203 247 294
#     4   9  15  22  33  52  79 115 157 197 238 286
#     4   8  15  26  39  57  84 118 153 191 235 281
#     4  10  21  38  57  77 101 129 162 201 246 293
#     4   9  15  21  32  50  76 112 152 192 231 277
#     4  10  21  37  57  78 101 129 162 201 244 293
#     4   9  16  27  41  59  87 122 158 198 244 290
#     4  11  21  33  51  75 102 132 167 205 247 296
#
# _framework density 18.536380999999999
#
# number of rings (size 3 to 8) (size 9 to 14) (size 15 to 20)
#    0.000    2.500    0.000    4.125    0.000    8.500 
#    0.000    2.500    0.000    0.000    0.000    0.000 
#    0.000    1.000    0.000    6.750    0.000   13.500 
#
# Total GULP energy -396737.835783 kJ/mol
# GULP energy per Si atom -12398.057368 kJ/mol
# Density = 1.849419 g / cm^3
# Si number density = 18.536381 Si / 1000 Ang^3
#
#
#
# Elastic Constant Matrix: (Units=GPa)
#
#
# Indices 1 2 3 4 5 6 
#
# 1 171.5983 83.4446 22.7644 0.0000 0.0000 0.0000
# 2 83.4446 162.6409 18.9358 0.0000 0.0000 0.0000
# 3 22.7644 18.9358 10.4115 0.0000 0.0000 0.0000
# 4 0.0000 0.0000 0.0000 17.6993 0.0000 0.0000
# 5 0.0000 0.0000 0.0000 0.0000 -2.6061 0.0000
# 6 0.0000 0.0000 0.0000 0.0000 0.0000 41.7501
#
#
#
# Elastic Compliance Matrix: (Units=1/GPa)
#
#
# Indices 1 2 3 4 5 6 
#
# 1 0.009256 -0.003035 -0.014717 0.000000 0.000000 0.000000
# 2 -0.003035 0.008796 -0.009360 0.000000 0.000000 0.000000
# 3 -0.014717 -0.009360 0.145250 0.000000 0.000000 0.000000
# 4 0.000000 0.000000 0.000000 0.056499 0.000000 0.000000
# 5 0.000000 0.000000 0.000000 0.000000 -0.383718 0.000000
# 6 0.000000 0.000000 0.000000 0.000000 0.000000 0.023952
#
#
# Mechanical properties :
#
#
# Convention : Reuss Voigt Hill
#
# Bulk Modulus (GPa) = 9.16795 66.10448 37.63622
# Shear Modulus (GPa) = -101.25427 26.00240 -37.62594
#
# Velocity S-wave (km/s) = -7.39887 3.74943 -4.51027
# Velocity P-wave (km/s) = 8.24829 7.38131 2.60294
#
# Compressibility (1/GPa) = 0.10907558
#
# Stress axis : x y z
#
# Youngs Moduli (GPa) = 108.03748 113.69279 6.88470
#
# Poissons Ratio (x) = 0.34510 0.10132
# Poissons Ratio (y) = 0.32794 0.06444
# Poissons Ratio (z) = 1.59003 1.06417
#
# Static dielectric constant tensor:
#      x y z
#    x 3.724920 0.000000 0.000000 
#    y 0.000000 3.694670 0.000000 
#    z 0.000000 0.000000 2.726450 
# 
# 
# High freq. dielectric constant tensor:
#      x y z
#    x 1.740900 0.000000 0.000000 
#    y 0.000000 1.738010 0.000000 
#    z 0.000000 0.000000 1.645110 
# 
# From -- ./inp_files/16343.got.cif
#   From: 2010.03.12/outbox.cif.g09.slc.cpg/sg39_9_cif.got.tgz:16343.got - 2010.04.14 02:53:20.
