data_PCOD8181364
_publ_section_title
;
Structure prediction by ZEFSAII (Michael W. Deem and Ramdas Pophale) SiO2 
 PCOD8181364
Probable space group: A B M 2
;
_chemical_formula_sum "Si O2"
_cell_formula_units_Z 64
_cell_length_a 14.225417
_cell_length_b 9.298474
_cell_length_c 25.311204
_cell_angle_alpha 90.000000
_cell_angle_beta 90.000000
_cell_angle_gamma 90.000000
_cell_volume 3348.031159
_symmetry_space_group_name_H-M "A B M 2"
_symmetry_group_IT_number 39
_symmetry_cell_setting 'orthorhombic'
loop_
_space_group_symop_operation_xyz
x,y,z
-x,-y,z
-x,1/2+y,z
x,1/2-y,z
x,1/2+y,1/2+z
-x,1/2-y,1/2+z
-x,y,1/2+z
x,-y,1/2+z
loop_
_atom_site_type_symbol
_atom_site_label
_atom_site_fract_x
_atom_site_fract_y
_atom_site_fract_z
Si Si1 0.772222 0.581878 0.956490
Si Si2 0.097915 0.081775 0.053786
Si Si3 0.408212 0.912272 0.806884
Si Si4 0.594419 0.913007 0.192342
Si Si5 0.095100 0.419099 0.742785
Si Si6 0.208904 0.582580 0.658738
Si Si7 0.599503 0.920407 0.422305
Si Si8 0.092542 0.415745 0.863164
O O1 0.746461 0.750000 0.960089
O O2 0.676498 0.489626 0.961256
O O3 0.822491 0.542390 0.901463
O O4 0.840693 0.534794 0.003627
O O5 0.075627 0.250000 0.052358
O O6 0.156513 0.037977 0.105410
O O7 0.000000 0.000000 0.053280
O O8 0.441229 0.750000 0.813518
O O9 0.355671 0.937297 0.750805
O O10 0.360135 0.954591 0.862662
O O11 0.500000 0.000000 0.797854
O O12 0.560567 0.750000 0.187188
O O13 0.678911 0.946777 0.151429
O O14 0.500000 0.000000 0.179728
O O15 0.081646 0.250000 0.732968
O O16 0.175750 0.480557 0.705841
O O17 0.123066 0.453081 0.803366
O O18 0.000000 0.500000 0.727077
O O19 0.191141 0.750000 0.672934
O O20 0.588792 0.750000 0.433542
O O21 0.500000 0.000000 0.430913
O O22 0.065846 0.250000 0.869118
O O23 0.000000 0.500000 0.880627
#
# Coordination Sequence:
#
# PCOD8181364 Si02
#       8
#     8   8   8   8   8   8   8   8
#     4  10  21  37  56  79 110 144 183 230 279 326
#     4  10  22  40  61  83 108 142 184 232 280 327
#     4   8  15  28  46  71 102 138 175 214 258 308
#     4   9  18  33  52  76 109 144 181 222 268 318
#     4  10  20  34  52  78 109 141 177 220 275 336
#     4  10  21  36  56  81 110 145 184 226 276 328
#     4  10  20  34  54  81 112 147 188 227 272 325
#     4   9  19  34  52  77 108 141 176 221 277 334
#
# _framework density 19.115711000000001
#
# number of rings (size 3 to 8) (size 9 to 14) (size 15 to 20)
#    0.000    2.500    0.000    1.500    1.750    4.000 
#    0.000    0.625    0.000    1.500    0.000    0.000 
#    0.000    0.000    0.000    0.000    0.000    0.000 
#
# Total GULP energy -396539.395682 kJ/mol
# GULP energy per Si atom -12391.856115 kJ/mol
# Density = 1.907220 g / cm^3
# Si number density = 19.115711 Si / 1000 Ang^3
#
#
#
# Elastic Constant Matrix: (Units=GPa)
#
#
# Indices 1 2 3 4 5 6 
#
# 1 139.6434 65.9287 68.1720 0.0000 0.0000 0.0000
# 2 65.9287 74.8815 44.8556 0.0000 0.0000 0.0000
# 3 68.1720 44.8556 85.0588 0.0000 0.0000 0.0000
# 4 0.0000 0.0000 0.0000 22.5411 0.0000 0.0000
# 5 0.0000 0.0000 0.0000 0.0000 28.9966 0.0000
# 6 0.0000 0.0000 0.0000 0.0000 0.0000 35.8492
#
#
#
# Elastic Compliance Matrix: (Units=1/GPa)
#
#
# Indices 1 2 3 4 5 6 
#
# 1 0.014823 -0.008675 -0.007306 0.000000 0.000000 0.000000
# 2 -0.008675 0.024597 -0.006019 0.000000 0.000000 0.000000
# 3 -0.007306 -0.006019 0.020786 0.000000 0.000000 0.000000
# 4 0.000000 0.000000 0.000000 0.044363 0.000000 0.000000
# 5 0.000000 0.000000 0.000000 0.000000 0.034487 0.000000
# 6 0.000000 0.000000 0.000000 0.000000 0.000000 0.027895
#
#
# Mechanical properties :
#
#
# Convention : Reuss Voigt Hill
#
# Bulk Modulus (GPa) = 61.69832 73.05514 67.37673
# Shear Modulus (GPa) = 23.11042 25.51920 24.31481
#
# Velocity S-wave (km/s) = 3.48080 3.65771 3.57035
# Velocity P-wave (km/s) = 6.96426 7.49258 7.23325
#
# Compressibility (1/GPa) = 0.01620790
#
# Stress axis : x y z
#
# Youngs Moduli (GPa) = 67.46224 40.65472 48.10937
#
# Poissons Ratio (x) = 0.35266 0.35147
# Poissons Ratio (y) = 0.58521 0.28957
# Poissons Ratio (z) = 0.49286 0.24470
#
# Static dielectric constant tensor:
#      x y z
#    x 3.281070 0.000000 0.000000 
#    y 0.000000 3.437710 0.000000 
#    z 0.000000 0.000000 3.673040 
# 
# 
# High freq. dielectric constant tensor:
#      x y z
#    x 1.736300 0.000000 0.000000 
#    y 0.000000 1.743020 0.000000 
#    z 0.000000 0.000000 1.735610 
# 
# From -- ./inp_files/16153.got.cif
#   From: 2010.03.12/outbox.cif.g09.slc.cpg/sg39_9_cif.got.tgz:16153.got - 2010.04.14 02:53:20.
