data_PCOD8181465
_publ_section_title
;
Structure prediction by ZEFSAII (Michael W. Deem and Ramdas Pophale) SiO2 
 PCOD8181465
Probable space group: A B M 2
;
_chemical_formula_sum "Si O2"
_cell_formula_units_Z 64
_cell_length_a 14.515638
_cell_length_b 9.129883
_cell_length_c 24.399391
_cell_angle_alpha 90.000000
_cell_angle_beta 90.000000
_cell_angle_gamma 90.000000
_cell_volume 3233.555561
_symmetry_space_group_name_H-M "A B M 2"
_symmetry_group_IT_number 39
_symmetry_cell_setting 'orthorhombic'
loop_
_space_group_symop_operation_xyz
x,y,z
-x,-y,z
-x,1/2+y,z
x,1/2-y,z
x,1/2+y,1/2+z
-x,1/2-y,1/2+z
-x,y,1/2+z
x,-y,1/2+z
loop_
_atom_site_type_symbol
_atom_site_label
_atom_site_fract_x
_atom_site_fract_y
_atom_site_fract_z
Si Si1 0.791750 0.921891 0.562520
Si Si2 0.901792 0.921640 0.452707
Si Si3 0.412298 0.586093 0.085204
Si Si4 0.083449 0.416799 0.765623
Si Si5 0.347532 0.083826 0.703684
Si Si6 0.589670 0.079510 0.322655
Si Si7 0.214978 0.416752 0.863338
Si Si8 0.830808 0.076553 0.669760
O O1 0.794480 0.750000 0.577584
O O2 0.842218 0.958076 0.506200
O O3 0.684762 0.975026 0.561099
O O4 0.845401 0.011812 0.609048
O O5 0.920012 0.750000 0.445899
O O6 0.841532 0.976079 0.401998
O O7 0.000000 0.000000 0.455613
O O8 0.500000 0.500000 0.061300
O O9 0.425044 0.750000 0.064021
O O10 0.414828 0.578390 0.151407
O O11 0.055927 0.250000 0.753651
O O12 0.175048 0.425640 0.801977
O O13 0.093621 0.503966 0.708808
O O14 0.000000 0.500000 0.797300
O O15 0.306613 0.250000 0.709889
O O16 0.400487 0.037385 0.758628
O O17 0.268056 0.966881 0.693632
O O18 0.573560 0.250000 0.329498
O O19 0.679074 0.031370 0.357987
O O20 0.500000 0.000000 0.347009
O O21 0.207447 0.250000 0.885415
O O22 0.842273 0.250000 0.668423
#
# Coordination Sequence:
#
# PCOD8181465 Si02
#       8
#     8   8   8   8   8   8   8   8
#     4   9  21  41  60  81 116 158 193 239 298 354
#     4  11  24  43  68  91 113 147 196 249 303 358
#     4   9  17  30  52  80 114 153 194 235 283 339
#     4  11  22  38  58  83 118 156 192 235 293 358
#     4   9  17  33  52  75 116 163 199 237 287 341
#     4  10  20  35  56  85 119 160 201 242 292 345
#     4  10  22  41  63  86 119 156 195 244 297 349
#     4  11  21  33  55  87 119 154 195 240 290 347
#
# _framework density 19.792453999999999
#
# number of rings (size 3 to 8) (size 9 to 14) (size 15 to 20)
#    0.000    2.000    1.250    3.375    0.000    6.500 
#    0.000    1.875    0.000    3.000    0.000    0.000 
#    0.000    0.000    0.000    0.000    0.000    0.000 
#
# Total GULP energy -396769.471793 kJ/mol
# GULP energy per Si atom -12399.045994 kJ/mol
# Density = 1.974741 g / cm^3
# Si number density = 19.792454 Si / 1000 Ang^3
#
#
#
# Elastic Constant Matrix: (Units=GPa)
#
#
# Indices 1 2 3 4 5 6 
#
# 1 133.3537 56.0620 49.2156 0.0000 0.0000 0.0000
# 2 56.0620 106.4535 50.3359 0.0000 0.0000 0.0000
# 3 49.2156 50.3359 86.5343 0.0000 0.0000 0.0000
# 4 0.0000 0.0000 0.0000 23.3356 0.0000 0.0000
# 5 0.0000 0.0000 0.0000 0.0000 23.6926 0.0000
# 6 0.0000 0.0000 0.0000 0.0000 0.0000 37.8766
#
#
#
# Elastic Compliance Matrix: (Units=1/GPa)
#
#
# Indices 1 2 3 4 5 6 
#
# 1 0.010459 -0.003718 -0.003786 0.000000 0.000000 0.000000
# 2 -0.003718 0.014279 -0.006192 0.000000 0.000000 0.000000
# 3 -0.003786 -0.006192 0.017311 0.000000 0.000000 0.000000
# 4 0.000000 0.000000 0.000000 0.042853 0.000000 0.000000
# 5 0.000000 0.000000 0.000000 0.000000 0.042207 0.000000
# 6 0.000000 0.000000 0.000000 0.000000 0.000000 0.026402
#
#
# Mechanical properties :
#
#
# Convention : Reuss Voigt Hill
#
# Bulk Modulus (GPa) = 68.21948 70.84093 69.53021
# Shear Modulus (GPa) = 26.91238 28.36283 27.63761
#
# Velocity S-wave (km/s) = 3.69145 3.78962 3.74086
# Velocity P-wave (km/s) = 7.26026 7.41741 7.33925
#
# Compressibility (1/GPa) = 0.01465857
#
# Stress axis : x y z
#
# Youngs Moduli (GPa) = 95.61055 70.03066 57.76740
#
# Poissons Ratio (x) = 0.26038 0.21869
# Poissons Ratio (y) = 0.35548 0.35767
# Poissons Ratio (z) = 0.36196 0.43360
#
# Static dielectric constant tensor:
#      x y z
#    x 3.648770 0.000000 0.000000 
#    y 0.000000 3.513710 0.000000 
#    z 0.000000 0.000000 3.433610 
# 
# 
# High freq. dielectric constant tensor:
#      x y z
#    x 1.778070 0.000000 0.000000 
#    y 0.000000 1.767740 0.000000 
#    z 0.000000 0.000000 1.751180 
# 
# From -- ./inp_files/16174.got.cif
#   From: 2010.03.12/outbox.cif.g09.slc.cpg/sg39_9_cif.got.tgz:16174.got - 2010.04.14 02:53:20.
