data_PCOD8181748
_publ_section_title
;
Structure prediction by ZEFSAII (Michael W. Deem and Ramdas Pophale) SiO2 
 PCOD8181748
Probable space group: A B M 2
;
_chemical_formula_sum "Si O2"
_cell_formula_units_Z 48
_cell_length_a 16.615011
_cell_length_b 10.241513
_cell_length_c 14.701739
_cell_angle_alpha 90.000000
_cell_angle_beta 90.000000
_cell_angle_gamma 90.000000
_cell_volume 2501.689825
_symmetry_space_group_name_H-M "A B M 2"
_symmetry_group_IT_number 39
_symmetry_cell_setting 'orthorhombic'
loop_
_space_group_symop_operation_xyz
x,y,z
-x,-y,z
-x,1/2+y,z
x,1/2-y,z
x,1/2+y,1/2+z
-x,1/2-y,1/2+z
-x,y,1/2+z
x,-y,1/2+z
loop_
_atom_site_type_symbol
_atom_site_label
_atom_site_fract_x
_atom_site_fract_y
_atom_site_fract_z
Si Si1 0.428861 0.100378 0.979480
Si Si2 0.430300 0.398046 0.771728
Si Si3 0.851887 0.894877 0.571655
Si Si4 0.070668 0.101070 0.382859
Si Si5 0.842503 0.607408 0.202111
Si Si6 0.307880 0.997391 0.126524
O O1 0.458964 0.250000 0.992386
O O2 0.399213 0.078662 0.875252
O O3 0.500000 0.000000 0.002849
O O4 0.357584 0.073794 0.049977
O O5 0.500000 0.500000 0.747228
O O6 0.463636 0.250000 0.762269
O O7 0.360179 0.416477 0.698526
O O8 0.880788 0.750000 0.597842
O O9 0.884087 0.937475 0.474346
O O10 0.754053 0.900474 0.574181
O O11 0.889506 0.997707 0.643359
O O12 0.037229 0.250000 0.385128
O O13 0.139110 0.084069 0.307207
O O14 0.000000 0.000000 0.363193
O O15 0.873130 0.750000 0.170943
O O16 0.746080 0.599079 0.185214
#
# Coordination Sequence:
#
# PCOD8181748 Si02
#       6
#     8   8   8   8   8   8
#     4  10  22  39  58  83 115 155 198 241 289 343
#     4  10  22  39  58  83 115 155 198 241 289 343
#     4   9  21  38  59  86 117 149 189 234 288 342
#     4  10  22  42  62  88 119 154 191 232 285 346
#     4   9  21  38  59  86 117 149 189 234 288 342
#     4  10  21  34  63  82 116 146 198 236 291 334
#
# _framework density 19.18703
#
# number of rings (size 3 to 8) (size 9 to 14) (size 15 to 20)
#    1.000    1.333    0.000    1.500    2.333    6.000 
#    0.000    3.333    0.000    0.000    0.000    0.000 
#    0.000    0.000    0.000    0.000    0.000    0.000 
#
# Total GULP energy -297397.449476 kJ/mol
# GULP energy per Si atom -12391.560395 kJ/mol
# Density = 1.914336 g / cm^3
# Si number density = 19.187030 Si / 1000 Ang^3
#
#
#
# Elastic Constant Matrix: (Units=GPa)
#
#
# Indices 1 2 3 4 5 6 
#
# 1 63.6450 25.4168 26.2709 0.0000 0.0000 0.0000
# 2 25.4168 117.4565 43.2504 0.0000 0.0000 0.0000
# 3 26.2709 43.2504 79.4510 0.0000 0.0000 0.0000
# 4 0.0000 0.0000 0.0000 31.1100 0.0000 0.0000
# 5 0.0000 0.0000 0.0000 0.0000 31.7264 0.0000
# 6 0.0000 0.0000 0.0000 0.0000 0.0000 26.3518
#
#
#
# Elastic Compliance Matrix: (Units=1/GPa)
#
#
# Indices 1 2 3 4 5 6 
#
# 1 0.018642 -0.002207 -0.004963 0.000000 0.000000 0.000000
# 2 -0.002207 0.010909 -0.005209 0.000000 0.000000 0.000000
# 3 -0.004963 -0.005209 0.017063 0.000000 0.000000 0.000000
# 4 0.000000 0.000000 0.000000 0.032144 0.000000 0.000000
# 5 0.000000 0.000000 0.000000 0.000000 0.031520 0.000000
# 6 0.000000 0.000000 0.000000 0.000000 0.000000 0.037948
#
#
# Mechanical properties :
#
#
# Convention : Reuss Voigt Hill
#
# Bulk Modulus (GPa) = 45.75132 50.04763 47.89947
# Shear Modulus (GPa) = 27.73639 28.87860 28.30749
#
# Velocity S-wave (km/s) = 3.80620 3.88378 3.84519
# Velocity P-wave (km/s) = 6.57365 6.80091 6.68825
#
# Compressibility (1/GPa) = 0.02185729
#
# Stress axis : x y z
#
# Youngs Moduli (GPa) = 53.64271 91.66423 58.60621
#
# Poissons Ratio (x) = 0.20226 0.29086
# Poissons Ratio (y) = 0.11836 0.30529
# Poissons Ratio (z) = 0.26622 0.47749
#
# Static dielectric constant tensor:
#      x y z
#    x 3.205120 0.000000 0.000000 
#    y 0.000000 3.561870 0.000000 
#    z 0.000000 0.000000 3.573180 
# 
# 
# High freq. dielectric constant tensor:
#      x y z
#    x 1.720070 0.000000 0.000000 
#    y 0.000000 1.756050 0.000000 
#    z 0.000000 0.000000 1.757720 
# 
# From -- ./inp_files/9748.got.cif
#   From: 2010.03.12/outbox.cif.g09.slc.cpg/sg39_5_cif.got.tgz:9748.got - 2010.04.14 02:53:20.
