data_PCOD8181827
_publ_section_title
;
Structure prediction by ZEFSAII (Michael W. Deem and Ramdas Pophale) SiO2 
 PCOD8181827
Probable space group: A B M 2
;
_chemical_formula_sum "Si O2"
_cell_formula_units_Z 56
_cell_length_a 19.375451
_cell_length_b 8.639188
_cell_length_c 15.810714
_cell_angle_alpha 90.000000
_cell_angle_beta 90.000000
_cell_angle_gamma 90.000000
_cell_volume 2646.526384
_symmetry_space_group_name_H-M "A B M 2"
_symmetry_group_IT_number 39
_symmetry_cell_setting 'orthorhombic'
loop_
_space_group_symop_operation_xyz
x,y,z
-x,-y,z
-x,1/2+y,z
x,1/2-y,z
x,1/2+y,1/2+z
-x,1/2-y,1/2+z
-x,y,1/2+z
x,-y,1/2+z
loop_
_atom_site_type_symbol
_atom_site_label
_atom_site_fract_x
_atom_site_fract_y
_atom_site_fract_z
Si Si1 0.575689 0.066789 0.718170
Si Si2 0.783965 0.069141 0.625013
Si Si3 0.212381 0.428470 0.798021
Si Si4 0.346310 0.431151 0.558705
Si Si5 0.648054 0.928373 0.882561
Si Si6 0.930217 0.432863 0.374749
Si Si7 0.930834 0.432195 0.566164
O O1 0.573714 0.250000 0.727433
O O2 0.500000 0.000000 0.708033
O O3 0.616795 0.023544 0.633587
O O4 0.609835 0.996310 0.801550
O O5 0.776462 0.250000 0.603890
O O6 0.862541 0.009814 0.614164
O O7 0.761799 0.033759 0.720776
O O8 0.734719 0.974778 0.561713
O O9 0.207175 0.250000 0.768593
O O10 0.269169 0.445389 0.871586
O O11 0.138408 0.493278 0.828343
O O12 0.358349 0.250000 0.571939
O O13 0.375409 0.481546 0.467106
O O14 0.626681 0.750000 0.892514
O O15 0.932677 0.250000 0.371499
O O16 0.926002 0.494412 0.470484
O O17 0.000000 0.500000 0.331515
O O18 0.935849 0.250000 0.569412
O O19 0.000000 0.500000 0.609985
#
# Coordination Sequence:
#
# PCOD8181827 Si02
#       7
#     8   8   8   8   8   8   8
#     4  12  26  47  73 104 139 175 215 264 320 385
#     4  11  22  37  59  87 122 163 213 269 325 386
#     4  10  21  37  59  85 121 162 208 263 324 384
#     4  12  25  43  68 100 135 176 222 270 326 387
#     4  11  23  43  70 100 134 175 220 271 326 385
#     4   9  18  34  53  76 109 153 203 259 319 381
#     4   9  19  35  54  78 110 154 205 263 325 388
#
# _framework density 21.159811999999999
#
# number of rings (size 3 to 8) (size 9 to 14) (size 15 to 20)
#    0.000    1.429    1.429    4.286    0.000    5.714 
#    0.000    8.571    0.000    0.000    0.000    0.000 
#    0.000    0.000    0.000    0.000    0.000    0.000 
#
# Total GULP energy -347257.064965 kJ/mol
# GULP energy per Si atom -12402.038034 kJ/mol
# Density = 2.111165 g / cm^3
# Si number density = 21.159812 Si / 1000 Ang^3
#
#
#
# Elastic Constant Matrix: (Units=GPa)
#
#
# Indices 1 2 3 4 5 6 
#
# 1 103.2497 22.9849 25.4226 0.0000 0.0000 0.0000
# 2 22.9849 70.4627 14.1089 0.0000 0.0000 0.0000
# 3 25.4226 14.1089 100.5838 0.0000 0.0000 0.0000
# 4 0.0000 0.0000 0.0000 33.4349 0.0000 0.0000
# 5 0.0000 0.0000 0.0000 0.0000 22.9947 0.0000
# 6 0.0000 0.0000 0.0000 0.0000 0.0000 36.5432
#
#
#
# Elastic Compliance Matrix: (Units=1/GPa)
#
#
# Indices 1 2 3 4 5 6 
#
# 1 0.010951 -0.003105 -0.002332 0.000000 0.000000 0.000000
# 2 -0.003105 0.015483 -0.001387 0.000000 0.000000 0.000000
# 3 -0.002332 -0.001387 0.010726 0.000000 0.000000 0.000000
# 4 0.000000 0.000000 0.000000 0.029909 0.000000 0.000000
# 5 0.000000 0.000000 0.000000 0.000000 0.043488 0.000000
# 6 0.000000 0.000000 0.000000 0.000000 0.000000 0.027365
#
#
# Mechanical properties :
#
#
# Convention : Reuss Voigt Hill
#
# Bulk Modulus (GPa) = 42.53393 44.36989 43.45191
# Shear Modulus (GPa) = 31.36629 32.71321 32.03975
#
# Velocity S-wave (km/s) = 3.85431 3.93619 3.89547
# Velocity P-wave (km/s) = 6.32080 6.45543 6.38847
#
# Compressibility (1/GPa) = 0.02351064
#
# Stress axis : x y z
#
# Youngs Moduli (GPa) = 91.31786 64.58901 93.23158
#
# Poissons Ratio (x) = 0.20056 0.21744
# Poissons Ratio (y) = 0.28356 0.12930
# Poissons Ratio (z) = 0.21298 0.08958
#
# Static dielectric constant tensor:
#      x y z
#    x 4.114100 0.000000 0.000000 
#    y 0.000000 3.689940 0.000000 
#    z 0.000000 0.000000 3.781790 
# 
# 
# High freq. dielectric constant tensor:
#      x y z
#    x 1.839380 0.000000 0.000000 
#    y 0.000000 1.824330 0.000000 
#    z 0.000000 0.000000 1.827070 
# 
# From -- ./inp_files/10380.got.cif
#   From: 2010.03.12/outbox.cif.g09.slc.cpg/sg39_6_cif.got.tgz:10380.got - 2010.04.14 02:53:20.
