data_PCOD8181244
_publ_section_title
;
Structure prediction by ZEFSAII (Michael W. Deem and Ramdas Pophale) SiO2 
 PCOD8181244
Probable space group: A B M 2
;
_chemical_formula_sum "Si O2"
_cell_formula_units_Z 64
_cell_length_a 23.622185
_cell_length_b 8.570556
_cell_length_c 15.407546
_cell_angle_alpha 90.000000
_cell_angle_beta 90.000000
_cell_angle_gamma 90.000000
_cell_volume 3119.338722
_symmetry_space_group_name_H-M "A B M 2"
_symmetry_group_IT_number 39
_symmetry_cell_setting 'orthorhombic'
loop_
_space_group_symop_operation_xyz
x,y,z
-x,-y,z
-x,1/2+y,z
x,1/2-y,z
x,1/2+y,1/2+z
-x,1/2-y,1/2+z
-x,y,1/2+z
x,-y,1/2+z
loop_
_atom_site_type_symbol
_atom_site_label
_atom_site_fract_x
_atom_site_fract_y
_atom_site_fract_z
Si Si1 0.752469 0.929671 0.518120
Si Si2 0.861342 0.434498 0.762912
Si Si3 0.622874 0.564917 0.251816
Si Si4 0.560485 0.933358 0.914366
Si Si5 0.867269 0.930744 0.069463
Si Si6 0.371852 0.569979 0.070305
Si Si7 0.258575 0.934861 0.821276
Si Si8 0.937951 0.567653 0.417227
O O1 0.772858 0.750000 0.518314
O O2 0.695812 0.953322 0.573636
O O3 0.740904 0.988044 0.420885
O O4 0.800813 0.036864 0.559121
O O5 0.857289 0.250000 0.775391
O O6 0.884445 0.477737 0.667711
O O7 0.798094 0.503786 0.776394
O O8 0.903676 0.504881 0.835445
O O9 0.622682 0.750000 0.242228
O O10 0.579041 0.516262 0.325698
O O11 0.602930 0.488978 0.161370
O O12 0.685292 0.498208 0.275389
O O13 0.557541 0.750000 0.898637
O O14 0.500000 0.000000 0.942373
O O15 0.603669 0.969616 0.991715
O O16 0.879583 0.750000 0.051369
O O17 0.904918 0.033048 0.005650
O O18 0.387962 0.750000 0.054666
O O19 0.260515 0.750000 0.814997
O O20 0.943467 0.750000 0.405527
O O21 0.000000 0.500000 0.421116
#
# Coordination Sequence:
#
# PCOD8181244 Si02
#       8
#     8   8   8   8   8   8   8   8
#     4  10  19  36  62  90 125 166 201 243 302 362
#     4   9  19  36  60  86 118 157 196 238 294 354
#     4  11  22  40  66  96 128 166 207 256 314 373
#     4  12  26  45  67  92 123 164 213 264 316 374
#     4  11  22  37  60  93 123 154 199 249 298 361
#     4  11  23  41  64  95 131 168 209 256 310 374
#     4   9  16  33  61  89 121 161 197 239 302 362
#     4  11  23  42  63  83 114 157 201 249 303 361
#
# _framework density 20.51717
#
# number of rings (size 3 to 8) (size 9 to 14) (size 15 to 20)
#    0.000    1.500    2.500    3.375    0.000    3.000 
#    0.000    6.250    0.000    0.000    0.000    0.000 
#    0.000    0.000    0.000    0.000    0.000    0.000 
#
# Total GULP energy -396906.071601 kJ/mol
# GULP energy per Si atom -12403.314738 kJ/mol
# Density = 2.047047 g / cm^3
# Si number density = 20.517170 Si / 1000 Ang^3
#
#
#
# Elastic Constant Matrix: (Units=GPa)
#
#
# Indices 1 2 3 4 5 6 
#
# 1 93.2947 24.3710 25.3692 0.0000 0.0000 0.0000
# 2 24.3710 42.0801 21.5464 0.0000 0.0000 0.0000
# 3 25.3692 21.5464 125.6510 0.0000 0.0000 0.0000
# 4 0.0000 0.0000 0.0000 29.6247 0.0000 0.0000
# 5 0.0000 0.0000 0.0000 0.0000 0.9016 0.0000
# 6 0.0000 0.0000 0.0000 0.0000 0.0000 30.1116
#
#
#
# Elastic Compliance Matrix: (Units=1/GPa)
#
#
# Indices 1 2 3 4 5 6 
#
# 1 0.012865 -0.006710 -0.001447 0.000000 0.000000 0.000000
# 2 -0.006710 0.029551 -0.003713 0.000000 0.000000 0.000000
# 3 -0.001447 -0.003713 0.008887 0.000000 0.000000 0.000000
# 4 0.000000 0.000000 0.000000 0.033756 0.000000 0.000000
# 5 0.000000 0.000000 0.000000 0.000000 1.109178 0.000000
# 6 0.000000 0.000000 0.000000 0.000000 0.000000 0.033210
#
#
# Mechanical properties :
#
#
# Convention : Reuss Voigt Hill
#
# Bulk Modulus (GPa) = 36.27836 44.84433 40.56134
# Shear Modulus (GPa) = 3.96708 24.77686 14.37197
#
# Velocity S-wave (km/s) = 1.39203 3.47885 2.64954
# Velocity P-wave (km/s) = 4.50599 6.16773 5.40115
#
# Compressibility (1/GPa) = 0.02756464
#
# Stress axis : x y z
#
# Youngs Moduli (GPa) = 77.73032 33.83938 112.51997
#
# Poissons Ratio (x) = 0.22706 0.16280
# Poissons Ratio (y) = 0.52157 0.41775
# Poissons Ratio (z) = 0.11246 0.12563
#
# Static dielectric constant tensor:
#      x y z
#    x 3.801820 0.000000 0.000000 
#    y 0.000000 3.453600 0.000000 
#    z 0.000000 0.000000 3.892260 
# 
# 
# High freq. dielectric constant tensor:
#      x y z
#    x 1.800740 0.000000 0.000000 
#    y 0.000000 1.781700 0.000000 
#    z 0.000000 0.000000 1.816170 
# 
# From -- ./inp_files/10569.got.cif
#   From: 2010.03.12/outbox.cif.g09.slc.cpg/sg39_6_cif.got.tgz:10569.got - 2010.04.14 02:53:20.
