data_PCOD8181971
_publ_section_title
;
Structure prediction by ZEFSAII (Michael W. Deem and Ramdas Pophale) SiO2 
 PCOD8181971
Probable space group: A B M 2
;
_chemical_formula_sum "Si O2"
_cell_formula_units_Z 64
_cell_length_a 11.933457
_cell_length_b 17.344932
_cell_length_c 15.272509
_cell_angle_alpha 90.000000
_cell_angle_beta 90.000000
_cell_angle_gamma 90.000000
_cell_volume 3161.180278
_symmetry_space_group_name_H-M "A B M 2"
_symmetry_group_IT_number 39
_symmetry_cell_setting 'orthorhombic'
loop_
_space_group_symop_operation_xyz
x,y,z
-x,-y,z
-x,1/2+y,z
x,1/2-y,z
x,1/2+y,1/2+z
-x,1/2-y,1/2+z
-x,y,1/2+z
x,-y,1/2+z
loop_
_atom_site_type_symbol
_atom_site_label
_atom_site_fract_x
_atom_site_fract_y
_atom_site_fract_z
Si Si1 0.016642 0.910047 0.924610
Si Si2 0.009707 0.591390 0.226051
Si Si3 0.249537 0.161324 0.685973
Si Si4 0.609107 0.340878 0.567096
Si Si5 0.533026 0.661088 0.403271
Si Si6 0.136818 0.158600 0.071169
Si Si7 0.231764 0.334639 0.485952
Si Si8 0.477235 0.911539 0.225490
O O1 0.137842 0.896994 0.966289
O O2 0.016036 0.880034 0.824651
O O3 0.000000 0.000000 0.928107
O O4 0.921909 0.868465 0.981844
O O5 0.133303 0.619638 0.204142
O O6 0.000000 0.500000 0.217305
O O7 0.922710 0.628045 0.158417
O O8 0.248348 0.250000 0.720643
O O9 0.276134 0.159017 0.583930
O O10 0.346505 0.111153 0.730693
O O11 0.611446 0.250000 0.561477
O O12 0.545492 0.372261 0.480884
O O13 0.735918 0.373286 0.570054
O O14 0.542401 0.362078 0.653979
O O15 0.502236 0.750000 0.381852
O O16 0.662630 0.652323 0.425323
O O17 0.523136 0.606404 0.320717
O O18 0.132640 0.250000 0.074474
O O19 0.178435 0.250000 0.470155
O O20 0.500000 0.000000 0.202575
#
# Coordination Sequence:
#
# PCOD8181971 Si02
#       8
#     8   8   8   8   8   8   8   8
#     4  11  25  42  63  93 133 171 207 265 325 390
#     4  11  26  43  65  97 135 171 214 269 329 387
#     4  11  23  44  70  95 128 178 228 266 314 392
#     4  10  23  44  66  93 129 169 214 269 327 384
#     4  10  22  44  68  93 126 167 215 268 318 382
#     4  11  24  42  66  95 130 170 217 267 322 387
#     4  10  21  40  68  93 121 166 222 265 310 379
#     4  12  27  41  65  99 135 169 213 267 327 393
#
# _framework density 20.245602999999999
#
# number of rings (size 3 to 8) (size 9 to 14) (size 15 to 20)
#    0.000    1.250    2.500    2.250    5.250    3.500 
#    0.000    0.000    0.000    0.000    0.000    0.000 
#    0.000    0.000    0.000    0.000    0.000    0.000 
#
# Total GULP energy -396882.129304 kJ/mol
# GULP energy per Si atom -12402.566541 kJ/mol
# Density = 2.019952 g / cm^3
# Si number density = 20.245603 Si / 1000 Ang^3
#
#
#
# Elastic Constant Matrix: (Units=GPa)
#
#
# Indices 1 2 3 4 5 6 
#
# 1 89.7429 32.8089 24.5238 0.0000 0.0000 0.0000
# 2 32.8089 65.2147 17.4151 0.0000 0.0000 0.0000
# 3 24.5238 17.4151 105.1886 0.0000 0.0000 0.0000
# 4 0.0000 0.0000 0.0000 17.2312 0.0000 0.0000
# 5 0.0000 0.0000 0.0000 0.0000 25.4891 0.0000
# 6 0.0000 0.0000 0.0000 0.0000 0.0000 20.6054
#
#
#
# Elastic Compliance Matrix: (Units=1/GPa)
#
#
# Indices 1 2 3 4 5 6 
#
# 1 0.014131 -0.006518 -0.002215 0.000000 0.000000 0.000000
# 2 -0.006518 0.019049 -0.001634 0.000000 0.000000 0.000000
# 3 -0.002215 -0.001634 0.010294 0.000000 0.000000 0.000000
# 4 0.000000 0.000000 0.000000 0.058034 0.000000 0.000000
# 5 0.000000 0.000000 0.000000 0.000000 0.039232 0.000000
# 6 0.000000 0.000000 0.000000 0.000000 0.000000 0.048531
#
#
# Mechanical properties :
#
#
# Convention : Reuss Voigt Hill
#
# Bulk Modulus (GPa) = 43.97633 45.51576 44.74605
# Shear Modulus (GPa) = 22.97937 25.02504 24.00221
#
# Velocity S-wave (km/s) = 3.37268 3.51960 3.44692
# Velocity P-wave (km/s) = 6.07743 6.24879 6.16371
#
# Compressibility (1/GPa) = 0.02273951
#
# Stress axis : x y z
#
# Youngs Moduli (GPa) = 70.76580 52.49526 97.14557
#
# Poissons Ratio (x) = 0.34214 0.21523
# Poissons Ratio (y) = 0.46122 0.15877
# Poissons Ratio (z) = 0.15678 0.08579
#
# Static dielectric constant tensor:
#      x y z
#    x 3.835330 0.000000 0.000000 
#    y 0.000000 3.685010 0.000000 
#    z 0.000000 0.000000 3.941960 
# 
# 
# High freq. dielectric constant tensor:
#      x y z
#    x 1.805370 0.000000 0.000000 
#    y 0.000000 1.787340 0.000000 
#    z 0.000000 0.000000 1.802770 
# 
# From -- ./inp_files/9501.got.cif
#   From: 2010.03.12/outbox.cif.g09.slc.cpg/sg39_5_cif.got.tgz:9501.got - 2010.04.14 02:53:20.
