data_PCOD8181658
_publ_section_title
;
Structure prediction by ZEFSAII (Michael W. Deem and Ramdas Pophale) SiO2 
 PCOD8181658
Probable space group: A B M 2
;
_chemical_formula_sum "Si O2"
_cell_formula_units_Z 56
_cell_length_a 9.445768
_cell_length_b 17.634059
_cell_length_c 16.557022
_cell_angle_alpha 90.000000
_cell_angle_beta 90.000000
_cell_angle_gamma 90.000000
_cell_volume 2757.857295
_symmetry_space_group_name_H-M "A B M 2"
_symmetry_group_IT_number 39
_symmetry_cell_setting 'orthorhombic'
loop_
_space_group_symop_operation_xyz
x,y,z
-x,-y,z
-x,1/2+y,z
x,1/2-y,z
x,1/2+y,1/2+z
-x,1/2-y,1/2+z
-x,y,1/2+z
x,-y,1/2+z
loop_
_atom_site_type_symbol
_atom_site_label
_atom_site_fract_x
_atom_site_fract_y
_atom_site_fract_z
Si Si1 0.401453 0.568180 0.766550
Si Si2 0.851280 0.966800 0.150228
Si Si3 0.779018 0.610821 0.560306
Si Si4 0.918637 0.661506 0.032775
Si Si5 0.594188 0.663224 0.420442
Si Si6 0.270836 0.335429 0.890860
Si Si7 0.352466 0.337434 0.719831
O O1 0.500000 0.500000 0.798758
O O2 0.264301 0.535980 0.720913
O O3 0.349983 0.618676 0.841801
O O4 0.498819 0.618815 0.706195
O O5 0.870652 0.883285 0.113061
O O6 0.799164 0.021995 0.078258
O O7 0.000000 0.000000 0.184823
O O8 0.915280 0.648611 0.518754
O O9 0.649651 0.621495 0.499979
O O10 0.749998 0.654091 0.644268
O O11 0.882291 0.750000 0.046307
O O12 0.838782 0.626646 0.953838
O O13 0.648054 0.750000 0.415806
O O14 0.426154 0.659791 0.428958
O O15 0.217636 0.250000 0.880939
O O16 0.274527 0.371469 0.800507
O O17 0.391100 0.250000 0.735845
#
# Coordination Sequence:
#
# PCOD8181658 Si02
#       7
#     8   8   8   8   8   8   8
#     4  11  22  41  61  91 124 166 211 255 321 384
#     4  10  24  43  60  92 132 163 211 266 320 380
#     4  11  22  41  63  91 128 164 208 261 323 379
#     4  10  21  39  63  90 125 167 212 257 313 386
#     4  10  22  40  63  93 126 161 211 267 312 373
#     4   8  18  36  58  89 122 155 202 257 307 361
#     4  10  20  37  64  91 124 163 212 267 314 375
#
# _framework density 20.305617999999999
#
# number of rings (size 3 to 8) (size 9 to 14) (size 15 to 20)
#    0.000    2.000    1.429    2.571    2.000    3.429 
#    5.143    0.714    0.000    0.000    0.000    0.000 
#    0.000    0.000    0.000    0.000    0.000    0.000 
#
# Total GULP energy -347151.403140 kJ/mol
# GULP energy per Si atom -12398.264398 kJ/mol
# Density = 2.025940 g / cm^3
# Si number density = 20.305618 Si / 1000 Ang^3
#
#
#
# Elastic Constant Matrix: (Units=GPa)
#
#
# Indices 1 2 3 4 5 6 
#
# 1 108.5926 32.3085 78.3885 0.0000 0.0000 0.0000
# 2 32.3085 96.6062 32.6211 0.0000 0.0000 0.0000
# 3 78.3885 32.6211 115.1665 0.0000 0.0000 0.0000
# 4 0.0000 0.0000 0.0000 28.4242 0.0000 0.0000
# 5 0.0000 0.0000 0.0000 0.0000 32.9316 0.0000
# 6 0.0000 0.0000 0.0000 0.0000 0.0000 30.8865
#
#
#
# Elastic Compliance Matrix: (Units=1/GPa)
#
#
# Indices 1 2 3 4 5 6 
#
# 1 0.018495 -0.002139 -0.011983 0.000000 0.000000 0.000000
# 2 -0.002139 0.011693 -0.001856 0.000000 0.000000 0.000000
# 3 -0.011983 -0.001856 0.017365 0.000000 0.000000 0.000000
# 4 0.000000 0.000000 0.000000 0.035181 0.000000 0.000000
# 5 0.000000 0.000000 0.000000 0.000000 0.030366 0.000000
# 6 0.000000 0.000000 0.000000 0.000000 0.000000 0.032377
#
#
# Mechanical properties :
#
#
# Convention : Reuss Voigt Hill
#
# Bulk Modulus (GPa) = 64.11387 67.44464 65.77926
# Shear Modulus (GPa) = 27.37732 30.25159 28.81445
#
# Velocity S-wave (km/s) = 3.67585 3.86400 3.77110
# Velocity P-wave (km/s) = 7.04690 7.29343 7.17123
#
# Compressibility (1/GPa) = 0.01559725
#
# Stress axis : x y z
#
# Youngs Moduli (GPa) = 54.06841 85.51765 57.58708
#
# Poissons Ratio (x) = 0.18294 0.69006
# Poissons Ratio (y) = 0.11566 0.10689
# Poissons Ratio (z) = 0.64789 0.15874
#
# Static dielectric constant tensor:
#      x y z
#    x 3.652240 0.000000 0.000000 
#    y 0.000000 3.794970 0.000000 
#    z 0.000000 0.000000 3.582790 
# 
# 
# High freq. dielectric constant tensor:
#      x y z
#    x 1.786120 0.000000 0.000000 
#    y 0.000000 1.799370 0.000000 
#    z 0.000000 0.000000 1.783180 
# 
# From -- ./inp_files/11880.got.cif
#   From: 2010.03.12/outbox.cif.g09.slc.cpg/sg39_6_cif.got.tgz:11880.got - 2010.04.14 02:53:20.
