data_PCOD8181318
_publ_section_title
;
Structure prediction by ZEFSAII (Michael W. Deem and Ramdas Pophale) SiO2 
 PCOD8181318
Probable space group: A B M 2
;
_chemical_formula_sum "Si O2"
_cell_formula_units_Z 64
_cell_length_a 9.284921
_cell_length_b 17.967631
_cell_length_c 20.357736
_cell_angle_alpha 90.000000
_cell_angle_beta 90.000000
_cell_angle_gamma 90.000000
_cell_volume 3396.241082
_symmetry_space_group_name_H-M "A B M 2"
_symmetry_group_IT_number 39
_symmetry_cell_setting 'orthorhombic'
loop_
_space_group_symop_operation_xyz
x,y,z
-x,-y,z
-x,1/2+y,z
x,1/2-y,z
x,1/2+y,1/2+z
-x,1/2-y,1/2+z
-x,y,1/2+z
x,-y,1/2+z
loop_
_atom_site_type_symbol
_atom_site_label
_atom_site_fract_x
_atom_site_fract_y
_atom_site_fract_z
Si Si1 0.417533 0.924942 0.685970
Si Si2 0.690253 0.161657 0.424764
Si Si3 0.850023 0.335781 0.841979
Si Si4 0.011968 0.411439 0.954790
Si Si5 0.082996 0.576791 0.713979
Si Si6 0.521148 0.165517 0.810832
Si Si7 0.620043 0.668687 0.066033
Si Si8 0.957489 0.166460 0.588850
O O1 0.248661 0.938877 0.696166
O O2 0.491164 0.878294 0.743498
O O3 0.454770 0.886734 0.616571
O O4 0.500000 0.000000 0.683921
O O5 0.726914 0.250000 0.423489
O O6 0.835447 0.113860 0.424712
O O7 0.595075 0.135217 0.363180
O O8 0.599808 0.142612 0.490752
O O9 0.900630 0.250000 0.844346
O O10 0.925910 0.373174 0.779132
O O11 0.679006 0.342321 0.840499
O O12 0.890607 0.379217 0.907517
O O13 0.000000 0.500000 0.958206
O O14 0.980167 0.378392 0.026815
O O15 0.004364 0.621674 0.655287
O O16 0.000000 0.500000 0.726609
O O17 0.484871 0.250000 0.793861
O O18 0.550242 0.750000 0.075937
O O19 0.787670 0.673180 0.082452
O O20 0.024138 0.250000 0.591664
#
# Coordination Sequence:
#
# PCOD8181318 Si02
#       8
#     8   8   8   8   8   8   8   8
#     4  10  20  33  51  76 104 133 166 208 256 305
#     4   9  18  35  57  78 100 133 174 213 253 305
#     4  10  20  35  54  77 104 138 176 215 258 307
#     4  11  21  33  52  80 110 139 170 212 261 309
#     4  10  20  35  54  77 105 135 170 214 261 309
#     4   9  19  35  55  76 100 133 175 217 256 300
#     4   8  15  31  55  76  96 128 172 211 247 298
#     4   9  17  33  56  78  99 133 178 216 250 301
#
# _framework density 18.844363999999999
#
# number of rings (size 3 to 8) (size 9 to 14) (size 15 to 20)
#    0.000    2.500    0.000    3.375    0.000    6.000 
#    0.000    5.625    0.000    3.750    0.000    0.000 
#    0.000    0.000    0.000    0.000    0.000    0.000 
#
# Total GULP energy -396749.690958 kJ/mol
# GULP energy per Si atom -12398.427842 kJ/mol
# Density = 1.880147 g / cm^3
# Si number density = 18.844364 Si / 1000 Ang^3
#
#
#
# Elastic Constant Matrix: (Units=GPa)
#
#
# Indices 1 2 3 4 5 6 
#
# 1 32.3581 33.7599 30.5837 0.0000 0.0000 0.0000
# 2 33.7599 127.2471 46.2054 0.0000 0.0000 0.0000
# 3 30.5837 46.2054 93.7075 0.0000 0.0000 0.0000
# 4 0.0000 0.0000 0.0000 26.9376 0.0000 0.0000
# 5 0.0000 0.0000 0.0000 0.0000 25.8117 0.0000
# 6 0.0000 0.0000 0.0000 0.0000 0.0000 33.7023
#
#
#
# Elastic Compliance Matrix: (Units=1/GPa)
#
#
# Indices 1 2 3 4 5 6 
#
# 1 0.052532 -0.009393 -0.012513 0.000000 0.000000 0.000000
# 2 -0.009393 0.011252 -0.002483 0.000000 0.000000 0.000000
# 3 -0.012513 -0.002483 0.015980 0.000000 0.000000 0.000000
# 4 0.000000 0.000000 0.000000 0.037123 0.000000 0.000000
# 5 0.000000 0.000000 0.000000 0.000000 0.038742 0.000000
# 6 0.000000 0.000000 0.000000 0.000000 0.000000 0.029672
#
#
# Mechanical properties :
#
#
# Convention : Reuss Voigt Hill
#
# Bulk Modulus (GPa) = 32.27356 52.71230 42.49293
# Shear Modulus (GPa) = 20.45770 26.80789 23.63279
#
# Velocity S-wave (km/s) = 3.29844 3.77582 3.54518
# Velocity P-wave (km/s) = 5.62759 6.85874 6.27344
#
# Compressibility (1/GPa) = 0.03098512
#
# Stress axis : x y z
#
# Youngs Moduli (GPa) = 19.03617 88.87032 62.57973
#
# Poissons Ratio (x) = 0.83480 0.78308
# Poissons Ratio (y) = 0.17881 0.15536
# Poissons Ratio (z) = 0.23820 0.22063
#
# Static dielectric constant tensor:
#      x y z
#    x 3.192760 0.000000 0.000000 
#    y 0.000000 3.424540 0.000000 
#    z 0.000000 0.000000 3.815610 
# 
# 
# High freq. dielectric constant tensor:
#      x y z
#    x 1.698040 0.000000 0.000000 
#    y 0.000000 1.737180 0.000000 
#    z 0.000000 0.000000 1.748990 
# 
# From -- ./inp_files/12376.got.cif
#   From: 2010.03.12/outbox.cif.g09.slc.cpg/sg39_7_cif.got.tgz:12376.got - 2010.04.14 02:53:20.
