data_PCOD8181348
_publ_section_title
;
Structure prediction by ZEFSAII (Michael W. Deem and Ramdas Pophale) SiO2 
 PCOD8181348
Probable space group: A B M 2
;
_chemical_formula_sum "Si O2"
_cell_formula_units_Z 56
_cell_length_a 19.953466
_cell_length_b 9.083737
_cell_length_c 15.051309
_cell_angle_alpha 90.000000
_cell_angle_beta 90.000000
_cell_angle_gamma 90.000000
_cell_volume 2728.080422
_symmetry_space_group_name_H-M "A B M 2"
_symmetry_group_IT_number 39
_symmetry_cell_setting 'orthorhombic'
loop_
_space_group_symop_operation_xyz
x,y,z
-x,-y,z
-x,1/2+y,z
x,1/2-y,z
x,1/2+y,1/2+z
-x,1/2-y,1/2+z
-x,y,1/2+z
x,-y,1/2+z
loop_
_atom_site_type_symbol
_atom_site_label
_atom_site_fract_x
_atom_site_fract_y
_atom_site_fract_z
Si Si1 0.571151 0.576222 0.811920
Si Si2 0.331407 0.080705 0.969539
Si Si3 0.938708 0.411534 0.911170
Si Si4 0.062862 0.586440 0.705077
Si Si5 0.667602 0.424942 0.673785
Si Si6 0.801480 0.415778 0.169904
Si Si7 0.797442 0.086490 0.960642
O O1 0.500000 0.500000 0.817608
O O2 0.564329 0.750000 0.793736
O O3 0.605876 0.544705 0.906812
O O4 0.610563 0.502643 0.730950
O O5 0.312161 0.250000 0.968593
O O6 0.266949 0.001288 0.926491
O O7 0.347024 0.032177 0.070765
O O8 0.936457 0.250000 0.956602
O O9 0.953170 0.394838 0.808003
O O10 0.866920 0.490485 0.928958
O O11 0.000000 0.500000 0.956311
O O12 0.070140 0.750000 0.662145
O O13 0.130130 0.494272 0.695463
O O14 0.000000 0.500000 0.660417
O O15 0.666539 0.250000 0.688741
O O16 0.739131 0.488932 0.706341
O O17 0.799550 0.250000 0.210028
O O18 0.795841 0.408291 0.065437
O O19 0.793462 0.250000 0.919024
#
# Coordination Sequence:
#
# PCOD8181348 Si02
#       7
#     8   8   8   8   8   8   8
#     4  11  24  42  63  93 124 156 197 237 287 349
#     4   9  21  40  61  88 121 155 196 241 289 346
#     4   9  19  34  50  73 103 140 185 231 281 337
#     4  10  20  34  51  74 106 145 190 238 290 346
#     4  10  21  40  63  89 122 159 198 243 292 346
#     4  10  20  35  55  81 112 146 187 236 289 346
#     4   9  19  35  55  80 109 143 186 232 285 343
#
# _framework density 20.527256000000001
#
# number of rings (size 3 to 8) (size 9 to 14) (size 15 to 20)
#    0.000    2.286    0.000    1.714    2.000    4.571 
#    0.000    2.857    0.000    0.000    0.000    0.000 
#    0.000    0.000    0.000    0.000    0.000    0.000 
#
# Total GULP energy -347133.130435 kJ/mol
# GULP energy per Si atom -12397.611801 kJ/mol
# Density = 2.048053 g / cm^3
# Si number density = 20.527256 Si / 1000 Ang^3
#
#
#
# Elastic Constant Matrix: (Units=GPa)
#
#
# Indices 1 2 3 4 5 6 
#
# 1 201.9698 94.8962 47.7492 0.0000 0.0000 0.0000
# 2 94.8962 136.8150 43.4223 0.0000 0.0000 0.0000
# 3 47.7492 43.4223 49.9083 0.0000 0.0000 0.0000
# 4 0.0000 0.0000 0.0000 18.8653 0.0000 0.0000
# 5 0.0000 0.0000 0.0000 0.0000 41.2918 0.0000
# 6 0.0000 0.0000 0.0000 0.0000 0.0000 42.8860
#
#
#
# Elastic Compliance Matrix: (Units=1/GPa)
#
#
# Indices 1 2 3 4 5 6 
#
# 1 0.007840 -0.004224 -0.003826 0.000000 0.000000 0.000000
# 2 -0.004224 0.012373 -0.006724 0.000000 0.000000 0.000000
# 3 -0.003826 -0.006724 0.029548 0.000000 0.000000 0.000000
# 4 0.000000 0.000000 0.000000 0.053007 0.000000 0.000000
# 5 0.000000 0.000000 0.000000 0.000000 0.024218 0.000000
# 6 0.000000 0.000000 0.000000 0.000000 0.000000 0.023318
#
#
# Mechanical properties :
#
#
# Convention : Reuss Voigt Hill
#
# Bulk Modulus (GPa) = 49.47334 84.53650 67.00492
# Shear Modulus (GPa) = 26.79684 34.11698 30.45691
#
# Velocity S-wave (km/s) = 3.61699 4.08123 3.85610
# Velocity P-wave (km/s) = 6.44958 7.96747 7.24837
#
# Compressibility (1/GPa) = 0.02021291
#
# Stress axis : x y z
#
# Youngs Moduli (GPa) = 127.54431 80.82253 33.84370
#
# Poissons Ratio (x) = 0.34138 0.12950
# Poissons Ratio (y) = 0.53872 0.22756
# Poissons Ratio (z) = 0.48803 0.54343
#
# Static dielectric constant tensor:
#      x y z
#    x 3.838170 0.000000 0.000000 
#    y 0.000000 4.120840 0.000000 
#    z 0.000000 0.000000 3.627980 
# 
# 
# High freq. dielectric constant tensor:
#      x y z
#    x 1.807940 0.000000 0.000000 
#    y 0.000000 1.808320 0.000000 
#    z 0.000000 0.000000 1.789760 
# 
# From -- ./inp_files/10385.got.cif
#   From: 2010.03.12/outbox.cif.g09.slc.cpg/sg39_6_cif.got.tgz:10385.got - 2010.04.14 02:53:20.
