data_PCOD8181574
_publ_section_title
;
Structure prediction by ZEFSAII (Michael W. Deem and Ramdas Pophale) SiO2 
 PCOD8181574
Probable space group: A B M 2
;
_chemical_formula_sum "Si O2"
_cell_formula_units_Z 64
_cell_length_a 23.905600
_cell_length_b 8.999743
_cell_length_c 15.170775
_cell_angle_alpha 90.000000
_cell_angle_beta 90.000000
_cell_angle_gamma 90.000000
_cell_volume 3263.905104
_symmetry_space_group_name_H-M "A B M 2"
_symmetry_group_IT_number 39
_symmetry_cell_setting 'orthorhombic'
loop_
_space_group_symop_operation_xyz
x,y,z
-x,-y,z
-x,1/2+y,z
x,1/2-y,z
x,1/2+y,1/2+z
-x,1/2-y,1/2+z
-x,y,1/2+z
x,-y,1/2+z
loop_
_atom_site_type_symbol
_atom_site_label
_atom_site_fract_x
_atom_site_fract_y
_atom_site_fract_z
Si Si1 0.762629 0.582568 0.985980
Si Si2 0.752829 0.583636 0.192454
Si Si3 0.559087 0.926819 0.821761
Si Si4 0.860286 0.079136 0.234716
Si Si5 0.058287 0.427156 0.582223
Si Si6 0.372164 0.926335 0.673443
Si Si7 0.641372 0.073387 0.475384
Si Si8 0.119891 0.076103 0.928889
O O1 0.762271 0.750000 0.950120
O O2 0.703745 0.505945 0.956765
O O3 0.818085 0.506607 0.946280
O O4 0.767642 0.577136 0.090365
O O5 0.757155 0.750000 0.228586
O O6 0.798476 0.489097 0.244675
O O7 0.689565 0.524959 0.207104
O O8 0.553499 0.750000 0.819108
O O9 0.599549 0.982297 0.900219
O O10 0.500000 0.000000 0.841803
O O11 0.581954 0.985087 0.728851
O O12 0.849744 0.250000 0.216290
O O13 0.896669 0.014037 0.154117
O O14 0.893993 0.053294 0.325791
O O15 0.052631 0.250000 0.582202
O O16 0.075377 0.483900 0.485402
O O17 0.000000 0.500000 0.609447
O O18 0.380806 0.750000 0.684248
O O19 0.380436 0.976325 0.571759
O O20 0.647168 0.250000 0.476977
O O21 0.116766 0.250000 0.955925
#
# Coordination Sequence:
#
# PCOD8181574 Si02
#       8
#     8   8   8   8   8   8   8   8
#     4   8  14  29  55  83 111 146 186 223 272 338
#     4   9  17  32  57  85 116 153 188 227 280 340
#     4  11  23  38  58  82 112 150 194 238 284 338
#     4  10  22  36  56  88 120 149 187 235 283 335
#     4  11  24  42  60  82 115 153 194 240 284 332
#     4   9  19  37  58  83 115 149 189 234 282 337
#     4   8  17  34  56  82 111 149 189 229 278 336
#     4  10  20  36  60  87 115 151 190 231 281 339
#
# _framework density 19.608414
#
# number of rings (size 3 to 8) (size 9 to 14) (size 15 to 20)
#    0.000    2.500    1.250    2.250    1.750    2.500 
#    0.000    3.750    0.000    1.500    0.000    0.000 
#    0.000    0.000    0.000    0.000    0.000    0.000 
#
# Total GULP energy -396681.642502 kJ/mol
# GULP energy per Si atom -12396.301328 kJ/mol
# Density = 1.956378 g / cm^3
# Si number density = 19.608414 Si / 1000 Ang^3
#
#
#
# Elastic Constant Matrix: (Units=GPa)
#
#
# Indices 1 2 3 4 5 6 
#
# 1 94.1176 28.0128 26.1415 0.0000 0.0000 0.0000
# 2 28.0128 47.4985 20.9893 0.0000 0.0000 0.0000
# 3 26.1415 20.9893 66.0501 0.0000 0.0000 0.0000
# 4 0.0000 0.0000 0.0000 22.9628 0.0000 0.0000
# 5 0.0000 0.0000 0.0000 0.0000 29.0595 0.0000
# 6 0.0000 0.0000 0.0000 0.0000 0.0000 29.3989
#
#
#
# Elastic Compliance Matrix: (Units=1/GPa)
#
#
# Indices 1 2 3 4 5 6 
#
# 1 0.013466 -0.006499 -0.003264 0.000000 0.000000 0.000000
# 2 -0.006499 0.027630 -0.006208 0.000000 0.000000 0.000000
# 3 -0.003264 -0.006208 0.018405 0.000000 0.000000 0.000000
# 4 0.000000 0.000000 0.000000 0.043549 0.000000 0.000000
# 5 0.000000 0.000000 0.000000 0.000000 0.034412 0.000000
# 6 0.000000 0.000000 0.000000 0.000000 0.000000 0.034015
#
#
# Mechanical properties :
#
#
# Convention : Reuss Voigt Hill
#
# Bulk Modulus (GPa) = 36.28769 39.77259 38.03014
# Shear Modulus (GPa) = 23.51783 25.11908 24.31845
#
# Velocity S-wave (km/s) = 3.46696 3.58304 3.52547
# Velocity P-wave (km/s) = 5.87986 6.11923 6.00074
#
# Compressibility (1/GPa) = 0.02755756
#
# Stress axis : x y z
#
# Youngs Moduli (GPa) = 74.26047 36.19316 54.33401
#
# Poissons Ratio (x) = 0.23523 0.17736
# Poissons Ratio (y) = 0.48264 0.33729
# Poissons Ratio (z) = 0.24241 0.22468
#
# Static dielectric constant tensor:
#      x y z
#    x 3.688960 0.000000 0.000000 
#    y 0.000000 3.231220 0.000000 
#    z 0.000000 0.000000 3.560370 
# 
# 
# High freq. dielectric constant tensor:
#      x y z
#    x 1.768020 0.000000 0.000000 
#    y 0.000000 1.729930 0.000000 
#    z 0.000000 0.000000 1.766170 
# 
# From -- ./inp_files/10638.got.cif
#   From: 2010.03.12/outbox.cif.g09.slc.cpg/sg39_6_cif.got.tgz:10638.got - 2010.04.14 02:53:20.
