data_PCOD8181856
_publ_section_title
;
Structure prediction by ZEFSAII (Michael W. Deem and Ramdas Pophale) SiO2 
 PCOD8181856
Probable space group: A B M 2
;
_chemical_formula_sum "Si O2"
_cell_formula_units_Z 64
_cell_length_a 8.655949
_cell_length_b 16.552192
_cell_length_c 21.019453
_cell_angle_alpha 90.000000
_cell_angle_beta 90.000000
_cell_angle_gamma 90.000000
_cell_volume 3011.560653
_symmetry_space_group_name_H-M "A B M 2"
_symmetry_group_IT_number 39
_symmetry_cell_setting 'orthorhombic'
loop_
_space_group_symop_operation_xyz
x,y,z
-x,-y,z
-x,1/2+y,z
x,1/2-y,z
x,1/2+y,1/2+z
-x,1/2-y,1/2+z
-x,y,1/2+z
x,-y,1/2+z
loop_
_atom_site_type_symbol
_atom_site_label
_atom_site_fract_x
_atom_site_fract_y
_atom_site_fract_z
Si Si1 0.570562 0.090447 0.669790
Si Si2 0.583813 0.342964 0.422869
Si Si3 0.060516 0.411913 0.792249
Si Si4 0.071556 0.345294 0.925986
Si Si5 0.100289 0.657264 0.673893
Si Si6 0.427185 0.087178 0.792622
Si Si7 0.562165 0.409909 0.043508
Si Si8 0.108896 0.155037 0.552624
O O1 0.755388 0.095579 0.676590
O O2 0.492636 0.135363 0.730737
O O3 0.524797 0.132598 0.603110
O O4 0.500000 0.000000 0.663188
O O5 0.601024 0.250000 0.409437
O O6 0.754256 0.378644 0.436759
O O7 0.508972 0.378787 0.358776
O O8 0.469326 0.358474 0.480613
O O9 0.000370 0.384621 0.861928
O O10 0.244268 0.410814 0.790860
O O11 0.000000 0.500000 0.776109
O O12 0.999370 0.351838 0.737989
O O13 0.070296 0.250000 0.916335
O O14 0.975061 0.370725 0.987489
O O15 0.157867 0.750000 0.669147
O O16 0.999370 0.634722 0.612357
O O17 0.500000 0.000000 0.784321
O O18 0.500000 0.500000 0.030944
O O19 0.744046 0.403799 0.057695
O O20 0.154475 0.250000 0.552143
#
# Coordination Sequence:
#
# PCOD8181856 Si02
#       8
#     8   8   8   8   8   8   8   8
#     4  10  22  41  62  89 124 160 202 254 309 368
#     4  10  21  38  60  86 120 161 202 250 305 361
#     4  11  22  38  62  90 124 163 203 253 307 362
#     4   9  20  39  60  85 118 157 204 254 305 362
#     4  11  24  42  66  94 124 162 207 255 309 370
#     4  10  21  39  60  86 122 160 202 250 302 361
#     4  11  23  39  60  89 123 159 201 249 304 368
#     4  10  22  40  63  91 123 160 205 257 309 364
#
# _framework density 21.251439000000001
#
# number of rings (size 3 to 8) (size 9 to 14) (size 15 to 20)
#    0.000    1.750    0.000    4.125    0.000    8.000 
#    0.000    3.125    0.000    0.000    0.000    0.000 
#    0.000    0.000    0.000    0.000    0.000    0.000 
#
# Total GULP energy -396729.372977 kJ/mol
# GULP energy per Si atom -12397.792906 kJ/mol
# Density = 2.120307 g / cm^3
# Si number density = 21.251439 Si / 1000 Ang^3
#
#
#
# Elastic Constant Matrix: (Units=GPa)
#
#
# Indices 1 2 3 4 5 6 
#
# 1 113.6416 25.1592 57.1700 0.0000 0.0000 0.0000
# 2 25.1592 44.2317 17.6188 0.0000 0.0000 0.0000
# 3 57.1700 17.6188 193.7851 0.0000 0.0000 0.0000
# 4 0.0000 0.0000 0.0000 12.8004 0.0000 0.0000
# 5 0.0000 0.0000 0.0000 0.0000 22.0948 0.0000
# 6 0.0000 0.0000 0.0000 0.0000 0.0000 31.6039
#
#
#
# Elastic Compliance Matrix: (Units=1/GPa)
#
#
# Indices 1 2 3 4 5 6 
#
# 1 0.011438 -0.005356 -0.002887 0.000000 0.000000 0.000000
# 2 -0.005356 0.025966 -0.000781 0.000000 0.000000 0.000000
# 3 -0.002887 -0.000781 0.006083 0.000000 0.000000 0.000000
# 4 0.000000 0.000000 0.000000 0.078122 0.000000 0.000000
# 5 0.000000 0.000000 0.000000 0.000000 0.045259 0.000000
# 6 0.000000 0.000000 0.000000 0.000000 0.000000 0.031642
#
#
# Mechanical properties :
#
#
# Convention : Reuss Voigt Hill
#
# Bulk Modulus (GPa) = 39.31003 61.28383 50.29693
# Shear Modulus (GPa) = 22.21850 30.08052 26.14951
#
# Velocity S-wave (km/s) = 3.23694 3.76634 3.51163
# Velocity P-wave (km/s) = 5.70159 6.91476 6.33727
#
# Compressibility (1/GPa) = 0.02543880
#
# Stress axis : x y z
#
# Youngs Moduli (GPa) = 87.42863 38.51251 164.38755
#
# Poissons Ratio (x) = 0.20626 0.47466
# Poissons Ratio (y) = 0.46825 0.12834
# Poissons Ratio (z) = 0.25245 0.03007
#
# Static dielectric constant tensor:
#      x y z
#    x 3.807600 0.000000 0.000000 
#    y 0.000000 3.532600 0.000000 
#    z 0.000000 0.000000 4.540040 
# 
# 
# High freq. dielectric constant tensor:
#      x y z
#    x 1.831350 0.000000 0.000000 
#    y 0.000000 1.810000 0.000000 
#    z 0.000000 0.000000 1.865330 
# 
# From -- ./inp_files/14186.got.cif
#   From: 2010.03.12/outbox.cif.g09.slc.cpg/sg39_8_cif.got.tgz:14186.got - 2010.04.14 02:53:20.
