data_PCOD8181277
_publ_section_title
;
Structure prediction by ZEFSAII (Michael W. Deem and Ramdas Pophale) SiO2 
 PCOD8181277
Probable space group: A B M 2
;
_chemical_formula_sum "Si O2"
_cell_formula_units_Z 64
_cell_length_a 13.308111
_cell_length_b 19.026195
_cell_length_c 13.160815
_cell_angle_alpha 90.000000
_cell_angle_beta 90.000000
_cell_angle_gamma 90.000000
_cell_volume 3332.354089
_symmetry_space_group_name_H-M "A B M 2"
_symmetry_group_IT_number 39
_symmetry_cell_setting 'orthorhombic'
loop_
_space_group_symop_operation_xyz
x,y,z
-x,-y,z
-x,1/2+y,z
x,1/2-y,z
x,1/2+y,1/2+z
-x,1/2-y,1/2+z
-x,y,1/2+z
x,-y,1/2+z
loop_
_atom_site_type_symbol
_atom_site_label
_atom_site_fract_x
_atom_site_fract_y
_atom_site_fract_z
Si Si1 0.608543 0.931451 0.504970
Si Si2 0.237991 0.833648 0.658724
Si Si3 0.245530 0.563108 0.829614
Si Si4 0.759368 0.668737 0.851541
Si Si5 0.611735 0.098768 0.507706
Si Si6 0.912272 0.444807 0.003364
Si Si7 0.242982 0.565834 0.177782
Si Si8 0.067972 0.829281 0.506512
O O1 0.659722 0.915033 0.397478
O O2 0.506977 0.884800 0.504005
O O3 0.666903 0.908388 0.605900
O O4 0.608226 0.015313 0.512991
O O5 0.251974 0.750000 0.661496
O O6 0.221209 0.865346 0.769751
O O7 0.336971 0.867608 0.607128
O O8 0.138465 0.856287 0.597767
O O9 0.268951 0.499722 0.751432
O O10 0.154810 0.541366 0.903896
O O11 0.726619 0.750000 0.843753
O O12 0.779288 0.635303 0.742355
O O13 0.670182 0.626781 0.908680
O O14 0.866560 0.661406 0.905500
O O15 0.850761 0.455201 0.107116
O O16 0.000000 0.500000 0.002101
O O17 0.962299 0.368528 0.999438
O O18 0.035942 0.750000 0.525505
#
# Coordination Sequence:
#
# PCOD8181277 Si02
#       8
#     8   8   8   8   8   8   8   8
#     4  10  22  37  60  88 114 153 187 245 292 343
#     4  10  21  39  63  87 118 158 195 243 294 345
#     4  11  22  39  58  85 122 152 197 245 294 352
#     4  10  21  39  63  87 118 158 195 243 294 345
#     4  10  19  39  61  87 115 147 201 235 286 352
#     4  11  24  36  57  87 118 156 197 249 300 338
#     4  11  22  39  58  85 122 152 197 245 294 352
#     4   9  20  38  59  83 114 154 199 239 287 350
#
# _framework density 19.205642000000001
#
# number of rings (size 3 to 8) (size 9 to 14) (size 15 to 20)
#    0.000    1.750    2.500    2.625    3.500    5.500 
#    0.000    8.125    0.000    0.000    0.000    0.000 
#    0.000    0.000    0.000    0.000    0.000    0.000 
#
# Total GULP energy -396671.396330 kJ/mol
# GULP energy per Si atom -12395.981135 kJ/mol
# Density = 1.916193 g / cm^3
# Si number density = 19.205642 Si / 1000 Ang^3
#
#
#
# Elastic Constant Matrix: (Units=GPa)
#
#
# Indices 1 2 3 4 5 6 
#
# 1 74.1071 -3.6602 23.8430 0.0000 0.0000 0.0000
# 2 -3.6602 49.6745 19.5765 0.0000 0.0000 0.0000
# 3 23.8430 19.5765 119.9619 0.0000 0.0000 0.0000
# 4 0.0000 0.0000 0.0000 32.8295 0.0000 0.0000
# 5 0.0000 0.0000 0.0000 0.0000 8.6112 0.0000
# 6 0.0000 0.0000 0.0000 0.0000 0.0000 31.5130
#
#
#
# Elastic Compliance Matrix: (Units=1/GPa)
#
#
# Indices 1 2 3 4 5 6 
#
# 1 0.014675 0.002384 -0.003306 0.000000 0.000000 0.000000
# 2 0.002384 0.021902 -0.004048 0.000000 0.000000 0.000000
# 3 -0.003306 -0.004048 0.009654 0.000000 0.000000 0.000000
# 4 0.000000 0.000000 0.000000 0.030460 0.000000 0.000000
# 5 0.000000 0.000000 0.000000 0.000000 0.116128 0.000000
# 6 0.000000 0.000000 0.000000 0.000000 0.000000 0.031733
#
#
# Mechanical properties :
#
#
# Convention : Reuss Voigt Hill
#
# Bulk Modulus (GPa) = 27.55464 35.91802 31.73633
# Shear Modulus (GPa) = 20.27665 28.18968 24.23316
#
# Velocity S-wave (km/s) = 3.25278 3.83532 3.55600
# Velocity P-wave (km/s) = 5.33720 6.19317 5.78105
#
# Compressibility (1/GPa) = 0.03629153
#
# Stress axis : x y z
#
# Youngs Moduli (GPa) = 68.14142 45.65783 103.58792
#
# Poissons Ratio (x) = -0.10886 0.34245
# Poissons Ratio (y) = -0.16246 0.41933
# Poissons Ratio (z) = 0.22527 0.18482
#
# Static dielectric constant tensor:
#      x y z
#    x 3.783750 0.000000 0.000000 
#    y 0.000000 3.555710 0.000000 
#    z 0.000000 0.000000 3.667750 
# 
# 
# High freq. dielectric constant tensor:
#      x y z
#    x 1.743180 0.000000 0.000000 
#    y 0.000000 1.745350 0.000000 
#    z 0.000000 0.000000 1.753630 
# 
# From -- ./inp_files/6671.got.cif
#   From: 2010.03.12/outbox.cif.g09.slc.cpg/sg39_4_cif.got.tgz:6671.got - 2010.04.14 02:53:20.
