data_PCOD8181166
_publ_section_title
;
Structure prediction by ZEFSAII (Michael W. Deem and Ramdas Pophale) SiO2 
 PCOD8181166
Probable space group: A B M 2
;
_chemical_formula_sum "Si O2"
_cell_formula_units_Z 64
_cell_length_a 21.395182
_cell_length_b 8.604305
_cell_length_c 16.364047
_cell_angle_alpha 90.000000
_cell_angle_beta 90.000000
_cell_angle_gamma 90.000000
_cell_volume 3012.468400
_symmetry_space_group_name_H-M "A B M 2"
_symmetry_group_IT_number 39
_symmetry_cell_setting 'orthorhombic'
loop_
_space_group_symop_operation_xyz
x,y,z
-x,-y,z
-x,1/2+y,z
x,1/2-y,z
x,1/2+y,1/2+z
-x,1/2-y,1/2+z
-x,y,1/2+z
x,-y,1/2+z
loop_
_atom_site_type_symbol
_atom_site_label
_atom_site_fract_x
_atom_site_fract_y
_atom_site_fract_z
Si Si1 0.376218 0.065275 0.736980
Si Si2 0.739123 0.919661 0.166311
Si Si3 0.147588 0.082933 0.273582
Si Si4 0.231991 0.074692 0.896477
Si Si5 0.183229 0.074231 0.544114
Si Si6 0.432093 0.065271 0.067749
Si Si7 0.634821 0.932587 0.408215
Si Si8 0.936142 0.572061 0.655985
O O1 0.382872 0.250000 0.736332
O O2 0.304230 0.009810 0.731287
O O3 0.410741 0.996586 0.657042
O O4 0.399580 0.001710 0.825935
O O5 0.708854 0.750000 0.141514
O O6 0.807755 0.881566 0.197791
O O7 0.751712 0.035872 0.091495
O O8 0.135335 0.250000 0.318841
O O9 0.186092 0.954411 0.321684
O O10 0.082464 0.013650 0.240690
O O11 0.257523 0.250000 0.894365
O O12 0.291013 0.959962 0.900526
O O13 0.183806 0.045313 0.969959
O O14 0.189050 0.250000 0.513062
O O15 0.118351 0.049734 0.590451
O O16 0.433448 0.250000 0.070803
O O17 0.500000 0.000000 0.048540
O O18 0.388490 0.011123 0.992491
O O19 0.620717 0.750000 0.411623
O O20 0.947499 0.750000 0.677064
O O21 0.000000 0.500000 0.620871
#
# Coordination Sequence:
#
# PCOD8181166 Si02
#       8
#     8   8   8   8   8   8   8   8
#     4  12  24  41  67  99 132 172 217 268 326 390
#     4  10  19  34  57  87 120 155 196 247 306 370
#     4  10  20  35  58  85 119 156 196 246 304 366
#     4  12  23  37  59  91 127 160 201 255 318 382
#     4  10  21  36  56  83 118 159 201 252 310 374
#     4  12  27  49  71  97 132 174 224 276 328 390
#     4  12  25  44  69 100 136 177 221 272 332 395
#     4  10  21  38  60  84 114 155 205 254 306 369
#
# _framework density 21.245035000000001
#
# number of rings (size 3 to 8) (size 9 to 14) (size 15 to 20)
#    0.000    1.000    1.250    6.750    0.000    3.000 
#    0.000    3.125    0.000    1.500    0.000    0.000 
#    0.000    0.000    0.000    0.000    0.000    0.000 
#
# Total GULP energy -396498.783231 kJ/mol
# GULP energy per Si atom -12390.586976 kJ/mol
# Density = 2.119668 g / cm^3
# Si number density = 21.245035 Si / 1000 Ang^3
#
#
#
# Elastic Constant Matrix: (Units=GPa)
#
#
# Indices 1 2 3 4 5 6 
#
# 1 65.4164 33.7149 31.5378 0.0000 0.0000 0.0000
# 2 33.7149 164.6019 44.9284 0.0000 0.0000 0.0000
# 3 31.5378 44.9284 104.0863 0.0000 0.0000 0.0000
# 4 0.0000 0.0000 0.0000 36.0455 0.0000 0.0000
# 5 0.0000 0.0000 0.0000 0.0000 14.2939 0.0000
# 6 0.0000 0.0000 0.0000 0.0000 0.0000 28.2288
#
#
#
# Elastic Compliance Matrix: (Units=1/GPa)
#
#
# Indices 1 2 3 4 5 6 
#
# 1 0.018840 -0.002608 -0.004583 0.000000 0.000000 0.000000
# 2 -0.002608 0.007248 -0.002338 0.000000 0.000000 0.000000
# 3 -0.004583 -0.002338 0.012005 0.000000 0.000000 0.000000
# 4 0.000000 0.000000 0.000000 0.027743 0.000000 0.000000
# 5 0.000000 0.000000 0.000000 0.000000 0.069960 0.000000
# 6 0.000000 0.000000 0.000000 0.000000 0.000000 0.035425
#
#
# Mechanical properties :
#
#
# Convention : Reuss Voigt Hill
#
# Bulk Modulus (GPa) = 52.53460 61.60743 57.07102
# Shear Modulus (GPa) = 25.42928 30.64187 28.03557
#
# Velocity S-wave (km/s) = 3.46345 3.80189 3.63661
# Velocity P-wave (km/s) = 6.38558 6.95226 6.67494
#
# Compressibility (1/GPa) = 0.01903507
#
# Stress axis : x y z
#
# Youngs Moduli (GPa) = 53.07783 137.97505 83.29691
#
# Poissons Ratio (x) = 0.35986 0.38173
# Poissons Ratio (y) = 0.13843 0.19476
# Poissons Ratio (z) = 0.24324 0.32261
#
# Static dielectric constant tensor:
#      x y z
#    x 3.690940 0.000000 0.000000 
#    y 0.000000 4.291680 0.000000 
#    z 0.000000 0.000000 4.112330 
# 
# 
# High freq. dielectric constant tensor:
#      x y z
#    x 1.813060 0.000000 0.000000 
#    y 0.000000 1.853470 0.000000 
#    z 0.000000 0.000000 1.834000 
# 
# From -- ./inp_files/13191.got.cif
#   From: 2010.03.12/outbox.cif.g09.slc.cpg/sg39_7_cif.got.tgz:13191.got - 2010.04.14 02:53:20.
