data_PCOD8181650
_publ_section_title
;
Structure prediction by ZEFSAII (Michael W. Deem and Ramdas Pophale) SiO2 
 PCOD8181650
Probable space group: A B M 2
;
_chemical_formula_sum "Si O2"
_cell_formula_units_Z 64
_cell_length_a 8.687454
_cell_length_b 15.837584
_cell_length_c 23.490592
_cell_angle_alpha 90.000000
_cell_angle_beta 90.000000
_cell_angle_gamma 90.000000
_cell_volume 3232.030208
_symmetry_space_group_name_H-M "A B M 2"
_symmetry_group_IT_number 39
_symmetry_cell_setting 'orthorhombic'
loop_
_space_group_symop_operation_xyz
x,y,z
-x,-y,z
-x,1/2+y,z
x,1/2-y,z
x,1/2+y,1/2+z
-x,1/2-y,1/2+z
-x,y,1/2+z
x,-y,1/2+z
loop_
_atom_site_type_symbol
_atom_site_label
_atom_site_fract_x
_atom_site_fract_y
_atom_site_fract_z
Si Si1 0.818876 0.498931 0.422270
Si Si2 0.821065 0.844251 0.842350
Si Si3 0.679605 0.490186 0.044142
Si Si4 0.106642 0.419974 0.130598
Si Si5 0.333568 0.099591 0.731268
Si Si6 0.804534 0.655333 0.613712
Si Si7 0.825856 0.155529 0.845503
Si Si8 0.317895 0.404850 0.234279
O O1 0.767722 0.416520 0.386299
O O2 0.719565 0.494466 0.478930
O O3 0.771717 0.585398 0.390610
O O4 0.000000 0.500000 0.436789
O O5 0.799652 0.750000 0.869015
O O6 0.724803 0.845430 0.784108
O O7 0.998609 0.861571 0.827319
O O8 0.500000 0.500000 0.055432
O O9 0.771390 0.558030 0.081714
O O10 0.726431 0.396094 0.062694
O O11 0.199433 0.383429 0.184098
O O12 0.000000 0.500000 0.147049
O O13 0.990419 0.348021 0.107879
O O14 0.236977 0.117116 0.674970
O O15 0.509981 0.121102 0.716387
O O16 0.309767 0.003213 0.749601
O O17 0.744751 0.750000 0.607953
O O18 0.804858 0.250000 0.871335
O O19 0.724102 0.149253 0.789242
#
# Coordination Sequence:
#
# PCOD8181650 Si02
#       8
#     8   8   8   8   8   8   8   8
#     4  10  21  39  62  85 117 160 203 250 301 346
#     4  10  21  38  61  89 119 157 202 247 293 355
#     4  11  23  42  64  88 117 159 202 243 305 372
#     4  10  20  37  62  84 115 155 198 243 290 356
#     4  11  21  35  58  90 126 160 195 240 305 364
#     4  11  23  39  63  93 120 154 201 253 300 354
#     4  10  22  37  59  89 120 156 206 249 290 352
#     4  11  21  34  58  89 123 162 196 241 301 364
#
# _framework density 19.801794000000001
#
# number of rings (size 3 to 8) (size 9 to 14) (size 15 to 20)
#    0.000    1.500    3.750    3.000    0.000    4.000 
#    0.000    5.625    0.000    0.000    0.000    0.000 
#    0.000    0.000    0.000    0.000    0.000    0.000 
#
# Total GULP energy -396851.743002 kJ/mol
# GULP energy per Si atom -12401.616969 kJ/mol
# Density = 1.975672 g / cm^3
# Si number density = 19.801794 Si / 1000 Ang^3
#
#
#
# Elastic Constant Matrix: (Units=GPa)
#
#
# Indices 1 2 3 4 5 6 
#
# 1 112.1413 22.6486 41.9791 0.0000 0.0000 0.0000
# 2 22.6486 95.1675 26.5305 0.0000 0.0000 0.0000
# 3 41.9791 26.5305 97.8524 0.0000 0.0000 0.0000
# 4 0.0000 0.0000 0.0000 13.2220 0.0000 0.0000
# 5 0.0000 0.0000 0.0000 0.0000 16.9613 0.0000
# 6 0.0000 0.0000 0.0000 0.0000 0.0000 14.7031
#
#
#
# Elastic Compliance Matrix: (Units=1/GPa)
#
#
# Indices 1 2 3 4 5 6 
#
# 1 0.010789 -0.001382 -0.004254 0.000000 0.000000 0.000000
# 2 -0.001382 0.011544 -0.002537 0.000000 0.000000 0.000000
# 3 -0.004254 -0.002537 0.012732 0.000000 0.000000 0.000000
# 4 0.000000 0.000000 0.000000 0.075632 0.000000 0.000000
# 5 0.000000 0.000000 0.000000 0.000000 0.058958 0.000000
# 6 0.000000 0.000000 0.000000 0.000000 0.000000 0.068013
#
#
# Mechanical properties :
#
#
# Convention : Reuss Voigt Hill
#
# Bulk Modulus (GPa) = 53.41981 54.16419 53.79200
# Shear Modulus (GPa) = 19.21212 23.24413 21.22812
#
# Velocity S-wave (km/s) = 3.11822 3.42985 3.27774
# Velocity P-wave (km/s) = 6.32457 6.56489 6.44585
#
# Compressibility (1/GPa) = 0.01871965
#
# Stress axis : x y z
#
# Youngs Moduli (GPa) = 92.68910 86.62580 78.54069
#
# Poissons Ratio (x) = 0.11969 0.33410
# Poissons Ratio (y) = 0.12807 0.19927
# Poissons Ratio (z) = 0.39428 0.21978
#
# Static dielectric constant tensor:
#      x y z
#    x 3.743060 0.000000 0.000000 
#    y 0.000000 3.658230 0.000000 
#    z 0.000000 0.000000 3.392680 
# 
# 
# High freq. dielectric constant tensor:
#      x y z
#    x 1.776610 0.000000 0.000000 
#    y 0.000000 1.768000 0.000000 
#    z 0.000000 0.000000 1.758480 
# 
# From -- ./inp_files/14217.got.cif
#   From: 2010.03.12/outbox.cif.g09.slc.cpg/sg39_8_cif.got.tgz:14217.got - 2010.04.14 02:53:20.
