data_PCOD8181424
_publ_section_title
;
Structure prediction by ZEFSAII (Michael W. Deem and Ramdas Pophale) SiO2 
 PCOD8181424
Probable space group: A B M 2
;
_chemical_formula_sum "Si O2"
_cell_formula_units_Z 64
_cell_length_a 20.654531
_cell_length_b 8.889952
_cell_length_c 18.394387
_cell_angle_alpha 90.000000
_cell_angle_beta 90.000000
_cell_angle_gamma 90.000000
_cell_volume 3377.536674
_symmetry_space_group_name_H-M "A B M 2"
_symmetry_group_IT_number 39
_symmetry_cell_setting 'orthorhombic'
loop_
_space_group_symop_operation_xyz
x,y,z
-x,-y,z
-x,1/2+y,z
x,1/2-y,z
x,1/2+y,1/2+z
-x,1/2-y,1/2+z
-x,y,1/2+z
x,-y,1/2+z
loop_
_atom_site_type_symbol
_atom_site_label
_atom_site_fract_x
_atom_site_fract_y
_atom_site_fract_z
Si Si1 0.437004 0.918031 0.041070
Si Si2 0.066053 0.925307 0.048048
Si Si3 0.192339 0.923201 0.964223
Si Si4 0.696437 0.571933 0.049757
Si Si5 0.702279 0.430096 0.204054
Si Si6 0.439026 0.914228 0.213058
Si Si7 0.933068 0.572546 0.715568
Si Si8 0.813640 0.076636 0.793046
O O1 0.430870 0.750000 0.008013
O O2 0.446350 0.906174 0.126879
O O3 0.500000 0.000000 0.006876
O O4 0.372915 0.012161 0.022279
O O5 0.056308 0.750000 0.037276
O O6 0.079988 0.967322 0.131595
O O7 0.126430 0.983963 0.001010
O O8 0.000000 0.000000 0.019704
O O9 0.205299 0.750000 0.986902
O O10 0.185145 0.940475 0.878823
O O11 0.251234 0.026993 0.989599
O O12 0.692699 0.750000 0.058805
O O13 0.718712 0.498587 0.125606
O O14 0.703860 0.250000 0.196529
O O15 0.631092 0.487005 0.230474
O O16 0.752387 0.486470 0.263212
O O17 0.441674 0.750000 0.248168
O O18 0.500000 0.000000 0.248161
O O19 0.934487 0.750000 0.729239
O O20 0.877966 0.497458 0.762879
O O21 0.000000 0.500000 0.741844
O O22 0.809518 0.250000 0.768660
#
# Coordination Sequence:
#
# PCOD8181424 Si02
#       8
#     8   8   8   8   8   8   8   8
#     4   9  16  28  47  74 108 141 175 220 273 323
#     4   9  19  36  58  81 105 136 172 214 265 318
#     4  10  22  39  55  76 110 146 179 222 275 324
#     4  11  21  33  54  82 108 140 184 228 272 326
#     4  10  20  35  54  77 108 144 180 223 275 326
#     4   8  15  26  44  71 101 133 168 211 263 316
#     4  10  20  36  59  83 109 141 177 220 270 323
#     4  11  23  37  55  80 109 143 184 228 273 324
#
# _framework density 18.948720999999999
#
# number of rings (size 3 to 8) (size 9 to 14) (size 15 to 20)
#    0.000    2.250    0.000    4.125    0.000    7.000 
#    0.000    1.250    0.000    0.750    0.000    1.750 
#    0.000    0.000    0.000    0.000    0.000    0.000 
#
# Total GULP energy -396800.824967 kJ/mol
# GULP energy per Si atom -12400.025780 kJ/mol
# Density = 1.890559 g / cm^3
# Si number density = 18.948721 Si / 1000 Ang^3
#
#
#
# Elastic Constant Matrix: (Units=GPa)
#
#
# Indices 1 2 3 4 5 6 
#
# 1 170.1822 68.2455 54.7319 0.0000 0.0000 0.0000
# 2 68.2455 113.7312 36.9426 0.0000 0.0000 0.0000
# 3 54.7319 36.9426 55.0369 0.0000 0.0000 0.0000
# 4 0.0000 0.0000 0.0000 22.1523 0.0000 0.0000
# 5 0.0000 0.0000 0.0000 0.0000 0.4253 0.0000
# 6 0.0000 0.0000 0.0000 0.0000 0.0000 38.8588
#
#
#
# Elastic Compliance Matrix: (Units=1/GPa)
#
#
# Indices 1 2 3 4 5 6 
#
# 1 0.009561 -0.003387 -0.007234 0.000000 0.000000 0.000000
# 2 -0.003387 0.012444 -0.004985 0.000000 0.000000 0.000000
# 3 -0.007234 -0.004985 0.028710 0.000000 0.000000 0.000000
# 4 0.000000 0.000000 0.000000 0.045142 0.000000 0.000000
# 5 0.000000 0.000000 0.000000 0.000000 2.351080 0.000000
# 6 0.000000 0.000000 0.000000 0.000000 0.000000 0.025734
#
#
# Mechanical properties :
#
#
# Convention : Reuss Voigt Hill
#
# Bulk Modulus (GPa) = 51.27508 73.19891 62.23700
# Shear Modulus (GPa) = 1.99173 24.22265 13.10719
#
# Velocity S-wave (km/s) = 1.02635 3.57925 2.63291
# Velocity P-wave (km/s) = 5.34071 7.46962 6.49301
#
# Compressibility (1/GPa) = 0.01950265
#
# Stress axis : x y z
#
# Youngs Moduli (GPa) = 104.59115 80.35779 34.83143
#
# Poissons Ratio (x) = 0.27220 0.25198
# Poissons Ratio (y) = 0.35428 0.17362
# Poissons Ratio (z) = 0.75665 0.40055
#
# Static dielectric constant tensor:
#      x y z
#    x 3.759700 0.000000 0.000000 
#    y 0.000000 3.527710 0.000000 
#    z 0.000000 0.000000 3.109240 
# 
# 
# High freq. dielectric constant tensor:
#      x y z
#    x 1.756820 0.000000 0.000000 
#    y 0.000000 1.743250 0.000000 
#    z 0.000000 0.000000 1.696060 
# 
# From -- ./inp_files/13102.got.cif
#   From: 2010.03.12/outbox.cif.g09.slc.cpg/sg39_7_cif.got.tgz:13102.got - 2010.04.14 02:53:20.
