data_PCOD8181739
_publ_section_title
;
Structure prediction by ZEFSAII (Michael W. Deem and Ramdas Pophale) SiO2 
 PCOD8181739
Probable space group: A B M 2
;
_chemical_formula_sum "Si O2"
_cell_formula_units_Z 64
_cell_length_a 11.255014
_cell_length_b 14.755842
_cell_length_c 18.172450
_cell_angle_alpha 90.000000
_cell_angle_beta 90.000000
_cell_angle_gamma 90.000000
_cell_volume 3018.029764
_symmetry_space_group_name_H-M "A B M 2"
_symmetry_group_IT_number 39
_symmetry_cell_setting 'orthorhombic'
loop_
_space_group_symop_operation_xyz
x,y,z
-x,-y,z
-x,1/2+y,z
x,1/2-y,z
x,1/2+y,1/2+z
-x,1/2-y,1/2+z
-x,y,1/2+z
x,-y,1/2+z
loop_
_atom_site_type_symbol
_atom_site_label
_atom_site_fract_x
_atom_site_fract_y
_atom_site_fract_z
Si Si1 0.865707 0.990752 0.659050
Si Si2 0.130783 0.984860 0.992037
Si Si3 0.461949 0.353112 0.020066
Si Si4 0.680250 0.353344 0.937780
Si Si5 0.682808 0.358471 0.658128
Si Si6 0.245527 0.851342 0.428904
Si Si7 0.529847 0.101830 0.797751
Si Si8 0.733565 0.648217 0.765147
O O1 0.870698 0.950457 0.576166
O O2 0.809767 0.091225 0.658741
O O3 0.785404 0.922171 0.706696
O O4 0.000000 0.000000 0.690388
O O5 0.185668 0.084632 0.988502
O O6 0.202245 0.915292 0.939185
O O7 0.000000 0.000000 0.959461
O O8 0.483734 0.250000 0.042497
O O9 0.393629 0.397083 0.088835
O O10 0.592080 0.394171 0.001721
O O11 0.387027 0.359360 0.943824
O O12 0.718470 0.250000 0.953985
O O13 0.607313 0.352848 0.862018
O O14 0.703747 0.250000 0.655993
O O15 0.614882 0.393566 0.728464
O O16 0.201043 0.750000 0.446237
O O17 0.215454 0.879083 0.345431
O O18 0.409018 0.151601 0.773440
O O19 0.500000 0.000000 0.820875
O O20 0.774074 0.750000 0.743315
#
# Coordination Sequence:
#
# PCOD8181739 Si02
#       8
#     8   8   8   8   8   8   8   8
#     4  11  26  46  65  93 133 181 234 277 331 406
#     4  11  26  44  66  95 130 179 230 278 331 398
#     4   9  19  36  63  94 124 164 213 267 337 409
#     4  11  24  42  65 100 139 174 218 279 345 414
#     4  11  23  40  64  95 131 173 219 278 346 412
#     4  10  20  41  68  93 124 167 219 273 330 398
#     4  12  23  39  66 100 136 174 209 275 351 416
#     4  11  23  42  67  97 133 174 219 273 338 409
#
# _framework density 21.205886
#
# number of rings (size 3 to 8) (size 9 to 14) (size 15 to 20)
#    0.000    1.250    3.750    1.875    1.750    2.000 
#    0.000    2.500    0.000    0.000    0.000    0.000 
#    0.000    0.000    0.000    0.000    0.000    0.000 
#
# Total GULP energy -396622.767596 kJ/mol
# GULP energy per Si atom -12394.461487 kJ/mol
# Density = 2.115762 g / cm^3
# Si number density = 21.205886 Si / 1000 Ang^3
#
#
#
# Elastic Constant Matrix: (Units=GPa)
#
#
# Indices 1 2 3 4 5 6 
#
# 1 141.3936 48.5285 50.4092 0.0000 0.0000 0.0000
# 2 48.5285 103.0739 30.5489 0.0000 0.0000 0.0000
# 3 50.4092 30.5489 84.8033 0.0000 0.0000 0.0000
# 4 0.0000 0.0000 0.0000 23.2559 0.0000 0.0000
# 5 0.0000 0.0000 0.0000 0.0000 30.6537 0.0000
# 6 0.0000 0.0000 0.0000 0.0000 0.0000 16.8202
#
#
#
# Elastic Compliance Matrix: (Units=1/GPa)
#
#
# Indices 1 2 3 4 5 6 
#
# 1 0.009861 -0.003253 -0.004690 0.000000 0.000000 0.000000
# 2 -0.003253 0.011934 -0.002366 0.000000 0.000000 0.000000
# 3 -0.004690 -0.002366 0.015432 0.000000 0.000000 0.000000
# 4 0.000000 0.000000 0.000000 0.043000 0.000000 0.000000
# 5 0.000000 0.000000 0.000000 0.000000 0.032623 0.000000
# 6 0.000000 0.000000 0.000000 0.000000 0.000000 0.059452
#
#
# Mechanical properties :
#
#
# Convention : Reuss Voigt Hill
#
# Bulk Modulus (GPa) = 60.20181 65.36046 62.78113
# Shear Modulus (GPa) = 25.19466 27.46491 26.32978
#
# Velocity S-wave (km/s) = 3.45062 3.60273 3.52749
# Velocity P-wave (km/s) = 6.65782 6.94226 6.80153
#
# Compressibility (1/GPa) = 0.01661080
#
# Stress axis : x y z
#
# Youngs Moduli (GPa) = 101.41158 83.79216 64.80077
#
# Poissons Ratio (x) = 0.27255 0.30390
# Poissons Ratio (y) = 0.32986 0.15330
# Poissons Ratio (z) = 0.47560 0.19822
#
# Static dielectric constant tensor:
#      x y z
#    x 3.817800 0.000000 0.000000 
#    y 0.000000 3.741210 0.000000 
#    z 0.000000 0.000000 3.875390 
# 
# 
# High freq. dielectric constant tensor:
#      x y z
#    x 1.818450 0.000000 0.000000 
#    y 0.000000 1.830920 0.000000 
#    z 0.000000 0.000000 1.835720 
# 
# From -- ./inp_files/12357.got.cif
#   From: 2010.03.12/outbox.cif.g09.slc.cpg/sg39_7_cif.got.tgz:12357.got - 2010.04.14 02:53:20.
