data_PCOD8181382
_publ_section_title
;
Structure prediction by ZEFSAII (Michael W. Deem and Ramdas Pophale) SiO2 
 PCOD8181382
Probable space group: A B M 2
;
_chemical_formula_sum "Si O2"
_cell_formula_units_Z 48
_cell_length_a 16.445040
_cell_length_b 8.699705
_cell_length_c 18.275973
_cell_angle_alpha 90.000000
_cell_angle_beta 90.000000
_cell_angle_gamma 90.000000
_cell_volume 2614.688569
_symmetry_space_group_name_H-M "A B M 2"
_symmetry_group_IT_number 39
_symmetry_cell_setting 'orthorhombic'
loop_
_space_group_symop_operation_xyz
x,y,z
-x,-y,z
-x,1/2+y,z
x,1/2-y,z
x,1/2+y,1/2+z
-x,1/2-y,1/2+z
-x,y,1/2+z
x,-y,1/2+z
loop_
_atom_site_type_symbol
_atom_site_label
_atom_site_fract_x
_atom_site_fract_y
_atom_site_fract_z
Si Si1 0.171784 0.572173 0.503230
Si Si2 0.414062 0.429207 0.448964
Si Si3 0.236960 0.930098 0.709022
Si Si4 0.263743 0.428306 0.863896
Si Si5 0.915982 0.430926 0.125272
Si Si6 0.320763 0.427885 0.586452
O O1 0.163446 0.750000 0.523892
O O2 0.184157 0.549100 0.416169
O O3 0.095700 0.483737 0.540012
O O4 0.251148 0.502879 0.538895
O O5 0.500000 0.500000 0.426839
O O6 0.411062 0.250000 0.428326
O O7 0.345873 0.516071 0.402554
O O8 0.401679 0.451005 0.537236
O O9 0.227149 0.750000 0.700134
O O10 0.246848 0.971257 0.793143
O O11 0.157383 0.010624 0.675867
O O12 0.318564 0.986992 0.665283
O O13 0.274267 0.250000 0.843169
O O14 0.920420 0.250000 0.129893
O O15 0.000000 0.500000 0.155522
O O16 0.301900 0.250000 0.600146
#
# Coordination Sequence:
#
# PCOD8181382 Si02
#       6
#     8   8   8   8   8   8
#     4   9  17  31  52  76 100 130 169 209 251 303
#     4  10  20  34  54  79 106 137 174 218 265 312
#     4  11  21  34  54  79 107 139 177 216 261 316
#     4  10  20  35  55  78 107 141 177 216 260 313
#     4  11  21  35  55  78 106 137 173 217 263 310
#     4   9  17  31  51  74 100 132 171 210 252 304
#
# _framework density 18.357827
#
# number of rings (size 3 to 8) (size 9 to 14) (size 15 to 20)
#    0.000    2.000    0.000    7.000    0.000    4.000 
#    0.000    1.667    0.000    6.000    0.000    0.000 
#    0.000    0.000    0.000    0.000    0.000    0.000 
#
# Total GULP energy -297407.702553 kJ/mol
# GULP energy per Si atom -12391.987606 kJ/mol
# Density = 1.831604 g / cm^3
# Si number density = 18.357827 Si / 1000 Ang^3
#
#
#
# Elastic Constant Matrix: (Units=GPa)
#
#
# Indices 1 2 3 4 5 6 
#
# 1 72.9210 31.3068 27.5777 0.0000 0.0000 0.0000
# 2 31.3068 140.0359 40.7105 0.0000 0.0000 0.0000
# 3 27.5777 40.7105 104.8813 0.0000 0.0000 0.0000
# 4 0.0000 0.0000 0.0000 32.6060 0.0000 0.0000
# 5 0.0000 0.0000 0.0000 0.0000 16.9201 0.0000
# 6 0.0000 0.0000 0.0000 0.0000 0.0000 26.6671
#
#
#
# Elastic Compliance Matrix: (Units=1/GPa)
#
#
# Indices 1 2 3 4 5 6 
#
# 1 0.016063 -0.002664 -0.003190 0.000000 0.000000 0.000000
# 2 -0.002664 0.008491 -0.002595 0.000000 0.000000 0.000000
# 3 -0.003190 -0.002595 0.011381 0.000000 0.000000 0.000000
# 4 0.000000 0.000000 0.000000 0.030669 0.000000 0.000000
# 5 0.000000 0.000000 0.000000 0.000000 0.059101 0.000000
# 6 0.000000 0.000000 0.000000 0.000000 0.000000 0.037499
#
#
# Mechanical properties :
#
#
# Convention : Reuss Voigt Hill
#
# Bulk Modulus (GPa) = 52.52881 57.44755 54.98818
# Shear Modulus (GPa) = 26.81700 29.78820 28.30260
#
# Velocity S-wave (km/s) = 3.82618 4.03257 3.93073
# Velocity P-wave (km/s) = 6.94230 7.28309 7.11473
#
# Compressibility (1/GPa) = 0.01903717
#
# Stress axis : x y z
#
# Youngs Moduli (GPa) = 62.25309 117.77031 87.86765
#
# Poissons Ratio (x) = 0.31373 0.28028
# Poissons Ratio (y) = 0.16583 0.22806
# Poissons Ratio (z) = 0.19857 0.30567
#
# Static dielectric constant tensor:
#      x y z
#    x 3.424480 0.000000 0.000000 
#    y 0.000000 3.570800 0.000000 
#    z 0.000000 0.000000 3.757690 
# 
# 
# High freq. dielectric constant tensor:
#      x y z
#    x 1.685390 0.000000 0.000000 
#    y 0.000000 1.735410 0.000000 
#    z 0.000000 0.000000 1.706750 
# 
# From -- ./inp_files/14898.got.cif
#   From: 2010.03.12/outbox.cif.g09.slc.cpg/sg39_8_cif.got.tgz:14898.got - 2010.04.14 02:53:20.
