data_PCOD8181434
_publ_section_title
;
Structure prediction by ZEFSAII (Michael W. Deem and Ramdas Pophale) SiO2 
 PCOD8181434
Probable space group: A B M 2
;
_chemical_formula_sum "Si O2"
_cell_formula_units_Z 56
_cell_length_a 19.397338
_cell_length_b 8.967784
_cell_length_c 15.692390
_cell_angle_alpha 90.000000
_cell_angle_beta 90.000000
_cell_angle_gamma 90.000000
_cell_volume 2729.709088
_symmetry_space_group_name_H-M "A B M 2"
_symmetry_group_IT_number 39
_symmetry_cell_setting 'orthorhombic'
loop_
_space_group_symop_operation_xyz
x,y,z
-x,-y,z
-x,1/2+y,z
x,1/2-y,z
x,1/2+y,1/2+z
-x,1/2-y,1/2+z
-x,y,1/2+z
x,-y,1/2+z
loop_
_atom_site_type_symbol
_atom_site_label
_atom_site_fract_x
_atom_site_fract_y
_atom_site_fract_z
Si Si1 0.206978 0.579440 0.396980
Si Si2 0.067951 0.921293 0.650541
Si Si3 0.337404 0.573311 0.830523
Si Si4 0.930612 0.576288 0.350098
Si Si5 0.656205 0.926089 0.659590
Si Si6 0.573609 0.574042 0.492956
Si Si7 0.785796 0.079658 0.591383
O O1 0.200970 0.750000 0.365513
O O2 0.260293 0.491599 0.337429
O O3 0.133133 0.501841 0.395600
O O4 0.234854 0.571228 0.492957
O O5 0.057907 0.750000 0.628999
O O6 0.076240 0.952800 0.750085
O O7 0.136747 0.982377 0.604890
O O8 0.000000 0.000000 0.613135
O O9 0.333137 0.750000 0.823101
O O10 0.372079 0.505487 0.745196
O O11 0.381845 0.521929 0.911773
O O12 0.931695 0.750000 0.373075
O O13 0.000000 0.500000 0.385436
O O14 0.653275 0.750000 0.671883
O O15 0.609823 0.979503 0.580122
O O16 0.734699 0.975987 0.644575
O O17 0.500000 0.500000 0.485797
O O18 0.564593 0.750000 0.492729
O O19 0.780454 0.250000 0.625490
#
# Coordination Sequence:
#
# PCOD8181434 Si02
#       7
#     8   8   8   8   8   8   8
#     4  11  22  36  58  88 120 158 206 259 314 374
#     4   9  19  35  53  76 107 147 196 248 304 364
#     4  11  23  42  65  93 128 168 210 256 310 370
#     4  10  20  35  55  78 112 156 204 260 318 375
#     4  11  23  41  65  96 127 163 211 257 306 371
#     4  10  24  44  67  95 131 166 205 252 306 370
#     4  10  21  37  58  86 120 158 202 254 311 372
#
# _framework density 20.515007000000001
#
# number of rings (size 3 to 8) (size 9 to 14) (size 15 to 20)
#    0.000    1.714    1.429    2.571    0.000    6.286 
#    0.000    4.286    0.000    0.000    0.000    0.000 
#    0.000    0.000    0.000    0.000    0.000    0.000 
#
# Total GULP energy -347319.107373 kJ/mol
# GULP energy per Si atom -12404.253835 kJ/mol
# Density = 2.046831 g / cm^3
# Si number density = 20.515007 Si / 1000 Ang^3
#
#
#
# Elastic Constant Matrix: (Units=GPa)
#
#
# Indices 1 2 3 4 5 6 
#
# 1 126.1540 47.6794 52.2151 0.0000 0.0000 0.0000
# 2 47.6794 92.8127 51.5099 0.0000 0.0000 0.0000
# 3 52.2151 51.5099 114.4795 0.0000 0.0000 0.0000
# 4 0.0000 0.0000 0.0000 30.3527 0.0000 0.0000
# 5 0.0000 0.0000 0.0000 0.0000 25.6846 0.0000
# 6 0.0000 0.0000 0.0000 0.0000 0.0000 41.2748
#
#
#
# Elastic Compliance Matrix: (Units=1/GPa)
#
#
# Indices 1 2 3 4 5 6 
#
# 1 0.010645 -0.003697 -0.003192 0.000000 0.000000 0.000000
# 2 -0.003697 0.015644 -0.005353 0.000000 0.000000 0.000000
# 3 -0.003192 -0.005353 0.012600 0.000000 0.000000 0.000000
# 4 0.000000 0.000000 0.000000 0.032946 0.000000 0.000000
# 5 0.000000 0.000000 0.000000 0.000000 0.038934 0.000000
# 6 0.000000 0.000000 0.000000 0.000000 0.000000 0.024228
#
#
# Mechanical properties :
#
#
# Convention : Reuss Voigt Hill
#
# Bulk Modulus (GPa) = 69.41838 70.69502 70.05670
# Shear Modulus (GPa) = 30.43532 31.59853 31.01693
#
# Velocity S-wave (km/s) = 3.85588 3.92888 3.89255
# Velocity P-wave (km/s) = 7.33042 7.42404 7.37738
#
# Compressibility (1/GPa) = 0.01440541
#
# Stress axis : x y z
#
# Youngs Moduli (GPa) = 93.93844 63.92028 79.36799
#
# Poissons Ratio (x) = 0.23633 0.25333
# Poissons Ratio (y) = 0.34731 0.42485
# Poissons Ratio (z) = 0.29984 0.34216
#
# Static dielectric constant tensor:
#      x y z
#    x 3.681660 0.000000 0.000000 
#    y 0.000000 3.668630 0.000000 
#    z 0.000000 0.000000 3.800410 
# 
# 
# High freq. dielectric constant tensor:
#      x y z
#    x 1.800850 0.000000 0.000000 
#    y 0.000000 1.801260 0.000000 
#    z 0.000000 0.000000 1.807100 
# 
# From -- ./inp_files/10362.got.cif
#   From: 2010.03.12/outbox.cif.g09.slc.cpg/sg39_6_cif.got.tgz:10362.got - 2010.04.14 02:53:20.
