data_PCOD8181525
_publ_section_title
;
Structure prediction by ZEFSAII (Michael W. Deem and Ramdas Pophale) SiO2 
 PCOD8181525
Probable space group: A B M 2
;
_chemical_formula_sum "Si O2"
_cell_formula_units_Z 64
_cell_length_a 20.699679
_cell_length_b 8.860595
_cell_length_c 19.489955
_cell_angle_alpha 90.000000
_cell_angle_beta 90.000000
_cell_angle_gamma 90.000000
_cell_volume 3574.681341
_symmetry_space_group_name_H-M "A B M 2"
_symmetry_group_IT_number 39
_symmetry_cell_setting 'orthorhombic'
loop_
_space_group_symop_operation_xyz
x,y,z
-x,-y,z
-x,1/2+y,z
x,1/2-y,z
x,1/2+y,1/2+z
-x,1/2-y,1/2+z
-x,y,1/2+z
x,-y,1/2+z
loop_
_atom_site_type_symbol
_atom_site_label
_atom_site_fract_x
_atom_site_fract_y
_atom_site_fract_z
Si Si1 0.674118 0.428795 0.901490
Si Si2 0.935302 0.920949 0.393721
Si Si3 0.813098 0.584061 0.058871
Si Si4 0.433009 0.928027 0.659855
Si Si5 0.672881 0.573043 0.046776
Si Si6 0.569016 0.930376 0.803545
Si Si7 0.062931 0.582814 0.057414
Si Si8 0.192872 0.580475 0.395856
O O1 0.668015 0.250000 0.891755
O O2 0.620994 0.515645 0.857963
O O3 0.744717 0.481686 0.875772
O O4 0.660836 0.471872 0.980207
O O5 0.934107 0.750000 0.367025
O O6 0.935427 0.926569 0.475684
O O7 0.871870 0.005419 0.364559
O O8 0.000000 0.000000 0.365075
O O9 0.826579 0.750000 0.088196
O O10 0.741793 0.528047 0.081420
O O11 0.870361 0.481459 0.088495
O O12 0.813933 0.585585 0.977049
O O13 0.441248 0.750000 0.672972
O O14 0.381833 0.963915 0.601185
O O15 0.500000 0.000000 0.634687
O O16 0.409584 0.008198 0.729262
O O17 0.674255 0.750000 0.025463
O O18 0.564452 0.750000 0.802705
O O19 0.500000 0.000000 0.824221
O O20 0.057336 0.750000 0.085177
O O21 0.000000 0.500000 0.086815
O O22 0.200296 0.750000 0.366349
#
# Coordination Sequence:
#
# PCOD8181525 Si02
#       8
#     8   8   8   8   8   8   8   8
#     4  11  21  33  51  75 102 132 167 205 247 296
#     4   9  15  22  33  52  79 115 157 197 238 286
#     4   8  14  25  39  56  82 117 153 190 234 280
#     4  10  20  36  56  77 101 129 162 199 242 291
#     4   9  19  34  51  72 101 134 165 201 246 294
#     4  11  22  38  57  76 100 129 163 202 246 293
#     4   9  15  21  31  49  75 110 150 190 230 276
#     4   9  16  27  41  59  87 122 158 198 244 290
#
# _framework density 17.903693000000001
#
# number of rings (size 3 to 8) (size 9 to 14) (size 15 to 20)
#    0.000    2.500    0.000    5.250    0.000    7.500 
#    0.000    1.250    0.000    0.000    0.000    0.000 
#    0.000    1.000    0.000    8.500    0.000   13.500 
#
# Total GULP energy -396687.646471 kJ/mol
# GULP energy per Si atom -12396.488952 kJ/mol
# Density = 1.786294 g / cm^3
# Si number density = 17.903693 Si / 1000 Ang^3
#
#
#
# Elastic Constant Matrix: (Units=GPa)
#
#
# Indices 1 2 3 4 5 6 
#
# 1 156.2898 76.6465 49.2816 0.0000 0.0000 0.0000
# 2 76.6465 148.7319 33.4011 0.0000 0.0000 0.0000
# 3 49.2816 33.4011 32.4603 0.0000 0.0000 0.0000
# 4 0.0000 0.0000 0.0000 17.0209 0.0000 0.0000
# 5 0.0000 0.0000 0.0000 0.0000 -3.8437 0.0000
# 6 0.0000 0.0000 0.0000 0.0000 0.0000 36.0474
#
#
#
# Elastic Compliance Matrix: (Units=1/GPa)
#
#
# Indices 1 2 3 4 5 6 
#
# 1 0.013230 -0.003000 -0.016998 0.000000 0.000000 0.000000
# 2 -0.003000 0.009425 -0.005143 0.000000 0.000000 0.000000
# 3 -0.016998 -0.005143 0.061905 0.000000 0.000000 0.000000
# 4 0.000000 0.000000 0.000000 0.058751 0.000000 0.000000
# 5 0.000000 0.000000 0.000000 0.000000 -0.260163 0.000000
# 6 0.000000 0.000000 0.000000 0.000000 0.000000 0.027741
#
#
# Mechanical properties :
#
#
# Convention : Reuss Voigt Hill
#
# Bulk Modulus (GPa) = 29.17375 72.90449 51.03912
# Shear Modulus (GPa) = -182.45954 21.72176 -80.36889
#
# Velocity S-wave (km/s) = -10.10608 3.48696 -6.70724
# Velocity P-wave (km/s) = 10.94747 7.55120 5.60475
#
# Compressibility (1/GPa) = 0.03427739
#
# Stress axis : x y z
#
# Youngs Moduli (GPa) = 75.58777 106.10560 16.15374
#
# Poissons Ratio (x) = 0.31836 0.27458
# Poissons Ratio (y) = 0.22679 0.08307
# Poissons Ratio (z) = 1.28485 0.54565
#
# Static dielectric constant tensor:
#      x y z
#    x 3.663400 0.000000 0.000000 
#    y 0.000000 3.503210 0.000000 
#    z 0.000000 0.000000 2.705810 
# 
# 
# High freq. dielectric constant tensor:
#      x y z
#    x 1.714720 0.000000 0.000000 
#    y 0.000000 1.708000 0.000000 
#    z 0.000000 0.000000 1.621080 
# 
# From -- ./inp_files/13166.got.cif
#   From: 2010.03.12/outbox.cif.g09.slc.cpg/sg39_7_cif.got.tgz:13166.got - 2010.04.14 02:53:20.
