data_PCOD8181347
_publ_section_title
;
Structure prediction by ZEFSAII (Michael W. Deem and Ramdas Pophale) SiO2 
 PCOD8181347
Probable space group: A B M 2
;
_chemical_formula_sum "Si O2"
_cell_formula_units_Z 56
_cell_length_a 23.540191
_cell_length_b 9.225289
_cell_length_c 14.242141
_cell_angle_alpha 90.000000
_cell_angle_beta 90.000000
_cell_angle_gamma 90.000000
_cell_volume 3092.895477
_symmetry_space_group_name_H-M "A B M 2"
_symmetry_group_IT_number 39
_symmetry_cell_setting 'orthorhombic'
loop_
_space_group_symop_operation_xyz
x,y,z
-x,-y,z
-x,1/2+y,z
x,1/2-y,z
x,1/2+y,1/2+z
-x,1/2-y,1/2+z
-x,y,1/2+z
x,-y,1/2+z
loop_
_atom_site_type_symbol
_atom_site_label
_atom_site_fract_x
_atom_site_fract_y
_atom_site_fract_z
Si Si1 0.056424 0.920749 0.668400
Si Si2 0.345828 0.082298 0.149510
Si Si3 0.053819 0.084186 0.953729
Si Si4 0.730086 0.917948 0.786776
Si Si5 0.140375 0.918392 0.296736
Si Si6 0.441881 0.419838 0.299167
Si Si7 0.636689 0.919993 0.936783
O O1 0.050368 0.750000 0.685990
O O2 0.065564 0.962063 0.560135
O O3 0.111976 0.981871 0.718456
O O4 0.000000 0.000000 0.707462
O O5 0.329598 0.250000 0.149046
O O6 0.402314 0.051587 0.209223
O O7 0.292688 0.000551 0.195321
O O8 0.355258 0.026855 0.043529
O O9 0.036386 0.250000 0.946818
O O10 0.110604 0.049375 0.896105
O O11 0.000000 0.000000 0.910847
O O12 0.725511 0.750000 0.762611
O O13 0.794399 0.965521 0.807003
O O14 0.694099 0.955903 0.879747
O O15 0.134231 0.750000 0.268220
O O16 0.500000 0.500000 0.275723
O O17 0.452156 0.250000 0.316623
O O18 0.414866 0.488965 0.392721
O O19 0.621316 0.750000 0.931997
#
# Coordination Sequence:
#
# PCOD8181347 Si02
#       7
#     8   8   8   8   8   8   8
#     4  10  20  34  52  74  99 130 165 206 254 305
#     4   9  19  35  55  77 103 135 171 209 250 295
#     4   9  19  34  51  71  98 129 163 202 249 302
#     4   9  19  34  52  74 102 134 169 209 252 296
#     4  10  20  34  51  74 102 132 166 206 251 301
#     4  10  20  34  52  78 109 137 168 209 250 294
#     4   9  18  35  56  76 101 137 174 209 252 299
#
# _framework density 18.106010999999999
#
# number of rings (size 3 to 8) (size 9 to 14) (size 15 to 20)
#    0.000    2.571    0.000    1.286    0.000    5.714 
#    0.000    4.286    0.000    0.000    0.000    0.000 
#    0.000    0.000    0.000    0.000    0.000    0.000 
#
# Total GULP energy -347270.489116 kJ/mol
# GULP energy per Si atom -12402.517468 kJ/mol
# Density = 1.806480 g / cm^3
# Si number density = 18.106011 Si / 1000 Ang^3
#
#
#
# Elastic Constant Matrix: (Units=GPa)
#
#
# Indices 1 2 3 4 5 6 
#
# 1 128.2486 53.8331 50.2077 0.0000 0.0000 0.0000
# 2 53.8331 68.2636 44.8145 0.0000 0.0000 0.0000
# 3 50.2077 44.8145 117.5824 0.0000 0.0000 0.0000
# 4 0.0000 0.0000 0.0000 27.5851 0.0000 0.0000
# 5 0.0000 0.0000 0.0000 0.0000 9.6286 0.0000
# 6 0.0000 0.0000 0.0000 0.0000 0.0000 32.6318
#
#
#
# Elastic Compliance Matrix: (Units=1/GPa)
#
#
# Indices 1 2 3 4 5 6 
#
# 1 0.012006 -0.008139 -0.002025 0.000000 0.000000 0.000000
# 2 -0.008139 0.025055 -0.006074 0.000000 0.000000 0.000000
# 3 -0.002025 -0.006074 0.011684 0.000000 0.000000 0.000000
# 4 0.000000 0.000000 0.000000 0.036251 0.000000 0.000000
# 5 0.000000 0.000000 0.000000 0.000000 0.103857 0.000000
# 6 0.000000 0.000000 0.000000 0.000000 0.000000 0.030645
#
#
# Mechanical properties :
#
#
# Convention : Reuss Voigt Hill
#
# Bulk Modulus (GPa) = 61.46167 67.97836 64.72001
# Shear Modulus (GPa) = 19.42516 24.98506 22.20511
#
# Velocity S-wave (km/s) = 3.27900 3.71877 3.50579
# Velocity P-wave (km/s) = 6.95377 7.48767 7.22565
#
# Compressibility (1/GPa) = 0.01627030
#
# Stress axis : x y z
#
# Youngs Moduli (GPa) = 83.28849 39.91184 85.58592
#
# Poissons Ratio (x) = 0.32485 0.17328
# Poissons Ratio (y) = 0.67790 0.51984
# Poissons Ratio (z) = 0.16863 0.24242
#
# Static dielectric constant tensor:
#      x y z
#    x 3.376010 0.000000 0.000000 
#    y 0.000000 3.344580 0.000000 
#    z 0.000000 0.000000 3.448750 
# 
# 
# High freq. dielectric constant tensor:
#      x y z
#    x 1.699560 0.000000 0.000000 
#    y 0.000000 1.701130 0.000000 
#    z 0.000000 0.000000 1.704590 
# 
# From -- ./inp_files/10340.got.cif
#   From: 2010.03.12/outbox.cif.g09.slc.cpg/sg39_6_cif.got.tgz:10340.got - 2010.04.14 02:53:20.
