data_PCOD8181682
_publ_section_title
;
Structure prediction by ZEFSAII (Michael W. Deem and Ramdas Pophale) SiO2 
 PCOD8181682
Probable space group: A B M 2
;
_chemical_formula_sum "Si O2"
_cell_formula_units_Z 60
_cell_length_a 17.675563
_cell_length_b 19.299777
_cell_length_c 8.497434
_cell_angle_alpha 90.000000
_cell_angle_beta 90.000000
_cell_angle_gamma 90.000000
_cell_volume 2898.767255
_symmetry_space_group_name_H-M "A B M 2"
_symmetry_group_IT_number 39
_symmetry_cell_setting 'orthorhombic'
loop_
_space_group_symop_operation_xyz
x,y,z
-x,-y,z
-x,1/2+y,z
x,1/2-y,z
x,1/2+y,1/2+z
-x,1/2-y,1/2+z
-x,y,1/2+z
x,-y,1/2+z
loop_
_atom_site_type_symbol
_atom_site_label
_atom_site_fract_x
_atom_site_fract_y
_atom_site_fract_z
Si Si1 0.500000 0.000000 0.821020
Si Si2 0.265173 0.050449 0.853244
Si Si3 0.042997 0.831808 0.699045
Si Si4 0.187937 0.328315 0.020920
Si Si5 0.677370 0.172195 0.755890
Si Si6 0.251100 0.416833 0.507709
Si Si7 0.407713 0.431500 0.062936
Si Si8 0.102913 0.667643 0.026818
O O1 0.571287 0.021498 0.713989
O O2 0.476434 0.065158 0.935248
O O3 0.287211 0.053134 0.669589
O O4 0.218566 0.119862 0.889494
O O5 0.336736 0.039797 0.967175
O O6 0.220357 0.979333 0.895146
O O7 0.045309 0.750000 0.709077
O O8 0.103995 0.853918 0.566657
O O9 0.957712 0.855405 0.659275
O O10 0.067566 0.862049 0.865913
O O11 0.187161 0.250000 0.950258
O O12 0.239934 0.329735 0.176593
O O13 0.653352 0.250000 0.800346
O O14 0.613539 0.143909 0.633611
O O15 0.684358 0.126864 0.914985
O O16 0.181888 0.368721 0.560096
O O17 0.116134 0.750000 0.023073
#
# Coordination Sequence:
#
# PCOD8181682 Si02
#       8
#     4   8   8   8   8   8   8   8
#     4  10  20  38  68  96 124 158 196 238 282 362
#     4  11  24  38  60  89 122 161 201 252 306 355
#     4   9  18  34  56  82 112 148 198 253 307 368
#     4   9  18  36  61  83 112 152 200 253 307 362
#     4  10  20  38  62  88 120 158 198 249 303 350
#     4  12  23  37  58  84 121 160 208 258 307 363
#     4  10  21  39  64  95 122 155 200 237 292 354
#     4  10  21  36  59  85 112 155 207 259 315 372
#
# _framework density 20.698453000000001
#
# number of rings (size 3 to 8) (size 9 to 14) (size 15 to 20)
#    0.000    1.867    1.333    3.600    1.867    2.133 
#    0.000    1.333    0.000    0.000    0.000    0.000 
#    0.000    0.000    0.000    0.000    0.000    0.000 
#
# Total GULP energy -371767.392656 kJ/mol
# GULP energy per Si atom -12392.246422 kJ/mol
# Density = 2.065134 g / cm^3
# Si number density = 20.698453 Si / 1000 Ang^3
#
#
#
# Elastic Constant Matrix: (Units=GPa)
#
#
# Indices 1 2 3 4 5 6 
#
# 1 81.4286 28.6189 36.9716 0.0000 0.0000 0.0000
# 2 28.6189 107.0793 54.5241 0.0000 0.0000 0.0000
# 3 36.9716 54.5241 130.1239 0.0000 0.0000 0.0000
# 4 0.0000 0.0000 0.0000 28.6524 0.0000 0.0000
# 5 0.0000 0.0000 0.0000 0.0000 30.7998 0.0000
# 6 0.0000 0.0000 0.0000 0.0000 0.0000 24.1050
#
#
#
# Elastic Compliance Matrix: (Units=1/GPa)
#
#
# Indices 1 2 3 4 5 6 
#
# 1 0.014518 -0.002263 -0.003177 0.000000 0.000000 0.000000
# 2 -0.002263 0.012224 -0.004479 0.000000 0.000000 0.000000
# 3 -0.003177 -0.004479 0.010465 0.000000 0.000000 0.000000
# 4 0.000000 0.000000 0.000000 0.034901 0.000000 0.000000
# 5 0.000000 0.000000 0.000000 0.000000 0.032468 0.000000
# 6 0.000000 0.000000 0.000000 0.000000 0.000000 0.041485
#
#
# Mechanical properties :
#
#
# Convention : Reuss Voigt Hill
#
# Bulk Modulus (GPa) = 57.57226 62.09568 59.83397
# Shear Modulus (GPa) = 29.12239 29.94592 29.53416
#
# Velocity S-wave (km/s) = 3.75505 3.80777 3.78150
# Velocity P-wave (km/s) = 6.83196 7.02833 6.93084
#
# Compressibility (1/GPa) = 0.01736948
#
# Stress axis : x y z
#
# Youngs Moduli (GPa) = 68.87817 81.80304 95.56031
#
# Poissons Ratio (x) = 0.18509 0.30359
# Poissons Ratio (y) = 0.15584 0.42805
# Poissons Ratio (z) = 0.21882 0.36643
#
# Static dielectric constant tensor:
#      x y z
#    x 3.769490 0.000000 0.000000 
#    y 0.000000 3.555930 0.000000 
#    z 0.000000 0.000000 3.947490 
# 
# 
# High freq. dielectric constant tensor:
#      x y z
#    x 1.796430 0.000000 0.000000 
#    y 0.000000 1.782240 0.000000 
#    z 0.000000 0.000000 1.823340 
# 
# From -- ./inp_files/3810.got.cif
#   From: 2010.03.12/outbox.cif.g09.slc.cpg/sg39_2_cif.got.tgz:3810.got - 2010.04.14 02:53:20.
