data_PCOD8181958
_publ_section_title
;
Structure prediction by ZEFSAII (Michael W. Deem and Ramdas Pophale) SiO2 
 PCOD8181958
Probable space group: A B M 2
;
_chemical_formula_sum "Si O2"
_cell_formula_units_Z 64
_cell_length_a 8.839542
_cell_length_b 28.372437
_cell_length_c 12.966843
_cell_angle_alpha 90.000000
_cell_angle_beta 90.000000
_cell_angle_gamma 90.000000
_cell_volume 3252.075777
_symmetry_space_group_name_H-M "A B M 2"
_symmetry_group_IT_number 39
_symmetry_cell_setting 'orthorhombic'
loop_
_space_group_symop_operation_xyz
x,y,z
-x,-y,z
-x,1/2+y,z
x,1/2-y,z
x,1/2+y,1/2+z
-x,1/2-y,1/2+z
-x,y,1/2+z
x,-y,1/2+z
loop_
_atom_site_type_symbol
_atom_site_label
_atom_site_fract_x
_atom_site_fract_y
_atom_site_fract_z
Si Si1 0.981079 0.377377 0.615880
Si Si2 0.224916 0.804422 0.072483
Si Si3 0.351270 0.476553 0.124938
Si Si4 0.807833 0.077416 0.794788
Si Si5 0.410164 0.650894 0.888650
Si Si6 0.125763 0.537925 0.011341
Si Si7 0.339394 0.123139 0.038942
Si Si8 0.523909 0.197521 0.687271
O O1 0.920007 0.387388 0.732069
O O2 0.843750 0.377501 0.531747
O O3 0.068474 0.327711 0.610854
O O4 0.101320 0.417276 0.584737
O O5 0.191319 0.750000 0.046854
O O6 0.346845 0.810195 0.163532
O O7 0.290016 0.830183 0.971272
O O8 0.500000 0.500000 0.172899
O O9 0.237654 0.465132 0.218424
O O10 0.283480 0.513497 0.042009
O O11 0.398314 0.428486 0.068198
O O12 0.659446 0.105554 0.831933
O O13 0.886602 0.053757 0.892672
O O14 0.447805 0.692163 0.808625
O O15 0.573751 0.637462 0.935546
O O16 0.000000 0.500000 0.035658
O O17 0.373325 0.160325 0.128522
O O18 0.572704 0.250000 0.652851
#
# Coordination Sequence:
#
# PCOD8181958 Si02
#       8
#     8   8   8   8   8   8   8   8
#     4  11  23  44  63  95 129 166 210 265 319 383
#     4  10  23  42  66  95 129 168 210 267 329 376
#     4  11  24  42  63  95 124 164 215 258 308 370
#     4  11  24  40  64  93 123 168 214 251 320 374
#     4  11  20  41  68  90 126 167 212 266 313 381
#     4  12  24  42  63  89 134 166 203 259 313 380
#     4  10  22  40  64  93 124 161 213 261 317 372
#     4  10  21  40  64  91 125 167 210 260 318 381
#
# _framework density 19.679739000000001
#
# number of rings (size 3 to 8) (size 9 to 14) (size 15 to 20)
#    0.000    1.250    6.250    1.125    3.500    3.500 
#    0.000    0.000    0.000    0.000    0.000    0.000 
#    0.000    0.000    0.000    0.000    0.000    0.000 
#
# Total GULP energy -396791.045617 kJ/mol
# GULP energy per Si atom -12399.720176 kJ/mol
# Density = 1.963495 g / cm^3
# Si number density = 19.679739 Si / 1000 Ang^3
#
#
#
# Elastic Constant Matrix: (Units=GPa)
#
#
# Indices 1 2 3 4 5 6 
#
# 1 74.0778 48.3114 30.9553 0.0000 0.0000 0.0000
# 2 48.3114 110.1974 31.1902 0.0000 0.0000 0.0000
# 3 30.9553 31.1902 102.9792 0.0000 0.0000 0.0000
# 4 0.0000 0.0000 0.0000 23.5679 0.0000 0.0000
# 5 0.0000 0.0000 0.0000 0.0000 27.9547 0.0000
# 6 0.0000 0.0000 0.0000 0.0000 0.0000 40.9096
#
#
#
# Elastic Compliance Matrix: (Units=1/GPa)
#
#
# Indices 1 2 3 4 5 6 
#
# 1 0.020110 -0.007772 -0.003691 0.000000 0.000000 0.000000
# 2 -0.007772 0.012929 -0.001580 0.000000 0.000000 0.000000
# 3 -0.003691 -0.001580 0.011299 0.000000 0.000000 0.000000
# 4 0.000000 0.000000 0.000000 0.042431 0.000000 0.000000
# 5 0.000000 0.000000 0.000000 0.000000 0.035772 0.000000
# 6 0.000000 0.000000 0.000000 0.000000 0.000000 0.024444
#
#
# Mechanical properties :
#
#
# Convention : Reuss Voigt Hill
#
# Bulk Modulus (GPa) = 54.78675 56.46313 55.62494
# Shear Modulus (GPa) = 27.90885 30.27292 29.09088
#
# Velocity S-wave (km/s) = 3.76992 3.92634 3.84893
# Velocity P-wave (km/s) = 6.84466 7.02198 6.93388
#
# Compressibility (1/GPa) = 0.01825259
#
# Stress axis : x y z
#
# Youngs Moduli (GPa) = 49.72571 77.34578 88.50550
#
# Poissons Ratio (x) = 0.60111 0.32669
# Poissons Ratio (y) = 0.38646 0.13981
# Poissons Ratio (z) = 0.18355 0.12218
#
# Static dielectric constant tensor:
#      x y z
#    x 3.584120 0.000000 0.000000 
#    y 0.000000 3.853840 0.000000 
#    z 0.000000 0.000000 3.599570 
# 
# 
# High freq. dielectric constant tensor:
#      x y z
#    x 1.762490 0.000000 0.000000 
#    y 0.000000 1.777450 0.000000 
#    z 0.000000 0.000000 1.759360 
# 
# From -- ./inp_files/5427.got.cif
#   From: 2010.03.12/outbox.cif.g09.slc.cpg/sg39_3_cif.got.tgz:5427.got - 2010.04.14 02:53:20.
