data_PCOD8181186
_publ_section_title
;
Structure prediction by ZEFSAII (Michael W. Deem and Ramdas Pophale) SiO2 
 PCOD8181186
Probable space group: A B M 2
;
_chemical_formula_sum "Si O2"
_cell_formula_units_Z 64
_cell_length_a 14.979307
_cell_length_b 27.002715
_cell_length_c 8.755075
_cell_angle_alpha 90.000000
_cell_angle_beta 90.000000
_cell_angle_gamma 90.000000
_cell_volume 3541.269877
_symmetry_space_group_name_H-M "A B M 2"
_symmetry_group_IT_number 39
_symmetry_cell_setting 'orthorhombic'
loop_
_space_group_symop_operation_xyz
x,y,z
-x,-y,z
-x,1/2+y,z
x,1/2-y,z
x,1/2+y,1/2+z
-x,1/2-y,1/2+z
-x,y,1/2+z
x,-y,1/2+z
loop_
_atom_site_type_symbol
_atom_site_label
_atom_site_fract_x
_atom_site_fract_y
_atom_site_fract_z
Si Si1 0.395152 0.451373 0.902350
Si Si2 0.765105 0.692923 0.177573
Si Si3 0.446801 0.692549 0.176802
Si Si4 0.385239 0.343156 0.355676
Si Si5 0.588790 0.552169 0.263585
Si Si6 0.119402 0.192871 0.770973
Si Si7 0.953391 0.806281 0.105039
Si Si8 0.703370 0.647827 0.870426
O O1 0.363364 0.505027 0.842148
O O2 0.487187 0.439410 0.816819
O O3 0.322072 0.410101 0.857359
O O4 0.410619 0.453811 0.082401
O O5 0.770564 0.750000 0.123568
O O6 0.707278 0.687333 0.332249
O O7 0.866819 0.673044 0.198737
O O8 0.716292 0.661605 0.046413
O O9 0.447887 0.750000 0.133597
O O10 0.543995 0.676256 0.231789
O O11 0.376626 0.681891 0.309911
O O12 0.421196 0.661884 0.026300
O O13 0.358533 0.399730 0.320855
O O14 0.148266 0.250000 0.740081
O O15 0.207655 0.158857 0.771796
O O16 0.049242 0.169501 0.648369
O O17 0.065699 0.187967 0.928057
O O18 0.967385 0.750000 0.157288
#
# Coordination Sequence:
#
# PCOD8181186 Si02
#       8
#     8   8   8   8   8   8   8   8
#     4  11  22  37  60  78 105 141 185 239 285 324
#     4  10  19  35  53  76 110 147 183 220 266 325
#     4  12  24  35  50  75 111 154 186 216 261 323
#     4  12  23  37  52  75 109 144 189 226 266 325
#     4  11  22  38  57  80 103 142 184 237 281 320
#     4   9  17  32  53  78 111 144 179 223 270 327
#     4   8  16  29  50  74 103 141 177 217 263 312
#     4  11  21  35  54  80 110 145 184 224 273 332
#
# _framework density 18.072613
#
# number of rings (size 3 to 8) (size 9 to 14) (size 15 to 20)
#    0.000    1.500    2.500    6.000    1.750    1.000 
#    0.000    2.500    0.000    0.000    0.000    0.875 
#    0.000    0.000    0.000    0.000    0.000    0.000 
#
# Total GULP energy -396701.845273 kJ/mol
# GULP energy per Si atom -12396.932665 kJ/mol
# Density = 1.803148 g / cm^3
# Si number density = 18.072613 Si / 1000 Ang^3
#
#
#
# Elastic Constant Matrix: (Units=GPa)
#
#
# Indices 1 2 3 4 5 6 
#
# 1 75.2633 45.9594 11.8839 0.0000 0.0000 0.0000
# 2 45.9594 104.3850 27.3957 0.0000 0.0000 0.0000
# 3 11.8839 27.3957 54.6093 0.0000 0.0000 0.0000
# 4 0.0000 0.0000 0.0000 22.0309 0.0000 0.0000
# 5 0.0000 0.0000 0.0000 0.0000 31.9902 0.0000
# 6 0.0000 0.0000 0.0000 0.0000 0.0000 18.0968
#
#
#
# Elastic Compliance Matrix: (Units=1/GPa)
#
#
# Indices 1 2 3 4 5 6 
#
# 1 0.018173 -0.008019 0.000068 0.000000 0.000000 0.000000
# 2 -0.008019 0.014571 -0.005565 0.000000 0.000000 0.000000
# 3 0.000068 -0.005565 0.021089 0.000000 0.000000 0.000000
# 4 0.000000 0.000000 0.000000 0.045391 0.000000 0.000000
# 5 0.000000 0.000000 0.000000 0.000000 0.031260 0.000000
# 6 0.000000 0.000000 0.000000 0.000000 0.000000 0.055258
#
#
# Mechanical properties :
#
#
# Convention : Reuss Voigt Hill
#
# Bulk Modulus (GPa) = 37.31162 44.97061 41.14111
# Shear Modulus (GPa) = 22.55233 24.35815 23.45524
#
# Velocity S-wave (km/s) = 3.53636 3.67521 3.60645
# Velocity P-wave (km/s) = 6.11266 6.55339 6.33686
#
# Compressibility (1/GPa) = 0.02680130
#
# Stress axis : x y z
#
# Youngs Moduli (GPa) = 55.02723 68.62885 47.41876
#
# Poissons Ratio (x) = 0.55035 -0.00324
# Poissons Ratio (y) = 0.44127 0.26387
# Poissons Ratio (z) = -0.00376 0.38190
#
# Static dielectric constant tensor:
#      x y z
#    x 3.435570 0.000000 0.000000 
#    y 0.000000 3.384710 0.000000 
#    z 0.000000 0.000000 3.312230 
# 
# 
# High freq. dielectric constant tensor:
#      x y z
#    x 1.690400 0.000000 0.000000 
#    y 0.000000 1.674660 0.000000 
#    z 0.000000 0.000000 1.705560 
# 
# From -- ./inp_files/3584.got.cif
#   From: 2010.03.12/outbox.cif.g09.slc.cpg/sg39_2_cif.got.tgz:3584.got - 2010.04.14 02:53:20.
