data_PCOD8181002
_publ_section_title
;
Structure prediction by ZEFSAII (Michael W. Deem and Ramdas Pophale) SiO2 
 PCOD8181002
Probable space group: A B M 2
;
_chemical_formula_sum "Si O2"
_cell_formula_units_Z 64
_cell_length_a 16.751690
_cell_length_b 8.827905
_cell_length_c 21.631510
_cell_angle_alpha 90.000000
_cell_angle_beta 90.000000
_cell_angle_gamma 90.000000
_cell_volume 3198.918055
_symmetry_space_group_name_H-M "A B M 2"
_symmetry_group_IT_number 39
_symmetry_cell_setting 'orthorhombic'
loop_
_space_group_symop_operation_xyz
x,y,z
-x,-y,z
-x,1/2+y,z
x,1/2-y,z
x,1/2+y,1/2+z
-x,1/2-y,1/2+z
-x,y,1/2+z
x,-y,1/2+z
loop_
_atom_site_type_symbol
_atom_site_label
_atom_site_fract_x
_atom_site_fract_y
_atom_site_fract_z
Si Si1 0.780185 0.579275 0.266400
Si Si2 0.727717 0.577094 0.132771
Si Si3 0.075619 0.575634 0.218957
Si Si4 0.248728 0.073899 0.404162
Si Si5 0.423492 0.419257 0.591072
Si Si6 0.084225 0.430653 0.957490
Si Si7 0.579555 0.917652 0.445762
Si Si8 0.876595 0.928222 0.584839
O O1 0.814230 0.750000 0.263115
O O2 0.725530 0.546515 0.206663
O O3 0.852307 0.461667 0.264065
O O4 0.736086 0.551861 0.330933
O O5 0.751599 0.750000 0.117986
O O6 0.641762 0.540886 0.108440
O O7 0.783309 0.464353 0.093180
O O8 0.061688 0.750000 0.215320
O O9 0.085511 0.512422 0.149134
O O10 0.000000 0.500000 0.250722
O O11 0.238024 0.250000 0.422821
O O12 0.332254 0.007394 0.432414
O O13 0.166532 0.991641 0.425839
O O14 0.500000 0.500000 0.620428
O O15 0.410071 0.250000 0.618909
O O16 0.431706 0.406724 0.518224
O O17 0.081530 0.250000 0.949688
O O18 0.000000 0.500000 0.930215
O O19 0.085628 0.475602 0.029621
O O20 0.580656 0.750000 0.415902
O O21 0.500000 0.000000 0.417879
O O22 0.888454 0.750000 0.572265
#
# Coordination Sequence:
#
# PCOD8181002 Si02
#       8
#     8   8   8   8   8   8   8   8
#     4   9  20  37  56  76 104 142 183 224 269 322
#     4  10  19  33  54  81 110 142 180 223 274 334
#     4  10  20  33  53  78 105 137 177 224 274 325
#     4  10  21  40  61  81 110 150 191 234 280 329
#     4  10  19  32  52  80 111 142 175 219 275 336
#     4  12  25  39  57  83 114 150 189 233 283 338
#     4   9  19  35  58  85 112 141 179 225 276 332
#     4  10  20  35  55  80 109 142 179 224 277 334
#
# _framework density 20.006765000000001
#
# number of rings (size 3 to 8) (size 9 to 14) (size 15 to 20)
#    0.000    2.000    0.000    3.750    0.000    6.000 
#    0.000    0.625    0.000    1.500    0.000    0.000 
#    0.000    0.000    0.000    0.000    0.000    0.000 
#
# Total GULP energy -396492.102594 kJ/mol
# GULP energy per Si atom -12390.378206 kJ/mol
# Density = 1.996123 g / cm^3
# Si number density = 20.006765 Si / 1000 Ang^3
#
#
#
# Elastic Constant Matrix: (Units=GPa)
#
#
# Indices 1 2 3 4 5 6 
#
# 1 139.3350 39.7226 9.0919 0.0000 0.0000 0.0000
# 2 39.7226 78.8477 18.0122 0.0000 0.0000 0.0000
# 3 9.0919 18.0122 32.7943 0.0000 0.0000 0.0000
# 4 0.0000 0.0000 0.0000 18.9571 0.0000 0.0000
# 5 0.0000 0.0000 0.0000 0.0000 13.6056 0.0000
# 6 0.0000 0.0000 0.0000 0.0000 0.0000 35.2605
#
#
#
# Elastic Compliance Matrix: (Units=1/GPa)
#
#
# Indices 1 2 3 4 5 6 
#
# 1 0.008381 -0.004221 -0.000005 0.000000 0.000000 0.000000
# 2 -0.004221 0.016628 -0.007963 0.000000 0.000000 0.000000
# 3 -0.000005 -0.007963 0.034868 0.000000 0.000000 0.000000
# 4 0.000000 0.000000 0.000000 0.052751 0.000000 0.000000
# 5 0.000000 0.000000 0.000000 0.000000 0.073499 0.000000
# 6 0.000000 0.000000 0.000000 0.000000 0.000000 0.028360
#
#
# Mechanical properties :
#
#
# Convention : Reuss Voigt Hill
#
# Bulk Modulus (GPa) = 28.16959 42.73670 35.45314
# Shear Modulus (GPa) = 19.94436 25.84132 22.89284
#
# Velocity S-wave (km/s) = 3.16077 3.59782 3.38635
# Velocity P-wave (km/s) = 5.23748 6.21825 5.74882
#
# Compressibility (1/GPa) = 0.03549927
#
# Stress axis : x y z
#
# Youngs Moduli (GPa) = 119.32318 60.13900 28.67952
#
# Poissons Ratio (x) = 0.25384 0.00015
# Poissons Ratio (y) = 0.50365 0.22837
# Poissons Ratio (z) = 0.00061 0.47887
#
# Static dielectric constant tensor:
#      x y z
#    x 3.783980 0.000000 0.000000 
#    y 0.000000 3.744090 0.000000 
#    z 0.000000 0.000000 3.518210 
# 
# 
# High freq. dielectric constant tensor:
#      x y z
#    x 1.786560 0.000000 0.000000 
#    y 0.000000 1.780700 0.000000 
#    z 0.000000 0.000000 1.759280 
# 
# From -- ./inp_files/16269.got.cif
#   From: 2010.03.12/outbox.cif.g09.slc.cpg/sg39_9_cif.got.tgz:16269.got - 2010.04.14 02:53:20.
