data_PCOD8181968
_publ_section_title
;
Structure prediction by ZEFSAII (Michael W. Deem and Ramdas Pophale) SiO2 
 PCOD8181968
Probable space group: A B M 2
;
_chemical_formula_sum "Si O2"
_cell_formula_units_Z 64
_cell_length_a 12.136129
_cell_length_b 30.552626
_cell_length_c 8.770141
_cell_angle_alpha 90.000000
_cell_angle_beta 90.000000
_cell_angle_gamma 90.000000
_cell_volume 3251.885935
_symmetry_space_group_name_H-M "A B M 2"
_symmetry_group_IT_number 39
_symmetry_cell_setting 'orthorhombic'
loop_
_space_group_symop_operation_xyz
x,y,z
-x,-y,z
-x,1/2+y,z
x,1/2-y,z
x,1/2+y,1/2+z
-x,1/2-y,1/2+z
-x,y,1/2+z
x,-y,1/2+z
loop_
_atom_site_type_symbol
_atom_site_label
_atom_site_fract_x
_atom_site_fract_y
_atom_site_fract_z
Si Si1 0.559156 0.604896 0.659660
Si Si2 0.843003 0.370721 0.658950
Si Si3 0.977752 0.600670 0.884447
Si Si4 0.320799 0.475817 0.538539
Si Si5 0.509692 0.335931 0.407777
Si Si6 0.337282 0.059835 0.201341
Si Si7 0.345072 0.200499 0.167714
Si Si8 0.919314 0.460980 0.128631
O O1 0.628382 0.560802 0.650266
O O2 0.571164 0.632693 0.505527
O O3 0.593323 0.634476 0.804655
O O4 0.428868 0.597175 0.688443
O O5 0.901927 0.368970 0.492998
O O6 0.779713 0.417199 0.671862
O O7 0.762291 0.329922 0.679171
O O8 0.933976 0.369189 0.793899
O O9 0.903152 0.574007 0.764273
O O10 0.039549 0.564208 0.981208
O O11 0.339163 0.464134 0.364001
O O12 0.371529 0.523519 0.574572
O O13 0.195363 0.482601 0.585823
O O14 0.429320 0.306227 0.307043
O O15 0.588305 0.306453 0.511286
O O16 0.301539 0.250000 0.172463
O O17 0.000000 0.500000 0.178976
#
# Coordination Sequence:
#
# PCOD8181968 Si02
#       8
#     8   8   8   8   8   8   8   8
#     4  11  22  40  59  88 127 170 208 247 307 390
#     4  11  22  45  61  88 123 166 213 260 328 372
#     4  10  23  39  60  82 117 165 208 259 313 366
#     4  12  26  36  58  87 126 169 220 264 306 357
#     4  10  21  40  67  92 129 160 198 243 315 393
#     4  12  25  39  57  86 128 171 214 264 313 365
#     4  11  23  42  71  99 126 155 198 259 326 395
#     4  11  23  37  58  83 119 159 220 265 306 344
#
# _framework density 19.680887999999999
#
# number of rings (size 3 to 8) (size 9 to 14) (size 15 to 20)
#    0.000    1.000    5.000    2.625    7.000    1.000 
#    0.000    0.625    0.000    0.000    0.000    0.000 
#    0.000    0.000    0.000    0.000    0.000    0.000 
#
# Total GULP energy -396843.373061 kJ/mol
# GULP energy per Si atom -12401.355408 kJ/mol
# Density = 1.963609 g / cm^3
# Si number density = 19.680888 Si / 1000 Ang^3
#
#
#
# Elastic Constant Matrix: (Units=GPa)
#
#
# Indices 1 2 3 4 5 6 
#
# 1 69.4450 26.0606 33.3738 0.0000 0.0000 0.0000
# 2 26.0606 107.3539 41.5599 0.0000 0.0000 0.0000
# 3 33.3738 41.5599 120.3879 0.0000 0.0000 0.0000
# 4 0.0000 0.0000 0.0000 15.9787 0.0000 0.0000
# 5 0.0000 0.0000 0.0000 0.0000 24.1729 0.0000
# 6 0.0000 0.0000 0.0000 0.0000 0.0000 24.5632
#
#
#
# Elastic Compliance Matrix: (Units=1/GPa)
#
#
# Indices 1 2 3 4 5 6 
#
# 1 0.017265 -0.002699 -0.003854 0.000000 0.000000 0.000000
# 2 -0.002699 0.011174 -0.003109 0.000000 0.000000 0.000000
# 3 -0.003854 -0.003109 0.010448 0.000000 0.000000 0.000000
# 4 0.000000 0.000000 0.000000 0.062583 0.000000 0.000000
# 5 0.000000 0.000000 0.000000 0.000000 0.041369 0.000000
# 6 0.000000 0.000000 0.000000 0.000000 0.000000 0.040711
#
#
# Mechanical properties :
#
#
# Convention : Reuss Voigt Hill
#
# Bulk Modulus (GPa) = 51.11950 55.46392 53.29171
# Shear Modulus (GPa) = 23.87816 26.02247 24.95031
#
# Velocity S-wave (km/s) = 3.48698 3.64018 3.56440
# Velocity P-wave (km/s) = 6.49943 6.77574 6.63902
#
# Compressibility (1/GPa) = 0.01956201
#
# Stress axis : x y z
#
# Youngs Moduli (GPa) = 57.92022 89.49483 95.70876
#
# Poissons Ratio (x) = 0.24155 0.36891
# Poissons Ratio (y) = 0.15633 0.29758
# Poissons Ratio (z) = 0.22325 0.27826
#
# Static dielectric constant tensor:
#      x y z
#    x 3.529800 0.000000 0.000000 
#    y 0.000000 3.356380 0.000000 
#    z 0.000000 0.000000 3.823220 
# 
# 
# High freq. dielectric constant tensor:
#      x y z
#    x 1.757200 0.000000 0.000000 
#    y 0.000000 1.745600 0.000000 
#    z 0.000000 0.000000 1.785940 
# 
# From -- ./inp_files/2912.got.cif
#   From: 2010.03.12/outbox.cif.g09.slc.cpg/sg39_2_cif.got.tgz:2912.got - 2010.04.14 02:53:20.
