data_PCOD8181480
_publ_section_title
;
Structure prediction by ZEFSAII (Michael W. Deem and Ramdas Pophale) SiO2 
 PCOD8181480
Probable space group: A B M 2
;
_chemical_formula_sum "Si O2"
_cell_formula_units_Z 48
_cell_length_a 9.133285
_cell_length_b 8.693754
_cell_length_c 31.020084
_cell_angle_alpha 90.000000
_cell_angle_beta 90.000000
_cell_angle_gamma 90.000000
_cell_volume 2463.073244
_symmetry_space_group_name_H-M "A B M 2"
_symmetry_group_IT_number 39
_symmetry_cell_setting 'orthorhombic'
loop_
_space_group_symop_operation_xyz
x,y,z
-x,-y,z
-x,1/2+y,z
x,1/2-y,z
x,1/2+y,1/2+z
-x,1/2-y,1/2+z
-x,y,1/2+z
x,-y,1/2+z
loop_
_atom_site_type_symbol
_atom_site_label
_atom_site_fract_x
_atom_site_fract_y
_atom_site_fract_z
Si Si1 0.340060 0.567580 0.783130
Si Si2 0.157528 0.572049 0.947084
Si Si3 0.162803 0.931849 0.361546
Si Si4 0.159652 0.931321 0.699987
Si Si5 0.160593 0.571361 0.042383
Si Si6 0.659133 0.068075 0.618016
O O1 0.500000 0.500000 0.777819
O O2 0.347611 0.750000 0.787230
O O3 0.265857 0.498584 0.825140
O O4 0.248562 0.513320 0.741707
O O5 0.145659 0.750000 0.933996
O O6 0.235398 0.481618 0.907655
O O7 0.000000 0.500000 0.952555
O O8 0.230223 0.550969 0.994225
O O9 0.155532 0.750000 0.357605
O O10 0.000000 0.000000 0.357116
O O11 0.145859 0.750000 0.699054
O O12 0.240539 0.991890 0.657223
O O13 0.000000 0.000000 0.702101
O O14 0.147582 0.750000 0.054478
O O15 0.273757 0.487991 0.073316
O O16 0.000000 0.500000 0.047349
O O17 0.647438 0.250000 0.617602
O O18 0.500000 0.000000 0.624831
#
# Coordination Sequence:
#
# PCOD8181480 Si02
#       6
#     8   8   8   8   8   8
#     4  11  23  40  59  83 115 150 188 230 281 336
#     4   9  17  31  53  81 112 146 187 234 282 330
#     4  11  21  35  57  85 115 149 190 235 282 332
#     4  10  23  40  61  87 113 145 186 231 277 330
#     4  10  20  35  57  85 115 149 190 235 281 332
#     4  11  23  39  58  83 115 151 189 231 282 336
#
# _framework density 19.487848
#
# number of rings (size 3 to 8) (size 9 to 14) (size 15 to 20)
#    0.000    1.667    0.000    6.000    0.000    7.333 
#    0.000    0.833    0.000    4.000    0.000    0.000 
#    0.000    0.000    0.000    0.000    0.000    0.000 
#
# Total GULP energy -297579.700485 kJ/mol
# GULP energy per Si atom -12399.154187 kJ/mol
# Density = 1.944349 g / cm^3
# Si number density = 19.487848 Si / 1000 Ang^3
#
#
#
# Elastic Constant Matrix: (Units=GPa)
#
#
# Indices 1 2 3 4 5 6 
#
# 1 133.3351 51.6726 80.5078 0.0000 0.0000 0.0000
# 2 51.6726 106.0346 59.3345 0.0000 0.0000 0.0000
# 3 80.5078 59.3345 170.1699 0.0000 0.0000 0.0000
# 4 0.0000 0.0000 0.0000 30.6208 0.0000 0.0000
# 5 0.0000 0.0000 0.0000 0.0000 9.7598 0.0000
# 6 0.0000 0.0000 0.0000 0.0000 0.0000 35.1554
#
#
#
# Elastic Compliance Matrix: (Units=1/GPa)
#
#
# Indices 1 2 3 4 5 6 
#
# 1 0.011271 -0.003117 -0.004246 0.000000 0.000000 0.000000
# 2 -0.003117 0.012579 -0.002911 0.000000 0.000000 0.000000
# 3 -0.004246 -0.002911 0.008900 0.000000 0.000000 0.000000
# 4 0.000000 0.000000 0.000000 0.032658 0.000000 0.000000
# 5 0.000000 0.000000 0.000000 0.000000 0.102462 0.000000
# 6 0.000000 0.000000 0.000000 0.000000 0.000000 0.028445
#
#
# Mechanical properties :
#
#
# Convention : Reuss Voigt Hill
#
# Bulk Modulus (GPa) = 81.95000 88.06325 85.00663
# Shear Modulus (GPa) = 22.63154 29.64217 26.13686
#
# Velocity S-wave (km/s) = 3.41151 3.90431 3.66620
# Velocity P-wave (km/s) = 7.59348 8.10011 7.85088
#
# Compressibility (1/GPa) = 0.01220256
#
# Stress axis : x y z
#
# Youngs Moduli (GPa) = 88.72012 79.49774 112.35616
#
# Poissons Ratio (x) = 0.24779 0.47703
# Poissons Ratio (y) = 0.27654 0.32711
# Poissons Ratio (z) = 0.37668 0.23145
#
# Static dielectric constant tensor:
#      x y z
#    x 3.303120 0.000000 0.000000 
#    y 0.000000 3.712560 0.000000 
#    z 0.000000 0.000000 4.305920 
# 
# 
# High freq. dielectric constant tensor:
#      x y z
#    x 1.737060 0.000000 0.000000 
#    y 0.000000 1.773080 0.000000 
#    z 0.000000 0.000000 1.785740 
# 
# From -- ./inp_files/17608.got.cif
#   From: 2010.03.12/outbox.cif.g09.slc.cpg/sg39_9_cif.got.tgz:17608.got - 2010.04.14 02:53:20.
