data_PCOD8181558
_publ_section_title
;
Structure prediction by ZEFSAII (Michael W. Deem and Ramdas Pophale) SiO2 
 PCOD8181558
Probable space group: A B M 2
;
_chemical_formula_sum "Si O2"
_cell_formula_units_Z 64
_cell_length_a 20.569603
_cell_length_b 8.898420
_cell_length_c 18.122324
_cell_angle_alpha 90.000000
_cell_angle_beta 90.000000
_cell_angle_gamma 90.000000
_cell_volume 3317.055215
_symmetry_space_group_name_H-M "A B M 2"
_symmetry_group_IT_number 39
_symmetry_cell_setting 'orthorhombic'
loop_
_space_group_symop_operation_xyz
x,y,z
-x,-y,z
-x,1/2+y,z
x,1/2-y,z
x,1/2+y,1/2+z
-x,1/2-y,1/2+z
-x,y,1/2+z
x,-y,1/2+z
loop_
_atom_site_type_symbol
_atom_site_label
_atom_site_fract_x
_atom_site_fract_y
_atom_site_fract_z
Si Si1 0.191559 0.572813 0.742000
Si Si2 0.433103 0.427307 0.575421
Si Si3 0.065933 0.426836 0.499441
Si Si4 0.565925 0.925561 0.744296
Si Si5 0.065876 0.073233 0.331909
Si Si6 0.694490 0.922915 0.826658
Si Si7 0.687728 0.923140 0.000414
Si Si8 0.193945 0.928060 0.083933
O O1 0.192278 0.750000 0.726191
O O2 0.125081 0.520455 0.780936
O O3 0.250266 0.531111 0.795611
O O4 0.199074 0.481101 0.667362
O O5 0.500000 0.500000 0.547356
O O6 0.437327 0.250000 0.565394
O O7 0.419726 0.473672 0.660108
O O8 0.376017 0.490642 0.525719
O O9 0.057275 0.250000 0.502913
O O10 0.079266 0.481426 0.415669
O O11 0.125158 0.480626 0.550438
O O12 0.000000 0.500000 0.530627
O O13 0.555228 0.750000 0.750994
O O14 0.625935 0.979591 0.794029
O O15 0.500000 0.000000 0.774295
O O16 0.057195 0.250000 0.329306
O O17 0.000000 0.000000 0.300702
O O18 0.707660 0.750000 0.803269
O O19 0.693604 0.941728 0.913553
O O20 0.682811 0.750000 0.024370
O O21 0.750381 0.995934 0.036625
O O22 0.202978 0.750000 0.079765
#
# Coordination Sequence:
#
# PCOD8181558 Si02
#       8
#     8   8   8   8   8   8   8   8
#     4  11  23  38  58  84 113 146 189 236 280 335
#     4  10  20  36  59  84 114 152 191 234 284 337
#     4   9  19  36  58  82 110 146 186 229 279 336
#     4   9  19  36  57  81 109 143 182 224 272 327
#     4   9  19  36  57  82 111 144 184 228 276 333
#     4  10  22  39  58  83 115 148 185 231 283 339
#     4  11  23  38  58  85 115 148 190 238 286 339
#     4  11  23  39  58  81 113 151 190 234 286 340
#
# _framework density 19.294222999999999
#
# number of rings (size 3 to 8) (size 9 to 14) (size 15 to 20)
#    0.000    2.000    0.000    3.000    0.000    7.000 
#    0.000    6.250    0.000    0.000    0.000    0.000 
#    0.000    0.000    0.000    0.000    0.000    0.000 
#
# Total GULP energy -396943.053992 kJ/mol
# GULP energy per Si atom -12404.470437 kJ/mol
# Density = 1.925031 g / cm^3
# Si number density = 19.294223 Si / 1000 Ang^3
#
#
#
# Elastic Constant Matrix: (Units=GPa)
#
#
# Indices 1 2 3 4 5 6 
#
# 1 156.2762 47.1294 59.0777 0.0000 0.0000 0.0000
# 2 47.1294 57.0812 34.7131 0.0000 0.0000 0.0000
# 3 59.0777 34.7131 80.7834 0.0000 0.0000 0.0000
# 4 0.0000 0.0000 0.0000 9.2926 0.0000 0.0000
# 5 0.0000 0.0000 0.0000 0.0000 42.3921 0.0000
# 6 0.0000 0.0000 0.0000 0.0000 0.0000 39.5626
#
#
#
# Elastic Compliance Matrix: (Units=1/GPa)
#
#
# Indices 1 2 3 4 5 6 
#
# 1 0.009817 -0.005063 -0.005004 0.000000 0.000000 0.000000
# 2 -0.005063 0.026327 -0.007611 0.000000 0.000000 0.000000
# 3 -0.005004 -0.007611 0.019309 0.000000 0.000000 0.000000
# 4 0.000000 0.000000 0.000000 0.107612 0.000000 0.000000
# 5 0.000000 0.000000 0.000000 0.000000 0.023589 0.000000
# 6 0.000000 0.000000 0.000000 0.000000 0.000000 0.025276
#
#
# Mechanical properties :
#
#
# Convention : Reuss Voigt Hill
#
# Bulk Modulus (GPa) = 49.75483 63.99790 56.87637
# Shear Modulus (GPa) = 19.68618 28.46417 24.07518
#
# Velocity S-wave (km/s) = 3.19770 3.84509 3.53624
# Velocity P-wave (km/s) = 6.28308 7.27698 6.79822
#
# Compressibility (1/GPa) = 0.02009855
#
# Stress axis : x y z
#
# Youngs Moduli (GPa) = 101.85963 37.98364 51.79019
#
# Poissons Ratio (x) = 0.19230 0.25917
# Poissons Ratio (y) = 0.51567 0.39415
# Poissons Ratio (z) = 0.50972 0.28908
#
# Static dielectric constant tensor:
#      x y z
#    x 3.530270 0.000000 0.000000 
#    y 0.000000 3.521560 0.000000 
#    z 0.000000 0.000000 3.590520 
# 
# 
# High freq. dielectric constant tensor:
#      x y z
#    x 1.766790 0.000000 0.000000 
#    y 0.000000 1.752380 0.000000 
#    z 0.000000 0.000000 1.750680 
# 
# From -- ./inp_files/13093.got.cif
#   From: 2010.03.12/outbox.cif.g09.slc.cpg/sg39_7_cif.got.tgz:13093.got - 2010.04.14 02:53:20.
