data_PCOD8181589
_publ_section_title
;
Structure prediction by ZEFSAII (Michael W. Deem and Ramdas Pophale) SiO2 
 PCOD8181589
Probable space group: A B M 2
;
_chemical_formula_sum "Si O2"
_cell_formula_units_Z 48
_cell_length_a 13.437694
_cell_length_b 17.602929
_cell_length_c 8.850901
_cell_angle_alpha 90.000000
_cell_angle_beta 90.000000
_cell_angle_gamma 90.000000
_cell_volume 2093.616670
_symmetry_space_group_name_H-M "A B M 2"
_symmetry_group_IT_number 39
_symmetry_cell_setting 'orthorhombic'
loop_
_space_group_symop_operation_xyz
x,y,z
-x,-y,z
-x,1/2+y,z
x,1/2-y,z
x,1/2+y,1/2+z
-x,1/2-y,1/2+z
-x,y,1/2+z
x,-y,1/2+z
loop_
_atom_site_type_symbol
_atom_site_label
_atom_site_fract_x
_atom_site_fract_y
_atom_site_fract_z
Si Si1 0.319131 0.016943 0.450300
Si Si2 0.641189 0.398183 0.224207
Si Si3 0.042767 0.161963 0.050380
Si Si4 0.139768 0.837967 0.234316
Si Si5 0.462389 0.250000 0.836846
Si Si6 0.356834 0.250000 0.149008
Si Si7 0.770744 0.400551 0.678822
O O1 0.388162 0.962928 0.346423
O O2 0.251585 0.966135 0.559039
O O3 0.387124 0.071126 0.556893
O O4 0.251924 0.072192 0.347632
O O5 0.760797 0.387544 0.233953
O O6 0.580883 0.322997 0.252902
O O7 0.058972 0.250000 0.085571
O O8 0.112774 0.117145 0.167740
O O9 0.927505 0.141642 0.087522
O O10 0.072112 0.141877 0.879451
O O11 0.172406 0.750000 0.236210
O O12 0.581319 0.250000 0.806608
O O13 0.437195 0.250000 0.012928
O O14 0.290509 0.175121 0.134563
#
# Coordination Sequence:
#
# PCOD8181589 Si02
#       7
#     8   8   8   8   4   4   8
#     4  10  24  40  70  94 130 180 210 252 334 388
#     4  11  22  46  67  93 134 172 214 265 319 382
#     4  10  20  36  61  93 126 170 217 266 315 366
#     4  10  20  36  61  93 126 170 217 266 315 366
#     4  12  26  46  73 100 126 163 218 273 319 377
#     4  12  26  46  73 100 126 163 218 273 319 377
#     4  11  22  46  67  93 134 172 214 265 319 382
#
# _framework density 22.926833999999999
#
# number of rings (size 3 to 8) (size 9 to 14) (size 15 to 20)
#    0.000    1.333    5.000    0.000    4.667    0.000 
#    0.000   10.000    0.000    0.000    0.000    0.000 
#    0.000    0.000    0.000    0.000    0.000    0.000 
#
# Total GULP energy -297588.383034 kJ/mol
# GULP energy per Si atom -12399.515960 kJ/mol
# Density = 2.287465 g / cm^3
# Si number density = 22.926834 Si / 1000 Ang^3
#
#
#
# Elastic Constant Matrix: (Units=GPa)
#
#
# Indices 1 2 3 4 5 6 
#
# 1 43.4925 9.6850 -0.8476 0.0000 0.0000 0.0000
# 2 9.6850 93.8408 34.5259 0.0000 0.0000 0.0000
# 3 -0.8476 34.5259 105.2212 0.0000 0.0000 0.0000
# 4 0.0000 0.0000 0.0000 36.6768 0.0000 0.0000
# 5 0.0000 0.0000 0.0000 0.0000 24.3903 0.0000
# 6 0.0000 0.0000 0.0000 0.0000 0.0000 -7.2299
#
#
#
# Elastic Compliance Matrix: (Units=1/GPa)
#
#
# Indices 1 2 3 4 5 6 
#
# 1 0.023650 -0.002856 0.001128 0.000000 0.000000 0.000000
# 2 -0.002856 0.012464 -0.004113 0.000000 0.000000 0.000000
# 3 0.001128 -0.004113 0.010862 0.000000 0.000000 0.000000
# 4 0.000000 0.000000 0.000000 0.027265 0.000000 0.000000
# 5 0.000000 0.000000 0.000000 0.000000 0.041000 0.000000
# 6 0.000000 0.000000 0.000000 0.000000 0.000000 -0.138314
#
#
# Mechanical properties :
#
#
# Convention : Reuss Voigt Hill
#
# Bulk Modulus (GPa) = 28.33266 36.58679 32.45973
# Shear Modulus (GPa) = 13330.06014 24.04685 6677.05349
#
# Velocity S-wave (km/s) = 76.33345 3.24211 54.02457
# Velocity P-wave (km/s) = 88.21251 5.47793 62.49582
#
# Compressibility (1/GPa) = 0.03529496
#
# Stress axis : x y z
#
# Youngs Moduli (GPa) = 42.28268 80.22928 92.06060
#
# Poissons Ratio (x) = 0.22911 -0.10380
# Poissons Ratio (y) = 0.12075 0.37863
# Poissons Ratio (z) = -0.04768 0.32997
#
# Static dielectric constant tensor:
#      x y z
#    x 3.832760 0.000000 0.000000 
#    y 0.000000 4.366240 0.000000 
#    z 0.000000 0.000000 4.382710 
# 
# 
# High freq. dielectric constant tensor:
#      x y z
#    x 1.879910 0.000000 0.000000 
#    y 0.000000 1.914750 0.000000 
#    z 0.000000 0.000000 1.915400 
# 
# From -- ./inp_files/3265.got.cif
#   From: 2010.03.12/outbox.cif.g09.slc.cpg/sg39_2_cif.got.tgz:3265.got - 2010.04.14 02:53:20.
