data_PCOD8181676
_publ_section_title
;
Structure prediction by ZEFSAII (Michael W. Deem and Ramdas Pophale) SiO2 
 PCOD8181676
Probable space group: A B M 2
;
_chemical_formula_sum "Si O2"
_cell_formula_units_Z 40
_cell_length_a 9.908273
_cell_length_b 17.835380
_cell_length_c 8.959916
_cell_angle_alpha 90.000000
_cell_angle_beta 90.000000
_cell_angle_gamma 90.000000
_cell_volume 1583.376770
_symmetry_space_group_name_H-M "A B M 2"
_symmetry_group_IT_number 39
_symmetry_cell_setting 'orthorhombic'
loop_
_space_group_symop_operation_xyz
x,y,z
-x,-y,z
-x,1/2+y,z
x,1/2-y,z
x,1/2+y,1/2+z
-x,1/2-y,1/2+z
-x,y,1/2+z
x,-y,1/2+z
loop_
_atom_site_type_symbol
_atom_site_label
_atom_site_fract_x
_atom_site_fract_y
_atom_site_fract_z
Si Si1 0.502543 0.583349 0.949590
Si Si2 0.657501 0.162273 0.201533
Si Si3 0.119573 0.944605 0.481559
Si Si4 0.753566 0.555024 0.275921
Si Si5 0.102009 0.163505 0.485913
O O1 0.500000 0.500000 0.022554
O O2 0.633915 0.616462 0.858448
O O3 0.398780 0.572948 0.812909
O O4 0.451583 0.641403 0.073904
O O5 0.640651 0.250000 0.236970
O O6 0.807697 0.145142 0.133875
O O7 0.244330 0.947055 0.597123
O O8 0.055196 0.861571 0.492168
O O9 0.185878 0.974510 0.329070
O O10 0.000000 0.000000 0.535609
O O11 0.845042 0.620845 0.340810
O O12 0.106402 0.250000 0.448140
#
# Coordination Sequence:
#
# PCOD8181676 Si02
#       5
#     8   8   8   8   8
#     4  11  24  38  66  94 127 165 217 264 311 383
#     4  10  22  43  64  91 129 171 208 260 326 382
#     4  10  20  38  61  87 120 163 203 263 314 375
#     4  10  23  38  62  88 126 160 210 257 321 368
#     4   9  20  39  62  90 125 163 207 260 317 380
#
# _framework density 25.262466
#
# number of rings (size 3 to 8) (size 9 to 14) (size 15 to 20)
#    0.000    2.000    0.000    3.000   11.200    1.600 
#    0.000    0.000    0.000    0.000    0.000    0.000 
#    0.000    0.000    0.000    0.000    0.000    0.000 
#
# Total GULP energy -247787.595373 kJ/mol
# GULP energy per Si atom -12389.379769 kJ/mol
# Density = 2.520497 g / cm^3
# Si number density = 25.262466 Si / 1000 Ang^3
#
#
#
# Elastic Constant Matrix: (Units=GPa)
#
#
# Indices 1 2 3 4 5 6 
#
# 1 29.5451 27.1024 -2.7248 0.0000 0.0000 0.0000
# 2 27.1024 145.5879 38.3490 0.0000 0.0000 0.0000
# 3 -2.7248 38.3490 84.1487 0.0000 0.0000 0.0000
# 4 0.0000 0.0000 0.0000 30.0417 0.0000 0.0000
# 5 0.0000 0.0000 0.0000 0.0000 24.4540 0.0000
# 6 0.0000 0.0000 0.0000 0.0000 0.0000 38.1655
#
#
#
# Elastic Compliance Matrix: (Units=1/GPa)
#
#
# Indices 1 2 3 4 5 6 
#
# 1 0.043130 -0.009542 0.005745 0.000000 0.000000 0.000000
# 2 -0.009542 0.009917 -0.004828 0.000000 0.000000 0.000000
# 3 0.005745 -0.004828 0.014270 0.000000 0.000000 0.000000
# 4 0.000000 0.000000 0.000000 0.033287 0.000000 0.000000
# 5 0.000000 0.000000 0.000000 0.000000 0.040893 0.000000
# 6 0.000000 0.000000 0.000000 0.000000 0.000000 0.026202
#
#
# Mechanical properties :
#
#
# Convention : Reuss Voigt Hill
#
# Bulk Modulus (GPa) = 19.97361 42.74831 31.36096
# Shear Modulus (GPa) = 24.79687 31.63592 28.21639
#
# Velocity S-wave (km/s) = 3.13640 3.54261 3.34568
# Velocity P-wave (km/s) = 4.58690 5.80447 5.23123
#
# Compressibility (1/GPa) = 0.05006606
#
# Stress axis : x y z
#
# Youngs Moduli (GPa) = 23.18581 100.83762 70.07604
#
# Poissons Ratio (x) = 0.96223 -0.40261
# Poissons Ratio (y) = 0.22125 0.33836
# Poissons Ratio (z) = -0.13321 0.48689
#
# Static dielectric constant tensor:
#      x y z
#    x 5.008650 0.000000 0.000000 
#    y 0.000000 4.618680 0.000000 
#    z 0.000000 0.000000 4.215720 
# 
# 
# High freq. dielectric constant tensor:
#      x y z
#    x 2.018610 0.000000 0.000000 
#    y 0.000000 2.004810 0.000000 
#    z 0.000000 0.000000 2.000750 
# 
# From -- ./inp_files/2516.got.cif
#   From: 2010.03.12/outbox.cif.g09.slc.cpg/sg39_2_cif.got.tgz:2516.got - 2010.04.14 02:53:20.
