data_PCOD8181471
_publ_section_title
;
Structure prediction by ZEFSAII (Michael W. Deem and Ramdas Pophale) SiO2 
 PCOD8181471
Probable space group: A B M 2
;
_chemical_formula_sum "Si O2"
_cell_formula_units_Z 64
_cell_length_a 11.585725
_cell_length_b 16.919457
_cell_length_c 17.036396
_cell_angle_alpha 90.000000
_cell_angle_beta 90.000000
_cell_angle_gamma 90.000000
_cell_volume 3339.545487
_symmetry_space_group_name_H-M "A B M 2"
_symmetry_group_IT_number 39
_symmetry_cell_setting 'orthorhombic'
loop_
_space_group_symop_operation_xyz
x,y,z
-x,-y,z
-x,1/2+y,z
x,1/2-y,z
x,1/2+y,1/2+z
-x,1/2-y,1/2+z
-x,y,1/2+z
x,-y,1/2+z
loop_
_atom_site_type_symbol
_atom_site_label
_atom_site_fract_x
_atom_site_fract_y
_atom_site_fract_z
Si Si1 0.178075 0.552481 0.563500
Si Si2 0.619961 0.656939 0.515173
Si Si3 0.249825 0.409543 0.655254
Si Si4 0.639051 0.840917 0.980046
Si Si5 0.993070 0.408243 0.810302
Si Si6 0.201576 0.058704 0.421887
Si Si7 0.999082 0.840693 0.646113
Si Si8 0.748726 0.590788 0.833658
O O1 0.219967 0.501246 0.638177
O O2 0.281730 0.609275 0.538312
O O3 0.147309 0.492538 0.492899
O O4 0.065809 0.603457 0.584763
O O5 0.635274 0.750000 0.515758
O O6 0.647278 0.621640 0.600740
O O7 0.491688 0.630584 0.492297
O O8 0.706526 0.621994 0.450886
O O9 0.136797 0.356753 0.639161
O O10 0.293701 0.401321 0.744300
O O11 0.653470 0.750000 0.002941
O O12 0.671909 0.853364 0.888849
O O13 0.901577 0.393919 0.879531
O O14 0.000000 0.500000 0.784714
O O15 0.956791 0.358002 0.734297
O O16 0.118112 0.381147 0.841609
O O17 0.264304 0.000184 0.360653
O O18 0.024665 0.750000 0.624756
#
# Coordination Sequence:
#
# PCOD8181471 Si02
#       8
#     8   8   8   8   8   8   8   8
#     4  10  20  35  57  82 110 144 182 225 269 317
#     4  10  22  39  56  77 110 146 182 228 276 322
#     4  10  21  38  59  80 107 145 186 223 264 321
#     4  10  22  39  56  78 110 144 182 229 276 322
#     4   9  18  35  54  80 113 143 177 219 269 322
#     4   9  19  34  56  82 109 143 181 222 270 319
#     4  11  21  33  54  84 116 145 175 218 273 330
#     4   9  19  35  58  81 105 142 180 220 268 324
#
# _framework density 19.164285
#
# number of rings (size 3 to 8) (size 9 to 14) (size 15 to 20)
#    0.000    2.250    0.000    3.375    0.000   16.500 
#    0.000    5.000    0.000    3.000    0.000    0.000 
#    0.000    0.000    0.000    0.000    0.000    0.000 
#
# Total GULP energy -396859.993163 kJ/mol
# GULP energy per Si atom -12401.874786 kJ/mol
# Density = 1.912067 g / cm^3
# Si number density = 19.164285 Si / 1000 Ang^3
#
#
#
# Elastic Constant Matrix: (Units=GPa)
#
#
# Indices 1 2 3 4 5 6 
#
# 1 92.3589 31.2749 62.6356 0.0000 0.0000 0.0000
# 2 31.2749 73.5648 29.7745 0.0000 0.0000 0.0000
# 3 62.6356 29.7745 93.3727 0.0000 0.0000 0.0000
# 4 0.0000 0.0000 0.0000 22.7981 0.0000 0.0000
# 5 0.0000 0.0000 0.0000 0.0000 26.6265 0.0000
# 6 0.0000 0.0000 0.0000 0.0000 0.0000 31.0144
#
#
#
# Elastic Compliance Matrix: (Units=1/GPa)
#
#
# Indices 1 2 3 4 5 6 
#
# 1 0.020683 -0.003648 -0.012711 0.000000 0.000000 0.000000
# 2 -0.003648 0.016251 -0.002735 0.000000 0.000000 0.000000
# 3 -0.012711 -0.002735 0.020109 0.000000 0.000000 0.000000
# 4 0.000000 0.000000 0.000000 0.043863 0.000000 0.000000
# 5 0.000000 0.000000 0.000000 0.000000 0.037557 0.000000
# 6 0.000000 0.000000 0.000000 0.000000 0.000000 0.032243
#
#
# Mechanical properties :
#
#
# Convention : Reuss Voigt Hill
#
# Bulk Modulus (GPa) = 53.03781 56.29627 54.66704
# Shear Modulus (GPa) = 23.23639 25.12855 24.18247
#
# Velocity S-wave (km/s) = 3.48585 3.62500 3.55611
# Velocity P-wave (km/s) = 6.62850 6.85275 6.74156
#
# Compressibility (1/GPa) = 0.01885447
#
# Stress axis : x y z
#
# Youngs Moduli (GPa) = 48.34848 61.53306 49.72984
#
# Poissons Ratio (x) = 0.22450 0.63212
# Poissons Ratio (y) = 0.17640 0.13600
# Poissons Ratio (z) = 0.61456 0.16828
#
# Static dielectric constant tensor:
#      x y z
#    x 3.438920 0.000000 0.000000 
#    y 0.000000 3.438420 0.000000 
#    z 0.000000 0.000000 3.629610 
# 
# 
# High freq. dielectric constant tensor:
#      x y z
#    x 1.732090 0.000000 0.000000 
#    y 0.000000 1.740520 0.000000 
#    z 0.000000 0.000000 1.750480 
# 
# From -- ./inp_files/12359.got.cif
#   From: 2010.03.12/outbox.cif.g09.slc.cpg/sg39_7_cif.got.tgz:12359.got - 2010.04.14 02:53:20.
