data_PCOD8181254
_publ_section_title
;
Structure prediction by ZEFSAII (Michael W. Deem and Ramdas Pophale) SiO2 
 PCOD8181254
Probable space group: A B M 2
;
_chemical_formula_sum "Si O2"
_cell_formula_units_Z 64
_cell_length_a 8.774877
_cell_length_b 17.999162
_cell_length_c 20.620402
_cell_angle_alpha 90.000000
_cell_angle_beta 90.000000
_cell_angle_gamma 90.000000
_cell_volume 3256.795213
_symmetry_space_group_name_H-M "A B M 2"
_symmetry_group_IT_number 39
_symmetry_cell_setting 'orthorhombic'
loop_
_space_group_symop_operation_xyz
x,y,z
-x,-y,z
-x,1/2+y,z
x,1/2-y,z
x,1/2+y,1/2+z
-x,1/2-y,1/2+z
-x,y,1/2+z
x,-y,1/2+z
loop_
_atom_site_type_symbol
_atom_site_label
_atom_site_fract_x
_atom_site_fract_y
_atom_site_fract_z
Si Si1 0.099033 0.076041 0.885270
Si Si2 0.310415 0.924845 0.510069
Si Si3 0.320263 0.665341 0.139376
Si Si4 0.689585 0.424845 0.260471
Si Si5 0.320263 0.834659 0.631164
Si Si6 0.345135 0.096550 0.261102
Si Si7 0.189017 0.837239 0.885270
Si Si8 0.654865 0.096550 0.009438
O O1 0.203037 0.084391 0.948389
O O2 0.203037 0.084391 0.822151
O O3 0.990925 0.147919 0.885270
O O4 0.000000 0.000000 0.885270
O O5 0.243652 0.883447 0.573890
O O6 0.475730 0.887946 0.496640
O O7 0.323045 0.010893 0.526394
O O8 0.275770 0.750000 0.153064
O O9 0.243652 0.616553 0.196650
O O10 0.500000 0.651240 0.135270
O O11 0.264666 0.641196 0.068169
O O12 0.676955 0.510893 0.244146
O O13 0.524270 0.387946 0.273900
O O14 0.275770 0.750000 0.617476
O O15 0.264666 0.858804 0.702371
O O16 0.258439 0.121377 0.324326
O O17 0.225285 0.750000 0.885270
O O18 0.258439 0.878623 0.946214
#
# Coordination Sequence:
#
# PCOD8181254 Si02
#       8
#     8   8   8   8   8   8   8   8
#     4  12  23  41  58  83 120 161 201 250 291 357
#     4  10  20  36  64  88 115 153 201 247 297 352
#     4   9  18  33  56  89 124 150 185 246 306 353
#     4  10  20  36  64  88 115 153 201 247 297 352
#     4   9  18  33  56  89 124 150 185 246 306 353
#     4  10  19  37  62  92 115 150 199 249 298 357
#     4  12  25  39  59  85 121 160 194 242 305 363
#     4  10  19  37  62  92 115 150 199 249 298 357
#
# _framework density 19.651222000000001
#
# number of rings (size 3 to 8) (size 9 to 14) (size 15 to 20)
#    0.000    1.750    2.500    2.250    0.000    7.000 
#    0.000    2.500    0.000    3.000    0.000    0.000 
#    0.000    0.000    0.000    0.000    0.000    0.000 
#
# Total GULP energy -396712.209893 kJ/mol
# GULP energy per Si atom -12397.256559 kJ/mol
# Density = 1.960649 g / cm^3
# Si number density = 19.651222 Si / 1000 Ang^3
#
#
#
# Elastic Constant Matrix: (Units=GPa)
#
#
# Indices 1 2 3 4 5 6 
#
# 1 68.7308 26.9468 56.9392 0.0000 0.0000 0.0000
# 2 26.9468 107.9614 64.3333 0.0000 0.0000 0.0000
# 3 56.9392 64.3333 198.9413 0.0000 0.0000 0.0000
# 4 0.0000 0.0000 0.0000 -13.0545 0.0000 0.0000
# 5 0.0000 0.0000 0.0000 0.0000 5775.0464 0.0000
# 6 0.0000 0.0000 0.0000 0.0000 0.0000 23.6831
#
#
#
# Elastic Compliance Matrix: (Units=1/GPa)
#
#
# Indices 1 2 3 4 5 6 
#
# 1 0.019380 -0.001898 -0.004933 0.000000 0.000000 0.000000
# 2 -0.001898 0.011659 -0.003227 0.000000 0.000000 0.000000
# 3 -0.004933 -0.003227 0.007482 0.000000 0.000000 0.000000
# 4 0.000000 0.000000 0.000000 -0.076602 0.000000 0.000000
# 5 0.000000 0.000000 0.000000 0.000000 0.000173 0.000000
# 6 0.000000 0.000000 0.000000 0.000000 0.000000 0.042224
#
#
# Mechanical properties :
#
#
# Convention : Reuss Voigt Hill
#
# Bulk Modulus (GPa) = 54.33107 74.67467 64.50287
# Shear Modulus (GPa) = 163.56510 1172.29594 667.93052
#
# Velocity S-wave (km/s) = 9.13317 24.45089 18.45618
# Velocity P-wave (km/s) = 11.78675 28.90001 22.06964
#
# Compressibility (1/GPa) = 0.01840567
#
# Stress axis : x y z
#
# Youngs Moduli (GPa) = 51.59856 85.76843 133.65099
#
# Poissons Ratio (x) = 0.16276 0.65933
# Poissons Ratio (y) = 0.09791 0.43132
# Poissons Ratio (z) = 0.25455 0.27680
#
# Static dielectric constant tensor:
#      x y z
#    x 3.450640 0.000000 0.000000 
#    y 0.000000 3.610390 0.000000 
#    z 0.000000 0.000000 3.847690 
# 
# 
# High freq. dielectric constant tensor:
#      x y z
#    x 1.734320 0.000000 0.000000 
#    y 0.000000 1.768920 0.000000 
#    z 0.000000 0.000000 1.786080 
# 
# From -- ./inp_files/14183.got.cif
#   From: 2010.03.12/outbox.cif.g09.slc.cpg/sg39_8_cif.got.tgz:14183.got - 2010.04.14 02:53:20.
