data_PCOD8181078
_publ_section_title
;
Structure prediction by ZEFSAII (Michael W. Deem and Ramdas Pophale) SiO2 
 PCOD8181078
Probable space group: A B M 2
;
_chemical_formula_sum "Si O2"
_cell_formula_units_Z 64
_cell_length_a 16.356567
_cell_length_b 8.557438
_cell_length_c 22.979865
_cell_angle_alpha 90.000000
_cell_angle_beta 90.000000
_cell_angle_gamma 90.000000
_cell_volume 3216.498782
_symmetry_space_group_name_H-M "A B M 2"
_symmetry_group_IT_number 39
_symmetry_cell_setting 'orthorhombic'
loop_
_space_group_symop_operation_xyz
x,y,z
-x,-y,z
-x,1/2+y,z
x,1/2-y,z
x,1/2+y,1/2+z
-x,1/2-y,1/2+z
-x,y,1/2+z
x,-y,1/2+z
loop_
_atom_site_type_symbol
_atom_site_label
_atom_site_fract_x
_atom_site_fract_y
_atom_site_fract_z
Si Si1 0.242230 0.433492 0.078500
Si Si2 0.409755 0.926722 0.631249
Si Si3 0.859673 0.926783 0.775797
Si Si4 0.414321 0.426684 0.261085
Si Si5 0.235411 0.569573 0.953496
Si Si6 0.910905 0.564115 0.650901
Si Si7 0.705648 0.068172 0.343578
Si Si8 0.919064 0.572357 0.898152
O O1 0.237525 0.250000 0.092027
O O2 0.331830 0.502315 0.097353
O O3 0.163870 0.513331 0.109228
O O4 0.238156 0.463313 0.010098
O O5 0.421848 0.750000 0.610466
O O6 0.375119 0.934235 0.697156
O O7 0.500000 0.000000 0.619967
O O8 0.837831 0.750000 0.758780
O O9 0.892411 0.005146 0.716124
O O10 0.777036 0.004697 0.802163
O O11 0.925872 0.934487 0.827735
O O12 0.500000 0.500000 0.248915
O O13 0.416007 0.250000 0.285221
O O14 0.376460 0.541339 0.308544
O O15 0.246047 0.750000 0.970497
O O16 0.303183 0.517715 0.905928
O O17 0.150912 0.539897 0.920852
O O18 0.917019 0.750000 0.649928
O O19 0.000000 0.500000 0.630312
O O20 0.723604 0.250000 0.355815
O O21 0.905591 0.750000 0.919501
O O22 0.000000 0.500000 0.925769
#
# Coordination Sequence:
#
# PCOD8181078 Si02
#       8
#     8   8   8   8   8   8   8   8
#     4  11  23  41  60  82 112 150 193 241 288 335
#     4   9  20  37  61  90 120 150 186 230 282 339
#     4   8  17  32  53  80 111 143 179 222 277 335
#     4  10  19  33  54  85 118 148 179 218 269 331
#     4  11  23  39  57  79 105 142 188 233 278 333
#     4  11  22  37  56  83 116 153 192 234 282 339
#     4  10  19  35  57  82 111 145 181 226 278 333
#     4  10  19  34  55  81 110 143 181 228 280 333
#
# _framework density 19.897413
#
# number of rings (size 3 to 8) (size 9 to 14) (size 15 to 20)
#    0.000    2.000    0.000    4.875    0.000    2.000 
#    0.000    9.375    0.000    1.500    0.000    0.000 
#    0.000    0.000    0.000    0.000    0.000    0.000 
#
# Total GULP energy -396470.466161 kJ/mol
# GULP energy per Si atom -12389.702068 kJ/mol
# Density = 1.985213 g / cm^3
# Si number density = 19.897413 Si / 1000 Ang^3
#
#
#
# Elastic Constant Matrix: (Units=GPa)
#
#
# Indices 1 2 3 4 5 6 
#
# 1 86.3186 25.4800 51.1083 0.0000 0.0000 0.0000
# 2 25.4800 68.9304 20.2540 0.0000 0.0000 0.0000
# 3 51.1083 20.2540 101.0624 0.0000 0.0000 0.0000
# 4 0.0000 0.0000 0.0000 25.3141 0.0000 0.0000
# 5 0.0000 0.0000 0.0000 0.0000 16.0272 0.0000
# 6 0.0000 0.0000 0.0000 0.0000 0.0000 28.5789
#
#
#
# Elastic Compliance Matrix: (Units=1/GPa)
#
#
# Indices 1 2 3 4 5 6 
#
# 1 0.017577 -0.004129 -0.008061 0.000000 0.000000 0.000000
# 2 -0.004129 0.016385 -0.001196 0.000000 0.000000 0.000000
# 3 -0.008061 -0.001196 0.014211 0.000000 0.000000 0.000000
# 4 0.000000 0.000000 0.000000 0.039504 0.000000 0.000000
# 5 0.000000 0.000000 0.000000 0.000000 0.062394 0.000000
# 6 0.000000 0.000000 0.000000 0.000000 0.000000 0.034991
#
#
# Mechanical properties :
#
#
# Convention : Reuss Voigt Hill
#
# Bulk Modulus (GPa) = 46.72595 49.99956 48.36276
# Shear Modulus (GPa) = 22.83456 24.61532 23.72494
#
# Velocity S-wave (km/s) = 3.39132 3.52108 3.45681
# Velocity P-wave (km/s) = 6.23451 6.45863 6.34756
#
# Compressibility (1/GPa) = 0.02140138
#
# Stress axis : x y z
#
# Youngs Moduli (GPa) = 56.89360 61.03187 70.36693
#
# Poissons Ratio (x) = 0.25197 0.56725
# Poissons Ratio (y) = 0.23489 0.08415
# Poissons Ratio (z) = 0.45864 0.07299
#
# Static dielectric constant tensor:
#      x y z
#    x 3.617990 0.000000 0.000000 
#    y 0.000000 3.493280 0.000000 
#    z 0.000000 0.000000 3.635950 
# 
# 
# High freq. dielectric constant tensor:
#      x y z
#    x 1.773270 0.000000 0.000000 
#    y 0.000000 1.767790 0.000000 
#    z 0.000000 0.000000 1.770590 
# 
# From -- ./inp_files/16220.got.cif
#   From: 2010.03.12/outbox.cif.g09.slc.cpg/sg39_9_cif.got.tgz:16220.got - 2010.04.14 02:53:20.
