data_PCOD8181975
_publ_section_title
;
Structure prediction by ZEFSAII (Michael W. Deem and Ramdas Pophale) SiO2 
 PCOD8181975
Probable space group: A B M 2
;
_chemical_formula_sum "Si O2"
_cell_formula_units_Z 40
_cell_length_a 13.241209
_cell_length_b 26.341497
_cell_length_c 4.929733
_cell_angle_alpha 90.000000
_cell_angle_beta 90.000000
_cell_angle_gamma 90.000000
_cell_volume 1719.457679
_symmetry_space_group_name_H-M "A B M 2"
_symmetry_group_IT_number 39
_symmetry_cell_setting 'orthorhombic'
loop_
_space_group_symop_operation_xyz
x,y,z
-x,-y,z
-x,1/2+y,z
x,1/2-y,z
x,1/2+y,1/2+z
-x,1/2-y,1/2+z
-x,y,1/2+z
x,-y,1/2+z
loop_
_atom_site_type_symbol
_atom_site_label
_atom_site_fract_x
_atom_site_fract_y
_atom_site_fract_z
Si Si1 0.293649 0.693512 0.029570
Si Si2 0.755674 0.966348 0.398266
Si Si3 0.938839 0.904338 0.178890
Si Si4 0.158137 0.806084 0.522218
Si Si5 0.433609 0.099998 0.501498
O O1 0.329182 0.750000 0.123957
O O2 0.208503 0.673078 0.242337
O O3 0.248422 0.697080 0.732905
O O4 0.388757 0.656561 0.003108
O O5 0.833578 0.924300 0.293354
O O6 0.646169 0.941172 0.394420
O O7 0.770414 0.984743 0.706339
O O8 0.928464 0.843495 0.137575
O O9 0.027368 0.923289 0.381780
O O10 0.109763 0.750000 0.478145
O O11 0.469734 0.092065 0.809097
#
# Coordination Sequence:
#
# PCOD8181975 Si02
#       5
#     8   8   8   8   8
#     4  10  21  40  68  99 140 186 224 271 337 411
#     4  12  28  48  71  96 137 180 228 296 356 406
#     4  12  26  43  72 104 136 178 232 283 344 419
#     4  10  21  40  68  99 140 186 224 271 337 411
#     4  12  26  43  72 104 136 178 232 283 344 419
#
# _framework density 23.263147
#
# number of rings (size 3 to 8) (size 9 to 14) (size 15 to 20)
#    0.000    0.800    2.000    4.800    2.800    6.400 
#    0.000    0.000    0.000    0.000    0.000    0.000 
#    0.000    0.000    0.000    0.000    0.000    0.000 
#
# Total GULP energy -247920.028550 kJ/mol
# GULP energy per Si atom -12396.001427 kJ/mol
# Density = 2.321020 g / cm^3
# Si number density = 23.263147 Si / 1000 Ang^3
#
#
#
# Elastic Constant Matrix: (Units=GPa)
#
#
# Indices 1 2 3 4 5 6 
#
# 1 55.9341 10.6318 20.5779 0.0000 0.0000 0.0000
# 2 10.6318 70.3932 19.8456 0.0000 0.0000 0.0000
# 3 20.5779 19.8456 110.3208 0.0000 0.0000 0.0000
# 4 0.0000 0.0000 0.0000 35.9858 0.0000 0.0000
# 5 0.0000 0.0000 0.0000 0.0000 44.7449 0.0000
# 6 0.0000 0.0000 0.0000 0.0000 0.0000 21.3426
#
#
#
# Elastic Compliance Matrix: (Units=1/GPa)
#
#
# Indices 1 2 3 4 5 6 
#
# 1 0.019464 -0.002019 -0.003267 0.000000 0.000000 0.000000
# 2 -0.002019 0.015174 -0.002353 0.000000 0.000000 0.000000
# 3 -0.003267 -0.002353 0.010097 0.000000 0.000000 0.000000
# 4 0.000000 0.000000 0.000000 0.027789 0.000000 0.000000
# 5 0.000000 0.000000 0.000000 0.000000 0.022349 0.000000
# 6 0.000000 0.000000 0.000000 0.000000 0.000000 0.046855
#
#
# Mechanical properties :
#
#
# Convention : Reuss Voigt Hill
#
# Bulk Modulus (GPa) = 33.94772 37.63986 35.79379
# Shear Modulus (GPa) = 29.97152 32.78751 31.37952
#
# Velocity S-wave (km/s) = 3.59328 3.75830 3.67671
# Velocity P-wave (km/s) = 5.64271 5.92015 5.78309
#
# Compressibility (1/GPa) = 0.02945706
#
# Stress axis : x y z
#
# Youngs Moduli (GPa) = 51.37706 65.90130 99.03684
#
# Poissons Ratio (x) = 0.13303 0.32360
# Poissons Ratio (y) = 0.10371 0.23305
# Poissons Ratio (z) = 0.16787 0.15508
#
# Static dielectric constant tensor:
#      x y z
#    x 3.882920 0.000000 0.000000 
#    y 0.000000 4.483660 0.000000 
#    z 0.000000 0.000000 4.403240 
# 
# 
# High freq. dielectric constant tensor:
#      x y z
#    x 1.900520 0.000000 0.000000 
#    y 0.000000 1.921300 0.000000 
#    z 0.000000 0.000000 1.941730 
# 
# From -- ./inp_files/347.got.cif
#   From: 2010.03.12/outbox.cif.g09.slc.cpg/sg39_1_cif.got.tgz:347.got - 2010.04.14 02:53:20.
