data_PCOD8181010
_publ_section_title
;
Structure prediction by ZEFSAII (Michael W. Deem and Ramdas Pophale) SiO2 
 PCOD8181010
Probable space group: A B M 2
;
_chemical_formula_sum "Si O2"
_cell_formula_units_Z 64
_cell_length_a 14.495476
_cell_length_b 8.727395
_cell_length_c 24.802979
_cell_angle_alpha 90.000000
_cell_angle_beta 90.000000
_cell_angle_gamma 90.000000
_cell_volume 3137.768937
_symmetry_space_group_name_H-M "A B M 2"
_symmetry_group_IT_number 39
_symmetry_cell_setting 'orthorhombic'
loop_
_space_group_symop_operation_xyz
x,y,z
-x,-y,z
-x,1/2+y,z
x,1/2-y,z
x,1/2+y,1/2+z
-x,1/2-y,1/2+z
-x,y,1/2+z
x,-y,1/2+z
loop_
_atom_site_type_symbol
_atom_site_label
_atom_site_fract_x
_atom_site_fract_y
_atom_site_fract_z
Si Si1 0.404425 0.568418 0.672230
Si Si2 0.898325 0.569062 0.535142
Si Si3 0.154913 0.422614 0.819972
Si Si4 0.793250 0.069314 0.927976
Si Si5 0.409081 0.069561 0.397563
Si Si6 0.223552 0.931613 0.135516
Si Si7 0.635616 0.575882 0.786845
Si Si8 0.907481 0.429692 0.718485
O O1 0.500000 0.500000 0.650019
O O2 0.405869 0.750000 0.669461
O O3 0.324943 0.504998 0.632496
O O4 0.389701 0.516285 0.733533
O O5 0.908679 0.750000 0.536493
O O6 0.841482 0.515002 0.482810
O O7 0.839339 0.510387 0.586065
O O8 0.000000 0.500000 0.535817
O O9 0.115213 0.250000 0.819659
O O10 0.151411 0.486637 0.880343
O O11 0.256158 0.426962 0.795739
O O12 0.092812 0.530525 0.782013
O O13 0.800968 0.250000 0.918936
O O14 0.685210 0.019124 0.928073
O O15 0.417525 0.250000 0.396446
O O16 0.500000 0.000000 0.427435
O O17 0.412110 0.006145 0.336987
O O18 0.233655 0.750000 0.136307
O O19 0.178972 0.988611 0.190977
O O20 0.599253 0.750000 0.781500
O O21 0.903645 0.250000 0.708245
O O22 0.000000 0.500000 0.692182
#
# Coordination Sequence:
#
# PCOD8181010 Si02
#       8
#     8   8   8   8   8   8   8   8
#     4  12  24  38  59  87 121 162 205 247 301 358
#     4  10  23  43  68  92 117 153 199 253 308 364
#     4  10  20  35  57  86 122 160 198 246 301 356
#     4   9  20  39  60  85 119 159 200 245 301 362
#     4  10  19  32  53  81 118 158 202 244 292 352
#     4  11  23  42  64  89 122 156 199 253 307 364
#     4  10  19  33  54  81 119 160 202 245 292 351
#     4  12  24  38  59  87 121 160 200 245 304 369
#
# _framework density 20.396657000000001
#
# number of rings (size 3 to 8) (size 9 to 14) (size 15 to 20)
#    0.000    1.500    1.250    4.500    0.000    4.500 
#    0.000    1.875    0.000    1.500    0.000    0.000 
#    0.000    0.000    0.000    0.000    0.000    0.000 
#
# Total GULP energy -396854.192019 kJ/mol
# GULP energy per Si atom -12401.693501 kJ/mol
# Density = 2.035023 g / cm^3
# Si number density = 20.396657 Si / 1000 Ang^3
#
#
#
# Elastic Constant Matrix: (Units=GPa)
#
#
# Indices 1 2 3 4 5 6 
#
# 1 140.8306 47.6305 60.4862 0.0000 0.0000 0.0000
# 2 47.6305 105.3640 38.3684 0.0000 0.0000 0.0000
# 3 60.4862 38.3684 107.8340 0.0000 0.0000 0.0000
# 4 0.0000 0.0000 0.0000 24.6068 0.0000 0.0000
# 5 0.0000 0.0000 0.0000 0.0000 29.4420 0.0000
# 6 0.0000 0.0000 0.0000 0.0000 0.0000 37.3148
#
#
#
# Elastic Compliance Matrix: (Units=1/GPa)
#
#
# Indices 1 2 3 4 5 6 
#
# 1 0.010053 -0.002862 -0.004621 0.000000 0.000000 0.000000
# 2 -0.002862 0.011718 -0.002564 0.000000 0.000000 0.000000
# 3 -0.004621 -0.002564 0.012778 0.000000 0.000000 0.000000
# 4 0.000000 0.000000 0.000000 0.040639 0.000000 0.000000
# 5 0.000000 0.000000 0.000000 0.000000 0.033965 0.000000
# 6 0.000000 0.000000 0.000000 0.000000 0.000000 0.026799
#
#
# Mechanical properties :
#
#
# Convention : Reuss Voigt Hill
#
# Bulk Modulus (GPa) = 69.17739 71.88876 70.53307
# Shear Modulus (GPa) = 31.08192 32.10895 31.59543
#
# Velocity S-wave (km/s) = 3.90792 3.97196 3.94007
# Velocity P-wave (km/s) = 7.37239 7.50714 7.44007
#
# Compressibility (1/GPa) = 0.01445559
#
# Stress axis : x y z
#
# Youngs Moduli (GPa) = 99.46995 85.33559 78.26099
#
# Poissons Ratio (x) = 0.24423 0.36163
# Poissons Ratio (y) = 0.28468 0.20068
# Poissons Ratio (z) = 0.45963 0.21882
#
# Static dielectric constant tensor:
#      x y z
#    x 4.015570 0.000000 0.000000 
#    y 0.000000 3.695360 0.000000 
#    z 0.000000 0.000000 3.603740 
# 
# 
# High freq. dielectric constant tensor:
#      x y z
#    x 1.814080 0.000000 0.000000 
#    y 0.000000 1.802170 0.000000 
#    z 0.000000 0.000000 1.773050 
# 
# From -- ./inp_files/16260.got.cif
#   From: 2010.03.12/outbox.cif.g09.slc.cpg/sg39_9_cif.got.tgz:16260.got - 2010.04.14 02:53:20.
