data_PCOD8181580
_publ_section_title
;
Structure prediction by ZEFSAII (Michael W. Deem and Ramdas Pophale) SiO2 
 PCOD8181580
Probable space group: A B M 2
;
_chemical_formula_sum "Si O2"
_cell_formula_units_Z 64
_cell_length_a 23.686833
_cell_length_b 8.952200
_cell_length_c 15.419064
_cell_angle_alpha 90.000000
_cell_angle_beta 90.000000
_cell_angle_gamma 90.000000
_cell_volume 3269.601210
_symmetry_space_group_name_H-M "A B M 2"
_symmetry_group_IT_number 39
_symmetry_cell_setting 'orthorhombic'
loop_
_space_group_symop_operation_xyz
x,y,z
-x,-y,z
-x,1/2+y,z
x,1/2-y,z
x,1/2+y,1/2+z
-x,1/2-y,1/2+z
-x,y,1/2+z
x,-y,1/2+z
loop_
_atom_site_type_symbol
_atom_site_label
_atom_site_fract_x
_atom_site_fract_y
_atom_site_fract_z
Si Si1 0.864134 0.074140 0.036120
Si Si2 0.060259 0.925345 0.196752
Si Si3 0.744565 0.578711 0.338905
Si Si4 0.560373 0.573779 0.938495
Si Si5 0.629711 0.425392 0.605746
Si Si6 0.635536 0.926723 0.777809
Si Si7 0.736152 0.581102 0.540276
Si Si8 0.861919 0.426398 0.355822
O O1 0.868967 0.250000 0.016724
O O2 0.903828 0.019342 0.113953
O O3 0.800091 0.034643 0.063155
O O4 0.881971 0.988294 0.948786
O O5 0.052090 0.750000 0.191067
O O6 0.090808 0.970673 0.285837
O O7 0.000000 0.000000 0.193668
O O8 0.749291 0.750000 0.309005
O O9 0.698026 0.495437 0.281824
O O10 0.726134 0.566401 0.438246
O O11 0.804108 0.499679 0.323482
O O12 0.500000 0.500000 0.932019
O O13 0.552905 0.750000 0.936156
O O14 0.597803 0.517935 0.857943
O O15 0.590928 0.521394 0.026242
O O16 0.625635 0.250000 0.621427
O O17 0.606681 0.511728 0.690215
O O18 0.694713 0.468073 0.588520
O O19 0.640489 0.750000 0.775611
O O20 0.723531 0.750000 0.571651
O O21 0.852905 0.250000 0.361935
#
# Coordination Sequence:
#
# PCOD8181580 Si02
#       8
#     8   8   8   8   8   8   8   8
#     4   9  20  39  59  84 118 156 198 244 299 356
#     4  10  23  41  60  84 117 158 202 247 297 356
#     4  10  20  36  60  91 123 158 198 245 301 360
#     4  10  24  44  65  87 120 161 204 250 297 352
#     4  11  23  39  59  91 124 156 201 248 296 355
#     4  11  23  40  61  90 123 160 201 247 302 357
#     4   9  18  34  59  87 119 157 194 239 301 359
#     4  10  21  37  59  88 119 156 198 246 301 356
#
# _framework density 19.574251
#
# number of rings (size 3 to 8) (size 9 to 14) (size 15 to 20)
#    0.000    2.000    1.250    2.250    1.750    6.500 
#    0.000    5.000    0.000    0.000    0.000    0.000 
#    0.000    0.000    0.000    0.000    0.000    0.000 
#
# Total GULP energy -396919.634569 kJ/mol
# GULP energy per Si atom -12403.738580 kJ/mol
# Density = 1.952970 g / cm^3
# Si number density = 19.574251 Si / 1000 Ang^3
#
#
#
# Elastic Constant Matrix: (Units=GPa)
#
#
# Indices 1 2 3 4 5 6 
#
# 1 114.0000 44.6072 60.4433 0.0000 0.0000 0.0000
# 2 44.6072 73.2985 48.5803 0.0000 0.0000 0.0000
# 3 60.4433 48.5803 119.8160 0.0000 0.0000 0.0000
# 4 0.0000 0.0000 0.0000 34.5341 0.0000 0.0000
# 5 0.0000 0.0000 0.0000 0.0000 18.9789 0.0000
# 6 0.0000 0.0000 0.0000 0.0000 0.0000 37.9876
#
#
#
# Elastic Compliance Matrix: (Units=1/GPa)
#
#
# Indices 1 2 3 4 5 6 
#
# 1 0.013163 -0.004936 -0.004639 0.000000 0.000000 0.000000
# 2 -0.004936 0.020507 -0.005825 0.000000 0.000000 0.000000
# 3 -0.004639 -0.005825 0.013048 0.000000 0.000000 0.000000
# 4 0.000000 0.000000 0.000000 0.028957 0.000000 0.000000
# 5 0.000000 0.000000 0.000000 0.000000 0.052690 0.000000
# 6 0.000000 0.000000 0.000000 0.000000 0.000000 0.026324
#
#
# Mechanical properties :
#
#
# Convention : Reuss Voigt Hill
#
# Bulk Modulus (GPa) = 62.81880 68.26401 65.54141
# Shear Modulus (GPa) = 26.20610 28.53236 27.36923
#
# Velocity S-wave (km/s) = 3.66294 3.82206 3.74334
# Velocity P-wave (km/s) = 7.07472 7.37751 7.22770
#
# Compressibility (1/GPa) = 0.01591880
#
# Stress axis : x y z
#
# Youngs Moduli (GPa) = 75.97090 48.76329 76.63993
#
# Poissons Ratio (x) = 0.24069 0.35553
# Poissons Ratio (y) = 0.37499 0.44641
# Poissons Ratio (z) = 0.35243 0.28403
#
# Static dielectric constant tensor:
#      x y z
#    x 3.531370 0.000000 0.000000 
#    y 0.000000 3.509760 0.000000 
#    z 0.000000 0.000000 3.808420 
# 
# 
# High freq. dielectric constant tensor:
#      x y z
#    x 1.756560 0.000000 0.000000 
#    y 0.000000 1.762150 0.000000 
#    z 0.000000 0.000000 1.774080 
# 
# From -- ./inp_files/10588.got.cif
#   From: 2010.03.12/outbox.cif.g09.slc.cpg/sg39_6_cif.got.tgz:10588.got - 2010.04.14 02:53:20.
