data_PCOD8181213
_publ_section_title
;
Structure prediction by ZEFSAII (Michael W. Deem and Ramdas Pophale) SiO2 
 PCOD8181213
Probable space group: A B M 2
;
_chemical_formula_sum "Si O2"
_cell_formula_units_Z 64
_cell_length_a 23.819851
_cell_length_b 8.955005
_cell_length_c 15.392916
_cell_angle_alpha 90.000000
_cell_angle_beta 90.000000
_cell_angle_gamma 90.000000
_cell_volume 3283.414960
_symmetry_space_group_name_H-M "A B M 2"
_symmetry_group_IT_number 39
_symmetry_cell_setting 'orthorhombic'
loop_
_space_group_symop_operation_xyz
x,y,z
-x,-y,z
-x,1/2+y,z
x,1/2-y,z
x,1/2+y,1/2+z
-x,1/2-y,1/2+z
-x,y,1/2+z
x,-y,1/2+z
loop_
_atom_site_type_symbol
_atom_site_label
_atom_site_fract_x
_atom_site_fract_y
_atom_site_fract_z
Si Si1 0.753577 0.573719 0.594380
Si Si2 0.871208 0.577271 0.831916
Si Si3 0.245606 0.919313 0.414807
Si Si4 0.439967 0.573220 0.996265
Si Si5 0.366305 0.926672 0.155094
Si Si6 0.939926 0.573840 0.999720
Si Si7 0.136613 0.073850 0.158623
Si Si8 0.368779 0.077990 0.849791
O O1 0.758370 0.750000 0.606365
O O2 0.757816 0.534356 0.493346
O O3 0.694758 0.509031 0.630559
O O4 0.802450 0.498360 0.649236
O O5 0.882849 0.750000 0.811704
O O6 0.805622 0.548439 0.850330
O O7 0.890040 0.480297 0.749259
O O8 0.908075 0.521845 0.912980
O O9 0.241024 0.750000 0.451679
O O10 0.302275 0.942366 0.360740
O O11 0.500000 0.500000 0.985727
O O12 0.446529 0.750000 0.996262
O O13 0.411933 0.513928 0.085687
O O14 0.401496 0.527510 0.915501
O O15 0.362587 0.750000 0.148817
O O16 0.384192 0.975096 0.252097
O O17 0.947315 0.750000 0.002147
O O18 0.903540 0.518140 0.081398
O O19 0.000000 0.500000 0.004089
O O20 0.143099 0.250000 0.157533
O O21 0.386450 0.250000 0.865359
#
# Coordination Sequence:
#
# PCOD8181213 Si02
#       8
#     8   8   8   8   8   8   8   8
#     4  11  20  35  61  90 121 158 194 235 293 354
#     4  10  21  40  62  87 120 158 193 238 297 352
#     4  10  19  35  60  88 124 157 189 235 296 355
#     4  11  23  41  60  83 115 151 197 246 289 341
#     4   9  20  38  60  86 119 153 189 235 288 345
#     4  10  23  42  62  83 117 156 199 248 297 346
#     4  11  23  40  60  89 122 155 196 245 293 350
#     4  10  20  37  62  88 116 154 190 231 290 349
#
# _framework density 19.491900999999999
#
# number of rings (size 3 to 8) (size 9 to 14) (size 15 to 20)
#    0.000    1.750    2.500    1.875    0.000    5.000 
#    0.000    7.500    0.000    0.000    0.000    0.000 
#    0.000    0.000    0.000    0.000    0.000    0.000 
#
# Total GULP energy -396912.942195 kJ/mol
# GULP energy per Si atom -12403.529444 kJ/mol
# Density = 1.944754 g / cm^3
# Si number density = 19.491901 Si / 1000 Ang^3
#
#
#
# Elastic Constant Matrix: (Units=GPa)
#
#
# Indices 1 2 3 4 5 6 
#
# 1 90.3832 27.9180 31.5275 0.0000 0.0000 0.0000
# 2 27.9180 53.5755 34.6953 0.0000 0.0000 0.0000
# 3 31.5275 34.6953 137.4287 0.0000 0.0000 0.0000
# 4 0.0000 0.0000 0.0000 33.5926 0.0000 0.0000
# 5 0.0000 0.0000 0.0000 0.0000 11.8395 0.0000
# 6 0.0000 0.0000 0.0000 0.0000 0.0000 26.4340
#
#
#
# Elastic Compliance Matrix: (Units=1/GPa)
#
#
# Indices 1 2 3 4 5 6 
#
# 1 0.013466 -0.005997 -0.001575 0.000000 0.000000 0.000000
# 2 -0.005997 0.024984 -0.004932 0.000000 0.000000 0.000000
# 3 -0.001575 -0.004932 0.008883 0.000000 0.000000 0.000000
# 4 0.000000 0.000000 0.000000 0.029768 0.000000 0.000000
# 5 0.000000 0.000000 0.000000 0.000000 0.084463 0.000000
# 6 0.000000 0.000000 0.000000 0.000000 0.000000 0.037830
#
#
# Mechanical properties :
#
#
# Convention : Reuss Voigt Hill
#
# Bulk Modulus (GPa) = 44.79266 52.18544 48.48905
# Shear Modulus (GPa) = 21.56625 26.85632 24.21129
#
# Velocity S-wave (km/s) = 3.32990 3.71593 3.52820
# Velocity P-wave (km/s) = 6.14934 6.72620 6.44423
#
# Compressibility (1/GPa) = 0.02232509
#
# Stress axis : x y z
#
# Youngs Moduli (GPa) = 74.26216 40.02562 112.57535
#
# Poissons Ratio (x) = 0.24003 0.17733
# Poissons Ratio (y) = 0.44534 0.55519
# Poissons Ratio (z) = 0.11698 0.19740
#
# Static dielectric constant tensor:
#      x y z
#    x 3.612390 0.000000 0.000000 
#    y 0.000000 3.394260 0.000000 
#    z 0.000000 0.000000 3.777940 
# 
# 
# High freq. dielectric constant tensor:
#      x y z
#    x 1.760240 0.000000 0.000000 
#    y 0.000000 1.742950 0.000000 
#    z 0.000000 0.000000 1.772510 
# 
# From -- ./inp_files/10632.got.cif
#   From: 2010.03.12/outbox.cif.g09.slc.cpg/sg39_6_cif.got.tgz:10632.got - 2010.04.14 02:53:20.
