data_PCOD8181779
_publ_section_title
;
Structure prediction by ZEFSAII (Michael W. Deem and Ramdas Pophale) SiO2 
 PCOD8181779
Probable space group: A B M 2
;
_chemical_formula_sum "Si O2"
_cell_formula_units_Z 64
_cell_length_a 11.095475
_cell_length_b 22.155157
_cell_length_c 13.536256
_cell_angle_alpha 90.000000
_cell_angle_beta 90.000000
_cell_angle_gamma 90.000000
_cell_volume 3327.509395
_symmetry_space_group_name_H-M "A B M 2"
_symmetry_group_IT_number 39
_symmetry_cell_setting 'orthorhombic'
loop_
_space_group_symop_operation_xyz
x,y,z
-x,-y,z
-x,1/2+y,z
x,1/2-y,z
x,1/2+y,1/2+z
-x,1/2-y,1/2+z
-x,y,1/2+z
x,-y,1/2+z
loop_
_atom_site_type_symbol
_atom_site_label
_atom_site_fract_x
_atom_site_fract_y
_atom_site_fract_z
Si Si1 0.351450 0.041449 0.219590
Si Si2 0.688928 0.931074 0.010023
Si Si3 0.936998 0.862745 0.621133
Si Si4 0.423924 0.415564 0.807671
Si Si5 0.882533 0.466007 0.987448
Si Si6 0.921458 0.058330 0.766682
Si Si7 0.148668 0.319441 0.989042
Si Si8 0.766281 0.683426 0.775122
O O1 0.432782 0.088225 0.284133
O O2 0.211152 0.054193 0.223390
O O3 0.373482 0.973585 0.251888
O O4 0.387500 0.049696 0.105174
O O5 0.591136 0.920946 0.924884
O O6 0.776473 0.985518 0.975257
O O7 0.759731 0.868712 0.034328
O O8 0.856869 0.914976 0.569081
O O9 0.842624 0.818521 0.673930
O O10 0.018236 0.885575 0.712219
O O11 0.017175 0.829574 0.537631
O O12 0.350051 0.358968 0.767282
O O13 0.912681 0.433012 0.884253
O O14 0.000000 0.500000 0.027519
O O15 0.000000 0.000000 0.740921
O O16 0.188816 0.250000 0.011114
O O17 0.149156 0.332079 0.870463
O O18 0.712914 0.750000 0.786743
#
# Coordination Sequence:
#
# PCOD8181779 Si02
#       8
#     8   8   8   8   8   8   8   8
#     4  11  21  38  58  89 114 151 189 241 295 349
#     4  11  20  38  57  80 118 150 191 240 288 349
#     4  12  20  33  58  91 117 150 185 246 294 357
#     4  10  23  38  58  82 117 152 200 235 285 349
#     4  11  20  32  55  89 118 154 180 228 302 363
#     4  11  21  33  57  89 128 146 181 229 304 360
#     4  10  21  36  55  81 112 153 197 235 287 349
#     4  10  22  40  59  81 115 160 202 242 285 348
#
# _framework density 19.233604
#
# number of rings (size 3 to 8) (size 9 to 14) (size 15 to 20)
#    0.000    1.250    3.750    3.750    3.500    2.000 
#    2.250    0.625    0.000    0.000    0.000    0.000 
#    0.000    0.000    0.000    0.000    0.000    0.000 
#
# Total GULP energy -396679.419179 kJ/mol
# GULP energy per Si atom -12396.231849 kJ/mol
# Density = 1.918983 g / cm^3
# Si number density = 19.233604 Si / 1000 Ang^3
#
#
#
# Elastic Constant Matrix: (Units=GPa)
#
#
# Indices 1 2 3 4 5 6 
#
# 1 94.9681 30.1843 34.5187 0.0000 0.0000 0.0000
# 2 30.1843 96.7131 37.6980 0.0000 0.0000 0.0000
# 3 34.5187 37.6980 97.5564 0.0000 0.0000 0.0000
# 4 0.0000 0.0000 0.0000 20.4304 0.0000 0.0000
# 5 0.0000 0.0000 0.0000 0.0000 29.2707 0.0000
# 6 0.0000 0.0000 0.0000 0.0000 0.0000 21.1816
#
#
#
# Elastic Compliance Matrix: (Units=1/GPa)
#
#
# Indices 1 2 3 4 5 6 
#
# 1 0.012610 -0.002586 -0.003463 0.000000 0.000000 0.000000
# 2 -0.002586 0.012704 -0.003994 0.000000 0.000000 0.000000
# 3 -0.003463 -0.003994 0.013019 0.000000 0.000000 0.000000
# 4 0.000000 0.000000 0.000000 0.048947 0.000000 0.000000
# 5 0.000000 0.000000 0.000000 0.000000 0.034164 0.000000
# 6 0.000000 0.000000 0.000000 0.000000 0.000000 0.047211
#
#
# Mechanical properties :
#
#
# Convention : Reuss Voigt Hill
#
# Bulk Modulus (GPa) = 54.80101 54.89331 54.84716
# Shear Modulus (GPa) = 25.66439 26.63233 26.14836
#
# Velocity S-wave (km/s) = 3.65684 3.72516 3.69116
# Velocity P-wave (km/s) = 6.81059 6.86329 6.83699
#
# Compressibility (1/GPa) = 0.01824784
#
# Stress axis : x y z
#
# Youngs Moduli (GPa) = 79.29978 78.71667 76.81041
#
# Poissons Ratio (x) = 0.20356 0.26597
# Poissons Ratio (y) = 0.20507 0.30678
# Poissons Ratio (z) = 0.27459 0.31440
#
# Static dielectric constant tensor:
#      x y z
#    x 3.813060 0.000000 0.000000 
#    y 0.000000 3.468800 0.000000 
#    z 0.000000 0.000000 3.798490 
# 
# 
# High freq. dielectric constant tensor:
#      x y z
#    x 1.727250 0.000000 0.000000 
#    y 0.000000 1.731930 0.000000 
#    z 0.000000 0.000000 1.766990 
# 
# From -- ./inp_files/6077.got.cif
#   From: 2010.03.12/outbox.cif.g09.slc.cpg/sg39_4_cif.got.tgz:6077.got - 2010.04.14 02:53:20.
