data_PCOD8181054
_publ_section_title
;
Structure prediction by ZEFSAII (Michael W. Deem and Ramdas Pophale) SiO2 
 PCOD8181054
Probable space group: A B M 2
;
_chemical_formula_sum "Si O2"
_cell_formula_units_Z 64
_cell_length_a 14.646018
_cell_length_b 8.850005
_cell_length_c 24.934835
_cell_angle_alpha 90.000000
_cell_angle_beta 90.000000
_cell_angle_gamma 90.000000
_cell_volume 3231.986800
_symmetry_space_group_name_H-M "A B M 2"
_symmetry_group_IT_number 39
_symmetry_cell_setting 'orthorhombic'
loop_
_space_group_symop_operation_xyz
x,y,z
-x,-y,z
-x,1/2+y,z
x,1/2-y,z
x,1/2+y,1/2+z
-x,1/2-y,1/2+z
-x,y,1/2+z
x,-y,1/2+z
loop_
_atom_site_type_symbol
_atom_site_label
_atom_site_fract_x
_atom_site_fract_y
_atom_site_fract_z
Si Si1 0.411258 0.574905 0.463600
Si Si2 0.335991 0.917636 0.868242
Si Si3 0.907630 0.070040 0.286031
Si Si4 0.724243 0.571384 0.253660
Si Si5 0.131391 0.578750 0.898537
Si Si6 0.399224 0.929261 0.653301
Si Si7 0.719907 0.928098 0.054783
Si Si8 0.091328 0.069950 0.011443
O O1 0.500000 0.500000 0.489666
O O2 0.426212 0.750000 0.466696
O O3 0.401343 0.526874 0.401703
O O4 0.325815 0.521992 0.498971
O O5 0.378915 0.750000 0.868119
O O6 0.327107 0.979541 0.807930
O O7 0.239813 0.915788 0.898094
O O8 0.910686 0.250000 0.284470
O O9 0.821613 0.012870 0.250626
O O10 0.903197 0.012886 0.347139
O O11 0.000000 0.000000 0.260241
O O12 0.744708 0.750000 0.254699
O O13 0.657236 0.523265 0.205968
O O14 0.091798 0.750000 0.897325
O O15 0.098990 0.493366 0.951429
O O16 0.411217 0.750000 0.649561
O O17 0.337900 0.995865 0.604394
O O18 0.500000 0.000000 0.653646
O O19 0.718828 0.750000 0.062027
O O20 0.824832 0.983678 0.049855
O O21 0.086558 0.250000 0.008449
O O22 0.000000 0.000000 0.037795
#
# Coordination Sequence:
#
# PCOD8181054 Si02
#       8
#     8   8   8   8   8   8   8   8
#     4  11  21  34  53  80 111 147 186 227 281 343
#     4   9  18  33  52  78 112 148 184 226 278 336
#     4  11  21  34  55  83 118 157 197 237 283 338
#     4   9  20  38  59  84 116 150 190 239 291 341
#     4  10  19  33  53  80 115 154 195 235 280 334
#     4  10  21  41  66  88 112 147 191 245 296 345
#     4   9  20  38  59  82 113 149 190 236 287 342
#     4  11  21  35  54  81 115 152 195 235 284 341
#
# _framework density 19.802060999999998
#
# number of rings (size 3 to 8) (size 9 to 14) (size 15 to 20)
#    0.000    2.000    1.250    3.750    0.000    3.000 
#    0.000    3.750    0.000    1.500    0.000    0.000 
#    0.000    0.000    0.000    0.000    0.000    0.000 
#
# Total GULP energy -396688.389995 kJ/mol
# GULP energy per Si atom -12396.512187 kJ/mol
# Density = 1.975699 g / cm^3
# Si number density = 19.802061 Si / 1000 Ang^3
#
#
#
# Elastic Constant Matrix: (Units=GPa)
#
#
# Indices 1 2 3 4 5 6 
#
# 1 162.6354 55.9295 72.4087 0.0000 0.0000 0.0000
# 2 55.9295 88.5852 38.1556 0.0000 0.0000 0.0000
# 3 72.4087 38.1556 105.3023 0.0000 0.0000 0.0000
# 4 0.0000 0.0000 0.0000 18.7423 0.0000 0.0000
# 5 0.0000 0.0000 0.0000 0.0000 27.3455 0.0000
# 6 0.0000 0.0000 0.0000 0.0000 0.0000 35.3576
#
#
#
# Elastic Compliance Matrix: (Units=1/GPa)
#
#
# Indices 1 2 3 4 5 6 
#
# 1 0.009896 -0.003930 -0.005381 0.000000 0.000000 0.000000
# 2 -0.003930 0.014937 -0.002710 0.000000 0.000000 0.000000
# 3 -0.005381 -0.002710 0.014178 0.000000 0.000000 0.000000
# 4 0.000000 0.000000 0.000000 0.053355 0.000000 0.000000
# 5 0.000000 0.000000 0.000000 0.000000 0.036569 0.000000
# 6 0.000000 0.000000 0.000000 0.000000 0.000000 0.028282
#
#
# Mechanical properties :
#
#
# Convention : Reuss Voigt Hill
#
# Bulk Modulus (GPa) = 66.80078 76.61227 71.70652
# Shear Modulus (GPa) = 26.84573 28.95769 27.90171
#
# Velocity S-wave (km/s) = 3.68598 3.82823 3.75778
# Velocity P-wave (km/s) = 7.20575 7.63632 7.42416
#
# Compressibility (1/GPa) = 0.01496989
#
# Stress axis : x y z
#
# Youngs Moduli (GPa) = 101.05197 66.94679 70.53120
#
# Poissons Ratio (x) = 0.26313 0.37950
# Poissons Ratio (y) = 0.39717 0.19112
# Poissons Ratio (z) = 0.54371 0.18141
#
# Static dielectric constant tensor:
#      x y z
#    x 3.875960 0.000000 0.000000 
#    y 0.000000 3.473420 0.000000 
#    z 0.000000 0.000000 3.543220 
# 
# 
# High freq. dielectric constant tensor:
#      x y z
#    x 1.786370 0.000000 0.000000 
#    y 0.000000 1.760360 0.000000 
#    z 0.000000 0.000000 1.751160 
# 
# From -- ./inp_files/16210.got.cif
#   From: 2010.03.12/outbox.cif.g09.slc.cpg/sg39_9_cif.got.tgz:16210.got - 2010.04.14 02:53:20.
