data_PCOD8181712
_publ_section_title
;
Structure prediction by ZEFSAII (Michael W. Deem and Ramdas Pophale) SiO2 
 PCOD8181712
Probable space group: A B M 2
;
_chemical_formula_sum "Si O2"
_cell_formula_units_Z 48
_cell_length_a 9.177388
_cell_length_b 16.954278
_cell_length_c 14.879495
_cell_angle_alpha 90.000000
_cell_angle_beta 90.000000
_cell_angle_gamma 90.000000
_cell_volume 2315.189718
_symmetry_space_group_name_H-M "A B M 2"
_symmetry_group_IT_number 39
_symmetry_cell_setting 'orthorhombic'
loop_
_space_group_symop_operation_xyz
x,y,z
-x,-y,z
-x,1/2+y,z
x,1/2-y,z
x,1/2+y,1/2+z
-x,1/2-y,1/2+z
-x,y,1/2+z
x,-y,1/2+z
loop_
_atom_site_type_symbol
_atom_site_label
_atom_site_fract_x
_atom_site_fract_y
_atom_site_fract_z
Si Si1 0.676575 0.159789 0.560380
Si Si2 0.190192 0.839665 0.913749
Si Si3 0.654153 0.399347 0.752513
Si Si4 0.396525 0.577521 0.045411
Si Si5 0.672675 0.077487 0.246028
Si Si6 0.858488 0.842938 0.891768
O O1 0.718838 0.250000 0.576753
O O2 0.710747 0.110732 0.650475
O O3 0.504822 0.152233 0.539799
O O4 0.767153 0.123928 0.476732
O O5 0.199936 0.750000 0.952633
O O6 0.256856 0.839197 0.814019
O O7 0.024294 0.868515 0.906945
O O8 0.275427 0.906298 0.970268
O O9 0.679063 0.488890 0.783309
O O10 0.482601 0.380490 0.764081
O O11 0.500000 0.500000 0.031483
O O12 0.307117 0.574769 0.138419
O O13 0.799969 0.123913 0.296962
O O14 0.841393 0.750000 0.885703
#
# Coordination Sequence:
#
# PCOD8181712 Si02
#       6
#     8   8   8   8   8   8
#     4  10  20  39  65  90 122 167 211 263 318 374
#     4  11  25  41  61  94 129 170 213 259 320 390
#     4  10  21  38  63  92 125 157 210 266 315 377
#     4  11  22  41  64  94 127 162 213 273 317 376
#     4  10  21  40  63  93 123 162 207 266 322 370
#     4  10  24  42  61  91 131 170 212 258 319 388
#
# _framework density 20.732642999999999
#
# number of rings (size 3 to 8) (size 9 to 14) (size 15 to 20)
#    0.000    1.667    3.333    2.000    4.667    7.333 
#    0.000    3.333    0.000    0.000    0.000    0.000 
#    0.000    0.000    0.000    0.000    0.000    0.000 
#
# Total GULP energy -297519.442551 kJ/mol
# GULP energy per Si atom -12396.643440 kJ/mol
# Density = 2.068545 g / cm^3
# Si number density = 20.732643 Si / 1000 Ang^3
#
#
#
# Elastic Constant Matrix: (Units=GPa)
#
#
# Indices 1 2 3 4 5 6 
#
# 1 121.1810 43.9007 80.5638 0.0000 0.0000 0.0000
# 2 43.9007 62.9038 42.8526 0.0000 0.0000 0.0000
# 3 80.5638 42.8526 127.7040 0.0000 0.0000 0.0000
# 4 0.0000 0.0000 0.0000 33.2823 0.0000 0.0000
# 5 0.0000 0.0000 0.0000 0.0000 14.5224 0.0000
# 6 0.0000 0.0000 0.0000 0.0000 0.0000 32.2544
#
#
#
# Elastic Compliance Matrix: (Units=1/GPa)
#
#
# Indices 1 2 3 4 5 6 
#
# 1 0.015505 -0.005390 -0.007973 0.000000 0.000000 0.000000
# 2 -0.005390 0.022482 -0.004144 0.000000 0.000000 0.000000
# 3 -0.007973 -0.004144 0.014251 0.000000 0.000000 0.000000
# 4 0.000000 0.000000 0.000000 0.030046 0.000000 0.000000
# 5 0.000000 0.000000 0.000000 0.000000 0.068859 0.000000
# 6 0.000000 0.000000 0.000000 0.000000 0.000000 0.031004
#
#
# Mechanical properties :
#
#
# Convention : Reuss Voigt Hill
#
# Bulk Modulus (GPa) = 58.05583 71.82478 64.94030
# Shear Modulus (GPa) = 22.43136 25.64325 24.03731
#
# Velocity S-wave (km/s) = 3.29285 3.52071 3.40868
# Velocity P-wave (km/s) = 6.52074 7.15861 6.84711
#
# Compressibility (1/GPa) = 0.01722480
#
# Stress axis : x y z
#
# Youngs Moduli (GPa) = 64.49356 44.48067 70.16950
#
# Poissons Ratio (x) = 0.23973 0.55948
# Poissons Ratio (y) = 0.34759 0.29078
# Poissons Ratio (z) = 0.51423 0.18432
#
# Static dielectric constant tensor:
#      x y z
#    x 3.746540 0.000000 0.000000 
#    y 0.000000 3.603670 0.000000 
#    z 0.000000 0.000000 3.769640 
# 
# 
# High freq. dielectric constant tensor:
#      x y z
#    x 1.796150 0.000000 0.000000 
#    y 0.000000 1.809110 0.000000 
#    z 0.000000 0.000000 1.817690 
# 
# From -- ./inp_files/8377.got.cif
#   From: 2010.03.12/outbox.cif.g09.slc.cpg/sg39_5_cif.got.tgz:8377.got - 2010.04.14 02:53:20.
