data_PCOD8181705
_publ_section_title
;
Structure prediction by ZEFSAII (Michael W. Deem and Ramdas Pophale) SiO2 
 PCOD8181705
Probable space group: A B M 2
;
_chemical_formula_sum "Si O2"
_cell_formula_units_Z 56
_cell_length_a 9.070815
_cell_length_b 18.931598
_cell_length_c 16.663299
_cell_angle_alpha 90.000000
_cell_angle_beta 90.000000
_cell_angle_gamma 90.000000
_cell_volume 2861.505406
_symmetry_space_group_name_H-M "A B M 2"
_symmetry_group_IT_number 39
_symmetry_cell_setting 'orthorhombic'
loop_
_space_group_symop_operation_xyz
x,y,z
-x,-y,z
-x,1/2+y,z
x,1/2-y,z
x,1/2+y,1/2+z
-x,1/2-y,1/2+z
-x,y,1/2+z
x,-y,1/2+z
loop_
_atom_site_type_symbol
_atom_site_label
_atom_site_fract_x
_atom_site_fract_y
_atom_site_fract_z
Si Si1 0.444859 0.926415 0.373460
Si Si2 0.292829 0.173307 0.419015
Si Si3 0.089698 0.573103 0.640072
Si Si4 0.929844 0.830089 0.282942
Si Si5 0.194214 0.126105 0.576875
Si Si6 0.265236 0.331207 0.753416
Si Si7 0.665012 0.017429 0.535297
O O1 0.581834 0.885022 0.411264
O O2 0.372161 0.879987 0.304915
O O3 0.336896 0.945861 0.447668
O O4 0.500000 0.000000 0.334184
O O5 0.355477 0.250000 0.392307
O O6 0.149451 0.153405 0.366675
O O7 0.238612 0.183596 0.510936
O O8 0.132826 0.611626 0.722245
O O9 0.246852 0.567732 0.596228
O O10 0.000000 0.500000 0.656622
O O11 0.982065 0.624683 0.589768
O O12 0.896612 0.750000 0.252927
O O13 0.104696 0.839952 0.292214
O O14 0.272559 0.141826 0.661753
O O15 0.241866 0.053771 0.534188
O O16 0.318083 0.250000 0.756969
O O17 0.500000 0.000000 0.566096
#
# Coordination Sequence:
#
# PCOD8181705 Si02
#       7
#     8   8   8   8   8   8   8
#     4  11  23  41  58  91 124 163 201 253 306 364
#     4  11  22  39  60  86 123 162 203 250 306 369
#     4   9  20  37  62  92 119 156 199 254 306 363
#     4   9  21  40  60  88 122 154 203 255 304 365
#     4  10  20  39  61  89 119 157 206 249 305 359
#     4  10  22  41  65  91 121 161 207 254 305 366
#     4  10  20  39  58  87 124 155 201 249 297 363
#
# _framework density 19.570118000000001
#
# number of rings (size 3 to 8) (size 9 to 14) (size 15 to 20)
#    0.000    2.000    2.857    0.857    2.000    5.714 
#    0.000    1.429    0.000    0.000    0.000    0.000 
#    0.000    0.000    0.000    0.000    0.000    0.000 
#
# Total GULP energy -347031.665713 kJ/mol
# GULP energy per Si atom -12393.988061 kJ/mol
# Density = 1.952558 g / cm^3
# Si number density = 19.570118 Si / 1000 Ang^3
#
#
#
# Elastic Constant Matrix: (Units=GPa)
#
#
# Indices 1 2 3 4 5 6 
#
# 1 78.4300 32.7273 66.5565 0.0000 0.0000 0.0000
# 2 32.7273 100.3174 60.8846 0.0000 0.0000 0.0000
# 3 66.5565 60.8846 149.5609 0.0000 0.0000 0.0000
# 4 0.0000 0.0000 0.0000 32.9070 0.0000 0.0000
# 5 0.0000 0.0000 0.0000 0.0000 36.1870 0.0000
# 6 0.0000 0.0000 0.0000 0.0000 0.0000 32.2357
#
#
#
# Elastic Compliance Matrix: (Units=1/GPa)
#
#
# Indices 1 2 3 4 5 6 
#
# 1 0.020665 -0.001541 -0.008569 0.000000 0.000000 0.000000
# 2 -0.001541 0.013354 -0.004751 0.000000 0.000000 0.000000
# 3 -0.008569 -0.004751 0.012433 0.000000 0.000000 0.000000
# 4 0.000000 0.000000 0.000000 0.030389 0.000000 0.000000
# 5 0.000000 0.000000 0.000000 0.000000 0.027634 0.000000
# 6 0.000000 0.000000 0.000000 0.000000 0.000000 0.031022
#
#
# Mechanical properties :
#
#
# Convention : Reuss Voigt Hill
#
# Bulk Modulus (GPa) = 59.76701 72.07168 65.91934
# Shear Modulus (GPa) = 29.27485 31.47526 30.37505
#
# Velocity S-wave (km/s) = 3.87188 4.01475 3.94396
# Velocity P-wave (km/s) = 7.11300 7.64188 7.38218
#
# Compressibility (1/GPa) = 0.01673164
#
# Stress axis : x y z
#
# Youngs Moduli (GPa) = 48.39146 74.88189 80.42889
#
# Poissons Ratio (x) = 0.11540 0.68917
# Poissons Ratio (y) = 0.07458 0.38209
# Poissons Ratio (z) = 0.41465 0.35573
#
# Static dielectric constant tensor:
#      x y z
#    x 3.580290 0.000000 0.000000 
#    y 0.000000 3.714260 0.000000 
#    z 0.000000 0.000000 3.542250 
# 
# 
# High freq. dielectric constant tensor:
#      x y z
#    x 1.753160 0.000000 0.000000 
#    y 0.000000 1.773560 0.000000 
#    z 0.000000 0.000000 1.759410 
# 
# From -- ./inp_files/8632.got.cif
#   From: 2010.03.12/outbox.cif.g09.slc.cpg/sg39_5_cif.got.tgz:8632.got - 2010.04.14 02:53:20.
