data_PCOD8181555
_publ_section_title
;
Structure prediction by ZEFSAII (Michael W. Deem and Ramdas Pophale) SiO2 
 PCOD8181555
Probable space group: A B M 2
;
_chemical_formula_sum "Si O2"
_cell_formula_units_Z 32
_cell_length_a 5.002630
_cell_length_b 16.595349
_cell_length_c 19.085075
_cell_angle_alpha 90.000000
_cell_angle_beta 90.000000
_cell_angle_gamma 90.000000
_cell_volume 1584.450384
_symmetry_space_group_name_H-M "A B M 2"
_symmetry_group_IT_number 39
_symmetry_cell_setting 'orthorhombic'
loop_
_space_group_symop_operation_xyz
x,y,z
-x,-y,z
-x,1/2+y,z
x,1/2-y,z
x,1/2+y,1/2+z
-x,1/2-y,1/2+z
-x,y,1/2+z
x,-y,1/2+z
loop_
_atom_site_type_symbol
_atom_site_label
_atom_site_fract_x
_atom_site_fract_y
_atom_site_fract_z
Si Si1 0.745321 0.056799 0.907710
Si Si2 0.609634 0.657510 0.536835
Si Si3 0.251010 0.555211 0.754346
Si Si4 0.902108 0.592158 0.109119
O O1 0.713656 0.098225 0.830126
O O2 0.500000 0.000000 0.922575
O O3 0.738791 0.128436 0.963761
O O4 0.000000 0.000000 0.917886
O O5 0.523832 0.750000 0.530561
O O6 0.345100 0.607040 0.556790
O O7 0.844222 0.648696 0.594234
O O8 0.500000 0.500000 0.733421
O O9 0.195949 0.613859 0.688395
O O10 0.000000 0.500000 0.767038
O O11 0.000000 0.500000 0.102033
#
# Coordination Sequence:
#
# PCOD8181555 Si02
#       4
#     8   8   8   8
#     4  10  20  36  59  82 107 144 188 230 275 328
#     4  12  24  37  54  85 120 149 182 228 278 330
#     4   9  18  33  57  86 107 133 185 241 275 316
#     4  11  21  38  62  83 108 148 191 231 274 328
#
# _framework density 20.196278
#
# number of rings (size 3 to 8) (size 9 to 14) (size 15 to 20)
#    0.000    1.500    0.000    8.250    0.000    0.000 
#    0.000    2.500    0.000    0.000    0.000    0.000 
#    0.000    0.000    0.000    0.000    0.000    0.000 
#
# Total GULP energy -198303.453927 kJ/mol
# GULP energy per Si atom -12393.965870 kJ/mol
# Density = 2.015031 g / cm^3
# Si number density = 20.196278 Si / 1000 Ang^3
#
#
#
# Elastic Constant Matrix: (Units=GPa)
#
#
# Indices 1 2 3 4 5 6 
#
# 1 137.6770 30.9141 36.5972 0.0000 0.0000 0.0000
# 2 30.9141 77.1129 59.2908 0.0000 0.0000 0.0000
# 3 36.5972 59.2908 148.1538 0.0000 0.0000 0.0000
# 4 0.0000 0.0000 0.0000 7.7302 0.0000 0.0000
# 5 0.0000 0.0000 0.0000 0.0000 32.9738 0.0000
# 6 0.0000 0.0000 0.0000 0.0000 0.0000 23.2075
#
#
#
# Elastic Compliance Matrix: (Units=1/GPa)
#
#
# Indices 1 2 3 4 5 6 
#
# 1 0.008085 -0.002464 -0.001011 0.000000 0.000000 0.000000
# 2 -0.002464 0.019483 -0.007188 0.000000 0.000000 0.000000
# 3 -0.001011 -0.007188 0.009876 0.000000 0.000000 0.000000
# 4 0.000000 0.000000 0.000000 0.129364 0.000000 0.000000
# 5 0.000000 0.000000 0.000000 0.000000 0.030327 0.000000
# 6 0.000000 0.000000 0.000000 0.000000 0.000000 0.043090
#
#
# Mechanical properties :
#
#
# Convention : Reuss Voigt Hill
#
# Bulk Modulus (GPa) = 62.04407 68.50536 65.27471
# Shear Modulus (GPa) = 18.73193 28.52507 23.62850
#
# Velocity S-wave (km/s) = 3.04878 3.76226 3.42415
# Velocity P-wave (km/s) = 6.57120 7.27092 6.92989
#
# Compressibility (1/GPa) = 0.01611758
#
# Stress axis : x y z
#
# Youngs Moduli (GPa) = 123.67930 51.32755 101.25264
#
# Poissons Ratio (x) = 0.12646 0.10239
# Poissons Ratio (y) = 0.30473 0.72784
# Poissons Ratio (z) = 0.12507 0.36896
#
# Static dielectric constant tensor:
#      x y z
#    x 3.862340 0.000000 0.000000 
#    y 0.000000 3.095010 0.000000 
#    z 0.000000 0.000000 4.455140 
# 
# 
# High freq. dielectric constant tensor:
#      x y z
#    x 1.818750 0.000000 0.000000 
#    y 0.000000 1.724690 0.000000 
#    z 0.000000 0.000000 1.812540 
# 
# From -- ./inp_files/10814.got.cif
#   From: 2010.03.12/outbox.cif.g09.slc.cpg/sg39_6_cif.got.tgz:10814.got - 2010.04.14 02:53:20.
