data_PCOD8181637
_publ_section_title
;
Structure prediction by ZEFSAII (Michael W. Deem and Ramdas Pophale) SiO2 
 PCOD8181637
Probable space group: A B M 2
;
_chemical_formula_sum "Si O2"
_cell_formula_units_Z 64
_cell_length_a 24.388058
_cell_length_b 9.096855
_cell_length_c 14.921154
_cell_angle_alpha 90.000000
_cell_angle_beta 90.000000
_cell_angle_gamma 90.000000
_cell_volume 3310.327060
_symmetry_space_group_name_H-M "A B M 2"
_symmetry_group_IT_number 39
_symmetry_cell_setting 'orthorhombic'
loop_
_space_group_symop_operation_xyz
x,y,z
-x,-y,z
-x,1/2+y,z
x,1/2-y,z
x,1/2+y,1/2+z
-x,1/2-y,1/2+z
-x,y,1/2+z
x,-y,1/2+z
loop_
_atom_site_type_symbol
_atom_site_label
_atom_site_fract_x
_atom_site_fract_y
_atom_site_fract_z
Si Si1 0.050908 0.412133 0.262650
Si Si2 0.445678 0.580634 0.557365
Si Si3 0.949230 0.588947 0.049679
Si Si4 0.248770 0.075173 0.410051
Si Si5 0.827151 0.925118 0.051173
Si Si6 0.634863 0.575937 0.900325
Si Si7 0.556671 0.075774 0.762505
Si Si8 0.830720 0.423611 0.753339
O O1 0.047787 0.250000 0.304569
O O2 0.045484 0.404519 0.156079
O O3 0.109899 0.488651 0.284642
O O4 0.000000 0.500000 0.305203
O O5 0.500000 0.500000 0.523304
O O6 0.460270 0.750000 0.550439
O O7 0.395530 0.538099 0.493303
O O8 0.430325 0.537933 0.659020
O O9 0.954202 0.750000 0.008142
O O10 0.889089 0.525703 0.024395
O O11 0.000000 0.500000 0.007177
O O12 0.258097 0.250000 0.414734
O O13 0.216806 0.026741 0.320342
O O14 0.214774 0.021036 0.494774
O O15 0.305252 0.989458 0.409161
O O16 0.818584 0.750000 0.037160
O O17 0.814830 0.973068 0.153412
O O18 0.636902 0.750000 0.882279
O O19 0.605570 0.495097 0.818274
O O20 0.553018 0.250000 0.779949
O O21 0.500000 0.000000 0.792482
O O22 0.839202 0.250000 0.752622
#
# Coordination Sequence:
#
# PCOD8181637 Si02
#       8
#     8   8   8   8   8   8   8   8
#     4   8  13  25  46  72  97 126 164 208 258 318
#     4   9  20  37  59  85 115 147 178 213 261 315
#     4   8  14  25  46  73  99 127 164 208 260 318
#     4  11  23  38  55  78 105 139 184 231 270 315
#     4   9  18  36  57  75 100 139 178 217 267 325
#     4  11  23  39  57  80 111 149 186 225 269 315
#     4  10  20  37  60  88 117 146 179 217 261 313
#     4   8  17  35  56  73 100 141 177 211 267 331
#
# _framework density 19.333438000000001
#
# number of rings (size 3 to 8) (size 9 to 14) (size 15 to 20)
#    0.000    2.750    0.000    3.000    0.000    4.000 
#    0.000   10.000    0.000    3.000    0.000    0.000 
#    0.000    0.000    0.000    0.000    0.000    0.000 
#
# Total GULP energy -396668.205042 kJ/mol
# GULP energy per Si atom -12395.881408 kJ/mol
# Density = 1.928943 g / cm^3
# Si number density = 19.333438 Si / 1000 Ang^3
#
#
#
# Elastic Constant Matrix: (Units=GPa)
#
#
# Indices 1 2 3 4 5 6 
#
# 1 172.0272 65.0418 69.5306 0.0000 0.0000 0.0000
# 2 65.0418 78.4917 40.7225 0.0000 0.0000 0.0000
# 3 69.5306 40.7225 87.0519 0.0000 0.0000 0.0000
# 4 0.0000 0.0000 0.0000 26.0852 0.0000 0.0000
# 5 0.0000 0.0000 0.0000 0.0000 35.1473 0.0000
# 6 0.0000 0.0000 0.0000 0.0000 0.0000 38.4146
#
#
#
# Elastic Compliance Matrix: (Units=1/GPa)
#
#
# Indices 1 2 3 4 5 6 
#
# 1 0.010131 -0.005542 -0.005500 0.000000 0.000000 0.000000
# 2 -0.005542 0.019855 -0.004861 0.000000 0.000000 0.000000
# 3 -0.005500 -0.004861 0.018154 0.000000 0.000000 0.000000
# 4 0.000000 0.000000 0.000000 0.038336 0.000000 0.000000
# 5 0.000000 0.000000 0.000000 0.000000 0.028452 0.000000
# 6 0.000000 0.000000 0.000000 0.000000 0.000000 0.026032
#
#
# Mechanical properties :
#
#
# Convention : Reuss Voigt Hill
#
# Bulk Modulus (GPa) = 61.22121 76.46229 68.84175
# Shear Modulus (GPa) = 28.05675 30.74781 29.40228
#
# Velocity S-wave (km/s) = 3.81360 3.99230 3.90397
# Velocity P-wave (km/s) = 7.15025 7.80297 7.48373
#
# Compressibility (1/GPa) = 0.01633421
#
# Stress axis : x y z
#
# Youngs Moduli (GPa) = 98.70473 50.36594 55.08362
#
# Poissons Ratio (x) = 0.27913 0.30294
# Poissons Ratio (y) = 0.54702 0.26779
# Poissons Ratio (z) = 0.54283 0.24485
#
# Static dielectric constant tensor:
#      x y z
#    x 3.619410 0.000000 0.000000 
#    y 0.000000 3.507860 0.000000 
#    z 0.000000 0.000000 3.531250 
# 
# 
# High freq. dielectric constant tensor:
#      x y z
#    x 1.758230 0.000000 0.000000 
#    y 0.000000 1.740220 0.000000 
#    z 0.000000 0.000000 1.745780 
# 
# From -- ./inp_files/10551.got.cif
#   From: 2010.03.12/outbox.cif.g09.slc.cpg/sg39_6_cif.got.tgz:10551.got - 2010.04.14 02:53:20.
