data_PCOD8181557
_publ_section_title
;
Structure prediction by ZEFSAII (Michael W. Deem and Ramdas Pophale) SiO2 
 PCOD8181557
Probable space group: A B M 2
;
_chemical_formula_sum "Si O2"
_cell_formula_units_Z 48
_cell_length_a 15.289033
_cell_length_b 8.664845
_cell_length_c 18.613429
_cell_angle_alpha 90.000000
_cell_angle_beta 90.000000
_cell_angle_gamma 90.000000
_cell_volume 2465.853116
_symmetry_space_group_name_H-M "A B M 2"
_symmetry_group_IT_number 39
_symmetry_cell_setting 'orthorhombic'
loop_
_space_group_symop_operation_xyz
x,y,z
-x,-y,z
-x,1/2+y,z
x,1/2-y,z
x,1/2+y,1/2+z
-x,1/2-y,1/2+z
-x,y,1/2+z
x,-y,1/2+z
loop_
_atom_site_type_symbol
_atom_site_label
_atom_site_fract_x
_atom_site_fract_y
_atom_site_fract_z
Si Si1 0.245090 0.428973 0.121270
Si Si2 0.906324 0.067856 0.031542
Si Si3 0.242435 0.570579 0.789293
Si Si4 0.093259 0.068349 0.879661
Si Si5 0.407980 0.932726 0.040370
Si Si6 0.590479 0.069082 0.875717
O O1 0.231915 0.250000 0.102861
O O2 0.162923 0.523682 0.092023
O O3 0.251694 0.459125 0.205455
O O4 0.333768 0.488832 0.086978
O O5 0.914059 0.250000 0.025375
O O6 0.000000 0.000000 0.053778
O O7 0.874294 0.002276 0.955088
O O8 0.227195 0.750000 0.807652
O O9 0.160943 0.472991 0.817514
O O10 0.329925 0.506994 0.827528
O O11 0.084381 0.250000 0.888496
O O12 0.000000 0.000000 0.857074
O O13 0.405842 0.750000 0.051024
O O14 0.500000 0.000000 0.067665
O O15 0.392418 0.980941 0.957771
O O16 0.582087 0.250000 0.868487
O O17 0.500000 0.000000 0.846281
#
# Coordination Sequence:
#
# PCOD8181557 Si02
#       6
#     8   8   8   8   8   8
#     4  11  23  38  57  84 118 154 192 236 288 343
#     4  11  22  39  62  86 114 148 190 238 287 340
#     4  10  22  39  57  82 118 154 188 232 285 339
#     4  11  22  38  62  88 114 147 189 235 283 338
#     4  10  20  36  59  84 112 148 192 241 291 343
#     4   9  19  36  58  82 108 143 185 232 282 331
#
# _framework density 19.465879999999999
#
# number of rings (size 3 to 8) (size 9 to 14) (size 15 to 20)
#    0.000    1.667    0.000    6.000    0.000    5.333 
#    0.000    1.667    0.000    0.000    0.000    0.000 
#    0.000    0.000    0.000    0.000    0.000    0.000 
#
# Total GULP energy -297733.979538 kJ/mol
# GULP energy per Si atom -12405.582481 kJ/mol
# Density = 1.942157 g / cm^3
# Si number density = 19.465880 Si / 1000 Ang^3
#
#
#
# Elastic Constant Matrix: (Units=GPa)
#
#
# Indices 1 2 3 4 5 6 
#
# 1 150.2618 57.2340 78.5975 0.0000 0.0000 0.0000
# 2 57.2340 118.7743 51.7408 0.0000 0.0000 0.0000
# 3 78.5975 51.7408 96.9792 0.0000 0.0000 0.0000
# 4 0.0000 0.0000 0.0000 26.8069 0.0000 0.0000
# 5 0.0000 0.0000 0.0000 0.0000 4.8713 0.0000
# 6 0.0000 0.0000 0.0000 0.0000 0.0000 38.4043
#
#
#
# Elastic Compliance Matrix: (Units=1/GPa)
#
#
# Indices 1 2 3 4 5 6 
#
# 1 0.011906 -0.001998 -0.008583 0.000000 0.000000 0.000000
# 2 -0.001998 0.011304 -0.004412 0.000000 0.000000 0.000000
# 3 -0.008583 -0.004412 0.019621 0.000000 0.000000 0.000000
# 4 0.000000 0.000000 0.000000 0.037304 0.000000 0.000000
# 5 0.000000 0.000000 0.000000 0.000000 0.205285 0.000000
# 6 0.000000 0.000000 0.000000 0.000000 0.000000 0.026039
#
#
# Mechanical properties :
#
#
# Convention : Reuss Voigt Hill
#
# Bulk Modulus (GPa) = 77.84755 82.35111 80.09933
# Shear Modulus (GPa) = 14.46235 25.91269 20.18752
#
# Velocity S-wave (km/s) = 2.72868 3.65250 3.22385
# Velocity P-wave (km/s) = 7.07151 7.75789 7.42264
#
# Compressibility (1/GPa) = 0.01284562
#
# Stress axis : x y z
#
# Youngs Moduli (GPa) = 83.99410 88.46483 50.96489
#
# Poissons Ratio (x) = 0.17676 0.43743
# Poissons Ratio (y) = 0.16782 0.22484
# Poissons Ratio (z) = 0.72092 0.39027
#
# Static dielectric constant tensor:
#      x y z
#    x 3.713720 0.000000 0.000000 
#    y 0.000000 3.553610 0.000000 
#    z 0.000000 0.000000 3.527900 
# 
# 
# High freq. dielectric constant tensor:
#      x y z
#    x 1.773010 0.000000 0.000000 
#    y 0.000000 1.766600 0.000000 
#    z 0.000000 0.000000 1.751810 
# 
# From -- ./inp_files/12638.got.cif
#   From: 2010.03.12/outbox.cif.g09.slc.cpg/sg39_7_cif.got.tgz:12638.got - 2010.04.14 02:53:20.
