data_PCOD8181452
_publ_section_title
;
Structure prediction by ZEFSAII (Michael W. Deem and Ramdas Pophale) SiO2 
 PCOD8181452
Probable space group: A B M 2
;
_chemical_formula_sum "Si O2"
_cell_formula_units_Z 64
_cell_length_a 24.123256
_cell_length_b 9.121596
_cell_length_c 14.837373
_cell_angle_alpha 90.000000
_cell_angle_beta 90.000000
_cell_angle_gamma 90.000000
_cell_volume 3264.854064
_symmetry_space_group_name_H-M "A B M 2"
_symmetry_group_IT_number 39
_symmetry_cell_setting 'orthorhombic'
loop_
_space_group_symop_operation_xyz
x,y,z
-x,-y,z
-x,1/2+y,z
x,1/2-y,z
x,1/2+y,1/2+z
-x,1/2-y,1/2+z
-x,y,1/2+z
x,-y,1/2+z
loop_
_atom_site_type_symbol
_atom_site_label
_atom_site_fract_x
_atom_site_fract_y
_atom_site_fract_z
Si Si1 0.945393 0.919175 0.180950
Si Si2 0.328682 0.577177 0.860501
Si Si3 0.135402 0.922099 0.523205
Si Si4 0.662868 0.419915 0.177255
Si Si5 0.550968 0.089526 0.878349
Si Si6 0.552591 0.585802 0.164369
Si Si7 0.943236 0.576646 0.386898
Si Si8 0.248740 0.582495 0.022253
O O1 0.960033 0.750000 0.174836
O O2 0.894085 0.961240 0.117577
O O3 0.930618 0.963757 0.283080
O O4 0.000000 0.000000 0.145373
O O5 0.333212 0.750000 0.837814
O O6 0.315103 0.490270 0.769662
O O7 0.388132 0.524114 0.901766
O O8 0.280567 0.542324 0.930647
O O9 0.132181 0.750000 0.501650
O O10 0.107531 0.011905 0.442665
O O11 0.198458 0.971082 0.532516
O O12 0.648466 0.250000 0.193093
O O13 0.608333 0.499127 0.138754
O O14 0.711387 0.441402 0.106137
O O15 0.545559 0.250000 0.920782
O O16 0.545999 0.093755 0.771160
O O17 0.500000 0.000000 0.921302
O O18 0.500000 0.500000 0.122403
O O19 0.555232 0.750000 0.123953
O O20 0.948290 0.750000 0.402794
O O21 0.000000 0.500000 0.418987
O O22 0.227307 0.750000 0.018616
#
# Coordination Sequence:
#
# PCOD8181452 Si02
#       8
#     8   8   8   8   8   8   8   8
#     4   9  20  37  58  85 116 148 180 218 267 322
#     4   9  19  37  57  75 103 144 183 222 275 333
#     4  11  23  38  57  83 113 147 188 232 275 321
#     4  10  20  35  56  81 108 140 181 229 280 331
#     4   8  14  25  45  72  98 127 165 209 259 319
#     4   9  16  28  49  77 107 140 177 219 273 334
#     4  10  20  37  60  87 118 150 183 220 268 323
#     4  10  23  41  57  76 107 148 190 231 276 327
#
# _framework density 19.602713999999999
#
# number of rings (size 3 to 8) (size 9 to 14) (size 15 to 20)
#    0.000    2.500    0.000    2.625    0.000    8.000 
#    0.000    4.375    0.000    1.500    0.000    0.000 
#    0.000    0.000    0.000    0.000    0.000    0.000 
#
# Total GULP energy -396811.402795 kJ/mol
# GULP energy per Si atom -12400.356337 kJ/mol
# Density = 1.955810 g / cm^3
# Si number density = 19.602714 Si / 1000 Ang^3
#
#
#
# Elastic Constant Matrix: (Units=GPa)
#
#
# Indices 1 2 3 4 5 6 
#
# 1 129.1832 65.2156 49.5050 0.0000 0.0000 0.0000
# 2 65.2156 107.0426 48.0542 0.0000 0.0000 0.0000
# 3 49.5050 48.0542 73.9699 0.0000 0.0000 0.0000
# 4 0.0000 0.0000 0.0000 20.6169 0.0000 0.0000
# 5 0.0000 0.0000 0.0000 0.0000 34.5475 0.0000
# 6 0.0000 0.0000 0.0000 0.0000 0.0000 40.8571
#
#
#
# Elastic Compliance Matrix: (Units=1/GPa)
#
#
# Indices 1 2 3 4 5 6 
#
# 1 0.012249 -0.005340 -0.004729 0.000000 0.000000 0.000000
# 2 -0.005340 0.015516 -0.006506 0.000000 0.000000 0.000000
# 3 -0.004729 -0.006506 0.020911 0.000000 0.000000 0.000000
# 4 0.000000 0.000000 0.000000 0.048504 0.000000 0.000000
# 5 0.000000 0.000000 0.000000 0.000000 0.028946 0.000000
# 6 0.000000 0.000000 0.000000 0.000000 0.000000 0.024476
#
#
# Mechanical properties :
#
#
# Convention : Reuss Voigt Hill
#
# Bulk Modulus (GPa) = 64.40815 70.63836 67.52325
# Shear Modulus (GPa) = 26.46552 29.03236 27.74894
#
# Velocity S-wave (km/s) = 3.67835 3.85260 3.76648
# Velocity P-wave (km/s) = 7.13922 7.47685 7.30998
#
# Compressibility (1/GPa) = 0.01552599
#
# Stress axis : x y z
#
# Youngs Moduli (GPa) = 81.64157 64.44904 47.82282
#
# Poissons Ratio (x) = 0.34414 0.22614
# Poissons Ratio (y) = 0.43594 0.31115
# Poissons Ratio (z) = 0.38605 0.41933
#
# Static dielectric constant tensor:
#      x y z
#    x 3.567860 0.000000 0.000000 
#    y 0.000000 3.700710 0.000000 
#    z 0.000000 0.000000 3.462300 
# 
# 
# High freq. dielectric constant tensor:
#      x y z
#    x 1.763360 0.000000 0.000000 
#    y 0.000000 1.767620 0.000000 
#    z 0.000000 0.000000 1.754670 
# 
# From -- ./inp_files/10648.got.cif
#   From: 2010.03.12/outbox.cif.g09.slc.cpg/sg39_6_cif.got.tgz:10648.got - 2010.04.14 02:53:20.
