data_PCOD8181511
_publ_section_title
;
Structure prediction by ZEFSAII (Michael W. Deem and Ramdas Pophale) SiO2 
 PCOD8181511
Probable space group: A B M 2
;
_chemical_formula_sum "Si O2"
_cell_formula_units_Z 36
_cell_length_a 7.059500
_cell_length_b 27.182471
_cell_length_c 8.326662
_cell_angle_alpha 90.000000
_cell_angle_beta 90.000000
_cell_angle_gamma 90.000000
_cell_volume 1597.841924
_symmetry_space_group_name_H-M "A B M 2"
_symmetry_group_IT_number 39
_symmetry_cell_setting 'orthorhombic'
loop_
_space_group_symop_operation_xyz
x,y,z
-x,-y,z
-x,1/2+y,z
x,1/2-y,z
x,1/2+y,1/2+z
-x,1/2-y,1/2+z
-x,y,1/2+z
x,-y,1/2+z
loop_
_atom_site_type_symbol
_atom_site_label
_atom_site_fract_x
_atom_site_fract_y
_atom_site_fract_z
Si Si1 0.358929 0.750000 0.202150
Si Si2 0.627940 0.651916 0.871198
Si Si3 0.225224 0.851825 0.734067
Si Si4 0.233503 0.250000 0.330187
Si Si5 0.113962 0.427537 0.759622
Si Si6 0.000000 0.500000 0.509313
O O1 0.287672 0.798027 0.296678
O O2 0.586639 0.750000 0.208933
O O3 0.294077 0.750000 0.016991
O O4 0.400699 0.647035 0.860047
O O5 0.710024 0.608622 0.760746
O O6 0.697092 0.646966 0.053409
O O7 0.119450 0.799787 0.779663
O O8 0.084160 0.897053 0.763754
O O9 0.133618 0.463407 0.608831
O O10 0.133975 0.464319 0.908622
#
# Coordination Sequence:
#
# PCOD8181511 Si02
#       6
#     4   8   8   4   8   4
#     4  10  20  35  60  93 133 165 201 252 302 369
#     4  11  23  40  66  96 129 167 206 252 310 378
#     4  11  23  40  66  96 129 167 206 252 310 378
#     4  10  20  35  60  93 133 165 201 252 302 369
#     4  11  24  45  68  88 126 165 210 263 318 368
#     4  10  24  46  66  88 124 164 208 274 318 356
#
# _framework density 22.530387000000001
#
# number of rings (size 3 to 8) (size 9 to 14) (size 15 to 20)
#    0.000    1.333    2.222    6.000    6.222    0.889 
#    0.000    6.667    0.000    0.000    0.000    0.000 
#    0.000    0.000    0.000    0.000    0.000    0.000 
#
# Total GULP energy -223062.946155 kJ/mol
# GULP energy per Si atom -12392.385897 kJ/mol
# Density = 2.247911 g / cm^3
# Si number density = 22.530387 Si / 1000 Ang^3
#
#
#
# Elastic Constant Matrix: (Units=GPa)
#
#
# Indices 1 2 3 4 5 6 
#
# 1 54.1088 38.5501 10.6327 0.0000 0.0000 0.0000
# 2 38.5501 183.1583 43.4155 0.0000 0.0000 0.0000
# 3 10.6327 43.4155 98.8382 0.0000 0.0000 0.0000
# 4 0.0000 0.0000 0.0000 67.4976 0.0000 0.0000
# 5 0.0000 0.0000 0.0000 0.0000 15.0732 0.0000
# 6 0.0000 0.0000 0.0000 0.0000 0.0000 20.2852
#
#
#
# Elastic Compliance Matrix: (Units=1/GPa)
#
#
# Indices 1 2 3 4 5 6 
#
# 1 0.021753 -0.004491 -0.000367 0.000000 0.000000 0.000000
# 2 -0.004491 0.007022 -0.002601 0.000000 0.000000 0.000000
# 3 -0.000367 -0.002601 0.011300 0.000000 0.000000 0.000000
# 4 0.000000 0.000000 0.000000 0.014815 0.000000 0.000000
# 5 0.000000 0.000000 0.000000 0.000000 0.066343 0.000000
# 6 0.000000 0.000000 0.000000 0.000000 0.000000 0.049297
#
#
# Mechanical properties :
#
#
# Convention : Reuss Voigt Hill
#
# Bulk Modulus (GPa) = 39.75353 57.92242 48.83798
# Shear Modulus (GPa) = 25.79517 36.80501 31.30009
#
# Velocity S-wave (km/s) = 3.38732 4.04613 3.73129
# Velocity P-wave (km/s) = 5.74293 6.89874 6.34720
#
# Compressibility (1/GPa) = 0.02515500
#
# Stress axis : x y z
#
# Youngs Moduli (GPa) = 45.96971 142.41615 88.49855
#
# Poissons Ratio (x) = 0.63966 0.03250
# Poissons Ratio (y) = 0.20647 0.23020
# Poissons Ratio (z) = 0.01688 0.37045
#
# Static dielectric constant tensor:
#      x y z
#    x 3.696310 0.000000 0.000000 
#    y 0.000000 4.687150 0.000000 
#    z 0.000000 0.000000 4.298330 
# 
# 
# High freq. dielectric constant tensor:
#      x y z
#    x 1.844380 0.000000 0.000000 
#    y 0.000000 1.916370 0.000000 
#    z 0.000000 0.000000 1.904100 
# 
# From -- ./inp_files/2184.got.cif
#   From: 2010.03.12/outbox.cif.g09.slc.cpg/sg39_2_cif.got.tgz:2184.got - 2010.04.14 02:53:20.
