data_PCOD8181744
_publ_section_title
;
Structure prediction by ZEFSAII (Michael W. Deem and Ramdas Pophale) SiO2 
 PCOD8181744
Probable space group: A B M 2
;
_chemical_formula_sum "Si O2"
_cell_formula_units_Z 64
_cell_length_a 9.121762
_cell_length_b 18.333443
_cell_length_c 20.084113
_cell_angle_alpha 90.000000
_cell_angle_beta 90.000000
_cell_angle_gamma 90.000000
_cell_volume 3358.732569
_symmetry_space_group_name_H-M "A B M 2"
_symmetry_group_IT_number 39
_symmetry_cell_setting 'orthorhombic'
loop_
_space_group_symop_operation_xyz
x,y,z
-x,-y,z
-x,1/2+y,z
x,1/2-y,z
x,1/2+y,1/2+z
-x,1/2-y,1/2+z
-x,y,1/2+z
x,-y,1/2+z
loop_
_atom_site_type_symbol
_atom_site_label
_atom_site_fract_x
_atom_site_fract_y
_atom_site_fract_z
Si Si1 0.173531 0.834279 0.677480
Si Si2 0.525867 0.584845 0.158272
Si Si3 0.519245 0.831719 0.778255
Si Si4 0.921521 0.571009 0.064950
Si Si5 0.205014 0.166554 0.323211
Si Si6 0.708702 0.167084 0.405350
Si Si7 0.410332 0.570363 0.516689
Si Si8 0.996741 0.415110 0.920995
O O1 0.210583 0.750000 0.659959
O O2 0.312612 0.887135 0.675517
O O3 0.064993 0.865799 0.620857
O O4 0.112491 0.839654 0.753431
O O5 0.500000 0.500000 0.170560
O O6 0.423373 0.625753 0.212172
O O7 0.497804 0.602423 0.080016
O O8 0.483970 0.750000 0.754573
O O9 0.369417 0.863135 0.810244
O O10 0.644955 0.834935 0.832068
O O11 0.754866 0.551497 0.041883
O O12 0.000000 0.500000 0.095610
O O13 0.015174 0.596788 0.000598
O O14 0.207007 0.250000 0.347935
O O15 0.140583 0.118877 0.382849
O O16 0.736246 0.250000 0.429384
O O17 0.598579 0.129698 0.458232
O O18 0.857809 0.124037 0.396091
O O19 0.500000 0.500000 0.489830
O O20 0.000000 0.500000 0.903095
#
# Coordination Sequence:
#
# PCOD8181744 Si02
#       8
#     8   8   8   8   8   8   8   8
#     4   9  18  33  54  77 100 134 176 210 249 307
#     4   9  17  30  50  77 102 128 169 211 250 297
#     4   9  19  34  52  75 102 133 169 210 254 301
#     4   9  19  34  52  76 103 131 168 216 259 297
#     4   9  18  34  54  74 101 136 172 210 253 304
#     4  10  21  35  53  78 105 135 172 212 256 303
#     4   9  19  34  53  75 102 136 170 208 256 306
#     4  10  21  34  50  76 104 133 171 211 257 307
#
# _framework density 19.054808000000001
#
# number of rings (size 3 to 8) (size 9 to 14) (size 15 to 20)
#    0.000    2.750    0.000    1.500    0.000   11.500 
#    0.000    2.500    0.000    0.750    0.000    2.625 
#    0.000    0.000    0.000    0.000    0.000    0.000 
#
# Total GULP energy -396456.304723 kJ/mol
# GULP energy per Si atom -12389.259523 kJ/mol
# Density = 1.901144 g / cm^3
# Si number density = 19.054808 Si / 1000 Ang^3
#
#
#
# Elastic Constant Matrix: (Units=GPa)
#
#
# Indices 1 2 3 4 5 6 
#
# 1 33.5990 32.0646 14.7809 0.0000 0.0000 0.0000
# 2 32.0646 108.8845 45.1068 0.0000 0.0000 0.0000
# 3 14.7809 45.1068 67.8012 0.0000 0.0000 0.0000
# 4 0.0000 0.0000 0.0000 9.6819 0.0000 0.0000
# 5 0.0000 0.0000 0.0000 0.0000 23.0836 0.0000
# 6 0.0000 0.0000 0.0000 0.0000 0.0000 34.4790
#
#
#
# Elastic Compliance Matrix: (Units=1/GPa)
#
#
# Indices 1 2 3 4 5 6 
#
# 1 0.041475 -0.011690 -0.001265 0.000000 0.000000 0.000000
# 2 -0.011690 0.015973 -0.008078 0.000000 0.000000 0.000000
# 3 -0.001265 -0.008078 0.020399 0.000000 0.000000 0.000000
# 4 0.000000 0.000000 0.000000 0.103286 0.000000 0.000000
# 5 0.000000 0.000000 0.000000 0.000000 0.043321 0.000000
# 6 0.000000 0.000000 0.000000 0.000000 0.000000 0.029003
#
#
# Mechanical properties :
#
#
# Convention : Reuss Voigt Hill
#
# Bulk Modulus (GPa) = 27.94713 43.79880 35.87297
# Shear Modulus (GPa) = 16.26284 21.33772 18.80028
#
# Velocity S-wave (km/s) = 2.92460 3.34998 3.14449
# Velocity P-wave (km/s) = 5.10910 6.16431 5.66135
#
# Compressibility (1/GPa) = 0.03578185
#
# Stress axis : x y z
#
# Youngs Moduli (GPa) = 24.11080 62.60585 49.02220
#
# Poissons Ratio (x) = 0.73185 0.06200
# Poissons Ratio (y) = 0.28185 0.39601
# Poissons Ratio (z) = 0.03049 0.50574
#
# Static dielectric constant tensor:
#      x y z
#    x 3.247110 0.000000 0.000000 
#    y 0.000000 3.657760 0.000000 
#    z 0.000000 0.000000 3.971860 
# 
# 
# High freq. dielectric constant tensor:
#      x y z
#    x 1.706800 0.000000 0.000000 
#    y 0.000000 1.739500 0.000000 
#    z 0.000000 0.000000 1.755050 
# 
# From -- ./inp_files/14187.got.cif
#   From: 2010.03.12/outbox.cif.g09.slc.cpg/sg39_8_cif.got.tgz:14187.got - 2010.04.14 02:53:20.
