data_PCOD8181120
_publ_section_title
;
Structure prediction by ZEFSAII (Michael W. Deem and Ramdas Pophale) SiO2 
 PCOD8181120
Probable space group: A B M 2
;
_chemical_formula_sum "Si O2"
_cell_formula_units_Z 64
_cell_length_a 15.149440
_cell_length_b 14.879763
_cell_length_c 14.833016
_cell_angle_alpha 90.000000
_cell_angle_beta 90.000000
_cell_angle_gamma 90.000000
_cell_volume 3343.659606
_symmetry_space_group_name_H-M "A B M 2"
_symmetry_group_IT_number 39
_symmetry_cell_setting 'orthorhombic'
loop_
_space_group_symop_operation_xyz
x,y,z
-x,-y,z
-x,1/2+y,z
x,1/2-y,z
x,1/2+y,1/2+z
-x,1/2-y,1/2+z
-x,y,1/2+z
x,-y,1/2+z
loop_
_atom_site_type_symbol
_atom_site_label
_atom_site_fract_x
_atom_site_fract_y
_atom_site_fract_z
Si Si1 0.569447 0.430468 0.448810
Si Si2 0.367992 0.851788 0.620666
Si Si3 0.550417 0.647939 0.303641
Si Si4 0.215401 0.976999 0.680925
Si Si5 0.287858 0.046724 0.371788
Si Si6 0.122237 0.648513 0.926782
Si Si7 0.885688 0.646613 0.626365
Si Si8 0.942397 0.854213 0.235538
O O1 0.500000 0.500000 0.492571
O O2 0.583214 0.353775 0.523821
O O3 0.469066 0.597699 0.351250
O O4 0.665973 0.470654 0.431057
O O5 0.332864 0.750000 0.637575
O O6 0.440454 0.876191 0.697727
O O7 0.288168 0.923413 0.622393
O O8 0.528262 0.750000 0.319564
O O9 0.642931 0.625884 0.351491
O O10 0.252163 0.996507 0.779986
O O11 0.129214 0.914086 0.684233
O O12 0.193493 0.075002 0.639114
O O13 0.207745 0.085885 0.429030
O O14 0.155671 0.750000 0.913036
O O15 0.057225 0.624410 0.843345
O O16 0.075400 0.637330 0.024214
O O17 0.852526 0.750000 0.641879
O O18 0.961680 0.621068 0.697335
O O19 0.920332 0.750000 0.216343
#
# Coordination Sequence:
#
# PCOD8181120 Si02
#       8
#     8   8   8   8   8   8   8   8
#     4  10  20  33  51  75 105 137 169 212 263 312
#     4  10  20  34  55  80 105 138 177 215 257 308
#     4   9  18  33  52  74 100 131 172 217 256 301
#     4  10  19  34  54  75 105 139 173 214 259 307
#     4   9  18  32  52  75 100 135 174 211 256 306
#     4   9  17  32  54  76 101 135 175 217 256 302
#     4  10  20  34  53  79 109 139 173 213 260 312
#     4   9  18  34  55  78 102 132 174 219 260 304
#
# _framework density 19.140703999999999
#
# number of rings (size 3 to 8) (size 9 to 14) (size 15 to 20)
#    0.000    2.500    0.000    2.250    0.000    5.500 
#    0.000    7.500    0.000    8.250    0.000    0.000 
#    0.000    0.000    0.000    0.000    0.000    0.000 
#
# Total GULP energy -396599.591592 kJ/mol
# GULP energy per Si atom -12393.737237 kJ/mol
# Density = 1.909714 g / cm^3
# Si number density = 19.140704 Si / 1000 Ang^3
#
#
#
# Elastic Constant Matrix: (Units=GPa)
#
#
# Indices 1 2 3 4 5 6 
#
# 1 79.7344 42.9545 55.1894 0.0000 0.0000 0.0000
# 2 42.9545 91.3773 47.5974 0.0000 0.0000 0.0000
# 3 55.1894 47.5974 115.9134 0.0000 0.0000 0.0000
# 4 0.0000 0.0000 0.0000 25.0038 0.0000 0.0000
# 5 0.0000 0.0000 0.0000 0.0000 14.0884 0.0000
# 6 0.0000 0.0000 0.0000 0.0000 0.0000 23.7993
#
#
#
# Elastic Compliance Matrix: (Units=1/GPa)
#
#
# Indices 1 2 3 4 5 6 
#
# 1 0.020953 -0.005919 -0.007546 0.000000 0.000000 0.000000
# 2 -0.005919 0.015593 -0.003585 0.000000 0.000000 0.000000
# 3 -0.007546 -0.003585 0.013692 0.000000 0.000000 0.000000
# 4 0.000000 0.000000 0.000000 0.039994 0.000000 0.000000
# 5 0.000000 0.000000 0.000000 0.000000 0.070980 0.000000
# 6 0.000000 0.000000 0.000000 0.000000 0.000000 0.042018
#
#
# Mechanical properties :
#
#
# Convention : Reuss Voigt Hill
#
# Bulk Modulus (GPa) = 61.96170 64.27862 63.12016
# Shear Modulus (GPa) = 20.60067 21.99722 21.29895
#
# Velocity S-wave (km/s) = 3.28422 3.39372 3.33942
# Velocity P-wave (km/s) = 6.84277 7.00082 6.92225
#
# Compressibility (1/GPa) = 0.01613900
#
# Stress axis : x y z
#
# Youngs Moduli (GPa) = 47.72494 64.12959 73.03562
#
# Poissons Ratio (x) = 0.37959 0.55112
# Poissons Ratio (y) = 0.28249 0.26182
# Poissons Ratio (z) = 0.36013 0.22989
#
# Static dielectric constant tensor:
#      x y z
#    x 3.297650 0.000000 0.000000 
#    y 0.000000 3.480040 0.000000 
#    z 0.000000 0.000000 3.546030 
# 
# 
# High freq. dielectric constant tensor:
#      x y z
#    x 1.721220 0.000000 0.000000 
#    y 0.000000 1.744060 0.000000 
#    z 0.000000 0.000000 1.749520 
# 
# From -- ./inp_files/10217.got.cif
#   From: 2010.03.12/outbox.cif.g09.slc.cpg/sg39_6_cif.got.tgz:10217.got - 2010.04.14 02:53:20.
