data_PCOD8181659
_publ_section_title
;
Structure prediction by ZEFSAII (Michael W. Deem and Ramdas Pophale) SiO2 
 PCOD8181659
Probable space group: A B M 2
;
_chemical_formula_sum "Si O2"
_cell_formula_units_Z 56
_cell_length_a 9.494921
_cell_length_b 13.789206
_cell_length_c 20.519813
_cell_angle_alpha 90.000000
_cell_angle_beta 90.000000
_cell_angle_gamma 90.000000
_cell_volume 2686.606208
_symmetry_space_group_name_H-M "A B M 2"
_symmetry_group_IT_number 39
_symmetry_cell_setting 'orthorhombic'
loop_
_space_group_symop_operation_xyz
x,y,z
-x,-y,z
-x,1/2+y,z
x,1/2-y,z
x,1/2+y,1/2+z
-x,1/2-y,1/2+z
-x,y,1/2+z
x,-y,1/2+z
loop_
_atom_site_type_symbol
_atom_site_label
_atom_site_fract_x
_atom_site_fract_y
_atom_site_fract_z
Si Si1 0.419003 0.638840 0.754460
Si Si2 0.866731 0.864728 0.027377
Si Si3 0.113741 0.863705 0.929363
Si Si4 0.341754 0.478080 0.945295
Si Si5 0.171487 0.139042 0.169831
Si Si6 0.987608 0.635736 0.789789
Si Si7 0.310129 0.050889 0.802484
O O1 0.401338 0.750000 0.779471
O O2 0.340331 0.627128 0.684190
O O3 0.582496 0.607093 0.753219
O O4 0.337121 0.565457 0.802740
O O5 0.850179 0.750000 0.028516
O O6 0.001827 0.895566 0.984888
O O7 0.724011 0.906652 0.997883
O O8 0.874984 0.908379 0.101169
O O9 0.147268 0.750000 0.932719
O O10 0.256375 0.921259 0.942469
O O11 0.052259 0.894582 0.859249
O O12 0.500000 0.500000 0.966927
O O13 0.337693 0.418701 0.877013
O O14 0.128548 0.250000 0.165266
O O15 0.087230 0.096818 0.231884
O O16 0.959344 0.750000 0.788032
O O17 0.843421 0.578748 0.778753
#
# Coordination Sequence:
#
# PCOD8181659 Si02
#       7
#     8   8   8   8   8   8   8
#     4  10  21  39  59  86 128 165 199 252 315 373
#     4  10  22  43  67  90 124 169 212 258 316 376
#     4  10  22  41  67  92 122 164 211 265 319 374
#     4  12  24  40  59  91 130 165 207 262 313 381
#     4   9  20  40  64  91 123 163 206 253 314 375
#     4  10  20  37  64  96 124 156 203 261 316 369
#     4  11  22  37  60  96 125 158 207 260 314 373
#
# _framework density 20.844142999999999
#
# number of rings (size 3 to 8) (size 9 to 14) (size 15 to 20)
#    0.000    1.714    2.857    1.714    0.000    4.571 
#    7.714    0.000    0.000    5.143    0.000    0.000 
#    0.000    0.000    0.000    0.000    0.000    0.000 
#
# Total GULP energy -347060.771630 kJ/mol
# GULP energy per Si atom -12395.027558 kJ/mol
# Density = 2.079670 g / cm^3
# Si number density = 20.844143 Si / 1000 Ang^3
#
#
#
# Elastic Constant Matrix: (Units=GPa)
#
#
# Indices 1 2 3 4 5 6 
#
# 1 168.8630 46.9406 70.9084 0.0000 0.0000 0.0000
# 2 46.9406 87.1829 30.1629 0.0000 0.0000 0.0000
# 3 70.9084 30.1629 163.8626 0.0000 0.0000 0.0000
# 4 0.0000 0.0000 0.0000 15.4781 0.0000 0.0000
# 5 0.0000 0.0000 0.0000 0.0000 28.6857 0.0000
# 6 0.0000 0.0000 0.0000 0.0000 0.0000 29.7266
#
#
#
# Elastic Compliance Matrix: (Units=1/GPa)
#
#
# Indices 1 2 3 4 5 6 
#
# 1 0.008057 -0.003345 -0.002871 0.000000 0.000000 0.000000
# 2 -0.003345 0.013639 -0.001063 0.000000 0.000000 0.000000
# 3 -0.002871 -0.001063 0.007541 0.000000 0.000000 0.000000
# 4 0.000000 0.000000 0.000000 0.064607 0.000000 0.000000
# 5 0.000000 0.000000 0.000000 0.000000 0.034861 0.000000
# 6 0.000000 0.000000 0.000000 0.000000 0.000000 0.033640
#
#
# Mechanical properties :
#
#
# Convention : Reuss Voigt Hill
#
# Bulk Modulus (GPa) = 68.12462 79.54803 73.83632
# Shear Modulus (GPa) = 27.50338 32.90453 30.20396
#
# Velocity S-wave (km/s) = 3.63640 3.97747 3.81075
# Velocity P-wave (km/s) = 7.09824 7.70323 7.40692
#
# Compressibility (1/GPa) = 0.01467898
#
# Stress axis : x y z
#
# Youngs Moduli (GPa) = 124.11046 73.31962 132.61353
#
# Poissons Ratio (x) = 0.24525 0.38073
# Poissons Ratio (y) = 0.41514 0.14098
# Poissons Ratio (z) = 0.35631 0.07795
#
# Static dielectric constant tensor:
#      x y z
#    x 3.807920 0.000000 0.000000 
#    y 0.000000 3.783370 0.000000 
#    z 0.000000 0.000000 4.008900 
# 
# 
# High freq. dielectric constant tensor:
#      x y z
#    x 1.818460 0.000000 0.000000 
#    y 0.000000 1.821130 0.000000 
#    z 0.000000 0.000000 1.799290 
# 
# From -- ./inp_files/14059.got.cif
#   From: 2010.03.12/outbox.cif.g09.slc.cpg/sg39_8_cif.got.tgz:14059.got - 2010.04.14 02:53:20.
