data_PCOD8181284
_publ_section_title
;
Structure prediction by ZEFSAII (Michael W. Deem and Ramdas Pophale) SiO2 
 PCOD8181284
Probable space group: A B M 2
;
_chemical_formula_sum "Si O2"
_cell_formula_units_Z 56
_cell_length_a 15.183073
_cell_length_b 8.912356
_cell_length_c 25.412340
_cell_angle_alpha 90.000000
_cell_angle_beta 90.000000
_cell_angle_gamma 90.000000
_cell_volume 3438.720386
_symmetry_space_group_name_H-M "A B M 2"
_symmetry_group_IT_number 39
_symmetry_cell_setting 'orthorhombic'
loop_
_space_group_symop_operation_xyz
x,y,z
-x,-y,z
-x,1/2+y,z
x,1/2-y,z
x,1/2+y,1/2+z
-x,1/2-y,1/2+z
-x,y,1/2+z
x,-y,1/2+z
loop_
_atom_site_type_symbol
_atom_site_label
_atom_site_fract_x
_atom_site_fract_y
_atom_site_fract_z
Si Si1 0.404855 0.574080 0.322440
Si Si2 0.595014 0.574807 0.540136
Si Si3 0.734369 0.926231 0.732858
Si Si4 0.593894 0.576150 0.424049
Si Si5 0.274838 0.070428 0.121955
Si Si6 0.082802 0.085894 0.116321
Si Si7 0.085770 0.917741 0.741012
O O1 0.500000 0.500000 0.312223
O O2 0.417773 0.750000 0.329839
O O3 0.341973 0.536258 0.274009
O O4 0.357679 0.506547 0.375305
O O5 0.500000 0.500000 0.543438
O O6 0.587098 0.750000 0.554791
O O7 0.637964 0.555159 0.481665
O O8 0.655641 0.489167 0.580830
O O9 0.746271 0.750000 0.723279
O O10 0.703899 0.004252 0.679069
O O11 0.826132 0.990922 0.755167
O O12 0.500000 0.500000 0.427858
O O13 0.583809 0.750000 0.409984
O O14 0.277140 0.250000 0.125983
O O15 0.177936 0.013756 0.102923
O O16 0.078185 0.250000 0.091296
O O17 0.074069 0.092424 0.178791
O O18 0.000000 0.000000 0.091017
O O19 0.092543 0.750000 0.764792
O O20 0.000000 0.000000 0.765524
#
# Coordination Sequence:
#
# PCOD8181284 Si02
#       7
#     8   8   8   8   8   8   8
#     4  10  20  32  48  68  91 121 155 191 231 271
#     4  10  20  33  49  69  92 121 154 190 231 273
#     4  10  20  32  45  66  96 127 158 191 228 275
#     4   9  17  30  49  69  88 112 148 192 234 272
#     4  10  20  32  46  67  95 126 157 189 227 274
#     4   8  15  26  41  62  86 114 148 183 221 261
#     4   9  16  27  44  65  89 119 153 190 230 272
#
# _framework density 16.285126999999999
#
# number of rings (size 3 to 8) (size 9 to 14) (size 15 to 20)
#    0.000    2.571    0.000    4.286    0.000    8.571 
#    0.000    1.429    0.000    0.000    0.000    1.000 
#    0.000    4.571    0.000    0.000    0.000    0.000 
#
# Total GULP energy -346980.439023 kJ/mol
# GULP energy per Si atom -12392.158537 kJ/mol
# Density = 1.624806 g / cm^3
# Si number density = 16.285127 Si / 1000 Ang^3
#
#
#
# Elastic Constant Matrix: (Units=GPa)
#
#
# Indices 1 2 3 4 5 6 
#
# 1 102.2592 54.7644 59.2292 0.0000 0.0000 0.0000
# 2 54.7644 110.1286 53.8595 0.0000 0.0000 0.0000
# 3 59.2292 53.8595 89.6757 0.0000 0.0000 0.0000
# 4 0.0000 0.0000 0.0000 15.0604 0.0000 0.0000
# 5 0.0000 0.0000 0.0000 0.0000 -2.0708 0.0000
# 6 0.0000 0.0000 0.0000 0.0000 0.0000 29.5100
#
#
#
# Elastic Compliance Matrix: (Units=1/GPa)
#
#
# Indices 1 2 3 4 5 6 
#
# 1 0.017122 -0.004225 -0.008771 0.000000 0.000000 0.000000
# 2 -0.004225 0.013899 -0.005558 0.000000 0.000000 0.000000
# 3 -0.008771 -0.005558 0.020283 0.000000 0.000000 0.000000
# 4 0.000000 0.000000 0.000000 0.066400 0.000000 0.000000
# 5 0.000000 0.000000 0.000000 0.000000 -0.482894 0.000000
# 6 0.000000 0.000000 0.000000 0.000000 0.000000 0.033887
#
#
# Mechanical properties :
#
#
# Convention : Reuss Voigt Hill
#
# Bulk Modulus (GPa) = 70.44037 70.86331 70.65184
# Shear Modulus (GPa) = -17.27325 17.44725 0.08700
#
# Velocity S-wave (km/s) = -3.26034 3.27672 0.23138
# Velocity P-wave (km/s) = 5.40141 7.61081 6.59923
#
# Compressibility (1/GPa) = 0.01419640
#
# Stress axis : x y z
#
# Youngs Moduli (GPa) = 58.40423 71.94730 49.30339
#
# Poissons Ratio (x) = 0.30395 0.43246
# Poissons Ratio (y) = 0.24673 0.27401
# Poissons Ratio (z) = 0.51229 0.39985
#
# Static dielectric constant tensor:
#      x y z
#    x 3.067180 0.000000 0.000000 
#    y 0.000000 3.338330 0.000000 
#    z 0.000000 0.000000 3.144960 
# 
# 
# High freq. dielectric constant tensor:
#      x y z
#    x 1.613690 0.000000 0.000000 
#    y 0.000000 1.647130 0.000000 
#    z 0.000000 0.000000 1.594220 
# 
# From -- ./inp_files/14939.got.cif
#   From: 2010.03.12/outbox.cif.g09.slc.cpg/sg39_8_cif.got.tgz:14939.got - 2010.04.14 02:53:20.
