data_PCOD8181928
_publ_section_title
;
Structure prediction by ZEFSAII (Michael W. Deem and Ramdas Pophale) SiO2 
 PCOD8181928
Probable space group: A B M 2
;
_chemical_formula_sum "Si O2"
_cell_formula_units_Z 56
_cell_length_a 14.253384
_cell_length_b 11.225844
_cell_length_c 16.887017
_cell_angle_alpha 90.000000
_cell_angle_beta 90.000000
_cell_angle_gamma 90.000000
_cell_volume 2702.028521
_symmetry_space_group_name_H-M "A B M 2"
_symmetry_group_IT_number 39
_symmetry_cell_setting 'orthorhombic'
loop_
_space_group_symop_operation_xyz
x,y,z
-x,-y,z
-x,1/2+y,z
x,1/2-y,z
x,1/2+y,1/2+z
-x,1/2-y,1/2+z
-x,y,1/2+z
x,-y,1/2+z
loop_
_atom_site_type_symbol
_atom_site_label
_atom_site_fract_x
_atom_site_fract_y
_atom_site_fract_z
Si Si1 0.250000 0.120065 0.876720
Si Si2 0.750000 0.387574 0.683621
Si Si3 0.598879 0.541080 0.758277
Si Si4 0.901121 0.041080 0.258277
Si Si5 0.439512 0.881207 0.087552
Si Si6 0.750000 0.963282 0.528649
Si Si7 0.060488 0.381208 0.587552
O O1 0.250000 0.250000 0.917178
O O2 0.343272 0.113100 0.823281
O O3 0.156728 0.113100 0.823281
O O4 0.250000 0.017939 0.941539
O O5 0.750000 0.250000 0.676143
O O6 0.657399 0.425838 0.730923
O O7 0.842601 0.425838 0.730922
O O8 0.749999 0.435299 0.594779
O O9 0.500000 0.500000 0.795875
O O10 0.581121 0.621856 0.681136
O O11 0.918880 0.121856 0.181136
O O12 0.000000 0.000000 0.295875
O O13 0.486392 0.750000 0.067893
O O14 0.342934 0.883882 0.038337
O O15 0.500000 0.000000 0.064988
O O16 0.842934 0.883882 0.538337
O O17 0.013608 0.250000 0.567892
O O18 0.000000 0.500000 0.564987
#
# Coordination Sequence:
#
# PCOD8181928 Si02
#       7
#     8   8   8   8   8   8   8
#     4  11  22  36  55  82 118 157 194 232 282 345
#     4   9  18  34  55  80 110 147 198 250 288 331
#     4   9  20  36  57  84 113 149 192 239 290 340
#     4   9  20  36  57  84 113 149 192 239 290 340
#     4  10  21  39  64  89 113 148 195 243 289 339
#     4  10  22  36  54  82 117 154 191 232 289 346
#     4  10  21  39  64  89 113 148 195 243 289 339
#
# _framework density 20.725169999999999
#
# number of rings (size 3 to 8) (size 9 to 14) (size 15 to 20)
#    0.000    2.286    0.000    2.571    0.000   13.714 
#    0.000    5.714    0.000    0.000    0.000    0.000 
#    0.000    0.000    0.000    0.000    0.000    0.000 
#
# Total GULP energy -347014.300763 kJ/mol
# GULP energy per Si atom -12393.367884 kJ/mol
# Density = 2.067800 g / cm^3
# Si number density = 20.725170 Si / 1000 Ang^3
#
#
#
# Elastic Constant Matrix: (Units=GPa)
#
#
# Indices 1 2 3 4 5 6 
#
# 1 139.2290 37.9013 22.5057 0.0000 0.0000 0.0000
# 2 37.9013 156.7677 11.0903 0.0000 0.0000 0.0000
# 3 22.5057 11.0903 56.8095 0.0000 0.0000 0.0000
# 4 0.0000 0.0000 0.0000 9.6705 0.0000 0.0000
# 5 0.0000 0.0000 0.0000 0.0000 6.7170 0.0000
# 6 0.0000 0.0000 0.0000 0.0000 0.0000 17.5249
#
#
#
# Elastic Compliance Matrix: (Units=1/GPa)
#
#
# Indices 1 2 3 4 5 6 
#
# 1 0.008127 -0.001761 -0.002876 0.000000 0.000000 0.000000
# 2 -0.001761 0.006850 -0.000639 0.000000 0.000000 0.000000
# 3 -0.002876 -0.000639 0.018867 0.000000 0.000000 0.000000
# 4 0.000000 0.000000 0.000000 0.103407 0.000000 0.000000
# 5 0.000000 0.000000 0.000000 0.000000 0.148876 0.000000
# 6 0.000000 0.000000 0.000000 0.000000 0.000000 0.057062
#
#
# Mechanical properties :
#
#
# Convention : Reuss Voigt Hill
#
# Bulk Modulus (GPa) = 42.93596 55.08897 49.01246
# Shear Modulus (GPa) = 13.83108 25.53640 19.68374
#
# Velocity S-wave (km/s) = 2.58613 3.51400 3.08515
# Velocity P-wave (km/s) = 5.44786 6.56526 6.03249
#
# Compressibility (1/GPa) = 0.02329050
#
# Stress axis : x y z
#
# Youngs Moduli (GPa) = 123.05078 145.98670 53.00336
#
# Poissons Ratio (x) = 0.25713 0.15242
# Poissons Ratio (y) = 0.21673 0.03389
# Poissons Ratio (z) = 0.35385 0.09335
#
# Static dielectric constant tensor:
#      x y z
#    x 4.070690 0.000000 0.000000 
#    y 0.000000 3.577830 0.000000 
#    z 0.000000 0.000000 3.425390 
# 
# 
# High freq. dielectric constant tensor:
#      x y z
#    x 1.818950 0.000000 0.000000 
#    y 0.000000 1.809110 0.000000 
#    z 0.000000 0.000000 1.780380 
# 
# From -- ./inp_files/9797.got.cif
#   From: 2010.03.12/outbox.cif.g09.slc.cpg/sg39_5_cif.got.tgz:9797.got - 2010.04.14 02:53:20.
