data_PCOD8181153
_publ_section_title
;
Structure prediction by ZEFSAII (Michael W. Deem and Ramdas Pophale) SiO2 
 PCOD8181153
Probable space group: A B M 2
;
_chemical_formula_sum "Si O2"
_cell_formula_units_Z 64
_cell_length_a 18.890432
_cell_length_b 17.777124
_cell_length_c 9.990159
_cell_angle_alpha 90.000000
_cell_angle_beta 90.000000
_cell_angle_gamma 90.000000
_cell_volume 3354.870740
_symmetry_space_group_name_H-M "A B M 2"
_symmetry_group_IT_number 39
_symmetry_cell_setting 'orthorhombic'
loop_
_space_group_symop_operation_xyz
x,y,z
-x,-y,z
-x,1/2+y,z
x,1/2-y,z
x,1/2+y,1/2+z
-x,1/2-y,1/2+z
-x,y,1/2+z
x,-y,1/2+z
loop_
_atom_site_type_symbol
_atom_site_label
_atom_site_fract_x
_atom_site_fract_y
_atom_site_fract_z
Si Si1 0.837293 0.162073 0.560450
Si Si2 0.897110 0.660543 0.781981
Si Si3 0.702967 0.932193 0.136402
Si Si4 0.440083 0.162920 0.434829
Si Si5 0.434139 0.336962 0.127130
Si Si6 0.698844 0.571395 0.441686
Si Si7 0.837005 0.339484 0.003699
Si Si8 0.945333 0.838121 0.285414
O O1 0.818727 0.250000 0.565748
O O2 0.852552 0.133746 0.410242
O O3 0.771904 0.118710 0.622661
O O4 0.907964 0.144531 0.644506
O O5 0.903004 0.750000 0.778686
O O6 0.855471 0.631198 0.652089
O O7 0.976319 0.625491 0.785186
O O8 0.635275 0.884092 0.092219
O O9 0.696053 0.958926 0.289800
O O10 0.709831 0.003418 0.042073
O O11 0.422564 0.250000 0.462646
O O12 0.459762 0.149751 0.279428
O O13 0.504981 0.135409 0.526340
O O14 0.372844 0.114583 0.478803
O O15 0.415599 0.250000 0.102287
O O16 0.762109 0.629884 0.457203
O O17 0.832560 0.250000 0.995667
O O18 0.898181 0.371344 0.906046
O O19 0.953242 0.750000 0.309296
#
# Coordination Sequence:
#
# PCOD8181153 Si02
#       8
#     8   8   8   8   8   8   8   8
#     4  10  19  34  57  83 111 144 186 233 281 332
#     4   9  18  30  51  87 116 137 176 237 291 330
#     4  11  24  39  57  80 113 154 190 228 273 328
#     4   9  19  38  63  89 114 142 181 226 273 326
#     4   9  19  38  63  89 114 142 181 226 273 326
#     4  11  24  39  57  80 113 154 190 228 273 328
#     4  10  19  34  57  83 111 144 186 233 281 332
#     4   9  16  30  55  83 110 141 182 231 285 336
#
# _framework density 19.076741999999999
#
# number of rings (size 3 to 8) (size 9 to 14) (size 15 to 20)
#    0.000    2.250    1.250    1.500    1.750    5.500 
#    0.000    2.500    0.000    4.500    0.000    0.000 
#    0.000    0.000    0.000    0.000    0.000    0.000 
#
# Total GULP energy -396843.143876 kJ/mol
# GULP energy per Si atom -12401.348246 kJ/mol
# Density = 1.903332 g / cm^3
# Si number density = 19.076742 Si / 1000 Ang^3
#
#
#
# Elastic Constant Matrix: (Units=GPa)
#
#
# Indices 1 2 3 4 5 6 
#
# 1 97.3570 26.3112 21.6536 0.0000 0.0000 0.0000
# 2 26.3112 43.3426 22.8331 0.0000 0.0000 0.0000
# 3 21.6536 22.8331 92.6515 0.0000 0.0000 0.0000
# 4 0.0000 0.0000 0.0000 23.4480 0.0000 0.0000
# 5 0.0000 0.0000 0.0000 0.0000 32.8920 0.0000
# 6 0.0000 0.0000 0.0000 0.0000 0.0000 -1.7766
#
#
#
# Elastic Compliance Matrix: (Units=1/GPa)
#
#
# Indices 1 2 3 4 5 6 
#
# 1 0.012402 -0.006897 -0.001199 0.000000 0.000000 0.000000
# 2 -0.006897 0.030350 -0.005868 0.000000 0.000000 0.000000
# 3 -0.001199 -0.005868 0.012519 0.000000 0.000000 0.000000
# 4 0.000000 0.000000 0.000000 0.042648 0.000000 0.000000
# 5 0.000000 0.000000 0.000000 0.000000 0.030403 0.000000
# 6 0.000000 0.000000 0.000000 0.000000 0.000000 -0.562876
#
#
# Mechanical properties :
#
#
# Convention : Reuss Voigt Hill
#
# Bulk Modulus (GPa) = 36.57052 41.66078 39.11565
# Shear Modulus (GPa) = -12.57822 21.74955 4.58566
#
# Velocity S-wave (km/s) = -2.57056 3.38021 1.55210
# Velocity P-wave (km/s) = 3.22513 6.09265 4.87452
#
# Compressibility (1/GPa) = 0.02734443
#
# Stress axis : x y z
#
# Youngs Moduli (GPa) = 80.63149 32.94888 79.87673
#
# Poissons Ratio (x) = 0.22726 0.09575
# Poissons Ratio (y) = 0.55613 0.46868
# Poissons Ratio (z) = 0.09666 0.19333
#
# Static dielectric constant tensor:
#      x y z
#    x 3.573000 0.000000 0.000000 
#    y 0.000000 3.117300 0.000000 
#    z 0.000000 0.000000 3.712450 
# 
# 
# High freq. dielectric constant tensor:
#      x y z
#    x 1.751660 0.000000 0.000000 
#    y 0.000000 1.704340 0.000000 
#    z 0.000000 0.000000 1.756470 
# 
# From -- ./inp_files/3871.got.cif
#   From: 2010.03.12/outbox.cif.g09.slc.cpg/sg39_2_cif.got.tgz:3871.got - 2010.04.14 02:53:20.
