data_PCOD8181950
_publ_section_title
;
Structure prediction by ZEFSAII (Michael W. Deem and Ramdas Pophale) SiO2 
 PCOD8181950
Probable space group: A B M 2
;
_chemical_formula_sum "Si O2"
_cell_formula_units_Z 40
_cell_length_a 13.733530
_cell_length_b 15.496594
_cell_length_c 9.693909
_cell_angle_alpha 90.000000
_cell_angle_beta 90.000000
_cell_angle_gamma 90.000000
_cell_volume 2063.086200
_symmetry_space_group_name_H-M "A B M 2"
_symmetry_group_IT_number 39
_symmetry_cell_setting 'orthorhombic'
loop_
_space_group_symop_operation_xyz
x,y,z
-x,-y,z
-x,1/2+y,z
x,1/2-y,z
x,1/2+y,1/2+z
-x,1/2-y,1/2+z
-x,y,1/2+z
x,-y,1/2+z
loop_
_atom_site_type_symbol
_atom_site_label
_atom_site_fract_x
_atom_site_fract_y
_atom_site_fract_z
Si Si1 0.393543 0.750000 0.352111
Si Si2 0.291400 0.082959 0.186542
Si Si3 0.915144 0.153752 0.672408
Si Si4 0.053755 0.412296 0.879472
Si Si5 0.279857 0.923170 0.366710
Si Si6 0.415782 0.250000 0.172841
O O1 0.329151 0.834097 0.321630
O O2 0.480981 0.750000 0.245479
O O3 0.431949 0.750000 0.508645
O O4 0.180634 0.105193 0.226617
O O5 0.358545 0.164744 0.221140
O O6 0.325248 0.001596 0.278216
O O7 0.299341 0.056736 0.026652
O O8 0.883545 0.250000 0.628267
O O9 0.959972 0.106352 0.540148
O O10 0.997394 0.159433 0.789840
O O11 0.165779 0.413901 0.835211
O O12 0.000000 0.500000 0.839339
#
# Coordination Sequence:
#
# PCOD8181950 Si02
#       6
#     4   8   8   8   8   4
#     4  10  24  44  65  90 118 160 201 258 313 364
#     4  10  21  40  62  86 121 158 200 251 306 359
#     4  11  22  36  56  87 120 163 200 244 292 350
#     4  11  22  36  57  86 123 162 203 238 291 356
#     4  10  23  39  61  89 125 159 199 250 305 357
#     4  10  22  44  67  86 116 156 201 256 313 368
#
# _framework density 19.38843
#
# number of rings (size 3 to 8) (size 9 to 14) (size 15 to 20)
#    0.000    1.600    3.000    1.200    8.400    2.400 
#    0.000    4.000    0.000    0.000    0.000    0.000 
#    0.000    0.000    0.000    0.000    0.000    0.000 
#
# Total GULP energy -248069.617353 kJ/mol
# GULP energy per Si atom -12403.480868 kJ/mol
# Density = 1.934430 g / cm^3
# Si number density = 19.388430 Si / 1000 Ang^3
#
#
#
# Elastic Constant Matrix: (Units=GPa)
#
#
# Indices 1 2 3 4 5 6 
#
# 1 121.7460 66.1653 65.2602 0.0000 0.0000 0.0000
# 2 66.1653 155.8373 59.3317 0.0000 0.0000 0.0000
# 3 65.2602 59.3317 63.3460 0.0000 0.0000 0.0000
# 4 0.0000 0.0000 0.0000 30.5540 0.0000 0.0000
# 5 0.0000 0.0000 0.0000 0.0000 36.4493 0.0000
# 6 0.0000 0.0000 0.0000 0.0000 0.0000 26.0549
#
#
#
# Elastic Compliance Matrix: (Units=1/GPa)
#
#
# Indices 1 2 3 4 5 6 
#
# 1 0.018430 -0.000927 -0.018119 0.000000 0.000000 0.000000
# 2 -0.000927 0.010020 -0.008431 0.000000 0.000000 0.000000
# 3 -0.018119 -0.008431 0.042349 0.000000 0.000000 0.000000
# 4 0.000000 0.000000 0.000000 0.032729 0.000000 0.000000
# 5 0.000000 0.000000 0.000000 0.000000 0.027435 0.000000
# 6 0.000000 0.000000 0.000000 0.000000 0.000000 0.038380
#
#
# Mechanical properties :
#
#
# Convention : Reuss Voigt Hill
#
# Bulk Modulus (GPa) = 63.10369 80.27152 71.68761
# Shear Modulus (GPa) = 21.77914 28.62312 25.20113
#
# Velocity S-wave (km/s) = 3.35521 3.84643 3.60919
# Velocity P-wave (km/s) = 6.90128 7.82422 7.37720
#
# Compressibility (1/GPa) = 0.01584693
#
# Stress axis : x y z
#
# Youngs Moduli (GPa) = 54.26034 99.79945 23.61336
#
# Poissons Ratio (x) = 0.09247 0.42784
# Poissons Ratio (y) = 0.05027 0.19907
# Poissons Ratio (z) = 0.98313 0.84137
#
# Static dielectric constant tensor:
#      x y z
#    x 3.428040 0.000000 0.000000 
#    y 0.000000 3.627090 0.000000 
#    z 0.000000 0.000000 3.403300 
# 
# 
# High freq. dielectric constant tensor:
#      x y z
#    x 1.748250 0.000000 0.000000 
#    y 0.000000 1.769360 0.000000 
#    z 0.000000 0.000000 1.749800 
# 
# From -- ./inp_files/2543.got.cif
#   From: 2010.03.12/outbox.cif.g09.slc.cpg/sg39_2_cif.got.tgz:2543.got - 2010.04.14 02:53:20.
