data_PCOD8181350
_publ_section_title
;
Structure prediction by ZEFSAII (Michael W. Deem and Ramdas Pophale) SiO2 
 PCOD8181350
Probable space group: A B M 2
;
_chemical_formula_sum "Si O2"
_cell_formula_units_Z 64
_cell_length_a 20.784171
_cell_length_b 9.221936
_cell_length_c 18.992579
_cell_angle_alpha 90.000000
_cell_angle_beta 90.000000
_cell_angle_gamma 90.000000
_cell_volume 3640.313215
_symmetry_space_group_name_H-M "A B M 2"
_symmetry_group_IT_number 39
_symmetry_cell_setting 'orthorhombic'
loop_
_space_group_symop_operation_xyz
x,y,z
-x,-y,z
-x,1/2+y,z
x,1/2-y,z
x,1/2+y,1/2+z
-x,1/2-y,1/2+z
-x,y,1/2+z
x,-y,1/2+z
loop_
_atom_site_type_symbol
_atom_site_label
_atom_site_fract_x
_atom_site_fract_y
_atom_site_fract_z
Si Si1 0.827810 0.414775 0.151640
Si Si2 0.684888 0.418602 0.146553
Si Si3 0.437479 0.416502 0.158148
Si Si4 0.062852 0.418419 0.395283
Si Si5 0.441831 0.590122 0.490123
Si Si6 0.182975 0.418389 0.487033
Si Si7 0.064351 0.419975 0.233074
Si Si8 0.696442 0.579043 0.000476
O O1 0.850690 0.250000 0.165374
O O2 0.755170 0.435450 0.182768
O O3 0.830813 0.449297 0.068731
O O4 0.874323 0.525903 0.190143
O O5 0.665084 0.250000 0.140765
O O6 0.627711 0.505165 0.186865
O O7 0.693677 0.483854 0.069956
O O8 0.500000 0.500000 0.188519
O O9 0.438454 0.250000 0.183729
O O10 0.437422 0.427656 0.074028
O O11 0.049613 0.250000 0.405630
O O12 0.122255 0.470884 0.442181
O O13 0.077278 0.457531 0.314435
O O14 0.000000 0.500000 0.423157
O O15 0.500000 0.500000 0.456603
O O16 0.461201 0.750000 0.468608
O O17 0.371054 0.551778 0.458755
O O18 0.199172 0.250000 0.473718
O O19 0.242450 0.516602 0.458058
O O20 0.055416 0.250000 0.220139
O O21 0.000000 0.500000 0.206235
O O22 0.703959 0.750000 0.017869
#
# Coordination Sequence:
#
# PCOD8181350 Si02
#       8
#     8   8   8   8   8   8   8   8
#     4   9  18  31  47  68  94 122 151 186 227 271
#     4   9  16  26  39  56  82 116 149 184 227 269
#     4   9  15  22  33  51  77 111 150 188 224 267
#     4   9  19  35  52  70  91 117 150 185 224 269
#     4   8  14  21  30  47  73 106 143 179 212 252
#     4   9  18  32  48  67  92 120 150 185 225 269
#     4  10  20  34  52  70  91 119 149 185 225 269
#     4   9  16  25  37  57  84 113 147 184 222 266
#
# _framework density 17.580905000000001
#
# number of rings (size 3 to 8) (size 9 to 14) (size 15 to 20)
#    0.000    3.000    0.000    3.000    0.000    7.500 
#    0.000    1.250    0.000    0.000    0.000    0.000 
#    0.000    1.000    0.000    6.500    0.000   13.750 
#
# Total GULP energy -396549.391701 kJ/mol
# GULP energy per Si atom -12392.168491 kJ/mol
# Density = 1.754089 g / cm^3
# Si number density = 17.580905 Si / 1000 Ang^3
#
#
#
# Elastic Constant Matrix: (Units=GPa)
#
#
# Indices 1 2 3 4 5 6 
#
# 1 177.8410 89.7804 37.1143 0.0000 0.0000 0.0000
# 2 89.7804 112.2017 22.9749 0.0000 0.0000 0.0000
# 3 37.1143 22.9749 24.0230 0.0000 0.0000 0.0000
# 4 0.0000 0.0000 0.0000 12.7508 0.0000 0.0000
# 5 0.0000 0.0000 0.0000 0.0000 -0.6528 0.0000
# 6 0.0000 0.0000 0.0000 0.0000 0.0000 42.2892
#
#
#
# Elastic Compliance Matrix: (Units=1/GPa)
#
#
# Indices 1 2 3 4 5 6 
#
# 1 0.011384 -0.006849 -0.011038 0.000000 0.000000 0.000000
# 2 -0.006849 0.015204 -0.003959 0.000000 0.000000 0.000000
# 3 -0.011038 -0.003959 0.062465 0.000000 0.000000 0.000000
# 4 0.000000 0.000000 0.000000 0.078426 0.000000 0.000000
# 5 0.000000 0.000000 0.000000 0.000000 -1.531935 0.000000
# 6 0.000000 0.000000 0.000000 0.000000 0.000000 0.023647
#
#
# Mechanical properties :
#
#
# Convention : Reuss Voigt Hill
#
# Bulk Modulus (GPa) = 22.04478 68.20052 45.12265
# Shear Modulus (GPa) = -3.90017 21.82385 8.96184
#
# Velocity S-wave (km/s) = -1.49105 3.52709 2.26021
# Velocity P-wave (km/s) = 3.09870 7.44740 5.70376
#
# Compressibility (1/GPa) = 0.04536222
#
# Stress axis : x y z
#
# Youngs Moduli (GPa) = 87.84102 65.77383 16.00886
#
# Poissons Ratio (x) = 0.45050 0.17670
# Poissons Ratio (y) = 0.60164 0.06337
# Poissons Ratio (z) = 0.96956 0.26037
#
# Static dielectric constant tensor:
#      x y z
#    x 3.871140 0.000000 0.000000 
#    y 0.000000 3.362540 0.000000 
#    z 0.000000 0.000000 2.663700 
# 
# 
# High freq. dielectric constant tensor:
#      x y z
#    x 1.703930 0.000000 0.000000 
#    y 0.000000 1.689990 0.000000 
#    z 0.000000 0.000000 1.602620 
# 
# From -- ./inp_files/15045.got.cif
#   From: 2010.03.12/outbox.cif.g09.slc.cpg/sg39_8_cif.got.tgz:15045.got - 2010.04.14 02:53:20.
