data_PCOD8181620
_publ_section_title
;
Structure prediction by ZEFSAII (Michael W. Deem and Ramdas Pophale) SiO2 
 PCOD8181620
Probable space group: A B M 2
;
_chemical_formula_sum "Si O2"
_cell_formula_units_Z 48
_cell_length_a 18.972416
_cell_length_b 8.384806
_cell_length_c 14.946323
_cell_angle_alpha 90.000000
_cell_angle_beta 90.000000
_cell_angle_gamma 90.000000
_cell_volume 2377.661474
_symmetry_space_group_name_H-M "A B M 2"
_symmetry_group_IT_number 39
_symmetry_cell_setting 'orthorhombic'
loop_
_space_group_symop_operation_xyz
x,y,z
-x,-y,z
-x,1/2+y,z
x,1/2-y,z
x,1/2+y,1/2+z
-x,1/2-y,1/2+z
-x,y,1/2+z
x,-y,1/2+z
loop_
_atom_site_type_symbol
_atom_site_label
_atom_site_fract_x
_atom_site_fract_y
_atom_site_fract_z
Si Si1 0.574635 0.937371 0.239030
Si Si2 0.320726 0.937016 0.890367
Si Si3 0.922769 0.936448 0.545132
Si Si4 0.166961 0.433207 0.889311
Si Si5 0.576147 0.939239 0.035710
Si Si6 0.074366 0.435057 0.237197
O O1 0.571168 0.750000 0.243657
O O2 0.636141 0.999812 0.303991
O O3 0.589197 0.994627 0.137955
O O4 0.500000 0.000000 0.274798
O O5 0.303732 0.750000 0.884484
O O6 0.249604 0.036505 0.893574
O O7 0.364369 0.972461 0.979500
O O8 0.919208 0.750000 0.525115
O O9 0.865527 0.025258 0.485167
O O10 0.903756 0.970581 0.648021
O O11 0.000000 0.000000 0.520726
O O12 0.152070 0.250000 0.866340
O O13 0.133150 0.541799 0.812247
O O14 0.581428 0.750000 0.023664
O O15 0.500000 0.000000 0.003051
O O16 0.066821 0.250000 0.212724
O O17 0.000000 0.500000 0.274562
#
# Coordination Sequence:
#
# PCOD8181620 Si02
#       6
#     8   8   8   8   8   8
#     4   9  20  37  59  83 112 146 187 233 283 338
#     4  11  23  39  57  83 116 153 192 238 292 350
#     4  11  22  40  64  91 119 153 196 244 294 349
#     4  12  25  41  59  85 120 160 199 242 295 353
#     4  10  20  37  59  85 113 148 190 237 288 345
#     4  11  22  40  64  91 120 154 196 244 292 347
#
# _framework density 20.187904
#
# number of rings (size 3 to 8) (size 9 to 14) (size 15 to 20)
#    0.000    1.333    0.000    7.500    0.000    4.667 
#    0.000    5.000    0.000    0.000    0.000    0.000 
#    0.000    0.000    0.000    0.000    0.000    0.000 
#
# Total GULP energy -297755.862277 kJ/mol
# GULP energy per Si atom -12406.494262 kJ/mol
# Density = 2.014196 g / cm^3
# Si number density = 20.187904 Si / 1000 Ang^3
#
#
#
# Elastic Constant Matrix: (Units=GPa)
#
#
# Indices 1 2 3 4 5 6 
#
# 1 131.3746 16.2972 65.7377 0.0000 0.0000 0.0000
# 2 16.2972 76.7510 11.8609 0.0000 0.0000 0.0000
# 3 65.7377 11.8609 99.7557 0.0000 0.0000 0.0000
# 4 0.0000 0.0000 0.0000 -8.5054 0.0000 0.0000
# 5 0.0000 0.0000 0.0000 0.0000 9.1836 0.0000
# 6 0.0000 0.0000 0.0000 0.0000 0.0000 34.9159
#
#
#
# Elastic Compliance Matrix: (Units=1/GPa)
#
#
# Indices 1 2 3 4 5 6 
#
# 1 0.011481 -0.001292 -0.007412 0.000000 0.000000 0.000000
# 2 -0.001292 0.013419 -0.000744 0.000000 0.000000 0.000000
# 3 -0.007412 -0.000744 0.014997 0.000000 0.000000 0.000000
# 4 0.000000 0.000000 0.000000 -0.117573 0.000000 0.000000
# 5 0.000000 0.000000 0.000000 0.000000 0.108889 0.000000
# 6 0.000000 0.000000 0.000000 0.000000 0.000000 0.028640
#
#
# Mechanical properties :
#
#
# Convention : Reuss Voigt Hill
#
# Bulk Modulus (GPa) = 47.61840 55.07474 51.34657
# Shear Modulus (GPa) = 58.30855 21.38453 39.84654
#
# Velocity S-wave (km/s) = 5.38011 3.25818 4.44755
# Velocity P-wave (km/s) = 7.88879 6.44163 7.20165
#
# Compressibility (1/GPa) = 0.02100029
#
# Stress axis : x y z
#
# Youngs Moduli (GPa) = 87.09963 74.52390 66.67783
#
# Poissons Ratio (x) = 0.09632 0.49423
# Poissons Ratio (y) = 0.11257 0.04959
# Poissons Ratio (z) = 0.64560 0.05543
#
# Static dielectric constant tensor:
#      x y z
#    x 3.733250 0.000000 0.000000 
#    y 0.000000 3.676780 0.000000 
#    z 0.000000 0.000000 3.862780 
# 
# 
# High freq. dielectric constant tensor:
#      x y z
#    x 1.784490 0.000000 0.000000 
#    y 0.000000 1.799310 0.000000 
#    z 0.000000 0.000000 1.798690 
# 
# From -- ./inp_files/10044.got.cif
#   From: 2010.03.12/outbox.cif.g09.slc.cpg/sg39_6_cif.got.tgz:10044.got - 2010.04.14 02:53:20.
