data_PCOD8181045
_publ_section_title
;
Structure prediction by ZEFSAII (Michael W. Deem and Ramdas Pophale) SiO2 
 PCOD8181045
Probable space group: A B M 2
;
_chemical_formula_sum "Si O2"
_cell_formula_units_Z 64
_cell_length_a 24.463211
_cell_length_b 9.075605
_cell_length_c 14.984154
_cell_angle_alpha 90.000000
_cell_angle_beta 90.000000
_cell_angle_gamma 90.000000
_cell_volume 3326.758497
_symmetry_space_group_name_H-M "A B M 2"
_symmetry_group_IT_number 39
_symmetry_cell_setting 'orthorhombic'
loop_
_space_group_symop_operation_xyz
x,y,z
-x,-y,z
-x,1/2+y,z
x,1/2-y,z
x,1/2+y,1/2+z
-x,1/2-y,1/2+z
-x,y,1/2+z
x,-y,1/2+z
loop_
_atom_site_type_symbol
_atom_site_label
_atom_site_fract_x
_atom_site_fract_y
_atom_site_fract_z
Si Si1 0.943658 0.924178 0.180950
Si Si2 0.330182 0.573623 0.870370
Si Si3 0.132912 0.075930 0.542587
Si Si4 0.663059 0.425299 0.184516
Si Si5 0.550464 0.089025 0.885419
Si Si6 0.552294 0.584625 0.173686
Si Si7 0.945546 0.579474 0.384594
Si Si8 0.256051 0.576094 0.030030
O O1 0.948678 0.750000 0.165918
O O2 0.930381 0.965460 0.283566
O O3 0.894660 0.989276 0.123366
O O4 0.000000 0.000000 0.150361
O O5 0.330393 0.750000 0.854181
O O6 0.317938 0.491873 0.778314
O O7 0.389678 0.523617 0.908917
O O8 0.284738 0.518212 0.939844
O O9 0.130345 0.250000 0.562380
O O10 0.104252 0.035918 0.448911
O O11 0.194594 0.015115 0.535933
O O12 0.656314 0.250000 0.191752
O O13 0.606388 0.493042 0.149135
O O14 0.710057 0.474237 0.116007
O O15 0.545292 0.250000 0.927633
O O16 0.545546 0.094217 0.779320
O O17 0.500000 0.000000 0.927902
O O18 0.500000 0.500000 0.132208
O O19 0.556076 0.750000 0.133880
O O20 0.959095 0.750000 0.390360
O O21 0.000000 0.500000 0.418666
O O22 0.254673 0.750000 0.024243
#
# Coordination Sequence:
#
# PCOD8181045 Si02
#       8
#     8   8   8   8   8   8   8   8
#     4  10  20  35  55  83 113 141 172 212 260 312
#     4   9  18  35  55  73  98 138 179 217 263 319
#     4  10  20  36  56  78 105 142 182 221 262 308
#     4  10  19  33  53  77 104 137 175 220 268 315
#     4   8  14  24  43  69  94 121 159 202 250 305
#     4   9  16  28  48  75 103 134 170 212 264 324
#     4   9  19  34  54  79 108 138 171 209 256 310
#     4   9  20  37  55  74 103 143 184 219 261 315
#
# _framework density 19.237946999999998
#
# number of rings (size 3 to 8) (size 9 to 14) (size 15 to 20)
#    0.000    2.750    0.000    2.250    0.000    6.000 
#    0.000    5.000    0.000    1.500    0.000    0.000 
#    0.000    0.000    0.000    0.000    0.000    0.000 
#
# Total GULP energy -396739.817713 kJ/mol
# GULP energy per Si atom -12398.119304 kJ/mol
# Density = 1.919416 g / cm^3
# Si number density = 19.237947 Si / 1000 Ang^3
#
#
#
# Elastic Constant Matrix: (Units=GPa)
#
#
# Indices 1 2 3 4 5 6 
#
# 1 192.5977 59.3234 84.7461 0.0000 0.0000 0.0000
# 2 59.3234 74.6474 44.2634 0.0000 0.0000 0.0000
# 3 84.7461 44.2634 93.8013 0.0000 0.0000 0.0000
# 4 0.0000 0.0000 0.0000 14.8694 0.0000 0.0000
# 5 0.0000 0.0000 0.0000 0.0000 135.7247 0.0000
# 6 0.0000 0.0000 0.0000 0.0000 0.0000 27.7718
#
#
#
# Elastic Compliance Matrix: (Units=1/GPa)
#
#
# Indices 1 2 3 4 5 6 
#
# 1 0.009168 -0.003297 -0.006727 0.000000 0.000000 0.000000
# 2 -0.003297 0.019787 -0.006358 0.000000 0.000000 0.000000
# 3 -0.006727 -0.006358 0.019739 0.000000 0.000000 0.000000
# 4 0.000000 0.000000 0.000000 0.067252 0.000000 0.000000
# 5 0.000000 0.000000 0.000000 0.000000 0.007368 0.000000
# 6 0.000000 0.000000 0.000000 0.000000 0.000000 0.036008
#
#
# Mechanical properties :
#
#
# Convention : Reuss Voigt Hill
#
# Bulk Modulus (GPa) = 62.77959 81.96801 72.37380
# Shear Modulus (GPa) = 25.32997 47.18743 36.25870
#
# Velocity S-wave (km/s) = 3.63253 4.95798 4.34608
# Velocity P-wave (km/s) = 7.09209 8.68766 7.93010
#
# Compressibility (1/GPa) = 0.01592874
#
# Stress axis : x y z
#
# Youngs Moduli (GPa) = 109.08025 50.53897 50.66176
#
# Poissons Ratio (x) = 0.16662 0.34079
# Poissons Ratio (y) = 0.35962 0.32213
# Poissons Ratio (z) = 0.73377 0.32135
#
# Static dielectric constant tensor:
#      x y z
#    x 3.748450 0.000000 0.000000 
#    y 0.000000 3.466840 0.000000 
#    z 0.000000 0.000000 3.414060 
# 
# 
# High freq. dielectric constant tensor:
#      x y z
#    x 1.750700 0.000000 0.000000 
#    y 0.000000 1.735830 0.000000 
#    z 0.000000 0.000000 1.740160 
# 
# From -- ./inp_files/10669.got.cif
#   From: 2010.03.12/outbox.cif.g09.slc.cpg/sg39_6_cif.got.tgz:10669.got - 2010.04.14 02:53:20.
