data_PCOD8181158
_publ_section_title
;
Structure prediction by ZEFSAII (Michael W. Deem and Ramdas Pophale) SiO2 
 PCOD8181158
Probable space group: A B M 2
;
_chemical_formula_sum "Si O2"
_cell_formula_units_Z 64
_cell_length_a 24.081318
_cell_length_b 8.773043
_cell_length_c 15.159521
_cell_angle_alpha 90.000000
_cell_angle_beta 90.000000
_cell_angle_gamma 90.000000
_cell_volume 3202.698008
_symmetry_space_group_name_H-M "A B M 2"
_symmetry_group_IT_number 39
_symmetry_cell_setting 'orthorhombic'
loop_
_space_group_symop_operation_xyz
x,y,z
-x,-y,z
-x,1/2+y,z
x,1/2-y,z
x,1/2+y,1/2+z
-x,1/2-y,1/2+z
-x,y,1/2+z
x,-y,1/2+z
loop_
_atom_site_type_symbol
_atom_site_label
_atom_site_fract_x
_atom_site_fract_y
_atom_site_fract_z
Si Si1 0.441703 0.569890 0.080910
Si Si2 0.245718 0.929461 0.943781
Si Si3 0.442667 0.571065 0.280681
Si Si4 0.635266 0.929505 0.937274
Si Si5 0.169984 0.426744 0.799987
Si Si6 0.056578 0.074821 0.338466
Si Si7 0.055569 0.077367 0.547495
Si Si8 0.827748 0.073128 0.102285
O O1 0.500000 0.500000 0.048532
O O2 0.445776 0.750000 0.072674
O O3 0.428576 0.517076 0.181207
O O4 0.391887 0.510593 0.021088
O O5 0.258633 0.750000 0.946819
O O6 0.301387 0.022747 0.928860
O O7 0.204271 0.964135 0.863788
O O8 0.217909 0.991635 0.034250
O O9 0.500000 0.500000 0.314425
O O10 0.450378 0.750000 0.283132
O O11 0.394386 0.517340 0.346791
O O12 0.630335 0.750000 0.950634
O O13 0.175193 0.250000 0.828485
O O14 0.106082 0.476058 0.797747
O O15 0.193928 0.451589 0.701369
O O16 0.060614 0.250000 0.307624
O O17 0.059520 0.061740 0.443075
O O18 0.000000 0.000000 0.302558
O O19 0.051567 0.250000 0.579175
O O20 0.111226 0.998017 0.587274
O O21 0.000000 0.000000 0.584899
O O22 0.835104 0.250000 0.078376
#
# Coordination Sequence:
#
# PCOD8181158 Si02
#       8
#     8   8   8   8   8   8   8   8
#     4  10  20  37  60  89 121 158 193 232 284 338
#     4  11  23  43  62  80 112 154 196 241 290 342
#     4   9  20  37  59  86 122 157 191 232 283 339
#     4  11  23  39  59  87 118 153 197 244 287 339
#     4  11  22  38  61  86 112 146 189 238 291 345
#     4  10  19  34  57  84 116 150 186 229 284 346
#     4   9  17  33  55  80 109 144 181 223 276 339
#     4   9  20  39  60  80 110 150 188 231 288 348
#
# _framework density 19.983150999999999
#
# number of rings (size 3 to 8) (size 9 to 14) (size 15 to 20)
#    0.000    2.000    1.250    2.250    0.000    4.500 
#    0.000   10.000    0.000    0.000    0.000    0.000 
#    0.000    0.000    0.000    0.000    0.000    0.000 
#
# Total GULP energy -396853.984783 kJ/mol
# GULP energy per Si atom -12401.687024 kJ/mol
# Density = 1.993767 g / cm^3
# Si number density = 19.983151 Si / 1000 Ang^3
#
#
#
# Elastic Constant Matrix: (Units=GPa)
#
#
# Indices 1 2 3 4 5 6 
#
# 1 114.0253 16.2468 44.0508 0.0000 0.0000 0.0000
# 2 16.2468 52.1334 23.7963 0.0000 0.0000 0.0000
# 3 44.0508 23.7963 88.4628 0.0000 0.0000 0.0000
# 4 0.0000 0.0000 0.0000 25.0928 0.0000 0.0000
# 5 0.0000 0.0000 0.0000 0.0000 10.4470 0.0000
# 6 0.0000 0.0000 0.0000 0.0000 0.0000 37.2822
#
#
#
# Elastic Compliance Matrix: (Units=1/GPa)
#
#
# Indices 1 2 3 4 5 6 
#
# 1 0.010909 -0.001049 -0.005150 0.000000 0.000000 0.000000
# 2 -0.001049 0.021967 -0.005387 0.000000 0.000000 0.000000
# 3 -0.005150 -0.005387 0.015318 0.000000 0.000000 0.000000
# 4 0.000000 0.000000 0.000000 0.039852 0.000000 0.000000
# 5 0.000000 0.000000 0.000000 0.000000 0.095721 0.000000
# 6 0.000000 0.000000 0.000000 0.000000 0.000000 0.026822
#
#
# Mechanical properties :
#
#
# Convention : Reuss Voigt Hill
#
# Bulk Modulus (GPa) = 39.96420 46.97881 43.47151
# Shear Modulus (GPa) = 20.65244 25.93291 23.29268
#
# Velocity S-wave (km/s) = 3.21829 3.60632 3.41782
# Velocity P-wave (km/s) = 5.81826 6.39539 6.11364
#
# Compressibility (1/GPa) = 0.02502239
#
# Stress axis : x y z
#
# Youngs Moduli (GPa) = 91.66700 45.52231 65.28370
#
# Poissons Ratio (x) = 0.04775 0.33622
# Poissons Ratio (y) = 0.09615 0.35167
# Poissons Ratio (z) = 0.47209 0.24522
#
# Static dielectric constant tensor:
#      x y z
#    x 3.652690 0.000000 0.000000 
#    y 0.000000 3.529430 0.000000 
#    z 0.000000 0.000000 3.702040 
# 
# 
# High freq. dielectric constant tensor:
#      x y z
#    x 1.780040 0.000000 0.000000 
#    y 0.000000 1.770210 0.000000 
#    z 0.000000 0.000000 1.784380 
# 
# From -- ./inp_files/10553.got.cif
#   From: 2010.03.12/outbox.cif.g09.slc.cpg/sg39_6_cif.got.tgz:10553.got - 2010.04.14 02:53:20.
