data_PCOD8181482
_publ_section_title
;
Structure prediction by ZEFSAII (Michael W. Deem and Ramdas Pophale) SiO2 
 PCOD8181482
Probable space group: A B M 2
;
_chemical_formula_sum "Si O2"
_cell_formula_units_Z 56
_cell_length_a 14.116581
_cell_length_b 14.436508
_cell_length_c 13.932209
_cell_angle_alpha 90.000000
_cell_angle_beta 90.000000
_cell_angle_gamma 90.000000
_cell_volume 2839.302475
_symmetry_space_group_name_H-M "A B M 2"
_symmetry_group_IT_number 39
_symmetry_cell_setting 'orthorhombic'
loop_
_space_group_symop_operation_xyz
x,y,z
-x,-y,z
-x,1/2+y,z
x,1/2-y,z
x,1/2+y,1/2+z
-x,1/2-y,1/2+z
-x,y,1/2+z
x,-y,1/2+z
loop_
_atom_site_type_symbol
_atom_site_label
_atom_site_fract_x
_atom_site_fract_y
_atom_site_fract_z
Si Si1 0.789789 0.140621 0.805560
Si Si2 0.597052 0.454030 0.020704
Si Si3 0.888591 0.502922 0.167110
Si Si4 0.599202 0.644737 0.712027
Si Si5 0.205568 0.007795 0.964646
Si Si6 0.202805 0.856577 0.299204
Si Si7 0.423095 0.143094 0.323368
O O1 0.813394 0.250000 0.816118
O O2 0.850743 0.094786 0.721152
O O3 0.679677 0.124102 0.776819
O O4 0.809068 0.089134 0.906932
O O5 0.500000 0.500000 0.053881
O O6 0.633224 0.397709 0.112180
O O7 0.684234 0.521748 0.994336
O O8 0.571079 0.390646 0.931468
O O9 0.847540 0.408508 0.211352
O O10 0.000000 0.500000 0.178751
O O11 0.862571 0.507981 0.055622
O O12 0.575507 0.750000 0.688441
O O13 0.684220 0.634446 0.787768
O O14 0.505615 0.596201 0.758435
O O15 0.174831 0.094482 0.898945
O O16 0.169085 0.750000 0.300727
O O17 0.446482 0.250000 0.329232
#
# Coordination Sequence:
#
# PCOD8181482 Si02
#       7
#     8   8   8   8   8   8   8
#     4   9  21  41  65  88 121 160 202 247 301 361
#     4  11  21  31  55  85 120 160 199 238 291 355
#     4  11  24  42  62  89 122 153 199 260 314 364
#     4  10  20  35  57  85 120 160 201 242 287 350
#     4  10  22  39  60  92 123 159 200 249 304 357
#     4  10  22  42  65  90 122 162 201 248 301 360
#     4   9  19  36  55  83 119 156 197 242 288 349
#
# _framework density 19.723154000000001
#
# number of rings (size 3 to 8) (size 9 to 14) (size 15 to 20)
#    0.000    2.000    1.429    1.286    2.000    6.286 
#    0.000    0.714    0.000    0.000    0.000    0.000 
#    0.000    0.000    0.000    0.000    0.000    0.000 
#
# Total GULP energy -347157.648487 kJ/mol
# GULP energy per Si atom -12398.487446 kJ/mol
# Density = 1.967826 g / cm^3
# Si number density = 19.723154 Si / 1000 Ang^3
#
#
#
# Elastic Constant Matrix: (Units=GPa)
#
#
# Indices 1 2 3 4 5 6 
#
# 1 95.6525 37.6871 33.6940 0.0000 0.0000 0.0000
# 2 37.6871 119.8574 52.4595 0.0000 0.0000 0.0000
# 3 33.6940 52.4595 124.9296 0.0000 0.0000 0.0000
# 4 0.0000 0.0000 0.0000 22.8469 0.0000 0.0000
# 5 0.0000 0.0000 0.0000 0.0000 21.2917 0.0000
# 6 0.0000 0.0000 0.0000 0.0000 0.0000 20.3000
#
#
#
# Elastic Compliance Matrix: (Units=1/GPa)
#
#
# Indices 1 2 3 4 5 6 
#
# 1 0.012361 -0.002974 -0.002085 0.000000 0.000000 0.000000
# 2 -0.002974 0.010938 -0.003791 0.000000 0.000000 0.000000
# 3 -0.002085 -0.003791 0.010159 0.000000 0.000000 0.000000
# 4 0.000000 0.000000 0.000000 0.043770 0.000000 0.000000
# 5 0.000000 0.000000 0.000000 0.000000 0.046967 0.000000
# 6 0.000000 0.000000 0.000000 0.000000 0.000000 0.049261
#
#
# Mechanical properties :
#
#
# Convention : Reuss Voigt Hill
#
# Bulk Modulus (GPa) = 63.46187 65.34674 64.40430
# Shear Modulus (GPa) = 25.45746 27.32764 26.39255
#
# Velocity S-wave (km/s) = 3.59658 3.72635 3.66204
# Velocity P-wave (km/s) = 7.03516 7.19153 7.11377
#
# Compressibility (1/GPa) = 0.01575749
#
# Stress axis : x y z
#
# Youngs Moduli (GPa) = 80.90154 91.42841 98.43919
#
# Poissons Ratio (x) = 0.27192 0.20523
# Poissons Ratio (y) = 0.24061 0.37315
# Poissons Ratio (z) = 0.16867 0.34658
#
# Static dielectric constant tensor:
#      x y z
#    x 3.577930 0.000000 0.000000 
#    y 0.000000 3.607350 0.000000 
#    z 0.000000 0.000000 3.606150 
# 
# 
# High freq. dielectric constant tensor:
#      x y z
#    x 1.762580 0.000000 0.000000 
#    y 0.000000 1.763910 0.000000 
#    z 0.000000 0.000000 1.774130 
# 
# From -- ./inp_files/6462.got.cif
#   From: 2010.03.12/outbox.cif.g09.slc.cpg/sg39_4_cif.got.tgz:6462.got - 2010.04.14 02:53:20.
