data_PCOD8181066
_publ_section_title
;
Structure prediction by ZEFSAII (Michael W. Deem and Ramdas Pophale) SiO2 
 PCOD8181066
Probable space group: A B M 2
;
_chemical_formula_sum "Si O2"
_cell_formula_units_Z 64
_cell_length_a 19.288003
_cell_length_b 8.609341
_cell_length_c 20.594171
_cell_angle_alpha 90.000000
_cell_angle_beta 90.000000
_cell_angle_gamma 90.000000
_cell_volume 3419.806152
_symmetry_space_group_name_H-M "A B M 2"
_symmetry_group_IT_number 39
_symmetry_cell_setting 'orthorhombic'
loop_
_space_group_symop_operation_xyz
x,y,z
-x,-y,z
-x,1/2+y,z
x,1/2-y,z
x,1/2+y,1/2+z
-x,1/2-y,1/2+z
-x,y,1/2+z
x,-y,1/2+z
loop_
_atom_site_type_symbol
_atom_site_label
_atom_site_fract_x
_atom_site_fract_y
_atom_site_fract_z
Si Si1 0.789970 0.932818 0.480070
Si Si2 0.572626 0.066172 0.649641
Si Si3 0.428296 0.932659 0.799418
Si Si4 0.284854 0.434576 0.351487
Si Si5 0.071893 0.432372 0.668072
Si Si6 0.797523 0.567781 0.226311
Si Si7 0.288593 0.567967 0.111275
Si Si8 0.926664 0.066731 0.527188
O O1 0.802228 0.750000 0.474422
O O2 0.746508 0.997328 0.418779
O O3 0.746891 0.977440 0.543678
O O4 0.865098 0.014240 0.479556
O O5 0.576529 0.250000 0.639567
O O6 0.582625 0.017672 0.724721
O O7 0.500000 0.000000 0.623543
O O8 0.631252 0.980944 0.607266
O O9 0.432965 0.750000 0.805026
O O10 0.363242 0.998318 0.840911
O O11 0.500000 0.000000 0.827668
O O12 0.287789 0.250000 0.350936
O O13 0.236546 0.492204 0.292748
O O14 0.065516 0.250000 0.658827
O O15 0.130916 0.474725 0.719395
O O16 0.091237 0.504785 0.598727
O O17 0.000000 0.500000 0.694951
O O18 0.813240 0.750000 0.227810
O O19 0.746184 0.532519 0.167454
O O20 0.279957 0.750000 0.126101
O O21 0.932273 0.250000 0.529392
O O22 0.000000 0.000000 0.501989
#
# Coordination Sequence:
#
# PCOD8181066 Si02
#       8
#     8   8   8   8   8   8   8   8
#     4  10  21  38  58  81 113 151 190 229 277 335
#     4  10  19  33  54  81 112 143 185 233 284 336
#     4   9  17  32  53  79 105 139 182 227 276 330
#     4   9  19  37  58  80 111 151 189 227 278 334
#     4  11  21  35  55  84 115 146 185 231 283 335
#     4  11  20  35  58  83 111 145 186 232 280 328
#     4  11  21  33  54  83 113 146 185 228 279 332
#     4  11  21  35  57  83 112 145 186 231 278 333
#
# _framework density 18.714510000000001
#
# number of rings (size 3 to 8) (size 9 to 14) (size 15 to 20)
#    0.000    1.750    2.500    4.125    0.000    1.000 
#    0.000    3.125    0.000    1.500    0.000    0.000 
#    0.000    0.000    0.000    0.000    0.000    0.000 
#
# Total GULP energy -396877.523221 kJ/mol
# GULP energy per Si atom -12402.422601 kJ/mol
# Density = 1.867192 g / cm^3
# Si number density = 18.714510 Si / 1000 Ang^3
#
#
#
# Elastic Constant Matrix: (Units=GPa)
#
#
# Indices 1 2 3 4 5 6 
#
# 1 174.4658 37.3745 60.9397 0.0000 0.0000 0.0000
# 2 37.3745 71.9870 26.4974 0.0000 0.0000 0.0000
# 3 60.9397 26.4974 92.3232 0.0000 0.0000 0.0000
# 4 0.0000 0.0000 0.0000 16.7202 0.0000 0.0000
# 5 0.0000 0.0000 0.0000 0.0000 29.6213 0.0000
# 6 0.0000 0.0000 0.0000 0.0000 0.0000 36.0103
#
#
#
# Elastic Compliance Matrix: (Units=1/GPa)
#
#
# Indices 1 2 3 4 5 6 
#
# 1 0.007806 -0.002411 -0.004461 0.000000 0.000000 0.000000
# 2 -0.002411 0.016277 -0.003080 0.000000 0.000000 0.000000
# 3 -0.004461 -0.003080 0.014660 0.000000 0.000000 0.000000
# 4 0.000000 0.000000 0.000000 0.059808 0.000000 0.000000
# 5 0.000000 0.000000 0.000000 0.000000 0.033759 0.000000
# 6 0.000000 0.000000 0.000000 0.000000 0.000000 0.027770
#
#
# Mechanical properties :
#
#
# Convention : Reuss Voigt Hill
#
# Bulk Modulus (GPa) = 53.08029 65.37769 59.22899
# Shear Modulus (GPa) = 26.84359 30.73466 28.78913
#
# Velocity S-wave (km/s) = 3.79142 4.05691 3.92641
# Velocity P-wave (km/s) = 6.89864 7.54684 7.23001
#
# Compressibility (1/GPa) = 0.01883938
#
# Stress axis : x y z
#
# Youngs Moduli (GPa) = 128.09999 61.43672 68.21295
#
# Poissons Ratio (x) = 0.14812 0.30428
# Poissons Ratio (y) = 0.30885 0.21011
# Poissons Ratio (z) = 0.57143 0.18923
#
# Static dielectric constant tensor:
#      x y z
#    x 3.784160 0.000000 0.000000 
#    y 0.000000 3.313910 0.000000 
#    z 0.000000 0.000000 3.313490 
# 
# 
# High freq. dielectric constant tensor:
#      x y z
#    x 1.748110 0.000000 0.000000 
#    y 0.000000 1.722480 0.000000 
#    z 0.000000 0.000000 1.691980 
# 
# From -- ./inp_files/13128.got.cif
#   From: 2010.03.12/outbox.cif.g09.slc.cpg/sg39_7_cif.got.tgz:13128.got - 2010.04.14 02:53:20.
