data_PCOD8181194
_publ_section_title
;
Structure prediction by ZEFSAII (Michael W. Deem and Ramdas Pophale) SiO2 
 PCOD8181194
Probable space group: A B M 2
;
_chemical_formula_sum "Si O2"
_cell_formula_units_Z 48
_cell_length_a 9.027974
_cell_length_b 17.584866
_cell_length_c 13.787895
_cell_angle_alpha 90.000000
_cell_angle_beta 90.000000
_cell_angle_gamma 90.000000
_cell_volume 2188.907102
_symmetry_space_group_name_H-M "A B M 2"
_symmetry_group_IT_number 39
_symmetry_cell_setting 'orthorhombic'
loop_
_space_group_symop_operation_xyz
x,y,z
-x,-y,z
-x,1/2+y,z
x,1/2-y,z
x,1/2+y,1/2+z
-x,1/2-y,1/2+z
-x,y,1/2+z
x,-y,1/2+z
loop_
_atom_site_type_symbol
_atom_site_label
_atom_site_fract_x
_atom_site_fract_y
_atom_site_fract_z
Si Si1 0.252952 0.082892 0.913610
Si Si2 0.975100 0.837933 0.502489
Si Si3 0.901584 0.665300 0.196906
Si Si4 0.765170 0.409003 0.869631
Si Si5 0.524637 0.088749 0.256681
Si Si6 0.598636 0.834563 0.081401
O O1 0.317788 0.105940 0.807844
O O2 0.095559 0.120341 0.934451
O O3 0.231825 0.992773 0.913447
O O4 0.377559 0.108189 0.991665
O O5 0.015651 0.750000 0.498019
O O6 0.812352 0.855307 0.459946
O O7 0.980411 0.863936 0.615775
O O8 0.942055 0.750000 0.237560
O O9 0.887537 0.604540 0.283961
O O10 0.748693 0.670642 0.140368
O O11 0.605635 0.383526 0.829774
O O12 0.525938 0.132602 0.154402
O O13 0.500000 0.000000 0.235820
O O14 0.551849 0.750000 0.045538
#
# Coordination Sequence:
#
# PCOD8181194 Si02
#       6
#     8   8   8   8   8   8
#     4  10  20  36  56  85 117 149 192 239 291 349
#     4  10  20  36  58  83 115 154 195 243 294 347
#     4   8  16  33  55  78 108 149 194 236 284 343
#     4  10  19  35  57  82 111 150 195 241 295 353
#     4   9  20  36  57  83 113 152 196 242 288 345
#     4   9  18  34  57  81 110 150 188 229 286 345
#
# _framework density 21.928750999999998
#
# number of rings (size 3 to 8) (size 9 to 14) (size 15 to 20)
#    0.000    2.667    0.000    2.500    0.000    4.000 
#    0.000   13.333    0.000    2.000    0.000    0.000 
#    0.000    0.000    0.000    0.000    0.000    0.000 
#
# Total GULP energy -297419.425787 kJ/mol
# GULP energy per Si atom -12392.476074 kJ/mol
# Density = 2.187884 g / cm^3
# Si number density = 21.928751 Si / 1000 Ang^3
#
#
#
# Elastic Constant Matrix: (Units=GPa)
#
#
# Indices 1 2 3 4 5 6 
#
# 1 24.0542 16.0764 15.1974 0.0000 0.0000 0.0000
# 2 16.0764 107.0937 66.7211 0.0000 0.0000 0.0000
# 3 15.1974 66.7211 99.8598 0.0000 0.0000 0.0000
# 4 0.0000 0.0000 0.0000 43.3390 0.0000 0.0000
# 5 0.0000 0.0000 0.0000 0.0000 38.4255 0.0000
# 6 0.0000 0.0000 0.0000 0.0000 0.0000 27.0848
#
#
#
# Elastic Compliance Matrix: (Units=1/GPa)
#
#
# Indices 1 2 3 4 5 6 
#
# 1 0.047214 -0.004473 -0.004197 0.000000 0.000000 0.000000
# 2 -0.004473 0.016420 -0.010290 0.000000 0.000000 0.000000
# 3 -0.004197 -0.010290 0.017528 0.000000 0.000000 0.000000
# 4 0.000000 0.000000 0.000000 0.023074 0.000000 0.000000
# 5 0.000000 0.000000 0.000000 0.000000 0.026024 0.000000
# 6 0.000000 0.000000 0.000000 0.000000 0.000000 0.036921
#
#
# Mechanical properties :
#
#
# Convention : Reuss Voigt Hill
#
# Bulk Modulus (GPa) = 23.12563 47.44416 35.28490
# Shear Modulus (GPa) = 22.77746 30.63740 26.70743
#
# Velocity S-wave (km/s) = 3.22639 3.74188 3.49366
# Velocity P-wave (km/s) = 4.94451 6.35228 5.69208
#
# Compressibility (1/GPa) = 0.04324206
#
# Stress axis : x y z
#
# Youngs Moduli (GPa) = 21.18029 60.90101 57.05093
#
# Poissons Ratio (x) = 0.27240 0.23943
# Poissons Ratio (y) = 0.09474 0.58707
# Poissons Ratio (z) = 0.08889 0.62669
#
# Static dielectric constant tensor:
#      x y z
#    x 3.763780 0.000000 0.000000 
#    y 0.000000 3.910050 0.000000 
#    z 0.000000 0.000000 4.387340 
# 
# 
# High freq. dielectric constant tensor:
#      x y z
#    x 1.836200 0.000000 0.000000 
#    y 0.000000 1.852790 0.000000 
#    z 0.000000 0.000000 1.867370 
# 
# From -- ./inp_files/8343.got.cif
#   From: 2010.03.12/outbox.cif.g09.slc.cpg/sg39_5_cif.got.tgz:8343.got - 2010.04.14 02:53:20.
