data_PCOD8181974
_publ_section_title
;
Structure prediction by ZEFSAII (Michael W. Deem and Ramdas Pophale) SiO2 
 PCOD8181974
Probable space group: A B M 2
;
_chemical_formula_sum "Si O2"
_cell_formula_units_Z 64
_cell_length_a 16.821852
_cell_length_b 20.265825
_cell_length_c 8.492017
_cell_angle_alpha 90.000000
_cell_angle_beta 90.000000
_cell_angle_gamma 90.000000
_cell_volume 2895.002551
_symmetry_space_group_name_H-M "A B M 2"
_symmetry_group_IT_number 39
_symmetry_cell_setting 'orthorhombic'
loop_
_space_group_symop_operation_xyz
x,y,z
-x,-y,z
-x,1/2+y,z
x,1/2-y,z
x,1/2+y,1/2+z
-x,1/2-y,1/2+z
-x,y,1/2+z
x,-y,1/2+z
loop_
_atom_site_type_symbol
_atom_site_label
_atom_site_fract_x
_atom_site_fract_y
_atom_site_fract_z
Si Si1 0.531222 0.176477 0.142660
Si Si2 0.646019 0.904337 0.466867
Si Si3 0.078490 0.427551 0.343120
Si Si4 0.207737 0.825849 0.863946
Si Si5 0.407607 0.484926 0.167666
Si Si6 0.603890 0.132312 0.453422
Si Si7 0.777592 0.175127 0.495093
Si Si8 0.094302 0.066157 0.973890
O O1 0.557879 0.250000 0.181841
O O2 0.552115 0.133592 0.294869
O O3 0.576594 0.149824 0.987200
O O4 0.437983 0.173151 0.096564
O O5 0.728231 0.865139 0.466614
O O6 0.633759 0.946141 0.308946
O O7 0.642628 0.949570 0.625084
O O8 0.124249 0.361724 0.396603
O O9 0.081287 0.436680 0.158053
O O10 0.119550 0.492629 0.419055
O O11 0.987960 0.415772 0.390701
O O12 0.201486 0.750000 0.919635
O O13 0.231207 0.831466 0.681932
O O14 0.500000 0.500000 0.200513
O O15 0.398329 0.443636 0.005417
O O16 0.691683 0.160039 0.420792
O O17 0.803895 0.250000 0.449447
O O18 0.840779 0.121926 0.427828
#
# Coordination Sequence:
#
# PCOD8181974 Si02
#       8
#     8   8   8   8   8   8   8   8
#     4  12  26  44  66  92 129 177 226 276 336 403
#     4  12  25  43  66  93 131 169 219 282 336 402
#     4  10  21  40  68  98 135 170 217 273 322 408
#     4  10  23  42  66  97 132 176 220 269 339 405
#     4  12  25  42  65  97 127 171 225 282 341 398
#     4  12  25  45  66  97 131 176 227 280 337 399
#     4  10  22  42  67  97 136 177 225 275 333 405
#     4  10  21  41  68 102 132 174 217 267 337 392
#
# _framework density 22.107063
#
# number of rings (size 3 to 8) (size 9 to 14) (size 15 to 20)
#    0.000    1.000    2.500    4.875    1.750    0.500 
#    4.500    0.000    0.000    0.000    0.000    0.000 
#    0.000    0.000    0.000    0.000    0.000    0.000 
#
# Total GULP energy -396780.701425 kJ/mol
# GULP energy per Si atom -12399.396920 kJ/mol
# Density = 2.205675 g / cm^3
# Si number density = 22.107063 Si / 1000 Ang^3
#
#
#
# Elastic Constant Matrix: (Units=GPa)
#
#
# Indices 1 2 3 4 5 6 
#
# 1 125.7957 67.9143 44.4790 0.0000 0.0000 0.0000
# 2 67.9143 142.0337 37.8245 0.0000 0.0000 0.0000
# 3 44.4790 37.8245 67.8807 0.0000 0.0000 0.0000
# 4 0.0000 0.0000 0.0000 24.0544 0.0000 0.0000
# 5 0.0000 0.0000 0.0000 0.0000 24.9697 0.0000
# 6 0.0000 0.0000 0.0000 0.0000 0.0000 40.4306
#
#
#
# Elastic Compliance Matrix: (Units=1/GPa)
#
#
# Indices 1 2 3 4 5 6 
#
# 1 0.012304 -0.004387 -0.005618 0.000000 0.000000 0.000000
# 2 -0.004387 0.009832 -0.002604 0.000000 0.000000 0.000000
# 3 -0.005618 -0.002604 0.019864 0.000000 0.000000 0.000000
# 4 0.000000 0.000000 0.000000 0.041572 0.000000 0.000000
# 5 0.000000 0.000000 0.000000 0.000000 0.040049 0.000000
# 6 0.000000 0.000000 0.000000 0.000000 0.000000 0.024734
#
#
# Mechanical properties :
#
#
# Convention : Reuss Voigt Hill
#
# Bulk Modulus (GPa) = 59.58680 70.68286 65.13483
# Shear Modulus (GPa) = 27.90707 30.25709 29.08208
#
# Velocity S-wave (km/s) = 3.55683 3.70356 3.63093
# Velocity P-wave (km/s) = 6.62422 7.09442 6.86335
#
# Compressibility (1/GPa) = 0.01678224
#
# Stress axis : x y z
#
# Youngs Moduli (GPa) = 81.27192 101.71081 50.34338
#
# Poissons Ratio (x) = 0.44624 0.28282
# Poissons Ratio (y) = 0.35657 0.13108
# Poissons Ratio (z) = 0.45656 0.26482
#
# Static dielectric constant tensor:
#      x y z
#    x 3.946540 0.000000 0.000000 
#    y 0.000000 4.333990 0.000000 
#    z 0.000000 0.000000 3.889930 
# 
# 
# High freq. dielectric constant tensor:
#      x y z
#    x 1.855620 0.000000 0.000000 
#    y 0.000000 1.886900 0.000000 
#    z 0.000000 0.000000 1.869250 
# 
# From -- ./inp_files/3863.got.cif
#   From: 2010.03.12/outbox.cif.g09.slc.cpg/sg39_2_cif.got.tgz:3863.got - 2010.04.14 02:53:20.
