data_PCOD8181062
_publ_section_title
;
Structure prediction by ZEFSAII (Michael W. Deem and Ramdas Pophale) SiO2 
 PCOD8181062
Probable space group: A B M 2
;
_chemical_formula_sum "Si O2"
_cell_formula_units_Z 56
_cell_length_a 14.400055
_cell_length_b 8.736814
_cell_length_c 25.323232
_cell_angle_alpha 90.000000
_cell_angle_beta 90.000000
_cell_angle_gamma 90.000000
_cell_volume 3185.931066
_symmetry_space_group_name_H-M "A B M 2"
_symmetry_group_IT_number 39
_symmetry_cell_setting 'orthorhombic'
loop_
_space_group_symop_operation_xyz
x,y,z
-x,-y,z
-x,1/2+y,z
x,1/2-y,z
x,1/2+y,1/2+z
-x,1/2-y,1/2+z
-x,y,1/2+z
x,-y,1/2+z
loop_
_atom_site_type_symbol
_atom_site_label
_atom_site_fract_x
_atom_site_fract_y
_atom_site_fract_z
Si Si1 0.780942 0.430989 0.830830
Si Si2 0.405720 0.071178 0.672865
Si Si3 0.900845 0.568610 0.921744
Si Si4 0.596034 0.931325 0.794352
Si Si5 0.899898 0.429858 0.730375
Si Si6 0.096808 0.929170 0.032974
Si Si7 0.208830 0.428170 0.635687
O O1 0.784932 0.250000 0.838739
O O2 0.824488 0.513575 0.880900
O O3 0.675817 0.488202 0.827956
O O4 0.834079 0.483993 0.778019
O O5 0.418065 0.250000 0.667915
O O6 0.391491 0.020433 0.733341
O O7 0.315331 0.014013 0.640575
O O8 0.500000 0.000000 0.648938
O O9 0.907994 0.750000 0.921728
O O10 0.000000 0.500000 0.905167
O O11 0.870529 0.510226 0.979409
O O12 0.599052 0.750000 0.802232
O O13 0.500000 0.000000 0.816121
O O14 0.910990 0.250000 0.729191
O O15 0.857736 0.482375 0.675120
O O16 0.000000 0.500000 0.740028
O O17 0.081912 0.750000 0.022363
O O18 0.175815 0.960027 0.076298
O O19 0.000000 0.000000 0.053316
O O20 0.202166 0.250000 0.650727
#
# Coordination Sequence:
#
# PCOD8181062 Si02
#       7
#     8   8   8   8   8   8   8
#     4  11  22  36  54  79 108 141 180 220 268 321
#     4   9  18  32  51  76 106 140 176 216 259 311
#     4  11  22  37  57  79 105 139 181 225 270 318
#     4  10  19  33  54  78 109 143 179 221 265 318
#     4  11  23  34  49  74 107 142 174 211 260 317
#     4  10  20  35  55  77 104 138 179 222 265 314
#     4  10  20  35  54  77 107 141 176 217 265 315
#
# _framework density 17.577279000000001
#
# number of rings (size 3 to 8) (size 9 to 14) (size 15 to 20)
#    0.000    1.714    1.429    4.714    0.000    6.286 
#    0.000    0.000    0.000    0.857    0.000    4.000 
#    0.000    0.000    0.000    0.000    0.000    0.000 
#
# Total GULP energy -347302.034729 kJ/mol
# GULP energy per Si atom -12403.644097 kJ/mol
# Density = 1.753727 g / cm^3
# Si number density = 17.577279 Si / 1000 Ang^3
#
#
#
# Elastic Constant Matrix: (Units=GPa)
#
#
# Indices 1 2 3 4 5 6 
#
# 1 143.3431 54.3228 66.8368 0.0000 0.0000 0.0000
# 2 54.3228 90.3302 46.0182 0.0000 0.0000 0.0000
# 3 66.8368 46.0182 87.3358 0.0000 0.0000 0.0000
# 4 0.0000 0.0000 0.0000 25.1775 0.0000 0.0000
# 5 0.0000 0.0000 0.0000 0.0000 -30.0930 0.0000
# 6 0.0000 0.0000 0.0000 0.0000 0.0000 33.3467
#
#
#
# Elastic Compliance Matrix: (Units=1/GPa)
#
#
# Indices 1 2 3 4 5 6 
#
# 1 0.011538 -0.003336 -0.007072 0.000000 0.000000 0.000000
# 2 -0.003336 0.016097 -0.005929 0.000000 0.000000 0.000000
# 3 -0.007072 -0.005929 0.019986 0.000000 0.000000 0.000000
# 4 0.000000 0.000000 0.000000 0.039718 0.000000 0.000000
# 5 0.000000 0.000000 0.000000 0.000000 -0.033230 0.000000
# 6 0.000000 0.000000 0.000000 0.000000 0.000000 0.029988
#
#
# Mechanical properties :
#
#
# Convention : Reuss Voigt Hill
#
# Bulk Modulus (GPa) = 66.90044 72.81831 69.85938
# Shear Modulus (GPa) = 41.06671 15.94166 28.50418
#
# Velocity S-wave (km/s) = 4.83883 3.01482 4.03134
# Velocity P-wave (km/s) = 8.32841 7.32368 7.84215
#
# Compressibility (1/GPa) = 0.01494758
#
# Stress axis : x y z
#
# Youngs Moduli (GPa) = 86.67011 62.12335 50.03444
#
# Poissons Ratio (x) = 0.20723 0.35385
# Poissons Ratio (y) = 0.28912 0.29664
# Poissons Ratio (z) = 0.61295 0.36832
#
# Static dielectric constant tensor:
#      x y z
#    x 3.443910 0.000000 0.000000 
#    y 0.000000 3.338490 0.000000 
#    z 0.000000 0.000000 3.152220 
# 
# 
# High freq. dielectric constant tensor:
#      x y z
#    x 1.684650 0.000000 0.000000 
#    y 0.000000 1.692040 0.000000 
#    z 0.000000 0.000000 1.660600 
# 
# From -- ./inp_files/14799.got.cif
#   From: 2010.03.12/outbox.cif.g09.slc.cpg/sg39_8_cif.got.tgz:14799.got - 2010.04.14 02:53:20.
