data_PCOD8181886
_publ_section_title
;
Structure prediction by ZEFSAII (Michael W. Deem and Ramdas Pophale) SiO2 
 PCOD8181886
Probable space group: A B M 2
;
_chemical_formula_sum "Si O2"
_cell_formula_units_Z 64
_cell_length_a 8.782841
_cell_length_b 16.898420
_cell_length_c 20.335974
_cell_angle_alpha 90.000000
_cell_angle_beta 90.000000
_cell_angle_gamma 90.000000
_cell_volume 3018.186683
_symmetry_space_group_name_H-M "A B M 2"
_symmetry_group_IT_number 39
_symmetry_cell_setting 'orthorhombic'
loop_
_space_group_symop_operation_xyz
x,y,z
-x,-y,z
-x,1/2+y,z
x,1/2-y,z
x,1/2+y,1/2+z
-x,1/2-y,1/2+z
-x,y,1/2+z
x,-y,1/2+z
loop_
_atom_site_type_symbol
_atom_site_label
_atom_site_fract_x
_atom_site_fract_y
_atom_site_fract_z
Si Si1 0.314483 0.417230 0.037760
Si Si2 0.892847 0.921396 0.165846
Si Si3 0.812562 0.840134 0.656838
Si Si4 0.652641 0.656481 0.788444
Si Si5 0.833320 0.341294 0.912597
Si Si6 0.169326 0.656699 0.414206
Si Si7 0.306979 0.344514 0.276475
Si Si8 0.656618 0.905670 0.533416
O O1 0.219807 0.423534 0.104414
O O2 0.482703 0.381041 0.048784
O O3 0.329621 0.504804 0.008210
O O4 0.235444 0.361238 0.985426
O O5 0.789669 0.900832 0.228633
O O6 0.005425 0.847341 0.155539
O O7 0.000000 0.000000 0.174035
O O8 0.763286 0.750000 0.643485
O O9 0.755194 0.871101 0.727368
O O10 0.744658 0.896486 0.601537
O O11 0.651643 0.750000 0.795630
O O12 0.725972 0.620217 0.855441
O O13 0.482028 0.627853 0.773451
O O14 0.867614 0.250000 0.906590
O O15 0.742260 0.369606 0.849250
O O16 0.000146 0.382305 0.913445
O O17 0.732413 0.353107 0.977293
O O18 0.162620 0.750000 0.404596
O O19 0.285919 0.250000 0.261636
#
# Coordination Sequence:
#
# PCOD8181886 Si02
#       8
#     8   8   8   8   8   8   8   8
#     4  11  25  41  60  85 127 166 209 258 317 373
#     4  12  24  42  61  90 127 168 209 265 317 380
#     4  11  22  39  66  92 121 162 208 258 311 373
#     4   9  19  38  64  96 126 157 205 262 314 371
#     4  10  21  39  65  94 125 159 206 259 311 373
#     4  10  21  38  64  95 125 163 207 257 312 374
#     4  10  21  40  65  92 125 164 208 261 318 379
#     4  11  23  42  60  89 124 167 209 259 313 375
#
# _framework density 21.204785999999999
#
# number of rings (size 3 to 8) (size 9 to 14) (size 15 to 20)
#    0.000    1.500    1.250    3.750    0.000    6.000 
#    4.500    0.000    0.000    0.000    0.000    0.000 
#    0.000    0.000    0.000    0.000    0.000    0.000 
#
# Total GULP energy -396716.360206 kJ/mol
# GULP energy per Si atom -12397.386256 kJ/mol
# Density = 2.115652 g / cm^3
# Si number density = 21.204786 Si / 1000 Ang^3
#
#
#
# Elastic Constant Matrix: (Units=GPa)
#
#
# Indices 1 2 3 4 5 6 
#
# 1 175.7137 26.9368 63.8079 0.0000 0.0000 0.0000
# 2 26.9368 31.1596 25.5966 0.0000 0.0000 0.0000
# 3 63.8079 25.5966 127.6654 0.0000 0.0000 0.0000
# 4 0.0000 0.0000 0.0000 21.4684 0.0000 0.0000
# 5 0.0000 0.0000 0.0000 0.0000 36.2399 0.0000
# 6 0.0000 0.0000 0.0000 0.0000 0.0000 25.6779
#
#
#
# Elastic Compliance Matrix: (Units=1/GPa)
#
#
# Indices 1 2 3 4 5 6 
#
# 1 0.007346 -0.003992 -0.002871 0.000000 0.000000 0.000000
# 2 -0.003992 0.040590 -0.006143 0.000000 0.000000 0.000000
# 3 -0.002871 -0.006143 0.010500 0.000000 0.000000 0.000000
# 4 0.000000 0.000000 0.000000 0.046580 0.000000 0.000000
# 5 0.000000 0.000000 0.000000 0.000000 0.027594 0.000000
# 6 0.000000 0.000000 0.000000 0.000000 0.000000 0.038944
#
#
# Mechanical properties :
#
#
# Convention : Reuss Voigt Hill
#
# Bulk Modulus (GPa) = 30.84187 63.02461 46.93324
# Shear Modulus (GPa) = 23.99549 31.22372 27.60960
#
# Velocity S-wave (km/s) = 3.36759 3.84146 3.61230
# Velocity P-wave (km/s) = 5.44951 7.03293 6.29124
#
# Compressibility (1/GPa) = 0.03242345
#
# Stress axis : x y z
#
# Youngs Moduli (GPa) = 136.13641 24.63671 95.24154
#
# Poissons Ratio (x) = 0.09834 0.27344
# Poissons Ratio (y) = 0.54341 0.58508
# Poissons Ratio (z) = 0.39085 0.15135
#
# Static dielectric constant tensor:
#      x y z
#    x 4.434050 0.000000 0.000000 
#    y 0.000000 3.569410 0.000000 
#    z 0.000000 0.000000 3.821190 
# 
# 
# High freq. dielectric constant tensor:
#      x y z
#    x 1.854360 0.000000 0.000000 
#    y 0.000000 1.806370 0.000000 
#    z 0.000000 0.000000 1.839200 
# 
# From -- ./inp_files/11956.got.cif
#   From: 2010.03.12/outbox.cif.g09.slc.cpg/sg39_6_cif.got.tgz:11956.got - 2010.04.14 02:53:20.
