data_PCOD8181033
_publ_section_title
;
Structure prediction by ZEFSAII (Michael W. Deem and Ramdas Pophale) SiO2 
 PCOD8181033
Probable space group: A B M 2
;
_chemical_formula_sum "Si O2"
_cell_formula_units_Z 64
_cell_length_a 14.356363
_cell_length_b 8.866447
_cell_length_c 31.490815
_cell_angle_alpha 90.000000
_cell_angle_beta 90.000000
_cell_angle_gamma 90.000000
_cell_volume 4008.463689
_symmetry_space_group_name_H-M "A B M 2"
_symmetry_group_IT_number 39
_symmetry_cell_setting 'orthorhombic'
loop_
_space_group_symop_operation_xyz
x,y,z
-x,-y,z
-x,1/2+y,z
x,1/2-y,z
x,1/2+y,1/2+z
-x,1/2-y,1/2+z
-x,y,1/2+z
x,-y,1/2+z
loop_
_atom_site_type_symbol
_atom_site_label
_atom_site_fract_x
_atom_site_fract_y
_atom_site_fract_z
Si Si1 0.405334 0.426002 0.304240
Si Si2 0.898677 0.071713 0.690729
Si Si3 0.595935 0.072435 0.903062
Si Si4 0.788460 0.070944 0.771121
Si Si5 0.901346 0.425564 0.599135
Si Si6 0.219192 0.070774 0.927695
Si Si7 0.100524 0.070762 0.353244
Si Si8 0.100507 0.572888 0.507479
O O1 0.500000 0.500000 0.286794
O O2 0.416105 0.250000 0.296858
O O3 0.389043 0.463855 0.353514
O O4 0.316153 0.492125 0.278737
O O5 0.910905 0.250000 0.696262
O O6 0.828184 0.008658 0.726487
O O7 0.852861 0.030082 0.644250
O O8 0.000000 0.000000 0.696953
O O9 0.596717 0.250000 0.912160
O O10 0.500000 0.000000 0.919129
O O11 0.675958 0.989922 0.929703
O O12 0.782806 0.250000 0.771707
O O13 0.857674 0.017165 0.808297
O O14 0.919017 0.250000 0.599321
O O15 0.854042 0.471473 0.553984
O O16 0.000000 0.500000 0.599770
O O17 0.217205 0.250000 0.921390
O O18 0.171617 0.018460 0.971611
O O19 0.167190 0.989732 0.889554
O O20 0.094061 0.250000 0.356759
O O21 0.000000 0.000000 0.359367
O O22 0.084563 0.750000 0.504144
O O23 0.000000 0.500000 0.500146
#
# Coordination Sequence:
#
# PCOD8181033 Si02
#       8
#     8   8   8   8   8   8   8   8
#     4   9  17  31  47  64  85 112 143 181 223 261
#     4   9  16  27  45  65  88 117 148 181 218 264
#     4  10  19  33  51  69  90 117 148 190 232 270
#     4   9  17  30  45  63  89 118 147 180 221 265
#     4   8  14  26  43  63  85 112 146 184 224 261
#     4  11  21  32  46  66  90 121 156 189 224 267
#     4  11  21  33  44  60  90 125 156 187 220 262
#     4   9  18  30  44  64  91 119 151 189 225 265
#
# _framework density 15.966217
#
# number of rings (size 3 to 8) (size 9 to 14) (size 15 to 20)
#    0.000    2.500    1.250    1.875    0.000    2.500 
#    0.000    1.250    0.000    0.000    0.000    0.875 
#    0.000    2.000    0.000    0.000    0.000    0.000 
#
# Total GULP energy -396523.687070 kJ/mol
# GULP energy per Si atom -12391.365221 kJ/mol
# Density = 1.592988 g / cm^3
# Si number density = 15.966217 Si / 1000 Ang^3
#
#
#
# Elastic Constant Matrix: (Units=GPa)
#
#
# Indices 1 2 3 4 5 6 
#
# 1 111.7572 27.6079 57.6466 0.0000 0.0000 0.0000
# 2 27.6079 35.8297 30.6589 0.0000 0.0000 0.0000
# 3 57.6466 30.6589 130.7936 0.0000 0.0000 0.0000
# 4 0.0000 0.0000 0.0000 21.3634 0.0000 0.0000
# 5 0.0000 0.0000 0.0000 0.0000 11.2518 0.0000
# 6 0.0000 0.0000 0.0000 0.0000 0.0000 25.4233
#
#
#
# Elastic Compliance Matrix: (Units=1/GPa)
#
#
# Indices 1 2 3 4 5 6 
#
# 1 0.012592 -0.006197 -0.004097 0.000000 0.000000 0.000000
# 2 -0.006197 0.037962 -0.006167 0.000000 0.000000 0.000000
# 3 -0.004097 -0.006167 0.010897 0.000000 0.000000 0.000000
# 4 0.000000 0.000000 0.000000 0.046809 0.000000 0.000000
# 5 0.000000 0.000000 0.000000 0.000000 0.088875 0.000000
# 6 0.000000 0.000000 0.000000 0.000000 0.000000 0.039334
#
#
# Mechanical properties :
#
#
# Convention : Reuss Voigt Hill
#
# Bulk Modulus (GPa) = 35.05274 56.68969 45.87121
# Shear Modulus (GPa) = 17.92748 22.43885 20.18317
#
# Velocity S-wave (km/s) = 3.35451 3.75293 3.55930
# Velocity P-wave (km/s) = 6.08323 7.37309 6.75900
#
# Compressibility (1/GPa) = 0.02852844
#
# Stress axis : x y z
#
# Youngs Moduli (GPa) = 79.41369 26.34227 91.76636
#
# Poissons Ratio (x) = 0.16323 0.37601
# Poissons Ratio (y) = 0.49210 0.56596
# Poissons Ratio (z) = 0.32539 0.16246
#
# Static dielectric constant tensor:
#      x y z
#    x 3.068660 0.000000 0.000000 
#    y 0.000000 2.434250 0.000000 
#    z 0.000000 0.000000 3.585550 
# 
# 
# High freq. dielectric constant tensor:
#      x y z
#    x 1.594090 0.000000 0.000000 
#    y 0.000000 1.609860 0.000000 
#    z 0.000000 0.000000 1.610960 
# 
# From -- ./inp_files/17972.got.cif
#   From: 2010.03.12/outbox.cif.g09.slc.cpg/sg39_9_cif.got.tgz:17972.got - 2010.04.14 02:53:20.
