data_PCOD8181973
_publ_section_title
;
Structure prediction by ZEFSAII (Michael W. Deem and Ramdas Pophale) SiO2 
 PCOD8181973
Probable space group: A B M 2
;
_chemical_formula_sum "Si O2"
_cell_formula_units_Z 64
_cell_length_a 11.737552
_cell_length_b 17.432289
_cell_length_c 15.054451
_cell_angle_alpha 90.000000
_cell_angle_beta 90.000000
_cell_angle_gamma 90.000000
_cell_volume 3080.327329
_symmetry_space_group_name_H-M "A B M 2"
_symmetry_group_IT_number 39
_symmetry_cell_setting 'orthorhombic'
loop_
_space_group_symop_operation_xyz
x,y,z
-x,-y,z
-x,1/2+y,z
x,1/2-y,z
x,1/2+y,1/2+z
-x,1/2-y,1/2+z
-x,y,1/2+z
x,-y,1/2+z
loop_
_atom_site_type_symbol
_atom_site_label
_atom_site_fract_x
_atom_site_fract_y
_atom_site_fract_z
Si Si1 0.787333 0.334957 0.682990
Si Si2 0.059536 0.663342 0.512052
Si Si3 0.791247 0.567833 0.900214
Si Si4 0.161117 0.438138 0.541581
Si Si5 0.131258 0.509800 0.730839
Si Si6 0.525395 0.838183 0.210591
Si Si7 0.616541 0.660443 0.542269
Si Si8 0.531837 0.912873 0.893997
O O1 0.812667 0.250000 0.723521
O O2 0.843275 0.341959 0.586535
O O3 0.838458 0.400493 0.746966
O O4 0.652954 0.348360 0.674513
O O5 0.013902 0.750000 0.500399
O O6 0.119892 0.636297 0.420848
O O7 0.957562 0.606970 0.538051
O O8 0.798208 0.543323 0.797752
O O9 0.664403 0.598839 0.916187
O O10 0.826527 0.495820 0.960268
O O11 0.165890 0.486301 0.631874
O O12 0.261486 0.377894 0.535799
O O13 0.000000 0.500000 0.752237
O O14 0.500270 0.750000 0.236316
O O15 0.444493 0.867465 0.131896
O O16 0.500375 0.891987 0.293758
O O17 0.638090 0.750000 0.543990
O O18 0.539698 0.641628 0.457738
O O19 0.500000 0.000000 0.913366
#
# Coordination Sequence:
#
# PCOD8181973 Si02
#       8
#     8   8   8   8   8   8   8   8
#     4  10  21  40  68  98 128 172 222 270 336 398
#     4  11  23  44  70  98 135 178 223 278 337 399
#     4  12  25  43  68 101 134 174 228 274 335 404
#     4  12  23  45  65  97 137 175 226 277 337 399
#     4  12  23  42  68  99 134 177 219 278 338 400
#     4  10  23  43  66  94 132 172 216 274 331 395
#     4  11  25  43  66  95 130 177 224 274 337 399
#     4  12  24  43  65 100 133 172 221 273 333 397
#
# _framework density 20.777011999999999
#
# number of rings (size 3 to 8) (size 9 to 14) (size 15 to 20)
#    0.000    0.750    3.750    4.125    0.000    2.500 
#    0.000    3.750    0.000    0.000    0.000    0.000 
#    0.000    0.000    0.000    0.000    0.000    0.000 
#
# Total GULP energy -396952.900338 kJ/mol
# GULP energy per Si atom -12404.778136 kJ/mol
# Density = 2.072972 g / cm^3
# Si number density = 20.777012 Si / 1000 Ang^3
#
#
#
# Elastic Constant Matrix: (Units=GPa)
#
#
# Indices 1 2 3 4 5 6 
#
# 1 93.7440 38.6165 23.1269 0.0000 0.0000 0.0000
# 2 38.6165 82.1474 27.4733 0.0000 0.0000 0.0000
# 3 23.1269 27.4733 81.1966 0.0000 0.0000 0.0000
# 4 0.0000 0.0000 0.0000 28.5306 0.0000 0.0000
# 5 0.0000 0.0000 0.0000 0.0000 30.3502 0.0000
# 6 0.0000 0.0000 0.0000 0.0000 0.0000 26.3954
#
#
#
# Elastic Compliance Matrix: (Units=1/GPa)
#
#
# Indices 1 2 3 4 5 6 
#
# 1 0.013488 -0.005701 -0.001913 0.000000 0.000000 0.000000
# 2 -0.005701 0.016136 -0.003836 0.000000 0.000000 0.000000
# 3 -0.001913 -0.003836 0.014159 0.000000 0.000000 0.000000
# 4 0.000000 0.000000 0.000000 0.035050 0.000000 0.000000
# 5 0.000000 0.000000 0.000000 0.000000 0.032949 0.000000
# 6 0.000000 0.000000 0.000000 0.000000 0.000000 0.037885
#
#
# Mechanical properties :
#
#
# Convention : Reuss Voigt Hill
#
# Bulk Modulus (GPa) = 47.88531 48.39126 48.13829
# Shear Modulus (GPa) = 27.85113 28.24667 28.04890
#
# Velocity S-wave (km/s) = 3.66523 3.69116 3.67822
# Velocity P-wave (km/s) = 6.40384 6.44264 6.42327
#
# Compressibility (1/GPa) = 0.02088323
#
# Stress axis : x y z
#
# Youngs Moduli (GPa) = 74.14262 61.97349 70.62890
#
# Poissons Ratio (x) = 0.35329 0.13510
# Poissons Ratio (y) = 0.42266 0.27093
# Poissons Ratio (z) = 0.14182 0.23773
#
# Static dielectric constant tensor:
#      x y z
#    x 3.832880 0.000000 0.000000 
#    y 0.000000 4.087460 0.000000 
#    z 0.000000 0.000000 3.693230 
# 
# 
# High freq. dielectric constant tensor:
#      x y z
#    x 1.828110 0.000000 0.000000 
#    y 0.000000 1.825010 0.000000 
#    z 0.000000 0.000000 1.808400 
# 
# From -- ./inp_files/9436.got.cif
#   From: 2010.03.12/outbox.cif.g09.slc.cpg/sg39_5_cif.got.tgz:9436.got - 2010.04.14 02:53:20.
