data_PCOD8181389
_publ_section_title
;
Structure prediction by ZEFSAII (Michael W. Deem and Ramdas Pophale) SiO2 
 PCOD8181389
Probable space group: A B M 2
;
_chemical_formula_sum "Si O2"
_cell_formula_units_Z 56
_cell_length_a 23.478350
_cell_length_b 8.950482
_cell_length_c 14.369324
_cell_angle_alpha 90.000000
_cell_angle_beta 90.000000
_cell_angle_gamma 90.000000
_cell_volume 3019.606374
_symmetry_space_group_name_H-M "A B M 2"
_symmetry_group_IT_number 39
_symmetry_cell_setting 'orthorhombic'
loop_
_space_group_symop_operation_xyz
x,y,z
-x,-y,z
-x,1/2+y,z
x,1/2-y,z
x,1/2+y,1/2+z
-x,1/2-y,1/2+z
-x,y,1/2+z
x,-y,1/2+z
loop_
_atom_site_type_symbol
_atom_site_label
_atom_site_fract_x
_atom_site_fract_y
_atom_site_fract_z
Si Si1 0.059907 0.074516 0.827340
Si Si2 0.648436 0.078891 0.322124
Si Si3 0.844922 0.924775 0.975602
Si Si4 0.443795 0.576042 0.167918
Si Si5 0.139534 0.074192 0.186574
Si Si6 0.442547 0.073261 0.972684
Si Si7 0.233434 0.575679 0.835002
O O1 0.052213 0.250000 0.814629
O O2 0.099439 0.034530 0.915515
O O3 0.085732 0.008904 0.732015
O O4 0.000000 0.000000 0.848921
O O5 0.668392 0.250000 0.330403
O O6 0.610687 0.052948 0.231483
O O7 0.611221 0.030169 0.410267
O O8 0.702919 0.974927 0.314475
O O9 0.832830 0.750000 0.976445
O O10 0.789964 0.000407 0.929065
O O11 0.852841 0.983918 0.080936
O O12 0.500000 0.500000 0.213077
O O13 0.456845 0.750000 0.150516
O O14 0.429122 0.493208 0.072892
O O15 0.127009 0.250000 0.188744
O O16 0.195772 0.031782 0.245150
O O17 0.451658 0.250000 0.976519
O O18 0.500000 0.000000 0.931122
O O19 0.232288 0.750000 0.852806
#
# Coordination Sequence:
#
# PCOD8181389 Si02
#       7
#     8   8   8   8   8   8   8
#     4  10  20  34  54  81 111 142 174 214 257 302
#     4  10  22  37  53  74 104 139 173 211 260 313
#     4   9  19  37  58  77 105 143 177 212 260 309
#     4  10  20  35  54  77 104 135 170 212 260 313
#     4   9  19  37  57  78 105 139 177 216 259 308
#     4  10  20  35  54  76 102 134 169 210 259 312
#     4  10  21  35  54  79 105 134 174 221 262 305
#
# _framework density 18.545463000000002
#
# number of rings (size 3 to 8) (size 9 to 14) (size 15 to 20)
#    0.000    2.286    0.000    3.000    0.000    5.714 
#    0.000    5.714    0.000    0.000    0.000    0.000 
#    0.000    0.000    0.000    0.000    0.000    0.000 
#
# Total GULP energy -347251.226257 kJ/mol
# GULP energy per Si atom -12401.829509 kJ/mol
# Density = 1.850325 g / cm^3
# Si number density = 18.545463 Si / 1000 Ang^3
#
#
#
# Elastic Constant Matrix: (Units=GPa)
#
#
# Indices 1 2 3 4 5 6 
#
# 1 113.1668 39.6923 43.1732 0.0000 0.0000 0.0000
# 2 39.6923 61.2400 33.1112 0.0000 0.0000 0.0000
# 3 43.1732 33.1112 113.7871 0.0000 0.0000 0.0000
# 4 0.0000 0.0000 0.0000 25.1049 0.0000 0.0000
# 5 0.0000 0.0000 0.0000 0.0000 -53.4706 0.0000
# 6 0.0000 0.0000 0.0000 0.0000 0.0000 37.8168
#
#
#
# Elastic Compliance Matrix: (Units=1/GPa)
#
#
# Indices 1 2 3 4 5 6 
#
# 1 0.012118 -0.006370 -0.002744 0.000000 0.000000 0.000000
# 2 -0.006370 0.022727 -0.004196 0.000000 0.000000 0.000000
# 3 -0.002744 -0.004196 0.011051 0.000000 0.000000 0.000000
# 4 0.000000 0.000000 0.000000 0.039833 0.000000 0.000000
# 5 0.000000 0.000000 0.000000 0.000000 -0.018702 0.000000
# 6 0.000000 0.000000 0.000000 0.000000 0.000000 0.026443
#
#
# Mechanical properties :
#
#
# Convention : Reuss Voigt Hill
#
# Bulk Modulus (GPa) = 51.88372 57.79414 54.83893
# Shear Modulus (GPa) = 39.52086 13.37137 26.44611
#
# Velocity S-wave (km/s) = 4.62131 2.68807 3.78036
# Velocity P-wave (km/s) = 7.51749 6.39261 6.97775
#
# Compressibility (1/GPa) = 0.01927387
#
# Stress axis : x y z
#
# Youngs Moduli (GPa) = 82.52387 44.00058 90.49311
#
# Poissons Ratio (x) = 0.28030 0.24831
# Poissons Ratio (y) = 0.52571 0.37974
# Poissons Ratio (z) = 0.22644 0.18464
#
# Static dielectric constant tensor:
#      x y z
#    x 3.474490 0.000000 0.000000 
#    y 0.000000 3.445890 0.000000 
#    z 0.000000 0.000000 3.646430 
# 
# 
# High freq. dielectric constant tensor:
#      x y z
#    x 1.719310 0.000000 0.000000 
#    y 0.000000 1.725660 0.000000 
#    z 0.000000 0.000000 1.724440 
# 
# From -- ./inp_files/10352.got.cif
#   From: 2010.03.12/outbox.cif.g09.slc.cpg/sg39_6_cif.got.tgz:10352.got - 2010.04.14 02:53:20.
