data_PCOD8181265
_publ_section_title
;
Structure prediction by ZEFSAII (Michael W. Deem and Ramdas Pophale) SiO2 
 PCOD8181265
Probable space group: A B M 2
;
_chemical_formula_sum "Si O2"
_cell_formula_units_Z 64
_cell_length_a 9.088067
_cell_length_b 26.884475
_cell_length_c 13.671742
_cell_angle_alpha 90.000000
_cell_angle_beta 90.000000
_cell_angle_gamma 90.000000
_cell_volume 3340.388150
_symmetry_space_group_name_H-M "A B M 2"
_symmetry_group_IT_number 39
_symmetry_cell_setting 'orthorhombic'
loop_
_space_group_symop_operation_xyz
x,y,z
-x,-y,z
-x,1/2+y,z
x,1/2-y,z
x,1/2+y,1/2+z
-x,1/2-y,1/2+z
-x,y,1/2+z
x,-y,1/2+z
loop_
_atom_site_type_symbol
_atom_site_label
_atom_site_fract_x
_atom_site_fract_y
_atom_site_fract_z
Si Si1 0.616799 0.460530 0.841000
Si Si2 0.841657 0.018971 0.682848
Si Si3 0.758921 0.194351 0.223029
Si Si4 0.802474 0.134100 0.658882
Si Si5 0.928816 0.659171 0.544221
Si Si6 0.263188 0.565042 0.047203
Si Si7 0.052846 0.192313 0.325820
Si Si8 0.484568 0.616226 0.190356
O O1 0.500000 0.500000 0.880415
O O2 0.732578 0.490128 0.773555
O O3 0.538587 0.417081 0.780252
O O4 0.696243 0.437428 0.934037
O O5 0.846928 0.076547 0.656335
O O6 0.787136 0.988308 0.588172
O O7 0.000000 0.000000 0.717600
O O8 0.703169 0.250000 0.244081
O O9 0.828811 0.192765 0.114819
O O10 0.620161 0.158395 0.234734
O O11 0.884120 0.178020 0.300648
O O12 0.837438 0.157686 0.764511
O O13 0.628332 0.140801 0.638753
O O14 0.899729 0.161613 0.576492
O O15 0.873294 0.602625 0.553981
O O16 0.913725 0.682027 0.438015
O O17 0.402798 0.583591 0.109160
O O18 0.082076 0.250000 0.300509
#
# Coordination Sequence:
#
# PCOD8181265 Si02
#       8
#     8   8   8   8   8   8   8   8
#     4  11  24  37  60  86 119 164 201 244 299 356
#     4  11  22  42  59  87 124 160 205 254 289 357
#     4   9  20  38  62  86 117 157 194 242 307 358
#     4  10  22  37  61  87 117 155 201 245 298 350
#     4  10  19  38  60  88 118 152 200 249 296 355
#     4  11  23  40  57  87 124 163 203 243 305 353
#     4  10  21  39  63  88 118 153 197 253 303 359
#     4  10  22  41  58  86 124 159 198 251 291 364
#
# _framework density 19.159451000000001
#
# number of rings (size 3 to 8) (size 9 to 14) (size 15 to 20)
#    0.000    1.750    2.500    1.875    3.500    2.500 
#    2.250    0.000    0.000    3.750    0.000    0.000 
#    0.000    0.000    0.000    0.000    0.000    0.000 
#
# Total GULP energy -396854.365607 kJ/mol
# GULP energy per Si atom -12401.698925 kJ/mol
# Density = 1.911584 g / cm^3
# Si number density = 19.159451 Si / 1000 Ang^3
#
#
#
# Elastic Constant Matrix: (Units=GPa)
#
#
# Indices 1 2 3 4 5 6 
#
# 1 121.9213 41.1113 27.7334 0.0000 0.0000 0.0000
# 2 41.1113 78.9830 20.0062 0.0000 0.0000 0.0000
# 3 27.7334 20.0062 101.3939 0.0000 0.0000 0.0000
# 4 0.0000 0.0000 0.0000 25.1489 0.0000 0.0000
# 5 0.0000 0.0000 0.0000 0.0000 20.8584 0.0000
# 6 0.0000 0.0000 0.0000 0.0000 0.0000 24.9877
#
#
#
# Elastic Compliance Matrix: (Units=1/GPa)
#
#
# Indices 1 2 3 4 5 6 
#
# 1 0.010266 -0.004876 -0.001846 0.000000 0.000000 0.000000
# 2 -0.004876 0.015643 -0.001753 0.000000 0.000000 0.000000
# 3 -0.001846 -0.001753 0.010713 0.000000 0.000000 0.000000
# 4 0.000000 0.000000 0.000000 0.039763 0.000000 0.000000
# 5 0.000000 0.000000 0.000000 0.000000 0.047942 0.000000
# 6 0.000000 0.000000 0.000000 0.000000 0.000000 0.040020
#
#
# Mechanical properties :
#
#
# Convention : Reuss Voigt Hill
#
# Bulk Modulus (GPa) = 50.83164 53.33334 52.08249
# Shear Modulus (GPa) = 26.61635 28.42883 27.52259
#
# Velocity S-wave (km/s) = 3.73124 3.85619 3.79423
# Velocity P-wave (km/s) = 6.71948 6.90825 6.81452
#
# Compressibility (1/GPa) = 0.01967279
#
# Stress axis : x y z
#
# Youngs Moduli (GPa) = 97.40829 63.92655 93.34215
#
# Poissons Ratio (x) = 0.31171 0.17230
# Poissons Ratio (y) = 0.47496 0.16361
# Poissons Ratio (z) = 0.17981 0.11205
#
# Static dielectric constant tensor:
#      x y z
#    x 3.721430 0.000000 0.000000 
#    y 0.000000 3.487090 0.000000 
#    z 0.000000 0.000000 3.328240 
# 
# 
# High freq. dielectric constant tensor:
#      x y z
#    x 1.753050 0.000000 0.000000 
#    y 0.000000 1.748350 0.000000 
#    z 0.000000 0.000000 1.736400 
# 
# From -- ./inp_files/5394.got.cif
#   From: 2010.03.12/outbox.cif.g09.slc.cpg/sg39_3_cif.got.tgz:5394.got - 2010.04.14 02:53:20.
