data_PCOD8181721
_publ_section_title
;
Structure prediction by ZEFSAII (Michael W. Deem and Ramdas Pophale) SiO2 
 PCOD8181721
Probable space group: A B M 2
;
_chemical_formula_sum "Si O2"
_cell_formula_units_Z 48
_cell_length_a 14.598077
_cell_length_b 16.195826
_cell_length_c 9.056995
_cell_angle_alpha 90.000000
_cell_angle_beta 90.000000
_cell_angle_gamma 90.000000
_cell_volume 2141.326444
_symmetry_space_group_name_H-M "A B M 2"
_symmetry_group_IT_number 39
_symmetry_cell_setting 'orthorhombic'
loop_
_space_group_symop_operation_xyz
x,y,z
-x,-y,z
-x,1/2+y,z
x,1/2-y,z
x,1/2+y,1/2+z
-x,1/2-y,1/2+z
-x,y,1/2+z
x,-y,1/2+z
loop_
_atom_site_type_symbol
_atom_site_label
_atom_site_fract_x
_atom_site_fract_y
_atom_site_fract_z
Si Si1 0.384841 0.910693 0.901510
Si Si2 0.953852 0.344363 0.164013
Si Si3 0.306421 0.592274 0.394101
Si Si4 0.117307 0.154410 0.984074
Si Si5 0.759525 0.154925 0.092533
Si Si6 0.454231 0.844037 0.591724
O O1 0.422337 0.888633 0.741225
O O2 0.354505 0.004691 0.914450
O O3 0.293990 0.856503 0.938454
O O4 0.460134 0.893576 0.026417
O O5 0.962852 0.250000 0.112522
O O6 0.943968 0.354075 0.337797
O O7 0.862866 0.381817 0.083769
O O8 0.050697 0.383723 0.111016
O O9 0.207593 0.597646 0.474508
O O10 0.297911 0.610165 0.221077
O O11 0.372568 0.658044 0.472789
O O12 0.147413 0.250000 0.008746
O O13 0.767849 0.250000 0.139288
O O14 0.483378 0.750000 0.626940
#
# Coordination Sequence:
#
# PCOD8181721 Si02
#       6
#     8   8   8   8   8   8
#     4  12  26  43  64  93 126 161 202 258 320 376
#     4   8  16  30  56  89 123 160 207 257 300 349
#     4  11  23  40  63  93 129 166 203 256 318 372
#     4   9  17  34  59  91 125 165 210 256 304 361
#     4  10  20  40  65  92 125 168 213 256 303 366
#     4  12  25  43  65  92 122 162 209 257 309 378
#
# _framework density 22.416011999999998
#
# number of rings (size 3 to 8) (size 9 to 14) (size 15 to 20)
#    0.000    1.667    0.000    6.500    0.000    2.667 
#    0.000    4.167    0.000    4.000    0.000    0.000 
#    0.000    0.000    0.000    0.000    0.000    0.000 
#
# Total GULP energy -297529.512722 kJ/mol
# GULP energy per Si atom -12397.063030 kJ/mol
# Density = 2.236499 g / cm^3
# Si number density = 22.416012 Si / 1000 Ang^3
#
#
#
# Elastic Constant Matrix: (Units=GPa)
#
#
# Indices 1 2 3 4 5 6 
#
# 1 109.2935 57.3266 35.6069 0.0000 0.0000 0.0000
# 2 57.3266 95.9578 37.6396 0.0000 0.0000 0.0000
# 3 35.6069 37.6396 48.4728 0.0000 0.0000 0.0000
# 4 0.0000 0.0000 0.0000 27.1549 0.0000 0.0000
# 5 0.0000 0.0000 0.0000 0.0000 54.7208 0.0000
# 6 0.0000 0.0000 0.0000 0.0000 0.0000 26.9593
#
#
#
# Elastic Compliance Matrix: (Units=1/GPa)
#
#
# Indices 1 2 3 4 5 6 
#
# 1 0.014298 -0.006359 -0.005565 0.000000 0.000000 0.000000
# 2 -0.006359 0.017814 -0.009161 0.000000 0.000000 0.000000
# 3 -0.005565 -0.009161 0.031832 0.000000 0.000000 0.000000
# 4 0.000000 0.000000 0.000000 0.036826 0.000000 0.000000
# 5 0.000000 0.000000 0.000000 0.000000 0.018275 0.000000
# 6 0.000000 0.000000 0.000000 0.000000 0.000000 0.037093
#
#
# Mechanical properties :
#
#
# Convention : Reuss Voigt Hill
#
# Bulk Modulus (GPa) = 45.92889 57.20780 51.56835
# Shear Modulus (GPa) = 24.32302 29.97705 27.15004
#
# Velocity S-wave (km/s) = 3.29762 3.66089 3.48399
# Velocity P-wave (km/s) = 5.91886 6.59134 6.26413
#
# Compressibility (1/GPa) = 0.02177279
#
# Stress axis : x y z
#
# Youngs Moduli (GPa) = 69.93890 56.13630 31.41468
#
# Poissons Ratio (x) = 0.35697 0.17483
# Poissons Ratio (y) = 0.44474 0.28780
# Poissons Ratio (z) = 0.38923 0.51429
#
# Static dielectric constant tensor:
#      x y z
#    x 4.421060 0.000000 0.000000 
#    y 0.000000 3.710600 0.000000 
#    z 0.000000 0.000000 3.925110 
# 
# 
# High freq. dielectric constant tensor:
#      x y z
#    x 1.907400 0.000000 0.000000 
#    y 0.000000 1.856760 0.000000 
#    z 0.000000 0.000000 1.877130 
# 
# From -- ./inp_files/3243.got.cif
#   From: 2010.03.12/outbox.cif.g09.slc.cpg/sg39_2_cif.got.tgz:3243.got - 2010.04.14 02:53:20.
