data_PCOD8181603
_publ_section_title
;
Structure prediction by ZEFSAII (Michael W. Deem and Ramdas Pophale) SiO2 
 PCOD8181603
Probable space group: A B M 2
;
_chemical_formula_sum "Si O2"
_cell_formula_units_Z 52
_cell_length_a 9.142478
_cell_length_b 22.047431
_cell_length_c 13.784142
_cell_angle_alpha 90.000000
_cell_angle_beta 90.000000
_cell_angle_gamma 90.000000
_cell_volume 2778.444042
_symmetry_space_group_name_H-M "A B M 2"
_symmetry_group_IT_number 39
_symmetry_cell_setting 'orthorhombic'
loop_
_space_group_symop_operation_xyz
x,y,z
-x,-y,z
-x,1/2+y,z
x,1/2-y,z
x,1/2+y,1/2+z
-x,1/2-y,1/2+z
-x,y,1/2+z
x,-y,1/2+z
loop_
_atom_site_type_symbol
_atom_site_label
_atom_site_fract_x
_atom_site_fract_y
_atom_site_fract_z
Si Si1 0.884044 0.750000 0.976560
Si Si2 0.570731 0.750000 0.031712
Si Si3 0.758154 0.920461 0.170319
Si Si4 0.467443 0.650116 0.172044
Si Si5 0.216189 0.061461 0.637143
Si Si6 0.012164 0.931963 0.312903
Si Si7 0.029060 0.122489 0.013587
Si Si8 0.640798 0.250000 0.322216
O O1 0.992393 0.805271 0.003719
O O2 0.809830 0.750000 0.865680
O O3 0.745686 0.750000 0.049853
O O4 0.502573 0.691025 0.080056
O O5 0.533901 0.750000 0.916330
O O6 0.609300 0.888291 0.204500
O O7 0.859786 0.912296 0.264329
O O8 0.743993 0.990399 0.135390
O O9 0.826749 0.887342 0.077528
O O10 0.360748 0.600082 0.128773
O O11 0.396398 0.689686 0.259311
O O12 0.140851 0.077631 0.737338
O O13 0.107785 0.082829 0.550942
O O14 0.061278 0.893514 0.403442
O O15 0.000000 0.000000 0.349407
#
# Coordination Sequence:
#
# PCOD8181603 Si02
#       8
#     4   4   8   8   8   8   8   4
#     4  10  20  38  59  81 109 157 195 229 285 347
#     4   9  21  39  55  81 113 153 189 226 282 343
#     4  10  20  37  57  83 117 152 187 230 299 355
#     4  11  20  37  61  82 118 153 185 240 289 343
#     4  10  22  34  57  90 111 144 195 241 285 346
#     4   9  19  36  56  80 112 149 188 236 289 339
#     4  11  20  38  59  79 116 151 191 244 288 336
#     4   9  21  37  56  80 110 154 190 229 283 338
#
# _framework density 18.715509999999998
#
# number of rings (size 3 to 8) (size 9 to 14) (size 15 to 20)
#    0.462    1.538    1.538    3.692    0.000    2.462 
#    0.000    4.615    0.000    5.538    0.000    0.000 
#    0.000    0.000    0.000    0.000    0.000    0.000 
#
# Total GULP energy -322134.370599 kJ/mol
# GULP energy per Si atom -12389.783485 kJ/mol
# Density = 1.867291 g / cm^3
# Si number density = 18.715510 Si / 1000 Ang^3
#
#
#
# Elastic Constant Matrix: (Units=GPa)
#
#
# Indices 1 2 3 4 5 6 
#
# 1 53.9676 15.2937 -3.0188 0.0000 0.0000 0.0000
# 2 15.2937 73.4644 26.8786 0.0000 0.0000 0.0000
# 3 -3.0188 26.8786 80.8715 0.0000 0.0000 0.0000
# 4 0.0000 0.0000 0.0000 25.3662 0.0000 0.0000
# 5 0.0000 0.0000 0.0000 0.0000 14.2827 0.0000
# 6 0.0000 0.0000 0.0000 0.0000 0.0000 32.4775
#
#
#
# Elastic Compliance Matrix: (Units=1/GPa)
#
#
# Indices 1 2 3 4 5 6 
#
# 1 0.020105 -0.005077 0.002438 0.000000 0.000000 0.000000
# 2 -0.005077 0.016779 -0.005766 0.000000 0.000000 0.000000
# 3 0.002438 -0.005766 0.014373 0.000000 0.000000 0.000000
# 4 0.000000 0.000000 0.000000 0.039423 0.000000 0.000000
# 5 0.000000 0.000000 0.000000 0.000000 0.070015 0.000000
# 6 0.000000 0.000000 0.000000 0.000000 0.000000 0.030791
#
#
# Mechanical properties :
#
#
# Convention : Reuss Voigt Hill
#
# Bulk Modulus (GPa) = 29.03154 31.84561 30.43857
# Shear Modulus (GPa) = 22.75035 25.70195 24.22615
#
# Velocity S-wave (km/s) = 3.49031 3.70982 3.60174
# Velocity P-wave (km/s) = 5.63815 5.95004 5.79619
#
# Compressibility (1/GPa) = 0.03444530
#
# Stress axis : x y z
#
# Youngs Moduli (GPa) = 49.73914 59.59933 69.57609
#
# Poissons Ratio (x) = 0.30261 -0.16963
# Poissons Ratio (y) = 0.25255 0.40119
# Poissons Ratio (z) = -0.12126 0.34366
#
# Static dielectric constant tensor:
#      x y z
#    x 3.283210 0.000000 0.000000 
#    y 0.000000 3.697170 0.000000 
#    z 0.000000 0.000000 3.315060 
# 
# 
# High freq. dielectric constant tensor:
#      x y z
#    x 1.711450 0.000000 0.000000 
#    y 0.000000 1.743640 0.000000 
#    z 0.000000 0.000000 1.722090 
# 
# From -- ./inp_files/8584.got.cif
#   From: 2010.03.12/outbox.cif.g09.slc.cpg/sg39_5_cif.got.tgz:8584.got - 2010.04.14 02:53:20.
