data_PCOD8181022
_publ_section_title
;
Structure prediction by ZEFSAII (Michael W. Deem and Ramdas Pophale) SiO2 
 PCOD8181022
Probable space group: A B M 2
;
_chemical_formula_sum "Si O2"
_cell_formula_units_Z 56
_cell_length_a 15.253009
_cell_length_b 8.770345
_cell_length_c 19.981546
_cell_angle_alpha 90.000000
_cell_angle_beta 90.000000
_cell_angle_gamma 90.000000
_cell_volume 2673.014356
_symmetry_space_group_name_H-M "A B M 2"
_symmetry_group_IT_number 39
_symmetry_cell_setting 'orthorhombic'
loop_
_space_group_symop_operation_xyz
x,y,z
-x,-y,z
-x,1/2+y,z
x,1/2-y,z
x,1/2+y,1/2+z
-x,1/2-y,1/2+z
-x,y,1/2+z
x,-y,1/2+z
loop_
_atom_site_type_symbol
_atom_site_label
_atom_site_fract_x
_atom_site_fract_y
_atom_site_fract_z
Si Si1 0.232145 0.070902 0.451940
Si Si2 0.646835 0.077277 0.635692
Si Si3 0.823055 0.927714 0.596483
Si Si4 0.414067 0.071629 0.766684
Si Si5 0.222687 0.572868 0.316011
Si Si6 0.089979 0.428940 0.214313
Si Si7 0.588371 0.077017 0.489355
O O1 0.230797 0.250000 0.439442
O O2 0.175468 0.027054 0.517858
O O3 0.189949 0.986888 0.388125
O O4 0.331472 0.018167 0.460520
O O5 0.679852 0.250000 0.649931
O O6 0.587498 0.074735 0.569620
O O7 0.729042 0.965889 0.627619
O O8 0.589357 0.014733 0.696006
O O9 0.841288 0.750000 0.606770
O O10 0.896670 0.021163 0.636845
O O11 0.427284 0.250000 0.754637
O O12 0.326537 0.039143 0.809457
O O13 0.500000 0.000000 0.803726
O O14 0.200935 0.750000 0.309179
O O15 0.171738 0.485676 0.257835
O O16 0.082741 0.250000 0.219522
O O17 0.000000 0.500000 0.242104
O O18 0.594827 0.250000 0.461853
O O19 0.500000 0.000000 0.462485
#
# Coordination Sequence:
#
# PCOD8181022 Si02
#       7
#     8   8   8   8   8   8   8
#     4  10  22  39  62  88 121 166 209 255 314 374
#     4  10  19  32  54  83 117 158 204 257 315 372
#     4  10  20  38  63  93 126 159 202 254 310 371
#     4  11  23  36  55  83 121 166 213 264 315 371
#     4  11  24  43  64  91 130 171 213 263 315 375
#     4  12  25  43  71 101 130 164 206 256 315 379
#     4  10  20  33  51  79 115 158 210 263 316 370
#
# _framework density 20.950130000000001
#
# number of rings (size 3 to 8) (size 9 to 14) (size 15 to 20)
#    0.000    1.429    1.429    4.286    0.000    6.857 
#    0.000    2.143    0.000    3.429    0.000    0.000 
#    0.000    0.000    0.000    0.000    0.000    0.000 
#
# Total GULP energy -347281.241517 kJ/mol
# GULP energy per Si atom -12402.901483 kJ/mol
# Density = 2.090245 g / cm^3
# Si number density = 20.950130 Si / 1000 Ang^3
#
#
#
# Elastic Constant Matrix: (Units=GPa)
#
#
# Indices 1 2 3 4 5 6 
#
# 1 72.0259 42.3452 24.6623 0.0000 0.0000 0.0000
# 2 42.3452 131.5775 51.7749 0.0000 0.0000 0.0000
# 3 24.6623 51.7749 107.5398 0.0000 0.0000 0.0000
# 4 0.0000 0.0000 0.0000 28.2291 0.0000 0.0000
# 5 0.0000 0.0000 0.0000 0.0000 5.8671 0.0000
# 6 0.0000 0.0000 0.0000 0.0000 0.0000 35.0913
#
#
#
# Elastic Compliance Matrix: (Units=1/GPa)
#
#
# Indices 1 2 3 4 5 6 
#
# 1 0.017342 -0.004955 -0.001592 0.000000 0.000000 0.000000
# 2 -0.004955 0.010792 -0.004060 0.000000 0.000000 0.000000
# 3 -0.001592 -0.004060 0.011618 0.000000 0.000000 0.000000
# 4 0.000000 0.000000 0.000000 0.035424 0.000000 0.000000
# 5 0.000000 0.000000 0.000000 0.000000 0.170441 0.000000
# 6 0.000000 0.000000 0.000000 0.000000 0.000000 0.028497
#
#
# Mechanical properties :
#
#
# Convention : Reuss Voigt Hill
#
# Bulk Modulus (GPa) = 53.93601 60.96753 57.45177
# Shear Modulus (GPa) = 16.58340 26.66158 21.62249
#
# Velocity S-wave (km/s) = 2.81653 3.57125 3.21611
# Velocity P-wave (km/s) = 6.03141 6.79482 6.42447
#
# Compressibility (1/GPa) = 0.01854049
#
# Stress axis : x y z
#
# Youngs Moduli (GPa) = 57.66388 92.66057 86.07083
#
# Poissons Ratio (x) = 0.45912 0.13699
# Poissons Ratio (y) = 0.28571 0.34941
# Poissons Ratio (z) = 0.09177 0.37616
#
# Static dielectric constant tensor:
#      x y z
#    x 3.570190 0.000000 0.000000 
#    y 0.000000 3.856750 0.000000 
#    z 0.000000 0.000000 3.893380 
# 
# 
# High freq. dielectric constant tensor:
#      x y z
#    x 1.798740 0.000000 0.000000 
#    y 0.000000 1.834370 0.000000 
#    z 0.000000 0.000000 1.821620 
# 
# From -- ./inp_files/14773.got.cif
#   From: 2010.03.12/outbox.cif.g09.slc.cpg/sg39_8_cif.got.tgz:14773.got - 2010.04.14 02:53:20.
