data_PCOD8181344
_publ_section_title
;
Structure prediction by ZEFSAII (Michael W. Deem and Ramdas Pophale) SiO2 
 PCOD8181344
Probable space group: A B M 2
;
_chemical_formula_sum "Si O2"
_cell_formula_units_Z 56
_cell_length_a 23.538739
_cell_length_b 9.227034
_cell_length_c 14.222021
_cell_angle_alpha 90.000000
_cell_angle_beta 90.000000
_cell_angle_gamma 90.000000
_cell_volume 3088.919781
_symmetry_space_group_name_H-M "A B M 2"
_symmetry_group_IT_number 39
_symmetry_cell_setting 'orthorhombic'
loop_
_space_group_symop_operation_xyz
x,y,z
-x,-y,z
-x,1/2+y,z
x,1/2-y,z
x,1/2+y,1/2+z
-x,1/2-y,1/2+z
-x,y,1/2+z
x,-y,1/2+z
loop_
_atom_site_type_symbol
_atom_site_label
_atom_site_fract_x
_atom_site_fract_y
_atom_site_fract_z
Si Si1 0.136436 0.080753 0.294420
Si Si2 0.641021 0.418653 0.914728
Si Si3 0.058111 0.419675 0.932141
Si Si4 0.446442 0.084752 0.571625
Si Si5 0.443520 0.579153 0.286562
Si Si6 0.154393 0.917683 0.581397
Si Si7 0.230984 0.082001 0.444332
O O1 0.119821 0.250000 0.298839
O O2 0.145061 0.027598 0.187684
O O3 0.193992 0.048766 0.351717
O O4 0.085390 0.987781 0.338367
O O5 0.637489 0.250000 0.885238
O O6 0.611997 0.517078 0.836343
O O7 0.705563 0.472258 0.923899
O O8 0.610432 0.447582 0.013903
O O9 0.047622 0.250000 0.914863
O O10 0.000000 0.500000 0.955328
O O11 0.097664 0.448401 0.022182
O O12 0.464710 0.250000 0.565487
O O13 0.434552 0.038004 0.678080
O O14 0.500000 0.000000 0.528301
O O15 0.500000 0.500000 0.325661
O O16 0.449327 0.750000 0.304485
O O17 0.170730 0.750000 0.580907
O O18 0.207193 0.000847 0.535689
O O19 0.230512 0.250000 0.470185
#
# Coordination Sequence:
#
# PCOD8181344 Si02
#       7
#     8   8   8   8   8   8   8
#     4   9  18  35  55  75 102 137 172 208 251 298
#     4  10  20  34  51  74 102 132 166 206 251 301
#     4  10  20  34  52  77 106 134 166 207 249 294
#     4   9  19  34  50  69  97 128 161 201 248 301
#     4  10  20  34  51  72  97 128 163 204 252 303
#     4   9  19  35  54  75 102 135 171 209 249 293
#     4   9  19  34  52  74 102 134 169 209 252 296
#
# _framework density 18.129314000000001
#
# number of rings (size 3 to 8) (size 9 to 14) (size 15 to 20)
#    0.000    2.571    0.000    1.286    0.000    5.714 
#    0.000    1.429    0.000    0.000    0.000    0.000 
#    0.000    0.000    0.000    0.000    0.000    0.000 
#
# Total GULP energy -347278.909953 kJ/mol
# GULP energy per Si atom -12402.818213 kJ/mol
# Density = 1.808805 g / cm^3
# Si number density = 18.129314 Si / 1000 Ang^3
#
#
#
# Elastic Constant Matrix: (Units=GPa)
#
#
# Indices 1 2 3 4 5 6 
#
# 1 127.2943 52.4237 45.8689 0.0000 0.0000 0.0000
# 2 52.4237 69.5377 42.8678 0.0000 0.0000 0.0000
# 3 45.8689 42.8678 112.3446 0.0000 0.0000 0.0000
# 4 0.0000 0.0000 0.0000 25.3434 0.0000 0.0000
# 5 0.0000 0.0000 0.0000 0.0000 2.4866 0.0000
# 6 0.0000 0.0000 0.0000 0.0000 0.0000 32.5436
#
#
#
# Elastic Compliance Matrix: (Units=1/GPa)
#
#
# Indices 1 2 3 4 5 6 
#
# 1 0.011677 -0.007668 -0.001842 0.000000 0.000000 0.000000
# 2 -0.007668 0.023839 -0.005966 0.000000 0.000000 0.000000
# 3 -0.001842 -0.005966 0.011930 0.000000 0.000000 0.000000
# 4 0.000000 0.000000 0.000000 0.039458 0.000000 0.000000
# 5 0.000000 0.000000 0.000000 0.000000 0.402163 0.000000
# 6 0.000000 0.000000 0.000000 0.000000 0.000000 0.030728
#
#
# Mechanical properties :
#
#
# Convention : Reuss Voigt Hill
#
# Bulk Modulus (GPa) = 60.62413 65.72193 63.17303
# Shear Modulus (GPa) = 8.98886 23.27579 16.13232
#
# Velocity S-wave (km/s) = 2.22911 3.58701 2.98627
# Velocity P-wave (km/s) = 6.33543 7.31341 6.84192
#
# Compressibility (1/GPa) = 0.01649508
#
# Stress axis : x y z
#
# Youngs Moduli (GPa) = 85.63527 41.94775 83.82575
#
# Poissons Ratio (x) = 0.32166 0.15439
# Poissons Ratio (y) = 0.65666 0.50007
# Poissons Ratio (z) = 0.15772 0.25025
#
# Static dielectric constant tensor:
#      x y z
#    x 3.394470 0.000000 0.000000 
#    y 0.000000 3.340580 0.000000 
#    z 0.000000 0.000000 3.441030 
# 
# 
# High freq. dielectric constant tensor:
#      x y z
#    x 1.700600 0.000000 0.000000 
#    y 0.000000 1.702030 0.000000 
#    z 0.000000 0.000000 1.705820 
# 
# From -- ./inp_files/10331.got.cif
#   From: 2010.03.12/outbox.cif.g09.slc.cpg/sg39_6_cif.got.tgz:10331.got - 2010.04.14 02:53:20.
