data_PCOD8181327
_publ_section_title
;
Structure prediction by ZEFSAII (Michael W. Deem and Ramdas Pophale) SiO2 
 PCOD8181327
Probable space group: A B M 2
;
_chemical_formula_sum "Si O2"
_cell_formula_units_Z 40
_cell_length_a 9.802476
_cell_length_b 8.656570
_cell_length_c 25.675403
_cell_angle_alpha 90.000000
_cell_angle_beta 90.000000
_cell_angle_gamma 90.000000
_cell_volume 2178.707367
_symmetry_space_group_name_H-M "A B M 2"
_symmetry_group_IT_number 39
_symmetry_cell_setting 'orthorhombic'
loop_
_space_group_symop_operation_xyz
x,y,z
-x,-y,z
-x,1/2+y,z
x,1/2-y,z
x,1/2+y,1/2+z
-x,1/2-y,1/2+z
-x,y,1/2+z
x,-y,1/2+z
loop_
_atom_site_type_symbol
_atom_site_label
_atom_site_fract_x
_atom_site_fract_y
_atom_site_fract_z
Si Si1 0.349363 0.568130 0.045150
Si Si2 0.349581 0.430432 0.263333
Si Si3 0.145675 0.067667 0.845130
Si Si4 0.352513 0.928320 0.648340
Si Si5 0.853775 0.433310 0.955620
O O1 0.500000 0.500000 0.038182
O O2 0.359997 0.750000 0.045268
O O3 0.278663 0.512749 0.099691
O O4 0.255479 0.509701 0.997995
O O5 0.500000 0.500000 0.267111
O O6 0.354788 0.250000 0.278231
O O7 0.255144 0.524218 0.302068
O O8 0.284387 0.452062 0.205185
O O9 0.132905 0.250000 0.850304
O O10 0.194216 0.998346 0.900071
O O11 0.000000 0.000000 0.828350
O O12 0.364649 0.750000 0.633804
O O13 0.500000 0.000000 0.653067
O O14 0.863651 0.250000 0.952413
O O15 0.000000 0.500000 0.971804
#
# Coordination Sequence:
#
# PCOD8181327 Si02
#       5
#     8   8   8   8   8
#     4  10  20  33  53  79 106 136 172 213 256 305
#     4  10  20  35  55  81 109 139 176 217 261 311
#     4  11  22  37  57  78 104 140 176 217 265 315
#     4   9  17  30  51  76 105 138 170 208 256 306
#     4  10  21  37  55  76 103 137 175 215 260 313
#
# _framework density 18.359511000000001
#
# number of rings (size 3 to 8) (size 9 to 14) (size 15 to 20)
#    0.000    2.000    0.000    6.600    0.000    6.400 
#    0.000    3.000    0.000    2.400    0.000    0.000 
#    0.000    0.000    0.000    0.000    0.000    0.000 
#
# Total GULP energy -247923.385700 kJ/mol
# GULP energy per Si atom -12396.169285 kJ/mol
# Density = 1.831772 g / cm^3
# Si number density = 18.359511 Si / 1000 Ang^3
#
#
#
# Elastic Constant Matrix: (Units=GPa)
#
#
# Indices 1 2 3 4 5 6 
#
# 1 72.7739 29.2015 71.8124 0.0000 0.0000 0.0000
# 2 29.2015 93.4356 44.6364 0.0000 0.0000 0.0000
# 3 71.8124 44.6364 144.6241 0.0000 0.0000 0.0000
# 4 0.0000 0.0000 0.0000 27.9636 0.0000 0.0000
# 5 0.0000 0.0000 0.0000 0.0000 -3.4052 0.0000
# 6 0.0000 0.0000 0.0000 0.0000 0.0000 29.2013
#
#
#
# Elastic Compliance Matrix: (Units=1/GPa)
#
#
# Indices 1 2 3 4 5 6 
#
# 1 0.027402 -0.002421 -0.012859 0.000000 0.000000 0.000000
# 2 -0.002421 0.012767 -0.002738 0.000000 0.000000 0.000000
# 3 -0.012859 -0.002738 0.014145 0.000000 0.000000 0.000000
# 4 0.000000 0.000000 0.000000 0.035761 0.000000 0.000000
# 5 0.000000 0.000000 0.000000 0.000000 -0.293669 0.000000
# 6 0.000000 0.000000 0.000000 0.000000 0.000000 0.034245
#
#
# Mechanical properties :
#
#
# Convention : Reuss Voigt Hill
#
# Bulk Modulus (GPa) = 54.71280 66.90378 60.80829
# Shear Modulus (GPa) = -39.30191 21.76417 -8.76887
#
# Velocity S-wave (km/s) = -4.63177 3.44676 -2.18782
# Velocity P-wave (km/s) = 1.12297 7.23604 5.17790
#
# Compressibility (1/GPa) = 0.01827726
#
# Stress axis : x y z
#
# Youngs Moduli (GPa) = 36.49407 78.32476 70.69762
#
# Poissons Ratio (x) = 0.18961 0.90910
# Poissons Ratio (y) = 0.08835 0.19360
# Poissons Ratio (z) = 0.46928 0.21449
#
# Static dielectric constant tensor:
#      x y z
#    x 3.201830 0.000000 0.000000 
#    y 0.000000 3.557540 0.000000 
#    z 0.000000 0.000000 4.039720 
# 
# 
# High freq. dielectric constant tensor:
#      x y z
#    x 1.679710 0.000000 0.000000 
#    y 0.000000 1.733410 0.000000 
#    z 0.000000 0.000000 1.731380 
# 
# From -- ./inp_files/14356.got.cif
#   From: 2010.03.12/outbox.cif.g09.slc.cpg/sg39_8_cif.got.tgz:14356.got - 2010.04.14 02:53:20.
