data_PCOD8181457
_publ_section_title
;
Structure prediction by ZEFSAII (Michael W. Deem and Ramdas Pophale) SiO2 
 PCOD8181457
Probable space group: A B M 2
;
_chemical_formula_sum "Si O2"
_cell_formula_units_Z 40
_cell_length_a 14.751402
_cell_length_b 9.196234
_cell_length_c 14.938911
_cell_angle_alpha 90.000000
_cell_angle_beta 90.000000
_cell_angle_gamma 90.000000
_cell_volume 2026.572998
_symmetry_space_group_name_H-M "A B M 2"
_symmetry_group_IT_number 39
_symmetry_cell_setting 'orthorhombic'
loop_
_space_group_symop_operation_xyz
x,y,z
-x,-y,z
-x,1/2+y,z
x,1/2-y,z
x,1/2+y,1/2+z
-x,1/2-y,1/2+z
-x,y,1/2+z
x,-y,1/2+z
loop_
_atom_site_type_symbol
_atom_site_label
_atom_site_fract_x
_atom_site_fract_y
_atom_site_fract_z
Si Si1 0.266670 0.078827 0.956860
Si Si2 0.917625 0.908950 0.656500
Si Si3 0.406649 0.581718 0.301214
Si Si4 0.719515 0.076812 0.139936
Si Si5 0.914436 0.586460 0.444260
O O1 0.247860 0.250000 0.969404
O O2 0.344902 0.047068 0.886074
O O3 0.175903 0.002794 0.920313
O O4 0.301298 0.009334 0.049295
O O5 0.927581 0.750000 0.698867
O O6 0.817838 0.971935 0.679647
O O7 0.926328 0.903551 0.550127
O O8 0.000000 0.000000 0.699212
O O9 0.500000 0.500000 0.312328
O O10 0.429361 0.750000 0.294744
O O11 0.356343 0.531015 0.210876
O O12 0.721608 0.250000 0.120255
O O13 0.909116 0.750000 0.404210
O O14 0.000000 0.500000 0.402454
#
# Coordination Sequence:
#
# PCOD8181457 Si02
#       5
#     8   8   8   8   8
#     4  10  20  35  56  83 112 144 181 224 273 327
#     4   8  14  25  45  72 102 135 171 207 249 301
#     4  10  23  41  59  79 107 141 181 231 284 333
#     4   9  19  37  57  78 108 146 181 220 270 324
#     4   9  16  28  49  78 111 148 184 220 263 317
#
# _framework density 19.737753000000001
#
# number of rings (size 3 to 8) (size 9 to 14) (size 15 to 20)
#    0.000    2.800    0.000    2.400    0.000    8.000 
#    0.000    5.000    0.000    2.400    0.000    0.000 
#    0.000    0.000    0.000    0.000    0.000    0.000 
#
# Total GULP energy -247943.515405 kJ/mol
# GULP energy per Si atom -12397.175770 kJ/mol
# Density = 1.969283 g / cm^3
# Si number density = 19.737753 Si / 1000 Ang^3
#
#
#
# Elastic Constant Matrix: (Units=GPa)
#
#
# Indices 1 2 3 4 5 6 
#
# 1 165.3820 83.1808 61.7480 0.0000 0.0000 0.0000
# 2 83.1808 112.2046 53.5850 0.0000 0.0000 0.0000
# 3 61.7480 53.5850 72.4014 0.0000 0.0000 0.0000
# 4 0.0000 0.0000 0.0000 20.3044 0.0000 0.0000
# 5 0.0000 0.0000 0.0000 0.0000 211.6568 0.0000
# 6 0.0000 0.0000 0.0000 0.0000 0.0000 41.2245
#
#
#
# Elastic Compliance Matrix: (Units=1/GPa)
#
#
# Indices 1 2 3 4 5 6 
#
# 1 0.010712 -0.005534 -0.005040 0.000000 0.000000 0.000000
# 2 -0.005534 0.016644 -0.007598 0.000000 0.000000 0.000000
# 3 -0.005040 -0.007598 0.023734 0.000000 0.000000 0.000000
# 4 0.000000 0.000000 0.000000 0.049250 0.000000 0.000000
# 5 0.000000 0.000000 0.000000 0.000000 0.004725 0.000000
# 6 0.000000 0.000000 0.000000 0.000000 0.000000 0.024257
#
#
# Mechanical properties :
#
#
# Convention : Reuss Voigt Hill
#
# Bulk Modulus (GPa) = 67.82099 83.00175 75.41137
# Shear Modulus (GPa) = 29.31169 64.73541 47.02355
#
# Velocity S-wave (km/s) = 3.85782 5.73315 4.88630
# Velocity P-wave (km/s) = 7.36745 9.27194 8.37401
#
# Compressibility (1/GPa) = 0.01474470
#
# Stress axis : x y z
#
# Youngs Moduli (GPa) = 93.35568 60.08307 42.13444
#
# Poissons Ratio (x) = 0.33251 0.21234
# Poissons Ratio (y) = 0.51665 0.32015
# Poissons Ratio (z) = 0.47048 0.45653
#
# Static dielectric constant tensor:
#      x y z
#    x 3.556560 0.000000 0.000000 
#    y 0.000000 3.731180 0.000000 
#    z 0.000000 0.000000 3.285910 
# 
# 
# High freq. dielectric constant tensor:
#      x y z
#    x 1.773850 0.000000 0.000000 
#    y 0.000000 1.770060 0.000000 
#    z 0.000000 0.000000 1.747890 
# 
# From -- ./inp_files/9626.got.cif
#   From: 2010.03.12/outbox.cif.g09.slc.cpg/sg39_5_cif.got.tgz:9626.got - 2010.04.14 02:53:20.
