data_PCOD8181059
_publ_section_title
;
Structure prediction by ZEFSAII (Michael W. Deem and Ramdas Pophale) SiO2 
 PCOD8181059
Probable space group: A B M 2
;
_chemical_formula_sum "Si O2"
_cell_formula_units_Z 60
_cell_length_a 17.267707
_cell_length_b 33.194119
_cell_length_c 5.181846
_cell_angle_alpha 90.000000
_cell_angle_beta 90.000000
_cell_angle_gamma 90.000000
_cell_volume 2970.163245
_symmetry_space_group_name_H-M "A B M 2"
_symmetry_group_IT_number 39
_symmetry_cell_setting 'orthorhombic'
loop_
_space_group_symop_operation_xyz
x,y,z
-x,-y,z
-x,1/2+y,z
x,1/2-y,z
x,1/2+y,1/2+z
-x,1/2-y,1/2+z
-x,y,1/2+z
x,-y,1/2+z
loop_
_atom_site_type_symbol
_atom_site_label
_atom_site_fract_x
_atom_site_fract_y
_atom_site_fract_z
Si Si1 0.311297 0.157434 0.636640
Si Si2 0.700050 0.477387 0.574852
Si Si3 0.115197 0.524060 0.592198
Si Si4 0.049060 0.750000 0.073384
Si Si5 0.870608 0.834975 0.618713
Si Si6 0.541215 0.202883 0.056944
Si Si7 0.878220 0.115320 0.616511
Si Si8 0.695599 0.111053 0.635584
O O1 0.221961 0.170021 0.621537
O O2 0.366777 0.195180 0.580406
O O3 0.329558 0.124143 0.420157
O O4 0.336006 0.140697 0.915488
O O5 0.668989 0.496565 0.312441
O O6 0.792480 0.475542 0.587021
O O7 0.662433 0.433351 0.590938
O O8 0.083935 0.501671 0.335835
O O9 0.084154 0.570394 0.608606
O O10 0.099578 0.710358 0.118102
O O11 0.979794 0.750000 0.279244
O O12 0.902077 0.860226 0.373558
O O13 0.903744 0.858541 0.867981
O O14 0.527570 0.250000 0.050848
O O15 0.505855 0.183593 0.796741
O O16 0.787261 0.109747 0.609375
#
# Coordination Sequence:
#
# PCOD8181059 Si02
#       8
#     8   8   8   4   8   8   8   8
#     4  10  19  33  54  76 106 139 176 215 257 322
#     4   9  15  23  37  60  97 139 170 203 258 314
#     4   9  15  23  40  68 105 145 172 203 256 321
#     4  12  26  44  62  84 112 138 184 236 270 318
#     4  10  21  36  57  79 106 146 179 228 275 316
#     4  10  21  36  53  76 106 137 169 214 261 311
#     4   9  17  31  48  75 110 141 180 217 268 322
#     4   9  17  28  44  72 103 137 175 218 258 302
#
# _framework density 20.200911999999999
#
# number of rings (size 3 to 8) (size 9 to 14) (size 15 to 20)
#    0.000    2.400    0.000    3.200    0.933    6.400 
#    0.000    0.000    0.000    0.000    0.000    0.000 
#    0.000   74.667    0.000    0.000    0.000    0.000 
#
# Total GULP energy -371923.315189 kJ/mol
# GULP energy per Si atom -12397.443840 kJ/mol
# Density = 2.015493 g / cm^3
# Si number density = 20.200912 Si / 1000 Ang^3
#
#
#
# Elastic Constant Matrix: (Units=GPa)
#
#
# Indices 1 2 3 4 5 6 
#
# 1 33.2783 24.0023 12.4260 0.0000 0.0000 0.0000
# 2 24.0023 124.1752 44.8274 0.0000 0.0000 0.0000
# 3 12.4260 44.8274 129.9785 0.0000 0.0000 0.0000
# 4 0.0000 0.0000 0.0000 28.4361 0.0000 0.0000
# 5 0.0000 0.0000 0.0000 0.0000 11.3173 0.0000
# 6 0.0000 0.0000 0.0000 0.0000 0.0000 6.6206
#
#
#
# Elastic Compliance Matrix: (Units=1/GPa)
#
#
# Indices 1 2 3 4 5 6 
#
# 1 0.035070 -0.006360 -0.001159 0.000000 0.000000 0.000000
# 2 -0.006360 0.010352 -0.002962 0.000000 0.000000 0.000000
# 3 -0.001159 -0.002962 0.008826 0.000000 0.000000 0.000000
# 4 0.000000 0.000000 0.000000 0.035167 0.000000 0.000000
# 5 0.000000 0.000000 0.000000 0.000000 0.088361 0.000000
# 6 0.000000 0.000000 0.000000 0.000000 0.000000 0.151045
#
#
# Mechanical properties :
#
#
# Convention : Reuss Voigt Hill
#
# Bulk Modulus (GPa) = 30.04400 49.99373 40.01886
# Shear Modulus (GPa) = 13.85511 23.01987 18.43749
#
# Velocity S-wave (km/s) = 2.62174 3.37938 3.02438
# Velocity P-wave (km/s) = 4.90608 6.32684 5.66121
#
# Compressibility (1/GPa) = 0.03328452
#
# Stress axis : x y z
#
# Youngs Moduli (GPa) = 28.51452 96.60071 113.30184
#
# Poissons Ratio (x) = 0.61441 0.13133
# Poissons Ratio (y) = 0.18136 0.33562
# Poissons Ratio (z) = 0.03305 0.28614
#
# Static dielectric constant tensor:
#      x y z
#    x 3.130990 0.000000 0.000000 
#    y 0.000000 3.727510 0.000000 
#    z 0.000000 0.000000 4.119880 
# 
# 
# High freq. dielectric constant tensor:
#      x y z
#    x 1.737920 0.000000 0.000000 
#    y 0.000000 1.790470 0.000000 
#    z 0.000000 0.000000 1.811000 
# 
# From -- ./inp_files/871.got.cif
#   From: 2010.03.12/outbox.cif.g09.slc.cpg/sg39_1_cif.got.tgz:871.got - 2010.04.14 02:53:20.
