data_PCOD8181673
_publ_section_title
;
Structure prediction by ZEFSAII (Michael W. Deem and Ramdas Pophale) SiO2 
 PCOD8181673
Probable space group: A B M 2
;
_chemical_formula_sum "Si O2"
_cell_formula_units_Z 48
_cell_length_a 18.681763
_cell_length_b 8.430324
_cell_length_c 15.081074
_cell_angle_alpha 90.000000
_cell_angle_beta 90.000000
_cell_angle_gamma 90.000000
_cell_volume 2375.168338
_symmetry_space_group_name_H-M "A B M 2"
_symmetry_group_IT_number 39
_symmetry_cell_setting 'orthorhombic'
loop_
_space_group_symop_operation_xyz
x,y,z
-x,-y,z
-x,1/2+y,z
x,1/2-y,z
x,1/2+y,1/2+z
-x,1/2-y,1/2+z
-x,y,1/2+z
x,-y,1/2+z
loop_
_atom_site_type_symbol
_atom_site_label
_atom_site_fract_x
_atom_site_fract_y
_atom_site_fract_z
Si Si1 0.325439 0.433989 0.626750
Si Si2 0.818284 0.435974 0.845130
Si Si3 0.921666 0.561398 0.495931
Si Si4 0.829069 0.436360 0.646689
Si Si5 0.576501 0.565409 0.976710
Si Si6 0.660091 0.563635 0.316662
O O1 0.338205 0.250000 0.606500
O O2 0.241817 0.472457 0.615238
O O3 0.368077 0.535420 0.555150
O O4 0.354882 0.475720 0.724161
O O5 0.820383 0.250000 0.858786
O O6 0.847243 0.482956 0.747969
O O7 0.736486 0.495692 0.855831
O O8 0.869045 0.510709 0.920340
O O9 0.921233 0.750000 0.499664
O O10 0.896669 0.491480 0.589767
O O11 0.000000 0.500000 0.473448
O O12 0.814694 0.250000 0.637798
O O13 0.500000 0.500000 0.007147
O O14 0.572140 0.750000 0.956054
O O15 0.598777 0.476917 0.886370
O O16 0.662495 0.750000 0.296500
#
# Coordination Sequence:
#
# PCOD8181673 Si02
#       6
#     8   8   8   8   8   8
#     4  11  22  39  62  90 120 155 196 242 292 349
#     4   8  18  36  59  82 110 145 186 232 282 335
#     4  11  22  37  55  81 115 153 191 235 290 350
#     4  10  20  38  61  86 113 148 192 241 290 343
#     4  12  25  41  60  87 120 158 198 242 295 352
#     4  10  20  39  64  90 117 151 195 246 294 347
#
# _framework density 20.209095000000001
#
# number of rings (size 3 to 8) (size 9 to 14) (size 15 to 20)
#    0.000    1.667    0.000    6.500    0.000    2.667 
#    0.000   14.167    0.000    0.000    0.000    0.000 
#    0.000    0.000    0.000    0.000    0.000    0.000 
#
# Total GULP energy -297693.878183 kJ/mol
# GULP energy per Si atom -12403.911591 kJ/mol
# Density = 2.016310 g / cm^3
# Si number density = 20.209095 Si / 1000 Ang^3
#
#
#
# Elastic Constant Matrix: (Units=GPa)
#
#
# Indices 1 2 3 4 5 6 
#
# 1 60.4489 18.9562 36.8436 0.0000 0.0000 0.0000
# 2 18.9562 69.8290 16.3801 0.0000 0.0000 0.0000
# 3 36.8436 16.3801 84.2266 0.0000 0.0000 0.0000
# 4 0.0000 0.0000 0.0000 31.6019 0.0000 0.0000
# 5 0.0000 0.0000 0.0000 0.0000 11.9513 0.0000
# 6 0.0000 0.0000 0.0000 0.0000 0.0000 33.1675
#
#
#
# Elastic Compliance Matrix: (Units=1/GPa)
#
#
# Indices 1 2 3 4 5 6 
#
# 1 0.023671 -0.004188 -0.009540 0.000000 0.000000 0.000000
# 2 -0.004188 0.015746 -0.001230 0.000000 0.000000 0.000000
# 3 -0.009540 -0.001230 0.016285 0.000000 0.000000 0.000000
# 4 0.000000 0.000000 0.000000 0.031644 0.000000 0.000000
# 5 0.000000 0.000000 0.000000 0.000000 0.083673 0.000000
# 6 0.000000 0.000000 0.000000 0.000000 0.000000 0.030150
#
#
# Mechanical properties :
#
#
# Convention : Reuss Voigt Hill
#
# Bulk Modulus (GPa) = 38.78132 39.87382 39.32757
# Shear Modulus (GPa) = 20.86111 24.83244 22.84677
#
# Velocity S-wave (km/s) = 3.21637 3.50919 3.36597
# Velocity P-wave (km/s) = 5.74675 6.01604 5.88293
#
# Compressibility (1/GPa) = 0.02578561
#
# Stress axis : x y z
#
# Youngs Moduli (GPa) = 42.24611 63.50747 61.40575
#
# Poissons Ratio (x) = 0.26597 0.58581
# Poissons Ratio (y) = 0.17693 0.07555
# Poissons Ratio (z) = 0.40303 0.07813
#
# Static dielectric constant tensor:
#      x y z
#    x 3.529210 0.000000 0.000000 
#    y 0.000000 3.555800 0.000000 
#    z 0.000000 0.000000 3.873620 
# 
# 
# High freq. dielectric constant tensor:
#      x y z
#    x 1.783600 0.000000 0.000000 
#    y 0.000000 1.786850 0.000000 
#    z 0.000000 0.000000 1.800910 
# 
# From -- ./inp_files/10031.got.cif
#   From: 2010.03.12/outbox.cif.g09.slc.cpg/sg39_6_cif.got.tgz:10031.got - 2010.04.14 02:53:20.
