data_PCOD8181114
_publ_section_title
;
Structure prediction by ZEFSAII (Michael W. Deem and Ramdas Pophale) SiO2 
 PCOD8181114
Probable space group: A B M 2
;
_chemical_formula_sum "Si O2"
_cell_formula_units_Z 56
_cell_length_a 14.369881
_cell_length_b 8.909039
_cell_length_c 25.269131
_cell_angle_alpha 90.000000
_cell_angle_beta 90.000000
_cell_angle_gamma 90.000000
_cell_volume 3235.000400
_symmetry_space_group_name_H-M "A B M 2"
_symmetry_group_IT_number 39
_symmetry_cell_setting 'orthorhombic'
loop_
_space_group_symop_operation_xyz
x,y,z
-x,-y,z
-x,1/2+y,z
x,1/2-y,z
x,1/2+y,1/2+z
-x,1/2-y,1/2+z
-x,y,1/2+z
x,-y,1/2+z
loop_
_atom_site_type_symbol
_atom_site_label
_atom_site_fract_x
_atom_site_fract_y
_atom_site_fract_z
Si Si1 0.100211 0.426553 0.777150
Si Si2 0.094351 0.075623 0.584812
Si Si3 0.097295 0.427628 0.463989
Si Si4 0.595039 0.925426 0.215741
Si Si5 0.596235 0.927049 0.338136
Si Si6 0.220944 0.928216 0.377853
Si Si7 0.223655 0.426638 0.678779
O O1 0.085927 0.250000 0.775870
O O2 0.157036 0.477943 0.828706
O O3 0.156301 0.482443 0.725765
O O4 0.000000 0.500000 0.778278
O O5 0.075376 0.250000 0.589891
O O6 0.118776 0.030388 0.524830
O O7 0.178480 0.026967 0.622845
O O8 0.000000 0.000000 0.604779
O O9 0.092920 0.250000 0.454256
O O10 0.179462 0.501837 0.430960
O O11 0.000000 0.500000 0.445782
O O12 0.586442 0.750000 0.206622
O O13 0.613570 0.966439 0.276805
O O14 0.500000 0.000000 0.195635
O O15 0.678603 0.989238 0.180869
O O16 0.593743 0.750000 0.348343
O O17 0.500000 0.000000 0.357484
O O18 0.677049 0.002937 0.371975
O O19 0.228093 0.750000 0.382668
O O20 0.241912 0.250000 0.683770
#
# Coordination Sequence:
#
# PCOD8181114 Si02
#       7
#     8   8   8   8   8   8   8
#     4  10  21  32  46  70 103 136 167 203 250 304
#     4   9  19  34  54  76 102 137 177 218 259 302
#     4  10  20  35  53  76 103 137 179 220 260 306
#     4  10  20  33  52  77 104 137 172 210 254 306
#     4  10  20  34  53  77 105 137 172 213 256 309
#     4  11  21  34  52  76 104 139 174 212 259 308
#     4  10  19  34  52  74 104 137 170 212 258 305
#
# _framework density 17.310662000000001
#
# number of rings (size 3 to 8) (size 9 to 14) (size 15 to 20)
#    0.000    2.000    1.429    2.571    0.000    5.143 
#    0.000    0.000    0.000    0.857    0.000    4.000 
#    0.000    0.000    0.000    0.000    0.000    0.000 
#
# Total GULP energy -347320.963646 kJ/mol
# GULP energy per Si atom -12404.320130 kJ/mol
# Density = 1.727126 g / cm^3
# Si number density = 17.310662 Si / 1000 Ang^3
#
#
#
# Elastic Constant Matrix: (Units=GPa)
#
#
# Indices 1 2 3 4 5 6 
#
# 1 168.0472 62.5918 69.2216 0.0000 0.0000 0.0000
# 2 62.5918 70.0150 40.5198 0.0000 0.0000 0.0000
# 3 69.2216 40.5198 86.3154 0.0000 0.0000 0.0000
# 4 0.0000 0.0000 0.0000 22.4012 0.0000 0.0000
# 5 0.0000 0.0000 0.0000 0.0000 26.5392 0.0000
# 6 0.0000 0.0000 0.0000 0.0000 0.0000 38.6646
#
#
#
# Elastic Compliance Matrix: (Units=1/GPa)
#
#
# Indices 1 2 3 4 5 6 
#
# 1 0.010552 -0.006228 -0.005539 0.000000 0.000000 0.000000
# 2 -0.006228 0.023286 -0.005937 0.000000 0.000000 0.000000
# 3 -0.005539 -0.005937 0.018814 0.000000 0.000000 0.000000
# 4 0.000000 0.000000 0.000000 0.044640 0.000000 0.000000
# 5 0.000000 0.000000 0.000000 0.000000 0.037680 0.000000
# 6 0.000000 0.000000 0.000000 0.000000 0.000000 0.025863
#
#
# Mechanical properties :
#
#
# Convention : Reuss Voigt Hill
#
# Bulk Modulus (GPa) = 57.98638 74.33822 66.16230
# Shear Modulus (GPa) = 24.75360 27.65729 26.20544
#
# Velocity S-wave (km/s) = 3.78559 4.00146 3.89502
# Velocity P-wave (km/s) = 7.25795 8.02407 7.65061
#
# Compressibility (1/GPa) = 0.01724543
#
# Stress axis : x y z
#
# Youngs Moduli (GPa) = 94.77114 42.94436 53.15134
#
# Poissons Ratio (x) = 0.26744 0.29438
# Poissons Ratio (y) = 0.59020 0.31556
# Poissons Ratio (z) = 0.52490 0.25496
#
# Static dielectric constant tensor:
#      x y z
#    x 3.196960 0.000000 0.000000 
#    y 0.000000 3.232560 0.000000 
#    z 0.000000 0.000000 3.249220 
# 
# 
# High freq. dielectric constant tensor:
#      x y z
#    x 1.672220 0.000000 0.000000 
#    y 0.000000 1.676640 0.000000 
#    z 0.000000 0.000000 1.651860 
# 
# From -- ./inp_files/14728.got.cif
#   From: 2010.03.12/outbox.cif.g09.slc.cpg/sg39_8_cif.got.tgz:14728.got - 2010.04.14 02:53:20.
