data_PCOD8181569
_publ_section_title
;
Structure prediction by ZEFSAII (Michael W. Deem and Ramdas Pophale) SiO2 
 PCOD8181569
Probable space group: A B M 2
;
_chemical_formula_sum "Si O2"
_cell_formula_units_Z 64
_cell_length_a 15.480534
_cell_length_b 8.693651
_cell_length_c 23.900744
_cell_angle_alpha 90.000000
_cell_angle_beta 90.000000
_cell_angle_gamma 90.000000
_cell_volume 3216.618531
_symmetry_space_group_name_H-M "A B M 2"
_symmetry_group_IT_number 39
_symmetry_cell_setting 'orthorhombic'
loop_
_space_group_symop_operation_xyz
x,y,z
-x,-y,z
-x,1/2+y,z
x,1/2-y,z
x,1/2+y,1/2+z
-x,1/2-y,1/2+z
-x,y,1/2+z
x,-y,1/2+z
loop_
_atom_site_type_symbol
_atom_site_label
_atom_site_fract_x
_atom_site_fract_y
_atom_site_fract_z
Si Si1 0.409839 0.431253 0.964380
Si Si2 0.149076 0.068543 0.847566
Si Si3 0.911474 0.066984 0.733128
Si Si4 0.410918 0.568708 0.730782
Si Si5 0.650631 0.930378 0.843079
Si Si6 0.754806 0.067055 0.533816
Si Si7 0.090560 0.432051 0.463453
Si Si8 0.750325 0.432394 0.661002
O O1 0.500000 0.500000 0.985781
O O2 0.415933 0.250000 0.967699
O O3 0.390615 0.485622 0.901312
O O4 0.332963 0.490028 0.004202
O O5 0.135272 0.250000 0.852515
O O6 0.249229 0.024494 0.843301
O O7 0.099883 0.003575 0.794268
O O8 0.108262 0.989520 0.901192
O O9 0.914293 0.250000 0.736884
O O10 0.835341 0.007714 0.692741
O O11 0.000000 0.000000 0.707579
O O12 0.500000 0.500000 0.707512
O O13 0.415293 0.750000 0.726127
O O14 0.397920 0.522852 0.795059
O O15 0.333515 0.500794 0.692880
O O16 0.637535 0.750000 0.832920
O O17 0.765324 0.250000 0.528598
O O18 0.751083 0.008782 0.597555
O O19 0.835876 0.988374 0.505183
O O20 0.086101 0.250000 0.464015
O O21 0.000000 0.500000 0.485050
O O22 0.747369 0.250000 0.662611
#
# Coordination Sequence:
#
# PCOD8181569 Si02
#       8
#     8   8   8   8   8   8   8   8
#     4  10  21  37  59  87 119 154 195 241 297 354
#     4  11  21  38  63  91 122 157 195 242 299 358
#     4  11  22  39  60  90 121 156 198 242 297 357
#     4  11  22  38  59  89 121 159 200 244 298 356
#     4  10  20  36  59  89 118 155 195 242 301 356
#     4  10  21  43  65  85 118 160 204 254 301 350
#     4  12  25  41  63  92 123 158 198 245 299 360
#     4   9  21  40  63  85 116 159 203 248 300 351
#
# _framework density 19.896671000000001
#
# number of rings (size 3 to 8) (size 9 to 14) (size 15 to 20)
#    0.000    1.500    2.500    3.000    0.000    3.500 
#    0.000    3.750    0.000    0.000    0.000    0.000 
#    0.000    0.000    0.000    0.000    0.000    0.000 
#
# Total GULP energy -396953.442787 kJ/mol
# GULP energy per Si atom -12404.795087 kJ/mol
# Density = 1.985139 g / cm^3
# Si number density = 19.896671 Si / 1000 Ang^3
#
#
#
# Elastic Constant Matrix: (Units=GPa)
#
#
# Indices 1 2 3 4 5 6 
#
# 1 193.5768 50.0784 82.6861 0.0000 0.0000 0.0000
# 2 50.0784 62.5089 34.1950 0.0000 0.0000 0.0000
# 3 82.6861 34.1950 152.7902 0.0000 0.0000 0.0000
# 4 0.0000 0.0000 0.0000 23.7168 0.0000 0.0000
# 5 0.0000 0.0000 0.0000 0.0000 8.7463 0.0000
# 6 0.0000 0.0000 0.0000 0.0000 0.0000 31.3808
#
#
#
# Elastic Compliance Matrix: (Units=1/GPa)
#
#
# Indices 1 2 3 4 5 6 
#
# 1 0.007654 -0.004405 -0.003156 0.000000 0.000000 0.000000
# 2 -0.004405 0.020765 -0.002263 0.000000 0.000000 0.000000
# 3 -0.003156 -0.002263 0.008759 0.000000 0.000000 0.000000
# 4 0.000000 0.000000 0.000000 0.042164 0.000000 0.000000
# 5 0.000000 0.000000 0.000000 0.000000 0.114334 0.000000
# 6 0.000000 0.000000 0.000000 0.000000 0.000000 0.031867
#
#
# Mechanical properties :
#
#
# Convention : Reuss Voigt Hill
#
# Bulk Modulus (GPa) = 57.04830 82.53278 69.79054
# Shear Modulus (GPa) = 19.91756 28.89653 24.40704
#
# Velocity S-wave (km/s) = 3.16737 3.81508 3.50621
# Velocity P-wave (km/s) = 6.48929 7.80879 7.17942
#
# Compressibility (1/GPa) = 0.01752901
#
# Stress axis : x y z
#
# Youngs Moduli (GPa) = 130.65703 48.15794 114.16245
#
# Poissons Ratio (x) = 0.21214 0.36030
# Poissons Ratio (y) = 0.57556 0.25839
# Poissons Ratio (z) = 0.41236 0.10900
#
# Static dielectric constant tensor:
#      x y z
#    x 3.945300 0.000000 0.000000 
#    y 0.000000 3.437150 0.000000 
#    z 0.000000 0.000000 3.705140 
# 
# 
# High freq. dielectric constant tensor:
#      x y z
#    x 1.797640 0.000000 0.000000 
#    y 0.000000 1.763250 0.000000 
#    z 0.000000 0.000000 1.773960 
# 
# From -- ./inp_files/16185.got.cif
#   From: 2010.03.12/outbox.cif.g09.slc.cpg/sg39_9_cif.got.tgz:16185.got - 2010.04.14 02:53:20.
