data_PCOD8181030
_publ_section_title
;
Structure prediction by ZEFSAII (Michael W. Deem and Ramdas Pophale) SiO2 
 PCOD8181030
Probable space group: A B M 2
;
_chemical_formula_sum "Si O2"
_cell_formula_units_Z 48
_cell_length_a 11.343087
_cell_length_b 18.933755
_cell_length_c 11.683011
_cell_angle_alpha 90.000000
_cell_angle_beta 90.000000
_cell_angle_gamma 90.000000
_cell_volume 2509.127913
_symmetry_space_group_name_H-M "A B M 2"
_symmetry_group_IT_number 39
_symmetry_cell_setting 'orthorhombic'
loop_
_space_group_symop_operation_xyz
x,y,z
-x,-y,z
-x,1/2+y,z
x,1/2-y,z
x,1/2+y,1/2+z
-x,1/2-y,1/2+z
-x,y,1/2+z
x,-y,1/2+z
loop_
_atom_site_type_symbol
_atom_site_label
_atom_site_fract_x
_atom_site_fract_y
_atom_site_fract_z
Si Si1 0.845582 0.426145 0.747570
Si Si2 0.241944 0.054610 0.486963
Si Si3 0.539538 0.421346 0.144108
Si Si4 0.689780 0.169453 0.301275
Si Si5 0.298273 0.603051 0.534520
Si Si6 0.113560 0.582741 0.197463
O O1 0.779491 0.406203 0.865802
O O2 0.787467 0.384196 0.642431
O O3 0.827786 0.510390 0.743110
O O4 0.982804 0.406423 0.744712
O O5 0.355325 0.084701 0.552475
O O6 0.123112 0.073427 0.559593
O O7 0.264611 0.971044 0.474618
O O8 0.500000 0.500000 0.182370
O O9 0.580211 0.378969 0.257617
O O10 0.429187 0.387185 0.081993
O O11 0.659652 0.250000 0.272401
O O12 0.713376 0.161690 0.436750
O O13 0.810897 0.149131 0.238236
#
# Coordination Sequence:
#
# PCOD8181030 Si02
#       6
#     8   8   8   8   8   8
#     4  10  19  32  62  87 117 146 195 264 300 341
#     4   9  18  34  55  90 119 144 192 256 306 339
#     4   9  21  37  62  87 116 152 200 255 295 349
#     4  11  23  40  59  83 126 164 194 241 305 371
#     4  10  21  34  57  88 115 152 197 244 301 357
#     4   9  20  34  55  88 115 154 196 242 306 354
#
# _framework density 19.130153
#
# number of rings (size 3 to 8) (size 9 to 14) (size 15 to 20)
#    0.000    2.333    1.667    1.000    4.667    2.667 
#    0.000    0.833    0.000    1.000    0.000    0.000 
#    0.000    0.000    0.000    0.000    0.000    0.000 
#
# Total GULP energy -297433.088113 kJ/mol
# GULP energy per Si atom -12393.045338 kJ/mol
# Density = 1.908661 g / cm^3
# Si number density = 19.130153 Si / 1000 Ang^3
#
#
#
# Elastic Constant Matrix: (Units=GPa)
#
#
# Indices 1 2 3 4 5 6 
#
# 1 90.0247 37.7919 57.5042 0.0000 0.0000 0.0000
# 2 37.7919 72.5891 38.0802 0.0000 0.0000 0.0000
# 3 57.5042 38.0802 133.6577 0.0000 0.0000 0.0000
# 4 0.0000 0.0000 0.0000 17.4450 0.0000 0.0000
# 5 0.0000 0.0000 0.0000 0.0000 27.6066 0.0000
# 6 0.0000 0.0000 0.0000 0.0000 0.0000 16.1034
#
#
#
# Elastic Compliance Matrix: (Units=1/GPa)
#
#
# Indices 1 2 3 4 5 6 
#
# 1 0.017283 -0.005993 -0.005728 0.000000 0.000000 0.000000
# 2 -0.005993 0.018275 -0.002628 0.000000 0.000000 0.000000
# 3 -0.005728 -0.002628 0.010695 0.000000 0.000000 0.000000
# 4 0.000000 0.000000 0.000000 0.057323 0.000000 0.000000
# 5 0.000000 0.000000 0.000000 0.000000 0.036223 0.000000
# 6 0.000000 0.000000 0.000000 0.000000 0.000000 0.062099
#
#
# Mechanical properties :
#
#
# Convention : Reuss Voigt Hill
#
# Bulk Modulus (GPa) = 56.96699 62.55823 59.76261
# Shear Modulus (GPa) = 21.14629 23.09070 22.11849
#
# Velocity S-wave (km/s) = 3.32835 3.47800 3.40400
# Velocity P-wave (km/s) = 6.67936 6.99293 6.83794
#
# Compressibility (1/GPa) = 0.01755403
#
# Stress axis : x y z
#
# Youngs Moduli (GPa) = 57.86095 54.71938 93.50038
#
# Poissons Ratio (x) = 0.32793 0.53559
# Poissons Ratio (y) = 0.34675 0.24575
# Poissons Ratio (z) = 0.33144 0.14382
#
# Static dielectric constant tensor:
#      x y z
#    x 3.554890 0.000000 0.000000 
#    y 0.000000 2.987780 0.000000 
#    z 0.000000 0.000000 3.617400 
# 
# 
# High freq. dielectric constant tensor:
#      x y z
#    x 1.750540 0.000000 0.000000 
#    y 0.000000 1.684190 0.000000 
#    z 0.000000 0.000000 1.755320 
# 
# From -- ./inp_files/5797.got.cif
#   From: 2010.03.12/outbox.cif.g09.slc.cpg/sg39_3_cif.got.tgz:5797.got - 2010.04.14 02:53:20.
