data_PCOD8181668
_publ_section_title
;
Structure prediction by ZEFSAII (Michael W. Deem and Ramdas Pophale) SiO2 
 PCOD8181668
Probable space group: A B M 2
;
_chemical_formula_sum "Si O2"
_cell_formula_units_Z 52
_cell_length_a 5.148323
_cell_length_b 18.719421
_cell_length_c 22.248327
_cell_angle_alpha 90.000000
_cell_angle_beta 90.000000
_cell_angle_gamma 90.000000
_cell_volume 2144.151938
_symmetry_space_group_name_H-M "A B M 2"
_symmetry_group_IT_number 39
_symmetry_cell_setting 'orthorhombic'
loop_
_space_group_symop_operation_xyz
x,y,z
-x,-y,z
-x,1/2+y,z
x,1/2-y,z
x,1/2+y,1/2+z
-x,1/2-y,1/2+z
-x,y,1/2+z
x,-y,1/2+z
loop_
_atom_site_type_symbol
_atom_site_label
_atom_site_fract_x
_atom_site_fract_y
_atom_site_fract_z
Si Si1 0.739342 0.456499 0.423380
Si Si2 0.000000 0.000000 0.706761
Si Si3 0.241032 0.831106 0.512367
Si Si4 0.288536 0.750000 0.703476
Si Si5 0.706002 0.903042 0.793853
Si Si6 0.594832 0.897474 0.179449
Si Si7 0.248019 0.167719 0.589103
Si Si8 0.796582 0.250000 0.279406
O O1 0.500000 0.500000 0.452896
O O2 0.770864 0.379445 0.453266
O O3 0.671962 0.449794 0.352876
O O4 0.000000 0.500000 0.433341
O O5 0.925620 0.934005 0.749659
O O6 0.236250 0.968851 0.664853
O O7 0.177596 0.750000 0.492675
O O8 0.525891 0.837713 0.539806
O O9 0.022396 0.857616 0.559800
O O10 0.249924 0.677329 0.663939
O O11 0.587669 0.750000 0.725484
O O12 0.090302 0.750000 0.757302
O O13 0.449156 0.902285 0.751813
O O14 0.766736 0.822659 0.817187
O O15 0.323031 0.889426 0.142286
O O16 0.229458 0.250000 0.613417
#
# Coordination Sequence:
#
# PCOD8181668 Si02
#       8
#     8   4   8   4   8   8   8   4
#     4  12  26  47  74 101 144 189 231 294 367 429
#     4  12  22  40  62  96 152 184 234 270 358 434
#     4  10  24  47  75 105 134 184 248 302 350 416
#     4  10  20  38  60  94 132 178 237 273 331 409
#     4  11  25  42  66 102 142 186 234 288 354 423
#     4  11  23  40  67 102 141 191 232 286 354 436
#     4  10  22  44  73 102 139 181 236 303 356 407
#     4  10  22  38  64  92 134 178 237 285 331 405
#
# _framework density 24.252013999999999
#
# number of rings (size 3 to 8) (size 9 to 14) (size 15 to 20)
#    0.000    1.231    3.077    2.308    3.231    0.000 
#    1.385    1.538    0.000    0.000    0.000    0.000 
#    0.000    0.000    0.000    0.000    0.000    0.000 
#
# Total GULP energy -322259.605366 kJ/mol
# GULP energy per Si atom -12394.600206 kJ/mol
# Density = 2.419682 g / cm^3
# Si number density = 24.252014 Si / 1000 Ang^3
#
#
#
# Elastic Constant Matrix: (Units=GPa)
#
#
# Indices 1 2 3 4 5 6 
#
# 1 104.0032 38.4445 16.8407 0.0000 0.0000 0.0000
# 2 38.4445 113.1177 22.6690 0.0000 0.0000 0.0000
# 3 16.8407 22.6690 79.1534 0.0000 0.0000 0.0000
# 4 0.0000 0.0000 0.0000 21.2465 0.0000 0.0000
# 5 0.0000 0.0000 0.0000 0.0000 12.8682 0.0000
# 6 0.0000 0.0000 0.0000 0.0000 0.0000 42.1355
#
#
#
# Elastic Compliance Matrix: (Units=1/GPa)
#
#
# Indices 1 2 3 4 5 6 
#
# 1 0.011134 -0.003511 -0.001363 0.000000 0.000000 0.000000
# 2 -0.003511 0.010486 -0.002256 0.000000 0.000000 0.000000
# 3 -0.001363 -0.002256 0.013570 0.000000 0.000000 0.000000
# 4 0.000000 0.000000 0.000000 0.047067 0.000000 0.000000
# 5 0.000000 0.000000 0.000000 0.000000 0.077711 0.000000
# 6 0.000000 0.000000 0.000000 0.000000 0.000000 0.023733
#
#
# Mechanical properties :
#
#
# Convention : Reuss Voigt Hill
#
# Bulk Modulus (GPa) = 47.78088 50.24253 49.01170
# Shear Modulus (GPa) = 24.39786 29.80470 27.10128
#
# Velocity S-wave (km/s) = 3.17521 3.50945 3.34651
# Velocity P-wave (km/s) = 5.76084 6.09783 5.93173
#
# Compressibility (1/GPa) = 0.02092888
#
# Stress axis : x y z
#
# Youngs Moduli (GPa) = 89.81858 95.36872 73.69252
#
# Poissons Ratio (x) = 0.33481 0.10047
# Poissons Ratio (y) = 0.31532 0.16626
# Poissons Ratio (z) = 0.12245 0.21516
#
# Static dielectric constant tensor:
#      x y z
#    x 4.438570 0.000000 0.000000 
#    y 0.000000 4.892050 0.000000 
#    z 0.000000 0.000000 3.856630 
# 
# 
# High freq. dielectric constant tensor:
#      x y z
#    x 1.977820 0.000000 0.000000 
#    y 0.000000 1.981540 0.000000 
#    z 0.000000 0.000000 1.918850 
# 
# From -- ./inp_files/13568.got.cif
#   From: 2010.03.12/outbox.cif.g09.slc.cpg/sg39_7_cif.got.tgz:13568.got - 2010.04.14 02:53:20.
