data_PCOD8181106
_publ_section_title
;
Structure prediction by ZEFSAII (Michael W. Deem and Ramdas Pophale) SiO2 
 PCOD8181106
Probable space group: A B M 2
;
_chemical_formula_sum "Si O2"
_cell_formula_units_Z 64
_cell_length_a 19.696402
_cell_length_b 8.847325
_cell_length_c 19.895399
_cell_angle_alpha 90.000000
_cell_angle_beta 90.000000
_cell_angle_gamma 90.000000
_cell_volume 3466.981577
_symmetry_space_group_name_H-M "A B M 2"
_symmetry_group_IT_number 39
_symmetry_cell_setting 'orthorhombic'
loop_
_space_group_symop_operation_xyz
x,y,z
-x,-y,z
-x,1/2+y,z
x,1/2-y,z
x,1/2+y,1/2+z
-x,1/2-y,1/2+z
-x,y,1/2+z
x,-y,1/2+z
loop_
_atom_site_type_symbol
_atom_site_label
_atom_site_fract_x
_atom_site_fract_y
_atom_site_fract_z
Si Si1 0.835087 0.075165 0.246900
Si Si2 0.196431 0.072969 0.113847
Si Si3 0.348717 0.072368 0.151601
Si Si4 0.683200 0.074361 0.285701
Si Si5 0.321263 0.072702 0.423761
Si Si6 0.926541 0.571525 0.870753
Si Si7 0.570816 0.927960 0.536277
Si Si8 0.174163 0.571378 0.975155
O O1 0.840207 0.250000 0.226277
O O2 0.763141 0.039653 0.281354
O O3 0.892400 0.027527 0.299912
O O4 0.845190 0.975027 0.180273
O O5 0.187700 0.250000 0.101640
O O6 0.274955 0.026209 0.123123
O O7 0.165584 0.982725 0.051526
O O8 0.360122 0.250000 0.149968
O O9 0.356796 0.013926 0.227515
O O10 0.406416 0.993148 0.107835
O O11 0.666732 0.250000 0.278385
O O12 0.656693 0.015125 0.356960
O O13 0.322285 0.250000 0.408843
O O14 0.374182 0.025611 0.480808
O O15 0.247176 0.018787 0.447594
O O16 0.930965 0.750000 0.879673
O O17 0.884091 0.505835 0.932145
O O18 0.000000 0.500000 0.872150
O O19 0.562824 0.750000 0.542699
O O20 0.500000 0.000000 0.514123
O O21 0.165586 0.750000 0.971880
#
# Coordination Sequence:
#
# PCOD8181106 Si02
#       8
#     8   8   8   8   8   8   8   8
#     4   9  19  35  55  81 114 148 186 234 287 343
#     4  10  20  33  56  87 116 145 188 241 288 338
#     4  10  20  35  56  84 116 150 189 237 287 343
#     4  10  19  33  57  86 115 146 187 240 289 337
#     4  10  21  36  57  85 117 151 192 241 293 347
#     4  11  23  40  59  85 118 156 196 239 291 352
#     4  11  23  40  59  84 117 156 196 239 292 352
#     4  11  21  36  59  86 117 154 194 243 293 344
#
# _framework density 18.459861
#
# number of rings (size 3 to 8) (size 9 to 14) (size 15 to 20)
#    0.000    1.750    2.500    2.250    0.000    4.000 
#    0.000    1.250    0.000    3.000    0.000    0.000 
#    0.000    0.000    0.000    0.000    0.000    0.000 
#
# Total GULP energy -396981.299814 kJ/mol
# GULP energy per Si atom -12405.665619 kJ/mol
# Density = 1.841785 g / cm^3
# Si number density = 18.459861 Si / 1000 Ang^3
#
#
#
# Elastic Constant Matrix: (Units=GPa)
#
#
# Indices 1 2 3 4 5 6 
#
# 1 86.5715 35.1356 45.7242 0.0000 0.0000 0.0000
# 2 35.1356 75.1461 50.7461 0.0000 0.0000 0.0000
# 3 45.7242 50.7461 130.3487 0.0000 0.0000 0.0000
# 4 0.0000 0.0000 0.0000 37.2961 0.0000 0.0000
# 5 0.0000 0.0000 0.0000 0.0000 25.5681 0.0000
# 6 0.0000 0.0000 0.0000 0.0000 0.0000 28.9222
#
#
#
# Elastic Compliance Matrix: (Units=1/GPa)
#
#
# Indices 1 2 3 4 5 6 
#
# 1 0.015359 -0.004807 -0.003516 0.000000 0.000000 0.000000
# 2 -0.004807 0.019558 -0.005928 0.000000 0.000000 0.000000
# 3 -0.003516 -0.005928 0.011213 0.000000 0.000000 0.000000
# 4 0.000000 0.000000 0.000000 0.026812 0.000000 0.000000
# 5 0.000000 0.000000 0.000000 0.000000 0.039111 0.000000
# 6 0.000000 0.000000 0.000000 0.000000 0.000000 0.034575
#
#
# Mechanical properties :
#
#
# Convention : Reuss Voigt Hill
#
# Bulk Modulus (GPa) = 56.72818 61.69757 59.21287
# Shear Modulus (GPa) = 27.62308 29.05466 28.33887
#
# Velocity S-wave (km/s) = 3.87251 3.97159 3.92236
# Velocity P-wave (km/s) = 7.12688 7.38421 7.25668
#
# Compressibility (1/GPa) = 0.01762792
#
# Stress axis : x y z
#
# Youngs Moduli (GPa) = 65.10718 51.12975 89.18150
#
# Poissons Ratio (x) = 0.24577 0.31360
# Poissons Ratio (y) = 0.31296 0.52867
# Poissons Ratio (z) = 0.22895 0.30310
#
# Static dielectric constant tensor:
#      x y z
#    x 3.230090 0.000000 0.000000 
#    y 0.000000 3.413780 0.000000 
#    z 0.000000 0.000000 3.457020 
# 
# 
# High freq. dielectric constant tensor:
#      x y z
#    x 1.690270 0.000000 0.000000 
#    y 0.000000 1.726910 0.000000 
#    z 0.000000 0.000000 1.728490 
# 
# From -- ./inp_files/13096.got.cif
#   From: 2010.03.12/outbox.cif.g09.slc.cpg/sg39_7_cif.got.tgz:13096.got - 2010.04.14 02:53:20.
