data_PCOD8181611
_publ_section_title
;
Structure prediction by ZEFSAII (Michael W. Deem and Ramdas Pophale) SiO2 
 PCOD8181611
Probable space group: A B M 2
;
_chemical_formula_sum "Si O2"
_cell_formula_units_Z 48
_cell_length_a 9.433856
_cell_length_b 8.698449
_cell_length_c 30.189045
_cell_angle_alpha 90.000000
_cell_angle_beta 90.000000
_cell_angle_gamma 90.000000
_cell_volume 2477.310475
_symmetry_space_group_name_H-M "A B M 2"
_symmetry_group_IT_number 39
_symmetry_cell_setting 'orthorhombic'
loop_
_space_group_symop_operation_xyz
x,y,z
-x,-y,z
-x,1/2+y,z
x,1/2-y,z
x,1/2+y,1/2+z
-x,1/2-y,1/2+z
-x,y,1/2+z
x,-y,1/2+z
loop_
_atom_site_type_symbol
_atom_site_label
_atom_site_fract_x
_atom_site_fract_y
_atom_site_fract_z
Si Si1 0.349809 0.428288 0.857720
Si Si2 0.845054 0.568111 0.286657
Si Si3 0.655657 0.568677 0.204656
Si Si4 0.648873 0.071351 0.460712
Si Si5 0.153368 0.431530 0.531761
Si Si6 0.844837 0.432459 0.622674
O O1 0.500000 0.500000 0.843500
O O2 0.354671 0.250000 0.845311
O O3 0.221552 0.509584 0.832438
O O4 0.318533 0.455465 0.909251
O O5 0.857981 0.750000 0.287887
O O6 0.744682 0.510465 0.246872
O O7 0.000000 0.500000 0.279622
O O8 0.500000 0.500000 0.205950
O O9 0.641247 0.750000 0.205395
O O10 0.737866 0.512913 0.160867
O O11 0.651908 0.250000 0.473396
O O12 0.500000 0.000000 0.474045
O O13 0.762046 0.977652 0.488396
O O14 0.146368 0.250000 0.536696
O O15 0.219337 0.502814 0.576686
O O16 0.000000 0.500000 0.524827
O O17 0.857795 0.250000 0.620225
O O18 0.000000 0.500000 0.632464
#
# Coordination Sequence:
#
# PCOD8181611 Si02
#       6
#     8   8   8   8   8   8
#     4  10  21  38  60  85 114 149 188 232 281 334
#     4  11  23  39  59  85 115 149 189 232 281 334
#     4  10  23  39  58  84 113 147 186 229 277 333
#     4  10  21  38  59  84 114 149 189 232 281 335
#     4  11  22  37  58  84 114 150 190 233 283 335
#     4  10  20  37  58  82 112 146 187 232 280 333
#
# _framework density 19.37585
#
# number of rings (size 3 to 8) (size 9 to 14) (size 15 to 20)
#    0.000    1.667    0.000    5.500    0.000    7.333 
#    0.000    1.667    0.000    0.000    0.000    0.000 
#    0.000    0.000    0.000    0.000    0.000    0.000 
#
# Total GULP energy -297695.050534 kJ/mol
# GULP energy per Si atom -12403.960439 kJ/mol
# Density = 1.933175 g / cm^3
# Si number density = 19.375850 Si / 1000 Ang^3
#
#
#
# Elastic Constant Matrix: (Units=GPa)
#
#
# Indices 1 2 3 4 5 6 
#
# 1 130.1467 56.5939 76.4921 0.0000 0.0000 0.0000
# 2 56.5939 107.1948 51.1852 0.0000 0.0000 0.0000
# 3 76.4921 51.1852 108.1823 0.0000 0.0000 0.0000
# 4 0.0000 0.0000 0.0000 6.1517 0.0000 0.0000
# 5 0.0000 0.0000 0.0000 0.0000 45.2436 0.0000
# 6 0.0000 0.0000 0.0000 0.0000 0.0000 39.4653
#
#
#
# Elastic Compliance Matrix: (Units=1/GPa)
#
#
# Indices 1 2 3 4 5 6 
#
# 1 0.014076 -0.003461 -0.008315 0.000000 0.000000 0.000000
# 2 -0.003461 0.012902 -0.003658 0.000000 0.000000 0.000000
# 3 -0.008315 -0.003658 0.016853 0.000000 0.000000 0.000000
# 4 0.000000 0.000000 0.000000 0.162557 0.000000 0.000000
# 5 0.000000 0.000000 0.000000 0.000000 0.022103 0.000000
# 6 0.000000 0.000000 0.000000 0.000000 0.000000 0.025339
#
#
# Mechanical properties :
#
#
# Convention : Reuss Voigt Hill
#
# Bulk Modulus (GPa) = 77.13247 79.34069 78.23658
# Shear Modulus (GPa) = 17.29993 28.92229 23.11111
#
# Velocity S-wave (km/s) = 2.99132 3.86774 3.45741
# Velocity P-wave (km/s) = 7.19900 7.80916 7.51028
#
# Compressibility (1/GPa) = 0.01296471
#
# Stress axis : x y z
#
# Youngs Moduli (GPa) = 71.04502 77.50442 59.33541
#
# Poissons Ratio (x) = 0.26824 0.49337
# Poissons Ratio (y) = 0.24588 0.21702
# Poissons Ratio (z) = 0.59073 0.28348
#
# Static dielectric constant tensor:
#      x y z
#    x 3.498850 0.000000 0.000000 
#    y 0.000000 3.646980 0.000000 
#    z 0.000000 0.000000 3.781820 
# 
# 
# High freq. dielectric constant tensor:
#      x y z
#    x 1.755070 0.000000 0.000000 
#    y 0.000000 1.767960 0.000000 
#    z 0.000000 0.000000 1.767540 
# 
# From -- ./inp_files/17603.got.cif
#   From: 2010.03.12/outbox.cif.g09.slc.cpg/sg39_9_cif.got.tgz:17603.got - 2010.04.14 02:53:20.
