data_PCOD8181407
_publ_section_title
;
Structure prediction by ZEFSAII (Michael W. Deem and Ramdas Pophale) SiO2 
 PCOD8181407
Probable space group: A B M 2
;
_chemical_formula_sum "Si O2"
_cell_formula_units_Z 44
_cell_length_a 23.724870
_cell_length_b 9.335496
_cell_length_c 9.439832
_cell_angle_alpha 90.000000
_cell_angle_beta 90.000000
_cell_angle_gamma 90.000000
_cell_volume 2090.766360
_symmetry_space_group_name_H-M "A B M 2"
_symmetry_group_IT_number 39
_symmetry_cell_setting 'orthorhombic'
loop_
_space_group_symop_operation_xyz
x,y,z
-x,-y,z
-x,1/2+y,z
x,1/2-y,z
x,1/2+y,1/2+z
-x,1/2-y,1/2+z
-x,y,1/2+z
x,-y,1/2+z
loop_
_atom_site_type_symbol
_atom_site_label
_atom_site_fract_x
_atom_site_fract_y
_atom_site_fract_z
Si Si1 0.054111 0.585122 0.291740
Si Si2 0.121688 0.585377 0.014539
Si Si3 0.694291 0.911869 0.740073
Si Si4 0.235063 0.911302 0.521938
Si Si5 0.425165 0.405015 0.805435
Si Si6 0.500000 0.500000 0.561689
O O1 0.038422 0.750000 0.328972
O O2 0.104373 0.581737 0.178489
O O3 0.074408 0.501667 0.430334
O O4 0.000000 0.500000 0.232027
O O5 0.125597 0.750000 0.960910
O O6 0.181133 0.509294 0.994901
O O7 0.690305 0.750000 0.674144
O O8 0.632455 0.988300 0.766714
O O9 0.726187 0.019844 0.639892
O O10 0.728379 0.903784 0.882911
O O11 0.216492 0.750000 0.566661
O O12 0.400593 0.250000 0.833477
O O13 0.469321 0.395006 0.673999
O O14 0.452352 0.442361 0.956803
#
# Coordination Sequence:
#
# PCOD8181407 Si02
#       6
#     8   8   8   8   8   4
#     4  11  24  41  62  90 122 157 198 243 291 346
#     4  11  24  41  63  90 121 158 199 244 295 350
#     4  10  22  39  58  83 117 153 192 240 293 350
#     4  11  23  39  60  87 117 152 196 244 293 349
#     4  10  20  36  56  80 112 148 187 235 288 344
#     4  10  20  34  56  84 110 144 190 234 286 346
#
# _framework density 21.044913999999999
#
# number of rings (size 3 to 8) (size 9 to 14) (size 15 to 20)
#    0.000    1.455    0.000    4.909    0.000   10.182 
#    0.000    4.545    0.000    0.000    0.000    0.000 
#    0.000    0.000    0.000    0.000    0.000    0.000 
#
# Total GULP energy -272591.646453 kJ/mol
# GULP energy per Si atom -12390.529384 kJ/mol
# Density = 2.099702 g / cm^3
# Si number density = 21.044914 Si / 1000 Ang^3
#
#
#
# Elastic Constant Matrix: (Units=GPa)
#
#
# Indices 1 2 3 4 5 6 
#
# 1 116.5249 43.4721 16.9567 0.0000 0.0000 0.0000
# 2 43.4721 142.7162 36.5619 0.0000 0.0000 0.0000
# 3 16.9567 36.5619 91.5658 0.0000 0.0000 0.0000
# 4 0.0000 0.0000 0.0000 23.7962 0.0000 0.0000
# 5 0.0000 0.0000 0.0000 0.0000 38.4037 0.0000
# 6 0.0000 0.0000 0.0000 0.0000 0.0000 32.1684
#
#
#
# Elastic Compliance Matrix: (Units=1/GPa)
#
#
# Indices 1 2 3 4 5 6 
#
# 1 0.009721 -0.002785 -0.000688 0.000000 0.000000 0.000000
# 2 -0.002785 0.008603 -0.002919 0.000000 0.000000 0.000000
# 3 -0.000688 -0.002919 0.012214 0.000000 0.000000 0.000000
# 4 0.000000 0.000000 0.000000 0.042024 0.000000 0.000000
# 5 0.000000 0.000000 0.000000 0.000000 0.026039 0.000000
# 6 0.000000 0.000000 0.000000 0.000000 0.000000 0.031086
#
#
# Mechanical properties :
#
#
# Convention : Reuss Voigt Hill
#
# Bulk Modulus (GPa) = 56.32728 60.53202 58.42965
# Shear Modulus (GPa) = 33.69497 35.79474 34.74486
#
# Velocity S-wave (km/s) = 4.00571 4.12864 4.06764
# Velocity P-wave (km/s) = 6.94390 7.18006 7.06296
#
# Compressibility (1/GPa) = 0.01775339
#
# Stress axis : x y z
#
# Youngs Moduli (GPa) = 102.87098 116.23737 81.87129
#
# Poissons Ratio (x) = 0.32369 0.05635
# Poissons Ratio (y) = 0.28647 0.23902
# Poissons Ratio (z) = 0.07080 0.33935
#
# Static dielectric constant tensor:
#      x y z
#    x 4.009140 0.000000 0.000000 
#    y 0.000000 4.058740 0.000000 
#    z 0.000000 0.000000 3.721160 
# 
# 
# High freq. dielectric constant tensor:
#      x y z
#    x 1.844890 0.000000 0.000000 
#    y 0.000000 1.822140 0.000000 
#    z 0.000000 0.000000 1.826570 
# 
# From -- ./inp_files/7043.got.cif
#   From: 2010.03.12/outbox.cif.g09.slc.cpg/sg39_4_cif.got.tgz:7043.got - 2010.04.14 02:53:20.
