data_PCOD8181090
_publ_section_title
;
Structure prediction by ZEFSAII (Michael W. Deem and Ramdas Pophale) SiO2 
 PCOD8181090
Probable space group: A B M 2
;
_chemical_formula_sum "Si O2"
_cell_formula_units_Z 48
_cell_length_a 17.970685
_cell_length_b 15.027170
_cell_length_c 7.774894
_cell_angle_alpha 90.000000
_cell_angle_beta 90.000000
_cell_angle_gamma 90.000000
_cell_volume 2099.598762
_symmetry_space_group_name_H-M "A B M 2"
_symmetry_group_IT_number 39
_symmetry_cell_setting 'orthorhombic'
loop_
_space_group_symop_operation_xyz
x,y,z
-x,-y,z
-x,1/2+y,z
x,1/2-y,z
x,1/2+y,1/2+z
-x,1/2-y,1/2+z
-x,y,1/2+z
x,-y,1/2+z
loop_
_atom_site_type_symbol
_atom_site_label
_atom_site_fract_x
_atom_site_fract_y
_atom_site_fract_z
Si Si1 0.685882 0.356143 0.411670
Si Si2 0.162067 0.924721 0.511159
Si Si3 0.421156 0.144648 0.219878
Si Si4 0.580582 0.855610 0.603753
Si Si5 0.046466 0.750000 0.225180
Si Si6 0.108764 0.250000 0.109588
Si Si7 0.926258 0.940287 0.688655
O O1 0.703224 0.250000 0.408966
O O2 0.760139 0.416049 0.411467
O O3 0.640132 0.384551 0.581295
O O4 0.642538 0.386668 0.240094
O O5 0.157180 0.839120 0.638943
O O6 0.089050 0.927379 0.390141
O O7 0.150212 0.015039 0.618680
O O8 0.427467 0.250000 0.223263
O O9 0.399922 0.109429 0.411290
O O10 0.500943 0.105115 0.162740
O O11 0.576056 0.750000 0.604389
O O12 0.084550 0.750000 0.409521
O O13 0.066048 0.660504 0.114472
O O14 0.957407 0.750000 0.246997
O O15 0.000000 0.000000 0.661806
#
# Coordination Sequence:
#
# PCOD8181090 Si02
#       7
#     8   8   8   8   4   4   8
#     4  10  19  33  55  85 132 176 214 270 330 393
#     4  11  23  40  60  92 131 172 210 269 332 387
#     4   9  15  26  49  83 124 172 222 269 321 388
#     4   9  15  26  49  83 124 170 221 271 320 387
#     4  10  22  36  66  94 118 162 214 268 314 388
#     4  10  20  38  64  92 128 162 212 258 328 388
#     4  11  23  41  66  92 123 167 219 266 321 396
#
# _framework density 22.861512000000001
#
# number of rings (size 3 to 8) (size 9 to 14) (size 15 to 20)
#    0.000    2.000    4.167    0.500    2.333    0.000 
#    3.000    0.000    0.000    0.000    0.000    3.500 
#    0.000    0.000    0.000    0.333    0.000    0.083 
#
# Total GULP energy -297353.923579 kJ/mol
# GULP energy per Si atom -12389.746816 kJ/mol
# Density = 2.280948 g / cm^3
# Si number density = 22.861512 Si / 1000 Ang^3
#
#
#
# Elastic Constant Matrix: (Units=GPa)
#
#
# Indices 1 2 3 4 5 6 
#
# 1 112.8964 32.6566 39.6529 0.0000 0.0000 0.0000
# 2 32.6566 108.8671 25.0249 0.0000 0.0000 0.0000
# 3 39.6529 25.0249 117.7208 0.0000 0.0000 0.0000
# 4 0.0000 0.0000 0.0000 12.9896 0.0000 0.0000
# 5 0.0000 0.0000 0.0000 0.0000 35.7238 0.0000
# 6 0.0000 0.0000 0.0000 0.0000 0.0000 6.6561
#
#
#
# Elastic Compliance Matrix: (Units=1/GPa)
#
#
# Indices 1 2 3 4 5 6 
#
# 1 0.010653 -0.002492 -0.003058 0.000000 0.000000 0.000000
# 2 -0.002492 0.010241 -0.001337 0.000000 0.000000 0.000000
# 3 -0.003058 -0.001337 0.009809 0.000000 0.000000 0.000000
# 4 0.000000 0.000000 0.000000 0.076985 0.000000 0.000000
# 5 0.000000 0.000000 0.000000 0.000000 0.027993 0.000000
# 6 0.000000 0.000000 0.000000 0.000000 0.000000 0.150239
#
#
# Mechanical properties :
#
#
# Convention : Reuss Voigt Hill
#
# Bulk Modulus (GPa) = 59.08052 59.35033 59.21543
# Shear Modulus (GPa) = 16.37533 27.21721 21.79627
#
# Velocity S-wave (km/s) = 2.67925 3.45414 3.09107
# Velocity P-wave (km/s) = 5.95568 6.47497 6.22075
#
# Compressibility (1/GPa) = 0.01692605
#
# Stress axis : x y z
#
# Youngs Moduli (GPa) = 93.87126 97.65064 101.94536
#
# Poissons Ratio (x) = 0.24339 0.31180
# Poissons Ratio (y) = 0.23397 0.13634
# Poissons Ratio (z) = 0.28710 0.13059
#
# Static dielectric constant tensor:
#      x y z
#    x 3.900020 0.000000 0.000000 
#    y 0.000000 4.314420 0.000000 
#    z 0.000000 0.000000 4.127230 
# 
# 
# High freq. dielectric constant tensor:
#      x y z
#    x 1.886720 0.000000 0.000000 
#    y 0.000000 1.890180 0.000000 
#    z 0.000000 0.000000 1.890960 
# 
# From -- ./inp_files/3722.got.cif
#   From: 2010.03.12/outbox.cif.g09.slc.cpg/sg39_2_cif.got.tgz:3722.got - 2010.04.14 02:53:20.
