data_PCOD8181980
_publ_section_title
;
Structure prediction by ZEFSAII (Michael W. Deem and Ramdas Pophale) SiO2 
 PCOD8181980
Probable space group: A B M 2
;
_chemical_formula_sum "Si O2"
_cell_formula_units_Z 48
_cell_length_a 16.622748
_cell_length_b 15.201113
_cell_length_c 9.497063
_cell_angle_alpha 90.000000
_cell_angle_beta 90.000000
_cell_angle_gamma 90.000000
_cell_volume 2399.758438
_symmetry_space_group_name_H-M "A B M 2"
_symmetry_group_IT_number 39
_symmetry_cell_setting 'orthorhombic'
loop_
_space_group_symop_operation_xyz
x,y,z
-x,-y,z
-x,1/2+y,z
x,1/2-y,z
x,1/2+y,1/2+z
-x,1/2-y,1/2+z
-x,y,1/2+z
x,-y,1/2+z
loop_
_atom_site_type_symbol
_atom_site_label
_atom_site_fract_x
_atom_site_fract_y
_atom_site_fract_z
Si Si1 0.089692 0.653377 0.858230
Si Si2 0.044675 0.090394 0.053915
Si Si3 0.304544 0.991822 0.173462
Si Si4 0.590484 0.350886 0.774104
Si Si5 0.567208 0.350558 0.098742
Si Si6 0.195142 0.009140 0.918548
O O1 0.127510 0.750000 0.870114
O O2 0.062627 0.637665 0.699082
O O3 0.158455 0.588105 0.909629
O O4 0.011202 0.649598 0.956165
O O5 0.000000 0.000000 0.090311
O O6 0.127722 0.076870 0.969631
O O7 0.369677 0.914586 0.173667
O O8 0.337606 0.083205 0.236788
O O9 0.227736 0.961186 0.266029
O O10 0.273087 0.008984 0.017321
O O11 0.620630 0.250000 0.757958
O O12 0.518973 0.371006 0.665849
O O13 0.560162 0.368651 0.932527
O O14 0.593325 0.250000 0.129614
#
# Coordination Sequence:
#
# PCOD8181980 Si02
#       6
#     8   8   8   8   8   8
#     4  11  23  40  64  90 119 157 204 251 298 358
#     4  10  21  41  63  86 119 159 201 245 299 366
#     4  12  23  41  64  91 124 165 202 248 311 364
#     4  10  23  42  64  90 122 163 207 252 300 362
#     4  10  23  42  64  90 123 162 208 253 300 362
#     4  11  24  40  62  89 122 162 200 246 306 365
#
# _framework density 20.002013000000002
#
# number of rings (size 3 to 8) (size 9 to 14) (size 15 to 20)
#    0.000    1.333    3.333    2.500    4.667    2.667 
#    0.000    1.667    0.000    0.000    0.000    0.000 
#    0.000    0.000    0.000    0.000    0.000    0.000 
#
# Total GULP energy -297701.016148 kJ/mol
# GULP energy per Si atom -12404.209006 kJ/mol
# Density = 1.995649 g / cm^3
# Si number density = 20.002013 Si / 1000 Ang^3
#
#
#
# Elastic Constant Matrix: (Units=GPa)
#
#
# Indices 1 2 3 4 5 6 
#
# 1 80.0415 31.9151 33.2403 0.0000 0.0000 0.0000
# 2 31.9151 85.4169 40.0222 0.0000 0.0000 0.0000
# 3 33.2403 40.0222 98.2093 0.0000 0.0000 0.0000
# 4 0.0000 0.0000 0.0000 4.7899 0.0000 0.0000
# 5 0.0000 0.0000 0.0000 0.0000 42.9857 0.0000
# 6 0.0000 0.0000 0.0000 0.0000 0.0000 16.3979
#
#
#
# Elastic Compliance Matrix: (Units=1/GPa)
#
#
# Indices 1 2 3 4 5 6 
#
# 1 0.015647 -0.004159 -0.003601 0.000000 0.000000 0.000000
# 2 -0.004159 0.015576 -0.004940 0.000000 0.000000 0.000000
# 3 -0.003601 -0.004940 0.013414 0.000000 0.000000 0.000000
# 4 0.000000 0.000000 0.000000 0.208771 0.000000 0.000000
# 5 0.000000 0.000000 0.000000 0.000000 0.023264 0.000000
# 6 0.000000 0.000000 0.000000 0.000000 0.000000 0.060984
#
#
# Mechanical properties :
#
#
# Convention : Reuss Voigt Hill
#
# Bulk Modulus (GPa) = 51.98207 52.66920 52.32564
# Shear Modulus (GPa) = 13.53297 23.40071 18.46684
#
# Velocity S-wave (km/s) = 2.60394 3.42412 3.04180
# Velocity P-wave (km/s) = 5.92330 6.48243 6.20916
#
# Compressibility (1/GPa) = 0.01923740
#
# Stress axis : x y z
#
# Youngs Moduli (GPa) = 63.90830 64.20212 74.54774
#
# Poissons Ratio (x) = 0.26703 0.26846
# Poissons Ratio (y) = 0.26580 0.36824
# Poissons Ratio (z) = 0.23014 0.31714
#
# Static dielectric constant tensor:
#      x y z
#    x 3.624620 0.000000 0.000000 
#    y 0.000000 3.720330 0.000000 
#    z 0.000000 0.000000 3.751840 
# 
# 
# High freq. dielectric constant tensor:
#      x y z
#    x 1.781530 0.000000 0.000000 
#    y 0.000000 1.774160 0.000000 
#    z 0.000000 0.000000 1.797770 
# 
# From -- ./inp_files/3249.got.cif
#   From: 2010.03.12/outbox.cif.g09.slc.cpg/sg39_2_cif.got.tgz:3249.got - 2010.04.14 02:53:20.
