data_PCOD8181164
_publ_section_title
;
Structure prediction by ZEFSAII (Michael W. Deem and Ramdas Pophale) SiO2 
 PCOD8181164
Probable space group: A B M 2
;
_chemical_formula_sum "Si O2"
_cell_formula_units_Z 40
_cell_length_a 14.616500
_cell_length_b 8.822192
_cell_length_c 15.365751
_cell_angle_alpha 90.000000
_cell_angle_beta 90.000000
_cell_angle_gamma 90.000000
_cell_volume 1981.406974
_symmetry_space_group_name_H-M "A B M 2"
_symmetry_group_IT_number 39
_symmetry_cell_setting 'orthorhombic'
loop_
_space_group_symop_operation_xyz
x,y,z
-x,-y,z
-x,1/2+y,z
x,1/2-y,z
x,1/2+y,1/2+z
-x,1/2-y,1/2+z
-x,y,1/2+z
x,-y,1/2+z
loop_
_atom_site_type_symbol
_atom_site_label
_atom_site_fract_x
_atom_site_fract_y
_atom_site_fract_z
Si Si1 0.779544 0.073175 0.836360
Si Si2 0.406636 0.074920 0.878481
Si Si3 0.783392 0.427021 0.641407
Si Si4 0.901401 0.070731 0.482875
Si Si5 0.591543 0.577394 0.084254
O O1 0.785044 0.250000 0.861178
O O2 0.818575 0.043539 0.739090
O O3 0.675160 0.019162 0.835809
O O4 0.838910 0.974599 0.901774
O O5 0.401969 0.250000 0.849880
O O6 0.500000 0.000000 0.843836
O O7 0.399309 0.057761 0.981486
O O8 0.773043 0.250000 0.620840
O O9 0.856338 0.493305 0.572165
O O10 0.682346 0.499036 0.626245
O O11 0.911435 0.250000 0.484222
O O12 0.000000 0.000000 0.470792
O O13 0.500000 0.500000 0.120642
O O14 0.583184 0.750000 0.112892
#
# Coordination Sequence:
#
# PCOD8181164 Si02
#       5
#     8   8   8   8   8
#     4  11  22  38  62  92 122 156 197 242 296 355
#     4  10  19  34  57  85 121 163 203 244 291 346
#     4   9  20  39  61  85 120 157 193 241 294 350
#     4  11  23  44  66  87 117 153 194 245 302 357
#     4   9  17  33  55  81 114 156 195 235 282 337
#
# _framework density 20.187674000000001
#
# number of rings (size 3 to 8) (size 9 to 14) (size 15 to 20)
#    0.000    2.000    2.000    1.800    0.000    2.400 
#    0.000   10.000    0.000    0.000    0.000    0.000 
#    0.000    0.000    0.000    0.000    0.000    0.000 
#
# Total GULP energy -248005.844376 kJ/mol
# GULP energy per Si atom -12400.292219 kJ/mol
# Density = 2.014173 g / cm^3
# Si number density = 20.187674 Si / 1000 Ang^3
#
#
#
# Elastic Constant Matrix: (Units=GPa)
#
#
# Indices 1 2 3 4 5 6 
#
# 1 127.4613 26.1564 45.6871 0.0000 0.0000 0.0000
# 2 26.1564 66.7190 28.1293 0.0000 0.0000 0.0000
# 3 45.6871 28.1293 89.3621 0.0000 0.0000 0.0000
# 4 0.0000 0.0000 0.0000 23.5560 0.0000 0.0000
# 5 0.0000 0.0000 0.0000 0.0000 6.7573 0.0000
# 6 0.0000 0.0000 0.0000 0.0000 0.0000 35.3334
#
#
#
# Elastic Compliance Matrix: (Units=1/GPa)
#
#
# Indices 1 2 3 4 5 6 
#
# 1 0.009832 -0.002001 -0.004397 0.000000 0.000000 0.000000
# 2 -0.002001 0.017689 -0.004545 0.000000 0.000000 0.000000
# 3 -0.004397 -0.004545 0.014869 0.000000 0.000000 0.000000
# 4 0.000000 0.000000 0.000000 0.042452 0.000000 0.000000
# 5 0.000000 0.000000 0.000000 0.000000 0.147988 0.000000
# 6 0.000000 0.000000 0.000000 0.000000 0.000000 0.028302
#
#
# Mechanical properties :
#
#
# Convention : Reuss Voigt Hill
#
# Bulk Modulus (GPa) = 48.77014 53.72088 51.24551
# Shear Modulus (GPa) = 17.25012 25.36731 21.30872
#
# Velocity S-wave (km/s) = 2.92633 3.54866 3.25242
# Velocity P-wave (km/s) = 5.96898 6.59236 6.28840
#
# Compressibility (1/GPa) = 0.02050435
#
# Stress axis : x y z
#
# Youngs Moduli (GPa) = 101.70718 56.53260 67.25344
#
# Poissons Ratio (x) = 0.11311 0.29571
# Poissons Ratio (y) = 0.20349 0.30568
# Poissons Ratio (z) = 0.44720 0.25695
#
# Static dielectric constant tensor:
#      x y z
#    x 3.825250 0.000000 0.000000 
#    y 0.000000 3.522720 0.000000 
#    z 0.000000 0.000000 3.626800 
# 
# 
# High freq. dielectric constant tensor:
#      x y z
#    x 1.793020 0.000000 0.000000 
#    y 0.000000 1.772170 0.000000 
#    z 0.000000 0.000000 1.788670 
# 
# From -- ./inp_files/9059.got.cif
#   From: 2010.03.12/outbox.cif.g09.slc.cpg/sg39_5_cif.got.tgz:9059.got - 2010.04.14 02:53:20.
