data_PCOD8181641
_publ_section_title
;
Structure prediction by ZEFSAII (Michael W. Deem and Ramdas Pophale) SiO2 
 PCOD8181641
Probable space group: A B M 2
;
_chemical_formula_sum "Si O2"
_cell_formula_units_Z 64
_cell_length_a 24.453048
_cell_length_b 8.616745
_cell_length_c 14.869276
_cell_angle_alpha 90.000000
_cell_angle_beta 90.000000
_cell_angle_gamma 90.000000
_cell_volume 3133.040897
_symmetry_space_group_name_H-M "A B M 2"
_symmetry_group_IT_number 39
_symmetry_cell_setting 'orthorhombic'
loop_
_space_group_symop_operation_xyz
x,y,z
-x,-y,z
-x,1/2+y,z
x,1/2-y,z
x,1/2+y,1/2+z
-x,1/2-y,1/2+z
-x,y,1/2+z
x,-y,1/2+z
loop_
_atom_site_type_symbol
_atom_site_label
_atom_site_fract_x
_atom_site_fract_y
_atom_site_fract_z
Si Si1 0.243042 0.070062 0.078190
Si Si2 0.173189 0.571493 0.230799
Si Si3 0.441698 0.065817 0.233983
Si Si4 0.948251 0.429688 0.247810
Si Si5 0.443181 0.931378 0.939331
Si Si6 0.172208 0.932725 0.926283
Si Si7 0.361319 0.933234 0.091385
Si Si8 0.053633 0.571908 0.941278
O O1 0.237473 0.250000 0.054756
O O2 0.210593 0.035623 0.169451
O O3 0.305431 0.026389 0.093263
O O4 0.220282 0.970853 0.995101
O O5 0.190960 0.750000 0.218799
O O6 0.109956 0.549828 0.198523
O O7 0.181708 0.525345 0.334280
O O8 0.439722 0.250000 0.218956
O O9 0.431029 0.017749 0.337342
O O10 0.500000 0.000000 0.201716
O O11 0.394605 0.980222 0.179552
O O12 0.957492 0.250000 0.272944
O O13 0.947756 0.536022 0.335951
O O14 0.000000 0.500000 0.190349
O O15 0.449812 0.750000 0.946902
O O16 0.500000 0.000000 0.975093
O O17 0.394090 0.988658 0.002755
O O18 0.171741 0.750000 0.904455
O O19 0.114172 0.984267 0.972876
O O20 0.350053 0.750000 0.091405
O O21 0.047908 0.750000 0.962335
O O22 0.000000 0.500000 0.990370
#
# Coordination Sequence:
#
# PCOD8181641 Si02
#       8
#     8   8   8   8   8   8   8   8
#     4  12  26  42  60  84 114 154 202 249 294 348
#     4  10  21  39  61  85 114 151 193 241 295 352
#     4  10  20  37  60  90 123 155 192 233 282 342
#     4   9  16  27  49  79 110 142 180 227 284 348
#     4   9  20  37  60  88 120 154 187 227 278 333
#     4  10  21  39  61  85 115 152 192 240 295 352
#     4  11  23  40  60  84 116 155 195 242 293 341
#     4   9  16  27  49  79 110 143 181 227 284 346
#
# _framework density 20.427439
#
# number of rings (size 3 to 8) (size 9 to 14) (size 15 to 20)
#    0.000    2.000    0.000    4.500    0.000    6.500 
#    0.000    4.375    0.000    0.000    0.000    0.000 
#    0.000    0.000    0.000    0.000    0.000    0.000 
#
# Total GULP energy -396687.168382 kJ/mol
# GULP energy per Si atom -12396.474012 kJ/mol
# Density = 2.038095 g / cm^3
# Si number density = 20.427439 Si / 1000 Ang^3
#
#
#
# Elastic Constant Matrix: (Units=GPa)
#
#
# Indices 1 2 3 4 5 6 
#
# 1 145.4760 29.4754 47.0482 0.0000 0.0000 0.0000
# 2 29.4754 52.4952 16.5478 0.0000 0.0000 0.0000
# 3 47.0482 16.5478 70.9526 0.0000 0.0000 0.0000
# 4 0.0000 0.0000 0.0000 17.6217 0.0000 0.0000
# 5 0.0000 0.0000 0.0000 0.0000 38.1650 0.0000
# 6 0.0000 0.0000 0.0000 0.0000 0.0000 37.2964
#
#
#
# Elastic Compliance Matrix: (Units=1/GPa)
#
#
# Indices 1 2 3 4 5 6 
#
# 1 0.009325 -0.003547 -0.005356 0.000000 0.000000 0.000000
# 2 -0.003547 0.021911 -0.002758 0.000000 0.000000 0.000000
# 3 -0.005356 -0.002758 0.018289 0.000000 0.000000 0.000000
# 4 0.000000 0.000000 0.000000 0.056748 0.000000 0.000000
# 5 0.000000 0.000000 0.000000 0.000000 0.026202 0.000000
# 6 0.000000 0.000000 0.000000 0.000000 0.000000 0.026812
#
#
# Mechanical properties :
#
#
# Convention : Reuss Voigt Hill
#
# Bulk Modulus (GPa) = 38.16544 50.56295 44.36419
# Shear Modulus (GPa) = 26.13111 30.34011 28.23561
#
# Velocity S-wave (km/s) = 3.58049 3.85809 3.72188
# Velocity P-wave (km/s) = 5.98475 6.68227 6.34310
#
# Compressibility (1/GPa) = 0.02620171
#
# Stress axis : x y z
#
# Youngs Moduli (GPa) = 107.23963 45.64012 54.67897
#
# Poissons Ratio (x) = 0.16191 0.29286
# Poissons Ratio (y) = 0.38043 0.15079
# Poissons Ratio (z) = 0.57437 0.12586
#
# Static dielectric constant tensor:
#      x y z
#    x 4.112900 0.000000 0.000000 
#    y 0.000000 3.698640 0.000000 
#    z 0.000000 0.000000 3.543710 
# 
# 
# High freq. dielectric constant tensor:
#      x y z
#    x 1.809750 0.000000 0.000000 
#    y 0.000000 1.805160 0.000000 
#    z 0.000000 0.000000 1.780530 
# 
# From -- ./inp_files/10621.got.cif
#   From: 2010.03.12/outbox.cif.g09.slc.cpg/sg39_6_cif.got.tgz:10621.got - 2010.04.14 02:53:20.
