data_PCOD8181427
_publ_section_title
;
Structure prediction by ZEFSAII (Michael W. Deem and Ramdas Pophale) SiO2 
 PCOD8181427
Probable space group: A B M 2
;
_chemical_formula_sum "Si O2"
_cell_formula_units_Z 64
_cell_length_a 8.539039
_cell_length_b 21.369385
_cell_length_c 16.952395
_cell_angle_alpha 90.000000
_cell_angle_beta 90.000000
_cell_angle_gamma 90.000000
_cell_volume 3093.371527
_symmetry_space_group_name_H-M "A B M 2"
_symmetry_group_IT_number 39
_symmetry_cell_setting 'orthorhombic'
loop_
_space_group_symop_operation_xyz
x,y,z
-x,-y,z
-x,1/2+y,z
x,1/2-y,z
x,1/2+y,1/2+z
-x,1/2-y,1/2+z
-x,y,1/2+z
x,-y,1/2+z
loop_
_atom_site_type_symbol
_atom_site_label
_atom_site_fract_x
_atom_site_fract_y
_atom_site_fract_z
Si Si1 0.887889 0.108388 0.841880
Si Si2 0.339471 0.179291 0.231246
Si Si3 0.606462 0.559993 0.431005
Si Si4 0.558497 0.320288 0.365737
Si Si5 0.200830 0.389898 0.095492
Si Si6 0.335080 0.022326 0.603391
Si Si7 0.124107 0.679094 0.439767
Si Si8 0.938040 0.067005 0.194309
O O1 0.795297 0.160641 0.793250
O O2 0.764947 0.057468 0.877435
O O3 0.971329 0.140504 0.915955
O O4 0.022718 0.077642 0.786672
O O5 0.308501 0.250000 0.204312
O O6 0.507467 0.171226 0.274289
O O7 0.335850 0.135751 0.154220
O O8 0.500000 0.500000 0.407733
O O9 0.518908 0.625695 0.418263
O O10 0.643081 0.561820 0.523780
O O11 0.506146 0.250000 0.394532
O O12 0.746383 0.325172 0.370372
O O13 0.239216 0.461288 0.075386
O O14 0.032620 0.383561 0.139778
O O15 0.201276 0.348906 0.017725
O O16 0.246069 0.064636 0.669891
O O17 0.500000 0.000000 0.640585
O O18 0.073250 0.750000 0.456135
O O19 0.000000 0.000000 0.169636
#
# Coordination Sequence:
#
# PCOD8181427 Si02
#       8
#     8   8   8   8   8   8   8   8
#     4  10  21  35  56  83 112 146 187 239 292 339
#     4   9  18  37  58  76 106 151 194 233 283 348
#     4  10  20  37  60  87 116 152 198 245 292 344
#     4   9  20  37  57  82 116 152 192 243 296 349
#     4  10  20  35  54  79 110 147 190 239 290 344
#     4  10  20  35  56  81 113 149 189 239 292 347
#     4  11  21  34  55  85 115 149 193 241 292 347
#     4   9  20  36  51  75 110 146 185 227 289 352
#
# _framework density 20.689401
#
# number of rings (size 3 to 8) (size 9 to 14) (size 15 to 20)
#    0.000    2.250    0.000    3.000    0.000    3.500 
#    0.000    8.750    0.000    2.250    0.000    0.000 
#    0.000    0.000    0.000    0.000    0.000    0.000 
#
# Total GULP energy -396608.985767 kJ/mol
# GULP energy per Si atom -12394.030805 kJ/mol
# Density = 2.064231 g / cm^3
# Si number density = 20.689401 Si / 1000 Ang^3
#
#
#
# Elastic Constant Matrix: (Units=GPa)
#
#
# Indices 1 2 3 4 5 6 
#
# 1 96.6570 32.6892 37.1718 0.0000 0.0000 0.0000
# 2 32.6892 99.6179 28.1618 0.0000 0.0000 0.0000
# 3 37.1718 28.1618 70.2639 0.0000 0.0000 0.0000
# 4 0.0000 0.0000 0.0000 22.9397 0.0000 0.0000
# 5 0.0000 0.0000 0.0000 0.0000 31.8203 0.0000
# 6 0.0000 0.0000 0.0000 0.0000 0.0000 26.9299
#
#
#
# Elastic Compliance Matrix: (Units=1/GPa)
#
#
# Indices 1 2 3 4 5 6 
#
# 1 0.013622 -0.002744 -0.006107 0.000000 0.000000 0.000000
# 2 -0.002744 0.011874 -0.003308 0.000000 0.000000 0.000000
# 3 -0.006107 -0.003308 0.018789 0.000000 0.000000 0.000000
# 4 0.000000 0.000000 0.000000 0.043593 0.000000 0.000000
# 5 0.000000 0.000000 0.000000 0.000000 0.031426 0.000000
# 6 0.000000 0.000000 0.000000 0.000000 0.000000 0.037133
#
#
# Mechanical properties :
#
#
# Convention : Reuss Voigt Hill
#
# Bulk Modulus (GPa) = 50.07954 51.39826 50.73890
# Shear Modulus (GPa) = 26.67956 27.57239 27.12597
#
# Velocity S-wave (km/s) = 3.59490 3.65455 3.62485
# Velocity P-wave (km/s) = 6.44119 6.53486 6.48820
#
# Compressibility (1/GPa) = 0.01996824
#
# Stress axis : x y z
#
# Youngs Moduli (GPa) = 73.40877 84.21965 53.22404
#
# Poissons Ratio (x) = 0.23107 0.32504
# Poissons Ratio (y) = 0.20141 0.17604
# Poissons Ratio (z) = 0.44831 0.27856
#
# Static dielectric constant tensor:
#      x y z
#    x 3.989720 0.000000 0.000000 
#    y 0.000000 3.736490 0.000000 
#    z 0.000000 0.000000 3.584080 
# 
# 
# High freq. dielectric constant tensor:
#      x y z
#    x 1.805790 0.000000 0.000000 
#    y 0.000000 1.805740 0.000000 
#    z 0.000000 0.000000 1.798840 
# 
# From -- ./inp_files/11952.got.cif
#   From: 2010.03.12/outbox.cif.g09.slc.cpg/sg39_6_cif.got.tgz:11952.got - 2010.04.14 02:53:20.
