data_PCOD8181038
_publ_section_title
;
Structure prediction by ZEFSAII (Michael W. Deem and Ramdas Pophale) SiO2 
 PCOD8181038
Probable space group: A B M 2
;
_chemical_formula_sum "Si O2"
_cell_formula_units_Z 64
_cell_length_a 19.238176
_cell_length_b 9.204509
_cell_length_c 20.169185
_cell_angle_alpha 90.000000
_cell_angle_beta 90.000000
_cell_angle_gamma 90.000000
_cell_volume 3571.518218
_symmetry_space_group_name_H-M "A B M 2"
_symmetry_group_IT_number 39
_symmetry_cell_setting 'orthorhombic'
loop_
_space_group_symop_operation_xyz
x,y,z
-x,-y,z
-x,1/2+y,z
x,1/2-y,z
x,1/2+y,1/2+z
-x,1/2-y,1/2+z
-x,y,1/2+z
x,-y,1/2+z
loop_
_atom_site_type_symbol
_atom_site_label
_atom_site_fract_x
_atom_site_fract_y
_atom_site_fract_z
Si Si1 0.568177 0.915595 0.323190
Si Si2 0.347554 0.914291 0.954534
Si Si3 0.796797 0.920195 0.250292
Si Si4 0.933916 0.086524 0.405836
Si Si5 0.426177 0.577691 0.566540
Si Si6 0.349114 0.421892 0.199124
Si Si7 0.800154 0.582812 0.403610
Si Si8 0.933189 0.414558 0.247855
O O1 0.546467 0.750000 0.310861
O O2 0.624330 0.929632 0.380618
O O3 0.601010 0.985412 0.256626
O O4 0.500000 0.000000 0.345115
O O5 0.359849 0.750000 0.980958
O O6 0.265857 0.950471 0.950220
O O7 0.385704 0.028928 0.001143
O O8 0.810850 0.750000 0.239507
O O9 0.729953 0.976794 0.208815
O O10 0.782804 0.955424 0.327410
O O11 0.863281 0.006942 0.222706
O O12 0.936940 0.250000 0.433077
O O13 0.935301 0.082721 0.326844
O O14 0.863241 0.012948 0.431704
O O15 0.000000 0.000000 0.434619
O O16 0.500000 0.500000 0.571336
O O17 0.437993 0.750000 0.564341
O O18 0.379060 0.528674 0.628581
O O19 0.348247 0.250000 0.207425
O O20 0.822739 0.750000 0.408476
O O21 0.934561 0.250000 0.220949
O O22 0.000000 0.500000 0.219306
#
# Coordination Sequence:
#
# PCOD8181038 Si02
#       8
#     8   8   8   8   8   8   8   8
#     4  10  19  33  52  74  97 125 162 204 250 301
#     4  10  20  35  54  75 101 132 167 207 254 305
#     4   9  15  28  49  70  94 127 164 205 249 294
#     4   9  16  25  39  63  98 135 168 203 242 291
#     4  11  23  38  55  74 100 133 169 210 254 305
#     4   9  18  34  54  74  97 129 168 206 251 303
#     4   9  16  28  48  71  96 129 165 205 250 296
#     4   9  16  25  38  63  98 134 167 200 240 289
#
# _framework density 17.919550999999998
#
# number of rings (size 3 to 8) (size 9 to 14) (size 15 to 20)
#    0.000    2.500    1.250    1.875    0.000    5.000 
#    0.000    2.500    0.000    0.000    0.000    0.875 
#    0.000    6.000    0.000    0.000    0.000    0.000 
#
# Total GULP energy -396785.694331 kJ/mol
# GULP energy per Si atom -12399.552948 kJ/mol
# Density = 1.787877 g / cm^3
# Si number density = 17.919551 Si / 1000 Ang^3
#
#
#
# Elastic Constant Matrix: (Units=GPa)
#
#
# Indices 1 2 3 4 5 6 
#
# 1 152.0021 68.3042 28.5074 0.0000 0.0000 0.0000
# 2 68.3042 93.1798 24.9725 0.0000 0.0000 0.0000
# 3 28.5074 24.9725 47.8109 0.0000 0.0000 0.0000
# 4 0.0000 0.0000 0.0000 15.0243 0.0000 0.0000
# 5 0.0000 0.0000 0.0000 0.0000 19.7016 0.0000
# 6 0.0000 0.0000 0.0000 0.0000 0.0000 31.1146
#
#
#
# Elastic Compliance Matrix: (Units=1/GPa)
#
#
# Indices 1 2 3 4 5 6 
#
# 1 0.010060 -0.006706 -0.002496 0.000000 0.000000 0.000000
# 2 -0.006706 0.016948 -0.004854 0.000000 0.000000 0.000000
# 3 -0.002496 -0.004854 0.024939 0.000000 0.000000 0.000000
# 4 0.000000 0.000000 0.000000 0.066559 0.000000 0.000000
# 5 0.000000 0.000000 0.000000 0.000000 0.050757 0.000000
# 6 0.000000 0.000000 0.000000 0.000000 0.000000 0.032139
#
#
# Mechanical properties :
#
#
# Convention : Reuss Voigt Hill
#
# Bulk Modulus (GPa) = 41.95260 59.61788 50.78524
# Shear Modulus (GPa) = 21.05616 24.58201 22.81909
#
# Velocity S-wave (km/s) = 3.43160 3.70780 3.57237
# Velocity P-wave (km/s) = 6.25809 7.18835 6.73929
#
# Compressibility (1/GPa) = 0.02383642
#
# Stress axis : x y z
#
# Youngs Moduli (GPa) = 99.40157 59.00300 40.09716
#
# Poissons Ratio (x) = 0.39565 0.10008
# Poissons Ratio (y) = 0.66654 0.19464
# Poissons Ratio (z) = 0.24811 0.28641
#
# Static dielectric constant tensor:
#      x y z
#    x 3.506440 0.000000 0.000000 
#    y 0.000000 3.262350 0.000000 
#    z 0.000000 0.000000 2.930710 
# 
# 
# High freq. dielectric constant tensor:
#      x y z
#    x 1.711640 0.000000 0.000000 
#    y 0.000000 1.684820 0.000000 
#    z 0.000000 0.000000 1.644270 
# 
# From -- ./inp_files/13242.got.cif
#   From: 2010.03.12/outbox.cif.g09.slc.cpg/sg39_7_cif.got.tgz:13242.got - 2010.04.14 02:53:20.
