data_PCOD8181061
_publ_section_title
;
Structure prediction by ZEFSAII (Michael W. Deem and Ramdas Pophale) SiO2 
 PCOD8181061
Probable space group: A B M 2
;
_chemical_formula_sum "Si O2"
_cell_formula_units_Z 64
_cell_length_a 20.606399
_cell_length_b 9.027726
_cell_length_c 18.435553
_cell_angle_alpha 90.000000
_cell_angle_beta 90.000000
_cell_angle_gamma 90.000000
_cell_volume 3429.546088
_symmetry_space_group_name_H-M "A B M 2"
_symmetry_group_IT_number 39
_symmetry_cell_setting 'orthorhombic'
loop_
_space_group_symop_operation_xyz
x,y,z
-x,-y,z
-x,1/2+y,z
x,1/2-y,z
x,1/2+y,1/2+z
-x,1/2-y,1/2+z
-x,y,1/2+z
x,-y,1/2+z
loop_
_atom_site_type_symbol
_atom_site_label
_atom_site_fract_x
_atom_site_fract_y
_atom_site_fract_z
Si Si1 0.690830 0.075262 0.984500
Si Si2 0.939856 0.911870 0.072134
Si Si3 0.062348 0.584193 0.743888
Si Si4 0.686000 0.079387 0.333918
Si Si5 0.797602 0.427300 0.580478
Si Si6 0.564879 0.076320 0.236932
Si Si7 0.435388 0.576466 0.072003
Si Si8 0.192877 0.078306 0.730762
O O1 0.703359 0.250000 0.992744
O O2 0.686851 0.030705 0.901202
O O3 0.624625 0.025697 0.023196
O O4 0.748589 0.984356 0.020588
O O5 0.944586 0.750000 0.037486
O O6 0.946686 0.904911 0.158246
O O7 0.869285 0.980297 0.054052
O O8 0.000000 0.000000 0.037289
O O9 0.066934 0.750000 0.776873
O O10 0.127588 0.494439 0.762658
O O11 0.000000 0.500000 0.777898
O O12 0.677559 0.250000 0.358759
O O13 0.626366 0.027451 0.283960
O O14 0.752494 0.059130 0.290968
O O15 0.795099 0.250000 0.588433
O O16 0.781677 0.498528 0.658213
O O17 0.553754 0.250000 0.240699
O O18 0.578137 0.024631 0.154411
O O19 0.500000 0.000000 0.267992
O O20 0.500000 0.500000 0.040944
O O21 0.446412 0.750000 0.067333
O O22 0.179656 0.250000 0.712770
#
# Coordination Sequence:
#
# PCOD8181061 Si02
#       8
#     8   8   8   8   8   8   8   8
#     4  11  23  37  54  77 106 140 180 222 262 311
#     4   8  15  26  43  70 101 131 164 206 254 305
#     4   9  16  27  45  73 106 137 172 216 266 317
#     4  10  22  38  54  74 106 144 177 215 265 316
#     4  10  20  34  53  78 107 139 177 219 265 319
#     4   9  18  35  57  79 104 134 170 212 259 311
#     4   9  19  36  57  81 106 134 171 214 260 312
#     4  10  19  33  54  78 105 139 178 222 270 317
#
# _framework density 18.661360999999999
#
# number of rings (size 3 to 8) (size 9 to 14) (size 15 to 20)
#    0.000    2.500    0.000    3.000    0.000    8.500 
#    0.000    5.000    0.000    0.750    0.000    3.500 
#    0.000    0.000    0.000    0.000    0.000    0.000 
#
# Total GULP energy -396781.393537 kJ/mol
# GULP energy per Si atom -12399.418548 kJ/mol
# Density = 1.861889 g / cm^3
# Si number density = 18.661361 Si / 1000 Ang^3
#
#
#
# Elastic Constant Matrix: (Units=GPa)
#
#
# Indices 1 2 3 4 5 6 
#
# 1 151.9616 60.5783 51.9820 0.0000 0.0000 0.0000
# 2 60.5783 86.8827 35.2275 0.0000 0.0000 0.0000
# 3 51.9820 35.2275 65.2722 0.0000 0.0000 0.0000
# 4 0.0000 0.0000 0.0000 23.6257 0.0000 0.0000
# 5 0.0000 0.0000 0.0000 0.0000 -0.0633 0.0000
# 6 0.0000 0.0000 0.0000 0.0000 0.0000 34.5781
#
#
#
# Elastic Compliance Matrix: (Units=1/GPa)
#
#
# Indices 1 2 3 4 5 6 
#
# 1 0.010529 -0.005045 -0.005662 0.000000 0.000000 0.000000
# 2 -0.005045 0.017152 -0.005239 0.000000 0.000000 0.000000
# 3 -0.005662 -0.005239 0.022657 0.000000 0.000000 0.000000
# 4 0.000000 0.000000 0.000000 0.042327 0.000000 0.000000
# 5 0.000000 0.000000 0.000000 0.000000-15.806716 0.000000
# 6 0.000000 0.000000 0.000000 0.000000 0.000000 0.028920
#
#
# Mechanical properties :
#
#
# Convention : Reuss Voigt Hill
#
# Bulk Modulus (GPa) = 54.21449 66.63246 60.42347
# Shear Modulus (GPa) = -0.31955 22.05003 10.86524
#
# Velocity S-wave (km/s) = -0.41425 3.44115 2.41557
# Velocity P-wave (km/s) = 5.37457 7.18139 6.34265
#
# Compressibility (1/GPa) = 0.01844525
#
# Stress axis : x y z
#
# Youngs Moduli (GPa) = 94.97838 58.30320 44.13659
#
# Poissons Ratio (x) = 0.29416 0.24990
# Poissons Ratio (y) = 0.47920 0.23122
# Poissons Ratio (z) = 0.53776 0.30543
#
# Static dielectric constant tensor:
#      x y z
#    x 3.678100 0.000000 0.000000 
#    y 0.000000 3.533720 0.000000 
#    z 0.000000 0.000000 3.072530 
# 
# 
# High freq. dielectric constant tensor:
#      x y z
#    x 1.742760 0.000000 0.000000 
#    y 0.000000 1.729200 0.000000 
#    z 0.000000 0.000000 1.684980 
# 
# From -- ./inp_files/13118.got.cif
#   From: 2010.03.12/outbox.cif.g09.slc.cpg/sg39_7_cif.got.tgz:13118.got - 2010.04.14 02:53:20.
