data_PCOD8181553
_publ_section_title
;
Structure prediction by ZEFSAII (Michael W. Deem and Ramdas Pophale) SiO2 
 PCOD8181553
Probable space group: A B M 2
;
_chemical_formula_sum "Si O2"
_cell_formula_units_Z 36
_cell_length_a 13.883341
_cell_length_b 22.013054
_cell_length_c 5.243534
_cell_angle_alpha 90.000000
_cell_angle_beta 90.000000
_cell_angle_gamma 90.000000
_cell_volume 1602.501255
_symmetry_space_group_name_H-M "A B M 2"
_symmetry_group_IT_number 39
_symmetry_cell_setting 'orthorhombic'
loop_
_space_group_symop_operation_xyz
x,y,z
-x,-y,z
-x,1/2+y,z
x,1/2-y,z
x,1/2+y,1/2+z
-x,1/2-y,1/2+z
-x,y,1/2+z
x,-y,1/2+z
loop_
_atom_site_type_symbol
_atom_site_label
_atom_site_fract_x
_atom_site_fract_y
_atom_site_fract_z
Si Si1 0.542208 0.432112 0.165990
Si Si2 0.441707 0.750000 0.800840
Si Si3 0.959120 0.066972 0.267660
Si Si4 0.262914 0.682882 0.689758
Si Si5 0.244996 0.892098 0.179366
O O1 0.500000 0.500000 0.175377
O O2 0.502857 0.398163 0.419342
O O3 0.658210 0.432298 0.158522
O O4 0.528556 0.750000 0.598345
O O5 0.376802 0.690064 0.752636
O O6 0.844073 0.063160 0.233952
O O7 0.988579 0.101284 0.530859
O O8 0.000000 0.000000 0.316600
O O9 0.213296 0.750000 0.691752
O O10 0.251584 0.655633 0.408847
O O11 0.219830 0.641104 0.913259
#
# Coordination Sequence:
#
# PCOD8181553 Si02
#       5
#     8   4   8   8   8
#     4  10  23  38  56  89 129 168 214 250 311 402
#     4  10  20  36  58  88 128 164 218 274 298 358
#     4  10  23  41  66  98 125 161 223 270 328 401
#     4  10  24  39  61  93 121 173 217 260 322 384
#     4  12  22  41  67  89 132 176 204 276 331 375
#
# _framework density 22.464880999999998
#
# number of rings (size 3 to 8) (size 9 to 14) (size 15 to 20)
#    0.667    0.889    0.000    4.667    0.000   12.444 
#    0.000    0.000    0.000   13.333    0.000    0.000 
#    0.000    0.000    0.000    0.000    0.000    0.000 
#
# Total GULP energy -223053.782621 kJ/mol
# GULP energy per Si atom -12391.876812 kJ/mol
# Density = 2.241375 g / cm^3
# Si number density = 22.464881 Si / 1000 Ang^3
#
#
#
# Elastic Constant Matrix: (Units=GPa)
#
#
# Indices 1 2 3 4 5 6 
#
# 1 128.0567 13.6140 14.1639 0.0000 0.0000 0.0000
# 2 13.6140 59.4124 1.6627 0.0000 0.0000 0.0000
# 3 14.1639 1.6627 171.5504 0.0000 0.0000 0.0000
# 4 0.0000 0.0000 0.0000 23.0935 0.0000 0.0000
# 5 0.0000 0.0000 0.0000 0.0000 35.4632 0.0000
# 6 0.0000 0.0000 0.0000 0.0000 0.0000 23.8296
#
#
#
# Elastic Compliance Matrix: (Units=1/GPa)
#
#
# Indices 1 2 3 4 5 6 
#
# 1 0.008076 -0.001832 -0.000649 0.000000 0.000000 0.000000
# 2 -0.001832 0.017252 -0.000016 0.000000 0.000000 0.000000
# 3 -0.000649 -0.000016 0.005883 0.000000 0.000000 0.000000
# 4 0.000000 0.000000 0.000000 0.043302 0.000000 0.000000
# 5 0.000000 0.000000 0.000000 0.000000 0.028198 0.000000
# 6 0.000000 0.000000 0.000000 0.000000 0.000000 0.041965
#
#
# Mechanical properties :
#
#
# Convention : Reuss Voigt Hill
#
# Bulk Modulus (GPa) = 38.14480 46.43341 42.28910
# Shear Modulus (GPa) = 31.56393 38.44917 35.00655
#
# Velocity S-wave (km/s) = 3.75245 4.14154 3.95179
# Velocity P-wave (km/s) = 5.98256 6.60182 6.29981
#
# Compressibility (1/GPa) = 0.02621590
#
# Stress axis : x y z
#
# Youngs Moduli (GPa) = 123.82947 57.96487 169.98331
#
# Poissons Ratio (x) = 0.10621 0.11032
# Poissons Ratio (y) = 0.22690 0.00271
# Poissons Ratio (z) = 0.08037 0.00092
#
# Static dielectric constant tensor:
#      x y z
#    x 3.886430 0.000000 0.000000 
#    y 0.000000 3.593330 0.000000 
#    z 0.000000 0.000000 6.066520 
# 
# 
# High freq. dielectric constant tensor:
#      x y z
#    x 1.868700 0.000000 0.000000 
#    y 0.000000 1.847970 0.000000 
#    z 0.000000 0.000000 1.926670 
# 
# From -- ./inp_files/304.got.cif
#   From: 2010.03.12/outbox.cif.g09.slc.cpg/sg39_1_cif.got.tgz:304.got - 2010.04.14 02:53:20.
