data_PCOD8181915
_publ_section_title
;
Structure prediction by ZEFSAII (Michael W. Deem and Ramdas Pophale) SiO2 
 PCOD8181915
Probable space group: A B M 2
;
_chemical_formula_sum "Si O2"
_cell_formula_units_Z 56
_cell_length_a 16.582550
_cell_length_b 11.080903
_cell_length_c 14.273579
_cell_angle_alpha 90.000000
_cell_angle_beta 90.000000
_cell_angle_gamma 90.000000
_cell_volume 2622.764832
_symmetry_space_group_name_H-M "A B M 2"
_symmetry_group_IT_number 39
_symmetry_cell_setting 'orthorhombic'
loop_
_space_group_symop_operation_xyz
x,y,z
-x,-y,z
-x,1/2+y,z
x,1/2-y,z
x,1/2+y,1/2+z
-x,1/2-y,1/2+z
-x,y,1/2+z
x,-y,1/2+z
loop_
_atom_site_type_symbol
_atom_site_label
_atom_site_fract_x
_atom_site_fract_y
_atom_site_fract_z
Si Si1 0.850106 0.119510 0.302790
Si Si2 0.323824 0.043045 0.842654
Si Si3 0.323980 0.957335 0.647266
Si Si4 0.090292 0.955518 0.494313
Si Si5 0.443238 0.617588 0.494789
Si Si6 0.849303 0.619760 0.185999
Si Si7 0.245341 0.889468 0.994419
O O1 0.870892 0.250000 0.253500
O O2 0.754405 0.123064 0.320466
O O3 0.897267 0.122192 0.400793
O O4 0.876180 0.000194 0.243748
O O5 0.364272 0.001342 0.744711
O O6 0.294642 0.928243 0.902586
O O7 0.388569 0.117981 0.901803
O O8 0.389225 0.883223 0.588302
O O9 0.246773 0.875982 0.671280
O O10 0.292831 0.070698 0.587182
O O11 0.106016 0.876840 0.586560
O O12 0.153949 0.064529 0.492826
O O13 0.000000 0.000000 0.497271
O O14 0.500000 0.500000 0.494129
O O15 0.488011 0.750000 0.495022
O O16 0.871246 0.750000 0.235068
O O17 0.239413 0.750000 0.995324
#
# Coordination Sequence:
#
# PCOD8181915 Si02
#       7
#     8   8   8   8   8   8   8
#     4  10  21  39  62  88 115 149 196 247 292 342
#     4   9  20  38  62  86 111 149 194 237 287 346
#     4   9  20  38  62  86 111 149 194 237 287 346
#     4  10  22  37  54  81 118 163 202 235 287 354
#     4  11  24  41  59  86 121 155 189 231 283 346
#     4  10  21  39  62  88 115 149 196 247 292 342
#     4   9  19  34  56  87 117 142 187 252 299 332
#
# _framework density 21.351513000000001
#
# number of rings (size 3 to 8) (size 9 to 14) (size 15 to 20)
#    0.000    2.286    0.000    2.143    0.000   16.000 
#    0.000    2.857    0.000    0.000    0.000    0.000 
#    0.000    0.000    0.000    0.000    0.000    0.000 
#
# Total GULP energy -346937.441479 kJ/mol
# GULP energy per Si atom -12390.622910 kJ/mol
# Density = 2.130292 g / cm^3
# Si number density = 21.351513 Si / 1000 Ang^3
#
#
#
# Elastic Constant Matrix: (Units=GPa)
#
#
# Indices 1 2 3 4 5 6 
#
# 1 42.7254 16.7173 11.7351 0.0000 0.0000 0.0000
# 2 16.7173 196.9190 41.2409 0.0000 0.0000 0.0000
# 3 11.7351 41.2409 134.2219 0.0000 0.0000 0.0000
# 4 0.0000 0.0000 0.0000 17.1978 0.0000 0.0000
# 5 0.0000 0.0000 0.0000 0.0000 10.5310 0.0000
# 6 0.0000 0.0000 0.0000 0.0000 0.0000 2.3483
#
#
#
# Elastic Compliance Matrix: (Units=1/GPa)
#
#
# Indices 1 2 3 4 5 6 
#
# 1 0.024530 -0.001746 -0.001608 0.000000 0.000000 0.000000
# 2 -0.001746 0.005552 -0.001553 0.000000 0.000000 0.000000
# 3 -0.001608 -0.001553 0.008068 0.000000 0.000000 0.000000
# 4 0.000000 0.000000 0.000000 0.058147 0.000000 0.000000
# 5 0.000000 0.000000 0.000000 0.000000 0.094957 0.000000
# 6 0.000000 0.000000 0.000000 0.000000 0.000000 0.425845
#
#
# Mechanical properties :
#
#
# Convention : Reuss Voigt Hill
#
# Bulk Modulus (GPa) = 35.29121 57.02810 46.15966
# Shear Modulus (GPa) = 7.85721 26.29361 17.07541
#
# Velocity S-wave (km/s) = 1.92040 3.51303 2.83101
# Velocity P-wave (km/s) = 4.63484 6.57437 5.68789
#
# Compressibility (1/GPa) = 0.02833567
#
# Stress axis : x y z
#
# Youngs Moduli (GPa) = 40.76633 180.12463 123.94343
#
# Poissons Ratio (x) = 0.31443 0.19934
# Poissons Ratio (y) = 0.07116 0.19251
# Poissons Ratio (z) = 0.06557 0.27977
#
# Static dielectric constant tensor:
#      x y z
#    x 3.566000 0.000000 0.000000 
#    y 0.000000 3.673990 0.000000 
#    z 0.000000 0.000000 9.321800 
# 
# 
# High freq. dielectric constant tensor:
#      x y z
#    x 1.805360 0.000000 0.000000 
#    y 0.000000 1.838440 0.000000 
#    z 0.000000 0.000000 1.845720 
# 
# From -- ./inp_files/9798.got.cif
#   From: 2010.03.12/outbox.cif.g09.slc.cpg/sg39_5_cif.got.tgz:9798.got - 2010.04.14 02:53:20.
