data_PCOD8181298
_publ_section_title
;
Structure prediction by ZEFSAII (Michael W. Deem and Ramdas Pophale) SiO2 
 PCOD8181298
Probable space group: A B M 2
;
_chemical_formula_sum "Si O2"
_cell_formula_units_Z 64
_cell_length_a 14.263172
_cell_length_b 8.660285
_cell_length_c 31.578509
_cell_angle_alpha 90.000000
_cell_angle_beta 90.000000
_cell_angle_gamma 90.000000
_cell_volume 3900.676415
_symmetry_space_group_name_H-M "A B M 2"
_symmetry_group_IT_number 39
_symmetry_cell_setting 'orthorhombic'
loop_
_space_group_symop_operation_xyz
x,y,z
-x,-y,z
-x,1/2+y,z
x,1/2-y,z
x,1/2+y,1/2+z
-x,1/2-y,1/2+z
-x,y,1/2+z
x,-y,1/2+z
loop_
_atom_site_type_symbol
_atom_site_label
_atom_site_fract_x
_atom_site_fract_y
_atom_site_fract_z
Si Si1 0.902626 0.432025 0.991220
Si Si2 0.098230 0.432810 0.083110
Si Si3 0.723469 0.430563 0.456213
Si Si4 0.398629 0.069132 0.786720
Si Si5 0.281519 0.067106 0.615546
Si Si6 0.397503 0.068750 0.038833
Si Si7 0.397067 0.567726 0.195462
Si Si8 0.396935 0.932437 0.378054
O O1 0.911891 0.250000 0.996693
O O2 0.820214 0.475488 0.958992
O O3 0.000000 0.500000 0.973396
O O4 0.878382 0.506355 0.036393
O O5 0.092779 0.250000 0.081726
O O6 0.180088 0.487425 0.114251
O O7 0.000000 0.500000 0.099935
O O8 0.746959 0.250000 0.453068
O O9 0.657981 0.466907 0.496020
O O10 0.672181 0.494660 0.414263
O O11 0.409857 0.250000 0.786747
O O12 0.352038 0.018807 0.741679
O O13 0.351953 0.019558 0.831781
O O14 0.500000 0.000000 0.786742
O O15 0.268746 0.250000 0.614364
O O16 0.328101 0.007182 0.659057
O O17 0.346242 0.016085 0.576972
O O18 0.402563 0.250000 0.048583
O O19 0.500000 0.000000 0.033390
O O20 0.500000 0.500000 0.188466
O O21 0.407563 0.750000 0.191882
O O22 0.406756 0.750000 0.382517
O O23 0.500000 0.000000 0.384713
#
# Coordination Sequence:
#
# PCOD8181298 Si02
#       8
#     8   8   8   8   8   8   8   8
#     4  11  21  34  53  72  93 122 156 197 240 281
#     4  11  21  35  53  72  94 121 155 197 241 283
#     4  10  20  33  47  68  96 127 161 196 235 279
#     4   8  14  27  45  66  91 122 158 196 238 276
#     4  11  21  33  48  69  95 126 163 197 237 282
#     4  11  22  33  45  62  93 131 165 197 230 273
#     4   9  18  30  46  68  96 127 161 199 235 279
#     4   9  17  29  47  69  96 128 161 197 235 279
#
# _framework density 16.407411
#
# number of rings (size 3 to 8) (size 9 to 14) (size 15 to 20)
#    0.000    2.000    1.250    4.500    0.000    3.000 
#    0.000    0.000    0.000    0.000    0.000    0.875 
#    0.000    0.000    0.000    0.000    0.000    0.000 
#
# Total GULP energy -396603.455497 kJ/mol
# GULP energy per Si atom -12393.857984 kJ/mol
# Density = 1.637007 g / cm^3
# Si number density = 16.407411 Si / 1000 Ang^3
#
#
#
# Elastic Constant Matrix: (Units=GPa)
#
#
# Indices 1 2 3 4 5 6 
#
# 1 116.2216 38.9428 65.9370 0.0000 0.0000 0.0000
# 2 38.9428 71.7062 38.7295 0.0000 0.0000 0.0000
# 3 65.9370 38.7295 141.3980 0.0000 0.0000 0.0000
# 4 0.0000 0.0000 0.0000 16.8050 0.0000 0.0000
# 5 0.0000 0.0000 0.0000 0.0000 10.8904 0.0000
# 6 0.0000 0.0000 0.0000 0.0000 0.0000 27.5732
#
#
#
# Elastic Compliance Matrix: (Units=1/GPa)
#
#
# Indices 1 2 3 4 5 6 
#
# 1 0.012765 -0.004363 -0.004758 0.000000 0.000000 0.000000
# 2 -0.004363 0.017858 -0.002857 0.000000 0.000000 0.000000
# 3 -0.004758 -0.002857 0.010073 0.000000 0.000000 0.000000
# 4 0.000000 0.000000 0.000000 0.059506 0.000000 0.000000
# 5 0.000000 0.000000 0.000000 0.000000 0.091824 0.000000
# 6 0.000000 0.000000 0.000000 0.000000 0.000000 0.036267
#
#
# Mechanical properties :
#
#
# Convention : Reuss Voigt Hill
#
# Bulk Modulus (GPa) = 59.73062 68.50492 64.11777
# Shear Modulus (GPa) = 19.39258 23.43481 21.41369
#
# Velocity S-wave (km/s) = 3.44167 3.78339 3.61657
# Velocity P-wave (km/s) = 7.23029 7.80567 7.52348
#
# Compressibility (1/GPa) = 0.01674183
#
# Stress axis : x y z
#
# Youngs Moduli (GPa) = 78.33634 55.99615 99.27130
#
# Poissons Ratio (x) = 0.24431 0.47231
# Poissons Ratio (y) = 0.34179 0.28361
# Poissons Ratio (z) = 0.37271 0.15997
#
# Static dielectric constant tensor:
#      x y z
#    x 3.075260 0.000000 0.000000 
#    y 0.000000 3.234290 0.000000 
#    z 0.000000 0.000000 3.639910 
# 
# 
# High freq. dielectric constant tensor:
#      x y z
#    x 1.611650 0.000000 0.000000 
#    y 0.000000 1.640030 0.000000 
#    z 0.000000 0.000000 1.628620 
# 
# From -- ./inp_files/17978.got.cif
#   From: 2010.03.12/outbox.cif.g09.slc.cpg/sg39_9_cif.got.tgz:17978.got - 2010.04.14 02:53:20.
