data_PCOD8181014
_publ_section_title
;
Structure prediction by ZEFSAII (Michael W. Deem and Ramdas Pophale) SiO2 
 PCOD8181014
Probable space group: A B M 2
;
_chemical_formula_sum "Si O2"
_cell_formula_units_Z 64
_cell_length_a 14.556319
_cell_length_b 8.722508
_cell_length_c 24.576288
_cell_angle_alpha 90.000000
_cell_angle_beta 90.000000
_cell_angle_gamma 90.000000
_cell_volume 3120.392524
_symmetry_space_group_name_H-M "A B M 2"
_symmetry_group_IT_number 39
_symmetry_cell_setting 'orthorhombic'
loop_
_space_group_symop_operation_xyz
x,y,z
-x,-y,z
-x,1/2+y,z
x,1/2-y,z
x,1/2+y,1/2+z
-x,1/2-y,1/2+z
-x,y,1/2+z
x,-y,1/2+z
loop_
_atom_site_type_symbol
_atom_site_label
_atom_site_fract_x
_atom_site_fract_y
_atom_site_fract_z
Si Si1 0.783431 0.430493 0.305100
Si Si2 0.836855 0.427134 0.422870
Si Si3 0.785410 0.927809 0.105383
Si Si4 0.409594 0.070735 0.062290
Si Si5 0.101455 0.930974 0.202265
Si Si6 0.406776 0.424371 0.333252
Si Si7 0.091278 0.571411 0.020961
Si Si8 0.652944 0.573795 0.453201
O O1 0.768922 0.250000 0.301808
O O2 0.838736 0.476234 0.359762
O O3 0.845896 0.492560 0.255813
O O4 0.682294 0.502527 0.304613
O O5 0.863164 0.250000 0.431115
O O6 0.908139 0.532468 0.456470
O O7 0.736799 0.457350 0.447315
O O8 0.808802 0.750000 0.113806
O O9 0.676015 0.957316 0.103076
O O10 0.834538 0.024791 0.151887
O O11 0.821986 0.986897 0.047446
O O12 0.420756 0.250000 0.049744
O O13 0.500000 0.000000 0.091585
O O14 0.403599 0.978926 0.005511
O O15 0.090212 0.750000 0.203833
O O16 0.000000 0.000000 0.197826
O O17 0.500000 0.500000 0.310657
O O18 0.407310 0.250000 0.314566
O O19 0.407147 0.440827 0.398598
O O20 0.094304 0.750000 0.032733
O O21 0.000000 0.500000 0.047891
O O22 0.687210 0.750000 0.460573
#
# Coordination Sequence:
#
# PCOD8181014 Si02
#       8
#     8   8   8   8   8   8   8   8
#     4   9  21  40  62  88 121 159 201 250 304 359
#     4  10  19  35  57  85 123 161 198 245 300 358
#     4  11  24  43  64  89 121 158 201 252 305 358
#     4  11  23  37  58  86 121 160 202 248 299 359
#     4  11  24  44  69  94 118 153 200 253 308 365
#     4  10  20  33  54  86 123 164 207 250 297 356
#     4  12  24  38  59  87 121 160 200 246 302 367
#     4  10  19  32  53  83 120 163 207 245 294 353
#
# _framework density 20.510238999999999
#
# number of rings (size 3 to 8) (size 9 to 14) (size 15 to 20)
#    0.000    1.500    1.250    4.125    0.000    6.000 
#    0.000    1.875    0.000    1.500    0.000    0.000 
#    0.000    0.000    0.000    0.000    0.000    0.000 
#
# Total GULP energy -396806.185464 kJ/mol
# GULP energy per Si atom -12400.193296 kJ/mol
# Density = 2.046356 g / cm^3
# Si number density = 20.510239 Si / 1000 Ang^3
#
#
#
# Elastic Constant Matrix: (Units=GPa)
#
#
# Indices 1 2 3 4 5 6 
#
# 1 123.5698 44.1628 49.2070 0.0000 0.0000 0.0000
# 2 44.1628 69.7033 25.7330 0.0000 0.0000 0.0000
# 3 49.2070 25.7330 93.9627 0.0000 0.0000 0.0000
# 4 0.0000 0.0000 0.0000 24.7357 0.0000 0.0000
# 5 0.0000 0.0000 0.0000 0.0000 25.2179 0.0000
# 6 0.0000 0.0000 0.0000 0.0000 0.0000 36.4572
#
#
#
# Elastic Compliance Matrix: (Units=1/GPa)
#
#
# Indices 1 2 3 4 5 6 
#
# 1 0.012081 -0.005917 -0.004706 0.000000 0.000000 0.000000
# 2 -0.005917 0.018858 -0.002066 0.000000 0.000000 0.000000
# 3 -0.004706 -0.002066 0.013673 0.000000 0.000000 0.000000
# 4 0.000000 0.000000 0.000000 0.040427 0.000000 0.000000
# 5 0.000000 0.000000 0.000000 0.000000 0.039654 0.000000
# 6 0.000000 0.000000 0.000000 0.000000 0.000000 0.027429
#
#
# Mechanical properties :
#
#
# Convention : Reuss Voigt Hill
#
# Bulk Modulus (GPa) = 51.99168 58.38237 55.18703
# Shear Modulus (GPa) = 27.18665 28.49104 27.83884
#
# Velocity S-wave (km/s) = 3.64471 3.73112 3.68817
# Velocity P-wave (km/s) = 6.56628 6.86211 6.71582
#
# Compressibility (1/GPa) = 0.01923384
#
# Stress axis : x y z
#
# Youngs Moduli (GPa) = 82.77141 53.02743 73.13697
#
# Poissons Ratio (x) = 0.31377 0.34421
# Poissons Ratio (y) = 0.48977 0.15109
# Poissons Ratio (z) = 0.38956 0.10955
#
# Static dielectric constant tensor:
#      x y z
#    x 3.734670 0.000000 0.000000 
#    y 0.000000 3.705190 0.000000 
#    z 0.000000 0.000000 3.681260 
# 
# 
# High freq. dielectric constant tensor:
#      x y z
#    x 1.809170 0.000000 0.000000 
#    y 0.000000 1.810070 0.000000 
#    z 0.000000 0.000000 1.781770 
# 
# From -- ./inp_files/16217.got.cif
#   From: 2010.03.12/outbox.cif.g09.slc.cpg/sg39_9_cif.got.tgz:16217.got - 2010.04.14 02:53:20.
