data_PCOD8181499
_publ_section_title
;
Structure prediction by ZEFSAII (Michael W. Deem and Ramdas Pophale) SiO2 
 PCOD8181499
Probable space group: A B M 2
;
_chemical_formula_sum "Si O2"
_cell_formula_units_Z 64
_cell_length_a 9.005771
_cell_length_b 20.915028
_cell_length_c 16.062078
_cell_angle_alpha 90.000000
_cell_angle_beta 90.000000
_cell_angle_gamma 90.000000
_cell_volume 3025.388003
_symmetry_space_group_name_H-M "A B M 2"
_symmetry_group_IT_number 39
_symmetry_cell_setting 'orthorhombic'
loop_
_space_group_symop_operation_xyz
x,y,z
-x,-y,z
-x,1/2+y,z
x,1/2-y,z
x,1/2+y,1/2+z
-x,1/2-y,1/2+z
-x,y,1/2+z
x,-y,1/2+z
loop_
_atom_site_type_symbol
_atom_site_label
_atom_site_fract_x
_atom_site_fract_y
_atom_site_fract_z
Si Si1 0.416528 0.678490 0.075010
Si Si2 0.927997 0.438550 0.317242
Si Si3 0.393533 0.440104 0.074234
Si Si4 0.416527 0.678490 0.877582
Si Si5 0.072004 0.561450 0.635351
Si Si6 0.393533 0.940104 0.378358
Si Si7 0.911687 0.180649 0.879073
Si Si8 0.088313 0.680649 0.073520
O O1 0.467550 0.750000 0.102939
O O2 0.528234 0.624460 0.108000
O O3 0.251162 0.663706 0.110770
O O4 0.413820 0.673827 0.976296
O O5 0.751448 0.447857 0.320925
O O6 0.000000 0.500000 0.364178
O O7 0.000001 0.436098 0.226296
O O8 0.965692 0.372106 0.360914
O O9 0.500000 0.500000 0.090675
O O10 0.248552 0.447857 0.131667
O O11 0.350631 0.436029 0.976296
O O12 0.467550 0.750000 0.849653
O O13 0.528234 0.624460 0.844592
O O14 0.251161 0.663706 0.841823
O O15 0.000000 0.500000 0.588414
O O16 0.034307 0.627894 0.591679
O O17 0.500000 0.000000 0.361917
O O18 0.964388 0.250000 0.843794
O O19 0.891551 0.186744 0.976296
O O20 0.035612 0.750000 0.108799
#
# Coordination Sequence:
#
# PCOD8181499 Si02
#       8
#     8   8   8   8   8   8   8   8
#     4   8  15  30  53  81 109 135 173 229 286 335
#     4  11  24  39  53  78 117 157 194 231 286 353
#     4  10  20  35  59  86 109 142 192 246 292 334
#     4   8  15  30  53  81 109 135 173 229 286 335
#     4  11  24  39  53  78 117 157 194 231 286 353
#     4  10  20  35  59  86 109 142 192 246 292 334
#     4   9  18  35  60  86 112 147 192 241 290 340
#     4   9  18  35  60  86 112 147 192 241 290 340
#
# _framework density 21.154311
#
# number of rings (size 3 to 8) (size 9 to 14) (size 15 to 20)
#    0.000    2.500    0.000    3.750    0.000    5.500 
#    0.000   11.250    0.000    3.000    0.000    0.000 
#    0.000    0.000    0.000    0.000    0.000    0.000 
#
# Total GULP energy -396537.479837 kJ/mol
# GULP energy per Si atom -12391.796245 kJ/mol
# Density = 2.110616 g / cm^3
# Si number density = 21.154311 Si / 1000 Ang^3
#
#
#
# Elastic Constant Matrix: (Units=GPa)
#
#
# Indices 1 2 3 4 5 6 
#
# 1 156.0630 89.9285 30.1424 0.0000 0.0000 0.0000
# 2 89.9285 186.0028 14.6557 0.0000 0.0000 0.0000
# 3 30.1424 14.6557 31.2830 0.0000 0.0000 0.0000
# 4 0.0000 0.0000 0.0000 11.1809 0.0000 0.0000
# 5 0.0000 0.0000 0.0000 0.0000 24.5330 0.0000
# 6 0.0000 0.0000 0.0000 0.0000 0.0000 73.4803
#
#
#
# Elastic Compliance Matrix: (Units=1/GPa)
#
#
# Indices 1 2 3 4 5 6 
#
# 1 0.010533 -0.004457 -0.008061 0.000000 0.000000 0.000000
# 2 -0.004457 0.007469 0.000796 0.000000 0.000000 0.000000
# 3 -0.008061 0.000796 0.039360 0.000000 0.000000 0.000000
# 4 0.000000 0.000000 0.000000 0.089438 0.000000 0.000000
# 5 0.000000 0.000000 0.000000 0.000000 0.040761 0.000000
# 6 0.000000 0.000000 0.000000 0.000000 0.000000 0.013609
#
#
# Mechanical properties :
#
#
# Convention : Reuss Voigt Hill
#
# Bulk Modulus (GPa) = 29.48341 71.42244 50.45292
# Shear Modulus (GPa) = 21.19356 37.74698 29.47027
#
# Velocity S-wave (km/s) = 3.16864 4.22876 3.73649
# Velocity P-wave (km/s) = 5.23017 7.59467 6.52049
#
# Compressibility (1/GPa) = 0.03391738
#
# Stress axis : x y z
#
# Youngs Moduli (GPa) = 94.93952 133.89398 25.40638
#
# Poissons Ratio (x) = 0.59681 0.20479
# Poissons Ratio (y) = 0.42318 -0.02022
# Poissons Ratio (z) = 0.76528 -0.10657
#
# Static dielectric constant tensor:
#      x y z
#    x 3.892790 0.000000 0.000000 
#    y 0.000000 5.122380 0.000000 
#    z 0.000000 0.000000 3.273980 
# 
# 
# High freq. dielectric constant tensor:
#      x y z
#    x 1.825870 0.000000 0.000000 
#    y 0.000000 1.855760 0.000000 
#    z 0.000000 0.000000 1.780050 
# 
# From -- ./inp_files/11978.got.cif
#   From: 2010.03.12/outbox.cif.g09.slc.cpg/sg39_6_cif.got.tgz:11978.got - 2010.04.14 02:53:20.
