data_PCOD8181137
_publ_section_title
;
Structure prediction by ZEFSAII (Michael W. Deem and Ramdas Pophale) SiO2 
 PCOD8181137
Probable space group: A B M 2
;
_chemical_formula_sum "Si O2"
_cell_formula_units_Z 56
_cell_length_a 19.499122
_cell_length_b 9.367512
_cell_length_c 15.590482
_cell_angle_alpha 90.000000
_cell_angle_beta 90.000000
_cell_angle_gamma 90.000000
_cell_volume 2847.730304
_symmetry_space_group_name_H-M "A B M 2"
_symmetry_group_IT_number 39
_symmetry_cell_setting 'orthorhombic'
loop_
_space_group_symop_operation_xyz
x,y,z
-x,-y,z
-x,1/2+y,z
x,1/2-y,z
x,1/2+y,1/2+z
-x,1/2-y,1/2+z
-x,y,1/2+z
x,-y,1/2+z
loop_
_atom_site_type_symbol
_atom_site_label
_atom_site_fract_x
_atom_site_fract_y
_atom_site_fract_z
Si Si1 0.929972 0.082209 0.187490
Si Si2 0.695977 0.588238 0.786439
Si Si3 0.848001 0.580377 0.518843
Si Si4 0.436992 0.410233 0.533763
Si Si5 0.293294 0.413594 0.589559
Si Si6 0.563882 0.089352 0.830769
Si Si7 0.157662 0.084062 0.852265
O O1 0.944317 0.250000 0.188823
O O2 0.897386 0.035686 0.096791
O O3 0.879625 0.037660 0.264785
O O4 0.000000 0.000000 0.201329
O O5 0.670464 0.750000 0.803978
O O6 0.721585 0.571566 0.689610
O O7 0.635152 0.479989 0.803915
O O8 0.761262 0.550628 0.844988
O O9 0.848092 0.750000 0.506813
O O10 0.771593 0.520477 0.539803
O O11 0.873322 0.505904 0.431449
O O12 0.500000 0.500000 0.572828
O O13 0.442655 0.250000 0.571348
O O14 0.365754 0.485987 0.563233
O O15 0.440917 0.408527 0.432283
O O16 0.299499 0.250000 0.560994
O O17 0.560716 0.250000 0.793960
O O18 0.500000 0.000000 0.792226
O O19 0.144856 0.250000 0.870908
#
# Coordination Sequence:
#
# PCOD8181137 Si02
#       7
#     8   8   8   8   8   8   8
#     4  10  22  41  63  88 121 157 193 235 289 350
#     4  10  19  34  56  79 108 146 186 234 288 342
#     4  10  20  38  63  87 114 154 199 239 285 346
#     4   9  18  32  50  71  99 136 179 226 275 327
#     4   9  17  33  56  78 104 143 187 229 280 339
#     4  10  20  34  51  75 106 143 188 238 288 343
#     4  10  21  38  60  88 120 155 194 239 291 347
#
# _framework density 19.664783
#
# number of rings (size 3 to 8) (size 9 to 14) (size 15 to 20)
#    0.000    2.286    1.429    1.286    0.000    4.571 
#    0.000    6.429    0.000    0.000    0.000    0.000 
#    0.000    0.000    0.000    0.000    0.000    0.000 
#
# Total GULP energy -347178.195874 kJ/mol
# GULP energy per Si atom -12399.221281 kJ/mol
# Density = 1.962003 g / cm^3
# Si number density = 19.664783 Si / 1000 Ang^3
#
#
#
# Elastic Constant Matrix: (Units=GPa)
#
#
# Indices 1 2 3 4 5 6 
#
# 1 116.8960 53.1511 36.3688 0.0000 0.0000 0.0000
# 2 53.1511 75.3953 42.6088 0.0000 0.0000 0.0000
# 3 36.3688 42.6088 88.1637 0.0000 0.0000 0.0000
# 4 0.0000 0.0000 0.0000 25.5834 0.0000 0.0000
# 5 0.0000 0.0000 0.0000 0.0000 26.4533 0.0000
# 6 0.0000 0.0000 0.0000 0.0000 0.0000 33.6050
#
#
#
# Elastic Compliance Matrix: (Units=1/GPa)
#
#
# Indices 1 2 3 4 5 6 
#
# 1 0.012690 -0.008238 -0.001254 0.000000 0.000000 0.000000
# 2 -0.008238 0.023595 -0.008005 0.000000 0.000000 0.000000
# 3 -0.001254 -0.008005 0.015728 0.000000 0.000000 0.000000
# 4 0.000000 0.000000 0.000000 0.039088 0.000000 0.000000
# 5 0.000000 0.000000 0.000000 0.000000 0.037802 0.000000
# 6 0.000000 0.000000 0.000000 0.000000 0.000000 0.029758
#
#
# Mechanical properties :
#
#
# Convention : Reuss Voigt Hill
#
# Bulk Modulus (GPa) = 58.75210 60.52359 59.63785
# Shear Modulus (GPa) = 25.08440 27.01676 26.05058
#
# Velocity S-wave (km/s) = 3.57543 3.71059 3.64364
# Velocity P-wave (km/s) = 6.85468 7.01445 6.93502
#
# Compressibility (1/GPa) = 0.01702067
#
# Stress axis : x y z
#
# Youngs Moduli (GPa) = 78.80085 42.38263 63.57921
#
# Poissons Ratio (x) = 0.34913 0.07971
# Poissons Ratio (y) = 0.64913 0.50895
# Poissons Ratio (z) = 0.09879 0.33927
#
# Static dielectric constant tensor:
#      x y z
#    x 3.680100 0.000000 0.000000 
#    y 0.000000 3.479940 0.000000 
#    z 0.000000 0.000000 3.516670 
# 
# 
# High freq. dielectric constant tensor:
#      x y z
#    x 1.772870 0.000000 0.000000 
#    y 0.000000 1.741840 0.000000 
#    z 0.000000 0.000000 1.765570 
# 
# From -- ./inp_files/10333.got.cif
#   From: 2010.03.12/outbox.cif.g09.slc.cpg/sg39_6_cif.got.tgz:10333.got - 2010.04.14 02:53:20.
