data_PCOD8181993
_publ_section_title
;
Structure prediction by ZEFSAII (Michael W. Deem and Ramdas Pophale) SiO2 
 PCOD8181993
Probable space group: A B M 2
;
_chemical_formula_sum "Si O2"
_cell_formula_units_Z 56
_cell_length_a 5.033189
_cell_length_b 14.515772
_cell_length_c 34.084987
_cell_angle_alpha 90.000000
_cell_angle_beta 90.000000
_cell_angle_gamma 90.000000
_cell_volume 2490.270418
_symmetry_space_group_name_H-M "A B M 2"
_symmetry_group_IT_number 39
_symmetry_cell_setting 'orthorhombic'
loop_
_space_group_symop_operation_xyz
x,y,z
-x,-y,z
-x,1/2+y,z
x,1/2-y,z
x,1/2+y,1/2+z
-x,1/2-y,1/2+z
-x,y,1/2+z
x,-y,1/2+z
loop_
_atom_site_type_symbol
_atom_site_label
_atom_site_fract_x
_atom_site_fract_y
_atom_site_fract_z
Si Si1 0.692934 0.250000 0.336421
Si Si2 0.103567 0.097442 0.223993
Si Si3 0.815175 0.750000 0.284694
Si Si4 0.739282 0.561876 0.883669
Si Si5 0.282227 0.640427 0.468601
Si Si6 0.588366 0.147449 0.178270
Si Si7 0.784506 0.641889 0.516851
Si Si8 0.248310 0.441528 0.599521
O O1 0.390294 0.250000 0.320926
O O2 0.757930 0.158260 0.360839
O O3 0.883501 0.250000 0.299147
O O4 0.225451 0.158104 0.259019
O O5 0.348275 0.081174 0.193338
O O6 0.853850 0.146072 0.203997
O O7 0.000000 0.000000 0.240513
O O8 0.500000 0.500000 0.866871
O O9 0.678421 0.586257 0.928488
O O10 0.000000 0.500000 0.878297
O O11 0.291040 0.750000 0.460578
O O12 0.505633 0.608345 0.499431
O O13 0.009453 0.605432 0.487501
O O14 0.469001 0.250000 0.180318
O O15 0.660847 0.126824 0.133564
O O16 0.797161 0.750000 0.517798
O O17 0.846549 0.610619 0.560797
O O18 0.500000 0.500000 0.586544
O O19 0.000000 0.500000 0.615874
#
# Coordination Sequence:
#
# PCOD8181993 Si02
#       8
#     4   8   4   8   8   8   8   8
#     4  12  28  50  74 104 153 174 229 286 344 426
#     4  12  25  45  73 106 136 175 230 282 334 413
#     4  12  26  48  76 106 139 186 213 280 358 412
#     4  12  26  45  74 106 139 188 236 281 349 414
#     4  10  21  41  66  94 133 178 230 289 339 402
#     4  12  23  44  69  96 136 180 234 279 339 408
#     4  10  22  39  62  91 131 181 228 281 347 400
#     4  12  25  39  59  92 135 178 228 290 344 391
#
# _framework density 22.487518999999999
#
# number of rings (size 3 to 8) (size 9 to 14) (size 15 to 20)
#    0.000    0.571    2.143    6.429    0.000    5.143 
#    0.000    4.286    0.000    0.000    0.000    0.000 
#    0.000    0.000    0.000    0.000    0.000    0.000 
#
# Total GULP energy -347315.312105 kJ/mol
# GULP energy per Si atom -12404.118289 kJ/mol
# Density = 2.243634 g / cm^3
# Si number density = 22.487519 Si / 1000 Ang^3
#
#
#
# Elastic Constant Matrix: (Units=GPa)
#
#
# Indices 1 2 3 4 5 6 
#
# 1 125.0966 45.0318 12.1731 0.0000 0.0000 0.0000
# 2 45.0318 104.4632 56.1883 0.0000 0.0000 0.0000
# 3 12.1731 56.1883 91.6735 0.0000 0.0000 0.0000
# 4 0.0000 0.0000 0.0000 22.6908 0.0000 0.0000
# 5 0.0000 0.0000 0.0000 0.0000 33.2233 0.0000
# 6 0.0000 0.0000 0.0000 0.0000 0.0000 31.0667
#
#
#
# Elastic Compliance Matrix: (Units=1/GPa)
#
#
# Indices 1 2 3 4 5 6 
#
# 1 0.009678 -0.005193 0.001898 0.000000 0.000000 0.000000
# 2 -0.005193 0.017067 -0.009771 0.000000 0.000000 0.000000
# 3 0.001898 -0.009771 0.016645 0.000000 0.000000 0.000000
# 4 0.000000 0.000000 0.000000 0.044071 0.000000 0.000000
# 5 0.000000 0.000000 0.000000 0.000000 0.030099 0.000000
# 6 0.000000 0.000000 0.000000 0.000000 0.000000 0.032189
#
#
# Mechanical properties :
#
#
# Convention : Reuss Voigt Hill
#
# Bulk Modulus (GPa) = 57.94441 60.89107 59.41774
# Shear Modulus (GPa) = 27.52777 31.25215 29.38996
#
# Velocity S-wave (km/s) = 3.50256 3.73199 3.61909
# Velocity P-wave (km/s) = 6.49466 6.76068 6.62900
#
# Compressibility (1/GPa) = 0.01725792
#
# Stress axis : x y z
#
# Youngs Moduli (GPa) = 103.32212 58.59290 60.07748
#
# Poissons Ratio (x) = 0.30426 -0.11400
# Poissons Ratio (y) = 0.53654 0.58702
# Poissons Ratio (z) = -0.19607 0.57252
#
# Static dielectric constant tensor:
#      x y z
#    x 4.665000 0.000000 0.000000 
#    y 0.000000 4.102730 0.000000 
#    z 0.000000 0.000000 3.961410 
# 
# 
# High freq. dielectric constant tensor:
#      x y z
#    x 1.902630 0.000000 0.000000 
#    y 0.000000 1.898080 0.000000 
#    z 0.000000 0.000000 1.884850 
# 
# From -- ./inp_files/17322.got.cif
#   From: 2010.03.12/outbox.cif.g09.slc.cpg/sg39_9_cif.got.tgz:17322.got - 2010.04.14 02:53:20.
