data_PCOD8181699
_publ_section_title
;
Structure prediction by ZEFSAII (Michael W. Deem and Ramdas Pophale) SiO2 
 PCOD8181699
Probable space group: A B M 2
;
_chemical_formula_sum "Si O2"
_cell_formula_units_Z 40
_cell_length_a 9.210800
_cell_length_b 21.854965
_cell_length_c 8.798945
_cell_angle_alpha 90.000000
_cell_angle_beta 90.000000
_cell_angle_gamma 90.000000
_cell_volume 1771.242689
_symmetry_space_group_name_H-M "A B M 2"
_symmetry_group_IT_number 39
_symmetry_cell_setting 'orthorhombic'
loop_
_space_group_symop_operation_xyz
x,y,z
-x,-y,z
-x,1/2+y,z
x,1/2-y,z
x,1/2+y,1/2+z
-x,1/2-y,1/2+z
-x,y,1/2+z
x,-y,1/2+z
loop_
_atom_site_type_symbol
_atom_site_label
_atom_site_fract_x
_atom_site_fract_y
_atom_site_fract_z
Si Si1 0.283042 0.250000 0.035610
Si Si2 0.608927 0.944553 0.647240
Si Si3 0.143711 0.376527 0.107688
Si Si4 0.394965 0.881543 0.834947
Si Si5 0.908270 0.439408 0.292942
Si Si6 0.461610 0.250000 0.329830
O O1 0.174851 0.306726 0.060028
O O2 0.423083 0.250000 0.149389
O O3 0.364920 0.250000 0.870943
O O4 0.549352 0.887934 0.748187
O O5 0.614743 0.928735 0.471080
O O6 0.770486 0.960488 0.696418
O O7 0.500000 0.000000 0.677110
O O8 0.271139 0.400105 0.216161
O O9 0.993836 0.385664 0.201444
O O10 0.141300 0.416774 0.957051
O O11 0.385440 0.811553 0.895912
O O12 0.000000 0.500000 0.316339
#
# Coordination Sequence:
#
# PCOD8181699 Si02
#       6
#     4   8   8   8   8   4
#     4  10  22  42  68 100 134 172 220 272 330 392
#     4  12  25  42  67  96 130 171 220 274 326 390
#     4  11  25  44  67  96 133 174 219 271 332 398
#     4  11  23  42  67  99 130 168 218 270 328 388
#     4  12  26  45  66  92 131 177 220 271 333 397
#     4  10  20  38  66  96 130 166 208 264 318 382
#
# _framework density 22.583013999999999
#
# number of rings (size 3 to 8) (size 9 to 14) (size 15 to 20)
#    0.000    0.800    0.000    8.400    0.000    5.600 
#    0.000    6.000    0.000    0.000    0.000    0.000 
#    0.000    0.000    0.000    0.000    0.000    0.000 
#
# Total GULP energy -247996.890891 kJ/mol
# GULP energy per Si atom -12399.844545 kJ/mol
# Density = 2.253161 g / cm^3
# Si number density = 22.583014 Si / 1000 Ang^3
#
#
#
# Elastic Constant Matrix: (Units=GPa)
#
#
# Indices 1 2 3 4 5 6 
#
# 1 146.7455 78.8464 63.6328 0.0000 0.0000 0.0000
# 2 78.8464 127.9865 60.7719 0.0000 0.0000 0.0000
# 3 63.6328 60.7719 136.3123 0.0000 0.0000 0.0000
# 4 0.0000 0.0000 0.0000 19.8206 0.0000 0.0000
# 5 0.0000 0.0000 0.0000 0.0000 49.0621 0.0000
# 6 0.0000 0.0000 0.0000 0.0000 0.0000 34.0285
#
#
#
# Elastic Compliance Matrix: (Units=1/GPa)
#
#
# Indices 1 2 3 4 5 6 
#
# 1 0.010895 -0.005451 -0.002656 0.000000 0.000000 0.000000
# 2 -0.005451 0.012639 -0.003090 0.000000 0.000000 0.000000
# 3 -0.002656 -0.003090 0.009954 0.000000 0.000000 0.000000
# 4 0.000000 0.000000 0.000000 0.050453 0.000000 0.000000
# 5 0.000000 0.000000 0.000000 0.000000 0.020382 0.000000
# 6 0.000000 0.000000 0.000000 0.000000 0.000000 0.029387
#
#
# Mechanical properties :
#
#
# Convention : Reuss Voigt Hill
#
# Bulk Modulus (GPa) = 90.14210 90.83847 90.49029
# Shear Modulus (GPa) = 31.28908 34.43511 32.86210
#
# Velocity S-wave (km/s) = 3.72629 3.90914 3.81881
# Velocity P-wave (km/s) = 7.64959 7.79017 7.72020
#
# Compressibility (1/GPa) = 0.01109360
#
# Stress axis : x y z
#
# Youngs Moduli (GPa) = 91.78674 79.12301 100.46687
#
# Poissons Ratio (x) = 0.43128 0.26682
# Poissons Ratio (y) = 0.50030 0.31046
# Poissons Ratio (z) = 0.24377 0.24450
#
# Static dielectric constant tensor:
#      x y z
#    x 4.182410 0.000000 0.000000 
#    y 0.000000 4.223380 0.000000 
#    z 0.000000 0.000000 4.127030 
# 
# 
# High freq. dielectric constant tensor:
#      x y z
#    x 1.884710 0.000000 0.000000 
#    y 0.000000 1.902680 0.000000 
#    z 0.000000 0.000000 1.900360 
# 
# From -- ./inp_files/2129.got.cif
#   From: 2010.03.12/outbox.cif.g09.slc.cpg/sg39_2_cif.got.tgz:2129.got - 2010.04.14 02:53:20.
