data_PCOD8181502
_publ_section_title
;
Structure prediction by ZEFSAII (Michael W. Deem and Ramdas Pophale) SiO2 
 PCOD8181502
Probable space group: A B M 2
;
_chemical_formula_sum "Si O2"
_cell_formula_units_Z 64
_cell_length_a 23.797805
_cell_length_b 8.867275
_cell_length_c 15.323035
_cell_angle_alpha 90.000000
_cell_angle_beta 90.000000
_cell_angle_gamma 90.000000
_cell_volume 3233.492609
_symmetry_space_group_name_H-M "A B M 2"
_symmetry_group_IT_number 39
_symmetry_cell_setting 'orthorhombic'
loop_
_space_group_symop_operation_xyz
x,y,z
-x,-y,z
-x,1/2+y,z
x,1/2-y,z
x,1/2+y,1/2+z
-x,1/2-y,1/2+z
-x,y,1/2+z
x,-y,1/2+z
loop_
_atom_site_type_symbol
_atom_site_label
_atom_site_fract_x
_atom_site_fract_y
_atom_site_fract_z
Si Si1 0.745753 0.074027 0.660740
Si Si2 0.330379 0.927528 0.824033
Si Si3 0.134995 0.927463 0.165743
Si Si4 0.557521 0.425891 0.262608
Si Si5 0.557533 0.574026 0.558824
Si Si6 0.057984 0.573394 0.007702
Si Si7 0.669534 0.927408 0.997239
Si Si8 0.059101 0.428311 0.309700
O O1 0.762022 0.250000 0.661238
O O2 0.709939 0.028301 0.744870
O O3 0.709344 0.029306 0.577124
O O4 0.800609 0.972621 0.659393
O O5 0.336433 0.750000 0.833451
O O6 0.391746 0.997344 0.813076
O O7 0.303081 0.998978 0.910966
O O8 0.129140 0.750000 0.180333
O O9 0.107934 0.010824 0.248084
O O10 0.105867 0.978992 0.075183
O O11 0.500000 0.500000 0.296563
O O12 0.556271 0.250000 0.284031
O O13 0.565588 0.458757 0.160724
O O14 0.500000 0.500000 0.524924
O O15 0.556516 0.750000 0.537362
O O16 0.608049 0.496441 0.508284
O O17 0.048655 0.750000 0.011573
O O18 0.074240 0.523779 0.909202
O O19 0.000000 0.500000 0.038249
O O20 0.663792 0.750000 0.986414
O O21 0.054500 0.250000 0.299525
O O22 0.000000 0.500000 0.280946
#
# Coordination Sequence:
#
# PCOD8181502 Si02
#       8
#     8   8   8   8   8   8   8   8
#     4  10  24  44  62  82 116 157 197 245 297 348
#     4  11  23  41  63  87 116 153 197 244 300 357
#     4  11  23  38  60  88 118 155 201 245 290 345
#     4  10  20  35  59  89 120 153 191 237 294 355
#     4  10  20  35  59  89 120 154 191 237 295 355
#     4   9  20  37  58  87 121 157 192 235 286 341
#     4  11  23  41  63  88 117 152 197 245 298 357
#     4  10  20  37  60  88 124 159 196 238 291 346
#
# _framework density 19.792839000000001
#
# number of rings (size 3 to 8) (size 9 to 14) (size 15 to 20)
#    0.000    1.750    1.250    2.625    0.000    7.000 
#    0.000    6.250    0.000    0.000    0.000    0.000 
#    0.000    0.000    0.000    0.000    0.000    0.000 
#
# Total GULP energy -396962.343465 kJ/mol
# GULP energy per Si atom -12405.073233 kJ/mol
# Density = 1.974779 g / cm^3
# Si number density = 19.792839 Si / 1000 Ang^3
#
#
#
# Elastic Constant Matrix: (Units=GPa)
#
#
# Indices 1 2 3 4 5 6 
#
# 1 124.0636 50.2401 69.7799 0.0000 0.0000 0.0000
# 2 50.2401 84.2565 57.3109 0.0000 0.0000 0.0000
# 3 69.7799 57.3109 134.9849 0.0000 0.0000 0.0000
# 4 0.0000 0.0000 0.0000 33.0383 0.0000 0.0000
# 5 0.0000 0.0000 0.0000 0.0000 -19.0746 0.0000
# 6 0.0000 0.0000 0.0000 0.0000 0.0000 39.1849
#
#
#
# Elastic Compliance Matrix: (Units=1/GPa)
#
#
# Indices 1 2 3 4 5 6 
#
# 1 0.012361 -0.004252 -0.004585 0.000000 0.000000 0.000000
# 2 -0.004252 0.018151 -0.005508 0.000000 0.000000 0.000000
# 3 -0.004585 -0.005508 0.012117 0.000000 0.000000 0.000000
# 4 0.000000 0.000000 0.000000 0.030268 0.000000 0.000000
# 5 0.000000 0.000000 0.000000 0.000000 -0.052426 0.000000
# 6 0.000000 0.000000 0.000000 0.000000 0.000000 0.025520
#
#
# Mechanical properties :
#
#
# Convention : Reuss Voigt Hill
#
# Bulk Modulus (GPa) = 71.74298 77.55189 74.64743
# Shear Modulus (GPa) = 63.03080 21.69466 42.36273
#
# Velocity S-wave (km/s) = 5.64928 3.31431 4.63136
# Velocity P-wave (km/s) = 8.88134 7.34255 8.14835
#
# Compressibility (1/GPa) = 0.01393865
#
# Stress axis : x y z
#
# Youngs Moduli (GPa) = 80.90029 55.09482 82.52986
#
# Poissons Ratio (x) = 0.23427 0.37837
# Poissons Ratio (y) = 0.34399 0.45459
# Poissons Ratio (z) = 0.37090 0.30347
#
# Static dielectric constant tensor:
#      x y z
#    x 3.530540 0.000000 0.000000 
#    y 0.000000 3.619480 0.000000 
#    z 0.000000 0.000000 3.887220 
# 
# 
# High freq. dielectric constant tensor:
#      x y z
#    x 1.765910 0.000000 0.000000 
#    y 0.000000 1.779910 0.000000 
#    z 0.000000 0.000000 1.784890 
# 
# From -- ./inp_files/10611.got.cif
#   From: 2010.03.12/outbox.cif.g09.slc.cpg/sg39_6_cif.got.tgz:10611.got - 2010.04.14 02:53:20.
