data_PCOD8181332
_publ_section_title
;
Structure prediction by ZEFSAII (Michael W. Deem and Ramdas Pophale) SiO2 
 PCOD8181332
Probable space group: A B M 2
;
_chemical_formula_sum "Si O2"
_cell_formula_units_Z 64
_cell_length_a 13.900078
_cell_length_b 28.239134
_cell_length_c 9.291402
_cell_angle_alpha 90.000000
_cell_angle_beta 90.000000
_cell_angle_gamma 90.000000
_cell_volume 3647.118397
_symmetry_space_group_name_H-M "A B M 2"
_symmetry_group_IT_number 39
_symmetry_cell_setting 'orthorhombic'
loop_
_space_group_symop_operation_xyz
x,y,z
-x,-y,z
-x,1/2+y,z
x,1/2-y,z
x,1/2+y,1/2+z
-x,1/2-y,1/2+z
-x,y,1/2+z
x,-y,1/2+z
loop_
_atom_site_type_symbol
_atom_site_label
_atom_site_fract_x
_atom_site_fract_y
_atom_site_fract_z
Si Si1 0.800053 0.304895 0.162610
Si Si2 0.117581 0.145646 0.919669
Si Si3 0.106392 0.352034 0.405039
Si Si4 0.895622 0.955460 0.011336
Si Si5 0.591875 0.806581 0.281980
Si Si6 0.101408 0.455864 0.357888
Si Si7 0.794381 0.695284 0.164194
Si Si8 0.586161 0.694706 0.602857
O O1 0.826458 0.250000 0.194218
O O2 0.861639 0.342788 0.253684
O O3 0.686689 0.314056 0.184639
O O4 0.827701 0.317448 0.999700
O O5 0.156117 0.093870 0.969385
O O6 0.004535 0.150598 0.952084
O O7 0.182372 0.185401 0.997967
O O8 0.148155 0.405701 0.401947
O O9 0.119458 0.332042 0.244817
O O10 0.996291 0.954372 0.927803
O O11 0.841164 0.000757 0.936765
O O12 0.904362 0.961902 0.183990
O O13 0.589337 0.750000 0.283511
O O14 0.689210 0.824597 0.205415
O O15 0.587755 0.827689 0.443177
O O16 0.500555 0.827675 0.195415
O O17 0.800806 0.750000 0.199991
O O18 0.567214 0.750000 0.584827
#
# Coordination Sequence:
#
# PCOD8181332 Si02
#       8
#     8   8   8   8   8   8   8   8
#     4  11  23  36  51  74 107 145 183 218 252 303
#     4  11  24  34  50  76 106 142 184 215 250 305
#     4  11  22  36  52  72 105 144 183 214 253 303
#     4  10  20  34  53  75  97 130 174 222 273 309
#     4   9  18  32  52  71  95 129 170 221 269 305
#     4  10  20  33  54  74  97 131 172 223 273 309
#     4  11  21  36  51  72 106 143 178 215 253 303
#     4   9  18  33  51  72  95 128 172 220 269 305
#
# _framework density 17.548100000000002
#
# number of rings (size 3 to 8) (size 9 to 14) (size 15 to 20)
#    0.000    1.750    2.500    3.000    8.750    3.000 
#    0.000    0.000    0.000    0.000    0.000    0.000 
#    0.000    6.000    0.000    0.000    0.000    0.000 
#
# Total GULP energy -396563.676908 kJ/mol
# GULP energy per Si atom -12392.614903 kJ/mol
# Density = 1.750816 g / cm^3
# Si number density = 17.548100 Si / 1000 Ang^3
#
#
#
# Elastic Constant Matrix: (Units=GPa)
#
#
# Indices 1 2 3 4 5 6 
#
# 1 64.1684 36.9174 26.7807 0.0000 0.0000 0.0000
# 2 36.9174 84.7034 31.3750 0.0000 0.0000 0.0000
# 3 26.7807 31.3750 85.6883 0.0000 0.0000 0.0000
# 4 0.0000 0.0000 0.0000 29.5140 0.0000 0.0000
# 5 0.0000 0.0000 0.0000 0.0000 26.4792 0.0000
# 6 0.0000 0.0000 0.0000 0.0000 0.0000 2.9076
#
#
#
# Elastic Compliance Matrix: (Units=1/GPa)
#
#
# Indices 1 2 3 4 5 6 
#
# 1 0.021854 -0.008092 -0.003867 0.000000 0.000000 0.000000
# 2 -0.008092 0.016655 -0.003569 0.000000 0.000000 0.000000
# 3 -0.003867 -0.003569 0.014186 0.000000 0.000000 0.000000
# 4 0.000000 0.000000 0.000000 0.033882 0.000000 0.000000
# 5 0.000000 0.000000 0.000000 0.000000 0.037765 0.000000
# 6 0.000000 0.000000 0.000000 0.000000 0.000000 0.343923
#
#
# Mechanical properties :
#
#
# Convention : Reuss Voigt Hill
#
# Bulk Modulus (GPa) = 46.21665 47.18961 46.70313
# Shear Modulus (GPa) = 9.87101 21.07930 15.47515
#
# Velocity S-wave (km/s) = 2.37431 3.46964 2.97285
# Velocity P-wave (km/s) = 5.82329 6.55752 6.20128
#
# Compressibility (1/GPa) = 0.02163722
#
# Stress axis : x y z
#
# Youngs Moduli (GPa) = 45.75901 60.04229 70.49400
#
# Poissons Ratio (x) = 0.48588 0.27260
# Poissons Ratio (y) = 0.37030 0.25160
# Poissons Ratio (z) = 0.17695 0.21430
#
# Static dielectric constant tensor:
#      x y z
#    x 3.020560 0.000000 0.000000 
#    y 0.000000 3.798820 0.000000 
#    z 0.000000 0.000000 3.373270 
# 
# 
# High freq. dielectric constant tensor:
#      x y z
#    x 1.641540 0.000000 0.000000 
#    y 0.000000 1.656710 0.000000 
#    z 0.000000 0.000000 1.698420 
# 
# From -- ./inp_files/3573.got.cif
#   From: 2010.03.12/outbox.cif.g09.slc.cpg/sg39_2_cif.got.tgz:3573.got - 2010.04.14 02:53:20.
