data_PCOD8181507
_publ_section_title
;
Structure prediction by ZEFSAII (Michael W. Deem and Ramdas Pophale) SiO2 
 PCOD8181507
Probable space group: A B M 2
;
_chemical_formula_sum "Si O2"
_cell_formula_units_Z 48
_cell_length_a 13.969423
_cell_length_b 8.662085
_cell_length_c 19.937097
_cell_angle_alpha 90.000000
_cell_angle_beta 90.000000
_cell_angle_gamma 90.000000
_cell_volume 2412.475053
_symmetry_space_group_name_H-M "A B M 2"
_symmetry_group_IT_number 39
_symmetry_cell_setting 'orthorhombic'
loop_
_space_group_symop_operation_xyz
x,y,z
-x,-y,z
-x,1/2+y,z
x,1/2-y,z
x,1/2+y,1/2+z
-x,1/2-y,1/2+z
-x,y,1/2+z
x,-y,1/2+z
loop_
_atom_site_type_symbol
_atom_site_label
_atom_site_fract_x
_atom_site_fract_y
_atom_site_fract_z
Si Si1 0.399213 0.931173 0.307190
Si Si2 0.710911 0.567796 0.428404
Si Si3 0.290677 0.929028 0.687234
Si Si4 0.395349 0.930209 0.549867
Si Si5 0.099990 0.568652 0.213843
Si Si6 0.900045 0.068883 0.369746
O O1 0.406929 0.750000 0.317521
O O2 0.500000 0.000000 0.284399
O O3 0.367628 0.005452 0.376803
O O4 0.323723 0.967584 0.249428
O O5 0.713413 0.750000 0.424399
O O6 0.680085 0.513799 0.501887
O O7 0.815851 0.503939 0.413226
O O8 0.291595 0.750000 0.707729
O O9 0.359821 0.960899 0.625030
O O10 0.182910 0.984506 0.671060
O O11 0.398591 0.750000 0.532543
O O12 0.500000 0.000000 0.540469
O O13 0.102131 0.750000 0.200407
O O14 0.115205 0.527141 0.291939
O O15 0.000000 0.500000 0.188002
O O16 0.900236 0.250000 0.381569
O O17 0.000000 0.000000 0.395849
#
# Coordination Sequence:
#
# PCOD8181507 Si02
#       6
#     8   8   8   8   8   8
#     4  12  24  39  60  88 121 156 200 255 306 360
#     4  12  24  40  63  90 122 161 204 253 305 364
#     4  11  23  40  63  91 123 160 203 252 305 364
#     4  11  25  44  64  88 122 164 207 253 307 368
#     4  10  20  35  60  91 126 163 200 250 304 362
#     4  10  20  36  60  92 126 162 200 249 305 362
#
# _framework density 19.896578000000002
#
# number of rings (size 3 to 8) (size 9 to 14) (size 15 to 20)
#    0.000    1.000    1.667    6.000    0.000    5.333 
#    0.000    0.833    0.000    4.000    0.000    0.000 
#    0.000    0.000    0.000    0.000    0.000    0.000 
#
# Total GULP energy -297777.327572 kJ/mol
# GULP energy per Si atom -12407.388649 kJ/mol
# Density = 1.985129 g / cm^3
# Si number density = 19.896578 Si / 1000 Ang^3
#
#
#
# Elastic Constant Matrix: (Units=GPa)
#
#
# Indices 1 2 3 4 5 6 
#
# 1 132.8896 47.7827 17.2609 0.0000 0.0000 0.0000
# 2 47.7827 127.8810 31.4470 0.0000 0.0000 0.0000
# 3 17.2609 31.4470 46.1345 0.0000 0.0000 0.0000
# 4 0.0000 0.0000 0.0000 27.5373 0.0000 0.0000
# 5 0.0000 0.0000 0.0000 0.0000 36.6405 0.0000
# 6 0.0000 0.0000 0.0000 0.0000 0.0000 43.1001
#
#
#
# Elastic Compliance Matrix: (Units=1/GPa)
#
#
# Indices 1 2 3 4 5 6 
#
# 1 0.008753 -0.002962 -0.001256 0.000000 0.000000 0.000000
# 2 -0.002962 0.010397 -0.005979 0.000000 0.000000 0.000000
# 3 -0.001256 -0.005979 0.026221 0.000000 0.000000 0.000000
# 4 0.000000 0.000000 0.000000 0.036314 0.000000 0.000000
# 5 0.000000 0.000000 0.000000 0.000000 0.027292 0.000000
# 6 0.000000 0.000000 0.000000 0.000000 0.000000 0.023202
#
#
# Mechanical properties :
#
#
# Convention : Reuss Voigt Hill
#
# Bulk Modulus (GPa) = 40.03550 55.54291 47.78920
# Shear Modulus (GPa) = 31.07562 35.48322 33.27942
#
# Velocity S-wave (km/s) = 3.95632 4.22759 4.09420
# Velocity P-wave (km/s) = 6.40589 7.19767 6.81329
#
# Compressibility (1/GPa) = 0.02497783
#
# Stress axis : x y z
#
# Youngs Moduli (GPa) = 114.24483 96.18533 38.13747
#
# Poissons Ratio (x) = 0.28487 0.04790
# Poissons Ratio (y) = 0.33836 0.22801
# Poissons Ratio (z) = 0.14350 0.57505
#
# Static dielectric constant tensor:
#      x y z
#    x 3.824490 0.000000 0.000000 
#    y 0.000000 3.727300 0.000000 
#    z 0.000000 0.000000 3.415400 
# 
# 
# High freq. dielectric constant tensor:
#      x y z
#    x 1.796120 0.000000 0.000000 
#    y 0.000000 1.795490 0.000000 
#    z 0.000000 0.000000 1.753100 
# 
# From -- ./inp_files/12635.got.cif
#   From: 2010.03.12/outbox.cif.g09.slc.cpg/sg39_7_cif.got.tgz:12635.got - 2010.04.14 02:53:20.
