data_PCOD8181360
_publ_section_title
;
Structure prediction by ZEFSAII (Michael W. Deem and Ramdas Pophale) SiO2 
 PCOD8181360
Probable space group: A B M 2
;
_chemical_formula_sum "Si O2"
_cell_formula_units_Z 48
_cell_length_a 9.879987
_cell_length_b 8.734451
_cell_length_c 31.085760
_cell_angle_alpha 90.000000
_cell_angle_beta 90.000000
_cell_angle_gamma 90.000000
_cell_volume 2682.584900
_symmetry_space_group_name_H-M "A B M 2"
_symmetry_group_IT_number 39
_symmetry_cell_setting 'orthorhombic'
loop_
_space_group_symop_operation_xyz
x,y,z
-x,-y,z
-x,1/2+y,z
x,1/2-y,z
x,1/2+y,1/2+z
-x,1/2-y,1/2+z
-x,y,1/2+z
x,-y,1/2+z
loop_
_atom_site_type_symbol
_atom_site_label
_atom_site_fract_x
_atom_site_fract_y
_atom_site_fract_z
Si Si1 0.351289 0.070961 0.379740
Si Si2 0.354191 0.925808 0.974877
Si Si3 0.352032 0.070754 0.056905
Si Si4 0.855837 0.432533 0.722588
Si Si5 0.646374 0.429871 0.651309
Si Si6 0.855440 0.431746 0.313745
O O1 0.357549 0.250000 0.367249
O O2 0.287486 0.050599 0.427843
O O3 0.500000 0.000000 0.375930
O O4 0.254701 0.977963 0.348511
O O5 0.370852 0.750000 0.986229
O O6 0.500000 0.000000 0.971328
O O7 0.271235 0.002128 0.015224
O O8 0.359003 0.250000 0.051030
O O9 0.292468 0.026885 0.103945
O O10 0.500000 0.000000 0.054904
O O11 0.864512 0.250000 0.725371
O O12 0.749732 0.490754 0.687017
O O13 0.808555 0.499658 0.768156
O O14 0.000000 0.500000 0.709013
O O15 0.500000 0.500000 0.659716
O O16 0.627800 0.250000 0.655020
O O17 0.867320 0.250000 0.310263
O O18 0.000000 0.500000 0.327475
#
# Coordination Sequence:
#
# PCOD8181360 Si02
#       6
#     8   8   8   8   8   8
#     4  10  20  34  52  77 106 134 168 209 252 297
#     4   9  16  26  43  68  98 130 163 199 240 288
#     4   9  15  25  42  66  96 128 161 197 240 288
#     4  10  20  36  54  73  98 129 167 206 246 297
#     4   9  19  32  49  74 102 130 163 204 246 290
#     4  11  22  37  56  76  99 131 169 207 252 304
#
# _framework density 17.893189
#
# number of rings (size 3 to 8) (size 9 to 14) (size 15 to 20)
#    0.000    2.333    0.000    5.500    0.000    4.667 
#    0.000    1.667    0.000    1.000    0.000    4.667 
#    0.000    0.000    0.000    0.000    0.000    0.000 
#
# Total GULP energy -297381.750395 kJ/mol
# GULP energy per Si atom -12390.906266 kJ/mol
# Density = 1.785246 g / cm^3
# Si number density = 17.893189 Si / 1000 Ang^3
#
#
#
# Elastic Constant Matrix: (Units=GPa)
#
#
# Indices 1 2 3 4 5 6 
#
# 1 64.1317 32.6433 71.8801 0.0000 0.0000 0.0000
# 2 32.6433 103.9065 57.5920 0.0000 0.0000 0.0000
# 3 71.8801 57.5920 158.9400 0.0000 0.0000 0.0000
# 4 0.0000 0.0000 0.0000 20.0384 0.0000 0.0000
# 5 0.0000 0.0000 0.0000 0.0000 -0.3825 0.0000
# 6 0.0000 0.0000 0.0000 0.0000 0.0000 24.2402
#
#
#
# Elastic Compliance Matrix: (Units=1/GPa)
#
#
# Indices 1 2 3 4 5 6 
#
# 1 0.032154 -0.002555 -0.013616 0.000000 0.000000 0.000000
# 2 -0.002555 0.012246 -0.003282 0.000000 0.000000 0.000000
# 3 -0.013616 -0.003282 0.013639 0.000000 0.000000 0.000000
# 4 0.000000 0.000000 0.000000 0.049904 0.000000 0.000000
# 5 0.000000 0.000000 0.000000 0.000000 -2.614124 0.000000
# 6 0.000000 0.000000 0.000000 0.000000 0.000000 0.041254
#
#
# Mechanical properties :
#
#
# Convention : Reuss Voigt Hill
#
# Bulk Modulus (GPa) = 52.26430 72.35655 62.31043
# Shear Modulus (GPa) = -2.06642 19.77005 8.85182
#
# Velocity S-wave (km/s) = -1.07581 3.32760 2.22661
# Velocity P-wave (km/s) = 5.26586 7.43571 6.44279
#
# Compressibility (1/GPa) = 0.01913352
#
# Stress axis : x y z
#
# Youngs Moduli (GPa) = 31.10000 81.66160 73.32103
#
# Poissons Ratio (x) = 0.20862 0.99834
# Poissons Ratio (y) = 0.07945 0.24063
# Poissons Ratio (z) = 0.42346 0.26800
#
# Static dielectric constant tensor:
#      x y z
#    x 2.939920 0.000000 0.000000 
#    y 0.000000 3.484820 0.000000 
#    z 0.000000 0.000000 4.428120 
# 
# 
# High freq. dielectric constant tensor:
#      x y z
#    x 1.638830 0.000000 0.000000 
#    y 0.000000 1.710190 0.000000 
#    z 0.000000 0.000000 1.719960 
# 
# From -- ./inp_files/16907.got.cif
#   From: 2010.03.12/outbox.cif.g09.slc.cpg/sg39_9_cif.got.tgz:16907.got - 2010.04.14 02:53:20.
