data_PCOD8181543
_publ_section_title
;
Structure prediction by ZEFSAII (Michael W. Deem and Ramdas Pophale) SiO2 
 PCOD8181543
Probable space group: A B M 2
;
_chemical_formula_sum "Si O2"
_cell_formula_units_Z 64
_cell_length_a 18.919393
_cell_length_b 9.183304
_cell_length_c 19.292313
_cell_angle_alpha 90.000000
_cell_angle_beta 90.000000
_cell_angle_gamma 90.000000
_cell_volume 3351.895413
_symmetry_space_group_name_H-M "A B M 2"
_symmetry_group_IT_number 39
_symmetry_cell_setting 'orthorhombic'
loop_
_space_group_symop_operation_xyz
x,y,z
-x,-y,z
-x,1/2+y,z
x,1/2-y,z
x,1/2+y,1/2+z
-x,1/2-y,1/2+z
-x,y,1/2+z
x,-y,1/2+z
loop_
_atom_site_type_symbol
_atom_site_label
_atom_site_fract_x
_atom_site_fract_y
_atom_site_fract_z
Si Si1 0.428988 0.579967 0.728580
Si Si2 0.302494 0.078382 0.485693
Si Si3 0.571100 0.579358 0.386162
Si Si4 0.701957 0.577147 0.133306
Si Si5 0.163610 0.079743 0.689571
Si Si6 0.072495 0.419307 0.821273
Si Si7 0.066942 0.088896 0.569489
Si Si8 0.846962 0.587820 0.434127
O O1 0.500000 0.500000 0.704584
O O2 0.444122 0.750000 0.723857
O O3 0.407987 0.535580 0.807374
O O4 0.367469 0.532817 0.676269
O O5 0.303074 0.250000 0.502956
O O6 0.368424 0.028849 0.439130
O O7 0.234486 0.038421 0.438600
O O8 0.302864 0.990457 0.557110
O O9 0.500000 0.500000 0.409787
O O10 0.557887 0.750000 0.391822
O O11 0.710714 0.750000 0.126942
O O12 0.766743 0.514219 0.177574
O O13 0.180356 0.250000 0.675912
O O14 0.134094 0.051224 0.765977
O O15 0.102145 0.023120 0.638363
O O16 0.054199 0.250000 0.828541
O O17 0.104370 0.475857 0.893004
O O18 0.000000 0.500000 0.801506
O O19 0.038880 0.250000 0.585180
O O20 0.127380 0.088938 0.512580
O O21 0.000000 0.000000 0.543833
O O22 0.853627 0.750000 0.401282
#
# Coordination Sequence:
#
# PCOD8181543 Si02
#       8
#     8   8   8   8   8   8   8   8
#     4   9  20  38  59  87 117 150 193 235 283 339
#     4  10  21  39  61  83 116 159 193 232 289 346
#     4   9  19  37  61  86 115 153 193 235 283 338
#     4  11  23  37  59  89 119 150 192 244 285 336
#     4  10  22  41  59  81 115 153 193 233 285 348
#     4  11  24  40  60  86 117 151 191 241 291 346
#     4  10  20  36  58  81 107 145 190 231 278 336
#     4  10  21  38  60  83 113 153 193 237 286 343
#
# _framework density 19.093675000000001
#
# number of rings (size 3 to 8) (size 9 to 14) (size 15 to 20)
#    0.000    2.000    1.250    1.500    1.750    5.500 
#    0.000    2.500    0.000    0.000    0.000    0.000 
#    0.000    0.000    0.000    0.000    0.000    0.000 
#
# Total GULP energy -396850.353861 kJ/mol
# GULP energy per Si atom -12401.573558 kJ/mol
# Density = 1.905022 g / cm^3
# Si number density = 19.093675 Si / 1000 Ang^3
#
#
#
# Elastic Constant Matrix: (Units=GPa)
#
#
# Indices 1 2 3 4 5 6 
#
# 1 136.3415 59.5998 43.1262 0.0000 0.0000 0.0000
# 2 59.5998 76.9337 40.0917 0.0000 0.0000 0.0000
# 3 43.1262 40.0917 78.8832 0.0000 0.0000 0.0000
# 4 0.0000 0.0000 0.0000 24.4236 0.0000 0.0000
# 5 0.0000 0.0000 0.0000 0.0000 34.1780 0.0000
# 6 0.0000 0.0000 0.0000 0.0000 0.0000 36.3015
#
#
#
# Elastic Compliance Matrix: (Units=1/GPa)
#
#
# Indices 1 2 3 4 5 6 
#
# 1 0.011408 -0.007600 -0.002374 0.000000 0.000000 0.000000
# 2 -0.007600 0.022745 -0.007405 0.000000 0.000000 0.000000
# 3 -0.002374 -0.007405 0.017738 0.000000 0.000000 0.000000
# 4 0.000000 0.000000 0.000000 0.040944 0.000000 0.000000
# 5 0.000000 0.000000 0.000000 0.000000 0.029259 0.000000
# 6 0.000000 0.000000 0.000000 0.000000 0.000000 0.027547
#
#
# Mechanical properties :
#
#
# Convention : Reuss Voigt Hill
#
# Bulk Modulus (GPa) = 58.36735 64.19932 61.28334
# Shear Modulus (GPa) = 26.30060 28.93665 27.61863
#
# Velocity S-wave (km/s) = 3.71543 3.89718 3.80739
# Velocity P-wave (km/s) = 7.00294 7.34486 7.17594
#
# Compressibility (1/GPa) = 0.01713287
#
# Stress axis : x y z
#
# Youngs Moduli (GPa) = 87.65887 43.96589 56.37562
#
# Poissons Ratio (x) = 0.33416 0.13383
# Poissons Ratio (y) = 0.66625 0.41744
# Poissons Ratio (z) = 0.20810 0.32555
#
# Static dielectric constant tensor:
#      x y z
#    x 3.560140 0.000000 0.000000 
#    y 0.000000 3.455400 0.000000 
#    z 0.000000 0.000000 3.470340 
# 
# 
# High freq. dielectric constant tensor:
#      x y z
#    x 1.751340 0.000000 0.000000 
#    y 0.000000 1.737550 0.000000 
#    z 0.000000 0.000000 1.746600 
# 
# From -- ./inp_files/13161.got.cif
#   From: 2010.03.12/outbox.cif.g09.slc.cpg/sg39_7_cif.got.tgz:13161.got - 2010.04.14 02:53:20.
