data_PCOD8181764
_publ_section_title
;
Structure prediction by ZEFSAII (Michael W. Deem and Ramdas Pophale) SiO2 
 PCOD8181764
Probable space group: A B M 2
;
_chemical_formula_sum "Si O2"
_cell_formula_units_Z 64
_cell_length_a 10.952621
_cell_length_b 14.533708
_cell_length_c 18.695886
_cell_angle_alpha 90.000000
_cell_angle_beta 90.000000
_cell_angle_gamma 90.000000
_cell_volume 2976.052179
_symmetry_space_group_name_H-M "A B M 2"
_symmetry_group_IT_number 39
_symmetry_cell_setting 'orthorhombic'
loop_
_space_group_symop_operation_xyz
x,y,z
-x,-y,z
-x,1/2+y,z
x,1/2-y,z
x,1/2+y,1/2+z
-x,1/2-y,1/2+z
-x,y,1/2+z
x,-y,1/2+z
loop_
_atom_site_type_symbol
_atom_site_label
_atom_site_fract_x
_atom_site_fract_y
_atom_site_fract_z
Si Si1 0.771709 0.466707 0.425380
Si Si2 0.070804 0.140466 0.646368
Si Si3 0.388955 0.854220 0.630770
Si Si4 0.522874 0.396182 0.269537
Si Si5 0.833823 0.464770 0.590160
Si Si6 0.806325 0.353710 0.296217
Si Si7 0.445384 0.647924 0.472536
Si Si8 0.330425 0.848965 0.884340
O O1 0.831179 0.452412 0.503777
O O2 0.848993 0.412706 0.365126
O O3 0.634699 0.424939 0.427862
O O4 0.768038 0.569759 0.392159
O O5 0.079319 0.250000 0.626405
O O6 0.104623 0.124159 0.729482
O O7 0.941832 0.096010 0.624600
O O8 0.164105 0.075089 0.602505
O O9 0.338965 0.750000 0.638059
O O10 0.492922 0.875339 0.687614
O O11 0.278883 0.926101 0.635414
O O12 0.450672 0.872766 0.555482
O O13 0.500000 0.500000 0.290593
O O14 0.663182 0.368751 0.279482
O O15 0.423289 0.343205 0.317262
O O16 0.826524 0.250000 0.319221
O O17 0.392490 0.750000 0.455847
O O18 0.586319 0.638943 0.453838
O O19 0.260979 0.750000 0.885037
#
# Coordination Sequence:
#
# PCOD8181764 Si02
#       8
#     8   8   8   8   8   8   8   8
#     4  11  21  37  61  91 122 166 216 261 320 388
#     4  10  23  45  69  94 123 161 215 278 330 381
#     4  10  21  35  58  92 127 169 214 261 321 394
#     4  12  21  35  56  89 136 176 209 255 316 387
#     4  10  23  43  68  92 123 166 216 272 330 387
#     4  11  22  38  64  96 129 168 213 263 322 389
#     4   9  18  33  52  82 125 168 210 252 306 379
#     4  11  21  34  54  85 132 175 206 255 315 382
#
# _framework density 21.504998000000001
#
# number of rings (size 3 to 8) (size 9 to 14) (size 15 to 20)
#    0.000    1.500    2.500    3.000    0.000    5.000 
#    0.000    5.000    0.000    0.000    0.000    0.000 
#    0.000    0.000    0.000    0.000    0.000    0.000 
#
# Total GULP energy -396458.434498 kJ/mol
# GULP energy per Si atom -12389.326078 kJ/mol
# Density = 2.145605 g / cm^3
# Si number density = 21.504998 Si / 1000 Ang^3
#
#
#
# Elastic Constant Matrix: (Units=GPa)
#
#
# Indices 1 2 3 4 5 6 
#
# 1 41.6144 29.7945 41.4409 0.0000 0.0000 0.0000
# 2 29.7945 160.3681 55.0869 0.0000 0.0000 0.0000
# 3 41.4409 55.0869 124.0629 0.0000 0.0000 0.0000
# 4 0.0000 0.0000 0.0000 3.6454 0.0000 0.0000
# 5 0.0000 0.0000 0.0000 0.0000 16.1015 0.0000
# 6 0.0000 0.0000 0.0000 0.0000 0.0000 19.5115
#
#
#
# Elastic Compliance Matrix: (Units=1/GPa)
#
#
# Indices 1 2 3 4 5 6 
#
# 1 0.037290 -0.003126 -0.011068 0.000000 0.000000 0.000000
# 2 -0.003126 0.007620 -0.002339 0.000000 0.000000 0.000000
# 3 -0.011068 -0.002339 0.012796 0.000000 0.000000 0.000000
# 4 0.000000 0.000000 0.000000 0.274315 0.000000 0.000000
# 5 0.000000 0.000000 0.000000 0.000000 0.062106 0.000000
# 6 0.000000 0.000000 0.000000 0.000000 0.000000 0.051252
#
#
# Mechanical properties :
#
#
# Convention : Reuss Voigt Hill
#
# Bulk Modulus (GPa) = 40.58508 64.29889 52.44198
# Shear Modulus (GPa) = 10.27411 21.16655 15.72033
#
# Velocity S-wave (km/s) = 2.18813 3.14070 2.70665
# Velocity P-wave (km/s) = 5.02964 6.56631 5.84866
#
# Compressibility (1/GPa) = 0.02463960
#
# Stress axis : x y z
#
# Youngs Moduli (GPa) = 26.81660 131.23377 78.14837
#
# Poissons Ratio (x) = 0.41026 0.86495
# Poissons Ratio (y) = 0.08383 0.18281
# Poissons Ratio (z) = 0.29681 0.30698
#
# Static dielectric constant tensor:
#      x y z
#    x 3.795340 0.000000 0.000000 
#    y 0.000000 4.494060 0.000000 
#    z 0.000000 0.000000 4.052400 
# 
# 
# High freq. dielectric constant tensor:
#      x y z
#    x 1.801270 0.000000 0.000000 
#    y 0.000000 1.866700 0.000000 
#    z 0.000000 0.000000 1.857330 
# 
# From -- ./inp_files/12347.got.cif
#   From: 2010.03.12/outbox.cif.g09.slc.cpg/sg39_7_cif.got.tgz:12347.got - 2010.04.14 02:53:20.
