data_PCOD8181635
_publ_section_title
;
Structure prediction by ZEFSAII (Michael W. Deem and Ramdas Pophale) SiO2 
 PCOD8181635
Probable space group: A B M 2
;
_chemical_formula_sum "Si O2"
_cell_formula_units_Z 64
_cell_length_a 24.445034
_cell_length_b 9.008252
_cell_length_c 15.035035
_cell_angle_alpha 90.000000
_cell_angle_beta 90.000000
_cell_angle_gamma 90.000000
_cell_volume 3310.820349
_symmetry_space_group_name_H-M "A B M 2"
_symmetry_group_IT_number 39
_symmetry_cell_setting 'orthorhombic'
loop_
_space_group_symop_operation_xyz
x,y,z
-x,-y,z
-x,1/2+y,z
x,1/2-y,z
x,1/2+y,1/2+z
-x,1/2-y,1/2+z
-x,y,1/2+z
x,-y,1/2+z
loop_
_atom_site_type_symbol
_atom_site_label
_atom_site_fract_x
_atom_site_fract_y
_atom_site_fract_z
Si Si1 0.943171 0.574284 0.513880
Si Si2 0.249872 0.074008 0.367555
Si Si3 0.671339 0.577542 0.524008
Si Si4 0.133635 0.925308 0.374033
Si Si5 0.449176 0.423434 0.212488
Si Si6 0.550917 0.076470 0.021962
Si Si7 0.671277 0.577727 0.211069
Si Si8 0.055029 0.577754 0.216776
O O1 0.947305 0.750000 0.499257
O O2 0.894428 0.507892 0.456183
O O3 0.929792 0.531970 0.616078
O O4 0.000000 0.500000 0.483699
O O5 0.238533 0.250000 0.367802
O O6 0.283446 0.023704 0.454362
O O7 0.283916 0.023735 0.281300
O O8 0.194801 0.981867 0.366182
O O9 0.677321 0.750000 0.543591
O O10 0.611065 0.546306 0.480695
O O11 0.681604 0.500394 0.617694
O O12 0.132314 0.750000 0.391309
O O13 0.104050 0.968824 0.281804
O O14 0.500000 0.500000 0.266651
O O15 0.461584 0.250000 0.204202
O O16 0.447392 0.500656 0.117423
O O17 0.389107 0.452660 0.254154
O O18 0.538649 0.250000 0.029327
O O19 0.500000 0.000000 0.967997
O O20 0.677529 0.750000 0.191058
O O21 0.042592 0.750000 0.222525
O O22 0.000000 0.500000 0.250126
#
# Coordination Sequence:
#
# PCOD8181635 Si02
#       8
#     8   8   8   8   8   8   8   8
#     4  10  20  37  60  87 117 149 180 216 262 314
#     4  10  22  40  56  74 103 143 184 222 266 319
#     4   9  19  35  55  75 101 137 176 217 268 323
#     4  11  23  38  56  82 112 145 184 227 267 310
#     4   9  15  25  44  71  99 128 163 208 260 319
#     4   9  15  25  44  71  98 127 163 207 259 319
#     4   9  19  35  55  76 102 136 176 220 269 320
#     4   9  20  37  58  84 115 145 176 213 259 310
#
# _framework density 19.330556000000001
#
# number of rings (size 3 to 8) (size 9 to 14) (size 15 to 20)
#    0.000    2.500    0.000    2.625    0.000    5.500 
#    0.000    4.375    0.000    0.000    0.000    0.000 
#    0.000    0.000    0.000    0.000    0.000    0.000 
#
# Total GULP energy -396602.836678 kJ/mol
# GULP energy per Si atom -12393.838646 kJ/mol
# Density = 1.928656 g / cm^3
# Si number density = 19.330556 Si / 1000 Ang^3
#
#
#
# Elastic Constant Matrix: (Units=GPa)
#
#
# Indices 1 2 3 4 5 6 
#
# 1 179.1576 68.5580 76.0994 0.0000 0.0000 0.0000
# 2 68.5580 84.8524 44.6012 0.0000 0.0000 0.0000
# 3 76.0994 44.6012 98.5374 0.0000 0.0000 0.0000
# 4 0.0000 0.0000 0.0000 20.5805 0.0000 0.0000
# 5 0.0000 0.0000 0.0000 0.0000 49.3831 0.0000
# 6 0.0000 0.0000 0.0000 0.0000 0.0000 37.9703
#
#
#
# Elastic Compliance Matrix: (Units=1/GPa)
#
#
# Indices 1 2 3 4 5 6 
#
# 1 0.009766 -0.005152 -0.005210 0.000000 0.000000 0.000000
# 2 -0.005152 0.018182 -0.004251 0.000000 0.000000 0.000000
# 3 -0.005210 -0.004251 0.016097 0.000000 0.000000 0.000000
# 4 0.000000 0.000000 0.000000 0.048590 0.000000 0.000000
# 5 0.000000 0.000000 0.000000 0.000000 0.020250 0.000000
# 6 0.000000 0.000000 0.000000 0.000000 0.000000 0.026336
#
#
# Mechanical properties :
#
#
# Convention : Reuss Voigt Hill
#
# Bulk Modulus (GPa) = 67.48483 82.34052 74.91267
# Shear Modulus (GPa) = 28.83704 33.13937 30.98820
#
# Velocity S-wave (km/s) = 3.86655 4.14496 4.00818
# Velocity P-wave (km/s) = 7.41083 8.09915 7.76262
#
# Compressibility (1/GPa) = 0.01481815
#
# Stress axis : x y z
#
# Youngs Moduli (GPa) = 102.39096 54.99814 62.12505
#
# Poissons Ratio (x) = 0.28336 0.32370
# Poissons Ratio (y) = 0.52754 0.26409
# Poissons Ratio (z) = 0.53351 0.23380
#
# Static dielectric constant tensor:
#      x y z
#    x 4.139230 0.000000 0.000000 
#    y 0.000000 3.533250 0.000000 
#    z 0.000000 0.000000 3.474310 
# 
# 
# High freq. dielectric constant tensor:
#      x y z
#    x 1.763340 0.000000 0.000000 
#    y 0.000000 1.754530 0.000000 
#    z 0.000000 0.000000 1.736430 
# 
# From -- ./inp_files/10565.got.cif
#   From: 2010.03.12/outbox.cif.g09.slc.cpg/sg39_6_cif.got.tgz:10565.got - 2010.04.14 02:53:20.
