data_PCOD8181639
_publ_section_title
;
Structure prediction by ZEFSAII (Michael W. Deem and Ramdas Pophale) SiO2 
 PCOD8181639
Probable space group: A B M 2
;
_chemical_formula_sum "Si O2"
_cell_formula_units_Z 64
_cell_length_a 24.393050
_cell_length_b 9.091541
_cell_length_c 14.927044
_cell_angle_alpha 90.000000
_cell_angle_beta 90.000000
_cell_angle_gamma 90.000000
_cell_volume 3310.376731
_symmetry_space_group_name_H-M "A B M 2"
_symmetry_group_IT_number 39
_symmetry_cell_setting 'orthorhombic'
loop_
_space_group_symop_operation_xyz
x,y,z
-x,-y,z
-x,1/2+y,z
x,1/2-y,z
x,1/2+y,1/2+z
-x,1/2-y,1/2+z
-x,y,1/2+z
x,-y,1/2+z
loop_
_atom_site_type_symbol
_atom_site_label
_atom_site_fract_x
_atom_site_fract_y
_atom_site_fract_z
Si Si1 0.443290 0.575634 0.981280
Si Si2 0.050869 0.587829 0.691080
Si Si3 0.365136 0.424219 0.843265
Si Si4 0.827093 0.425251 0.480294
Si Si5 0.050871 0.088772 0.978188
Si Si6 0.751318 0.075027 0.838906
Si Si7 0.554375 0.580473 0.686342
Si Si8 0.169175 0.423763 0.182276
O O1 0.500000 0.500000 0.951423
O O2 0.446851 0.750000 0.963773
O O3 0.394544 0.503882 0.925622
O O4 0.430313 0.537712 0.084744
O O5 0.047747 0.750000 0.732999
O O6 0.045515 0.595433 0.584538
O O7 0.109767 0.511228 0.713299
O O8 0.000000 0.500000 0.733665
O O9 0.362715 0.250000 0.861216
O O10 0.305379 0.490574 0.834792
O O11 0.395590 0.462659 0.750510
O O12 0.818903 0.250000 0.466550
O O13 0.888961 0.474893 0.453170
O O14 0.784604 0.519997 0.424196
O O15 0.814886 0.473671 0.582472
O O16 0.046078 0.250000 0.936654
O O17 0.000000 0.000000 0.935769
O O18 0.742372 0.250000 0.844309
O O19 0.783687 0.026180 0.749782
O O20 0.500000 0.500000 0.720297
O O21 0.539952 0.750000 0.693537
O O22 0.160853 0.250000 0.181383
#
# Coordination Sequence:
#
# PCOD8181639 Si02
#       8
#     8   8   8   8   8   8   8   8
#     4  10  20  37  60  89 120 149 181 220 264 314
#     4   8  13  25  46  72  98 127 164 209 259 318
#     4  11  23  39  57  80 111 149 186 225 269 315
#     4   9  18  36  57  76 102 140 178 218 269 326
#     4   8  14  25  46  73 100 129 166 210 261 318
#     4  11  23  38  55  78 105 139 184 231 270 315
#     4   9  20  37  59  86 117 147 178 217 263 312
#     4   8  17  35  56  74 101 140 177 214 268 328
#
# _framework density 19.333145999999999
#
# number of rings (size 3 to 8) (size 9 to 14) (size 15 to 20)
#    0.000    2.750    0.000    3.000    0.000    4.000 
#    0.000    7.500    0.000    3.000    0.000    0.000 
#    0.000    0.000    0.000    0.000    0.000    0.000 
#
# Total GULP energy -396669.976633 kJ/mol
# GULP energy per Si atom -12395.936770 kJ/mol
# Density = 1.928914 g / cm^3
# Si number density = 19.333146 Si / 1000 Ang^3
#
#
#
# Elastic Constant Matrix: (Units=GPa)
#
#
# Indices 1 2 3 4 5 6 
#
# 1 178.5480 66.9924 72.9161 0.0000 0.0000 0.0000
# 2 66.9924 79.7091 41.7766 0.0000 0.0000 0.0000
# 3 72.9161 41.7766 88.8117 0.0000 0.0000 0.0000
# 4 0.0000 0.0000 0.0000 21.1794 0.0000 0.0000
# 5 0.0000 0.0000 0.0000 0.0000 35.6923 0.0000
# 6 0.0000 0.0000 0.0000 0.0000 0.0000 37.9793
#
#
#
# Elastic Compliance Matrix: (Units=1/GPa)
#
#
# Indices 1 2 3 4 5 6 
#
# 1 0.009912 -0.005396 -0.005600 0.000000 0.000000 0.000000
# 2 -0.005396 0.019588 -0.004784 0.000000 0.000000 0.000000
# 3 -0.005600 -0.004784 0.018108 0.000000 0.000000 0.000000
# 4 0.000000 0.000000 0.000000 0.047216 0.000000 0.000000
# 5 0.000000 0.000000 0.000000 0.000000 0.028017 0.000000
# 6 0.000000 0.000000 0.000000 0.000000 0.000000 0.026330
#
#
# Mechanical properties :
#
#
# Convention : Reuss Voigt Hill
#
# Bulk Modulus (GPa) = 62.31134 78.93765 70.62450
# Shear Modulus (GPa) = 26.87013 29.99577 28.43295
#
# Velocity S-wave (km/s) = 3.73211 3.94321 3.83911
# Velocity P-wave (km/s) = 7.13245 7.85180 7.50075
#
# Compressibility (1/GPa) = 0.01604844
#
# Stress axis : x y z
#
# Youngs Moduli (GPa) = 100.88568 51.05175 55.22476
#
# Poissons Ratio (x) = 0.27547 0.30926
# Poissons Ratio (y) = 0.54436 0.26420
# Poissons Ratio (z) = 0.56495 0.24423
#
# Static dielectric constant tensor:
#      x y z
#    x 3.637070 0.000000 0.000000 
#    y 0.000000 3.538800 0.000000 
#    z 0.000000 0.000000 3.529970 
# 
# 
# High freq. dielectric constant tensor:
#      x y z
#    x 1.758070 0.000000 0.000000 
#    y 0.000000 1.740490 0.000000 
#    z 0.000000 0.000000 1.745760 
# 
# From -- ./inp_files/10618.got.cif
#   From: 2010.03.12/outbox.cif.g09.slc.cpg/sg39_6_cif.got.tgz:10618.got - 2010.04.14 02:53:20.
