data_PCOD8181695
_publ_section_title
;
Structure prediction by ZEFSAII (Michael W. Deem and Ramdas Pophale) SiO2 
 PCOD8181695
Probable space group: A B M 2
;
_chemical_formula_sum "Si O2"
_cell_formula_units_Z 64
_cell_length_a 11.534662
_cell_length_b 16.870478
_cell_length_c 15.749300
_cell_angle_alpha 90.000000
_cell_angle_beta 90.000000
_cell_angle_gamma 90.000000
_cell_volume 3064.739152
_symmetry_space_group_name_H-M "A B M 2"
_symmetry_group_IT_number 39
_symmetry_cell_setting 'orthorhombic'
loop_
_space_group_symop_operation_xyz
x,y,z
-x,-y,z
-x,1/2+y,z
x,1/2-y,z
x,1/2+y,1/2+z
-x,1/2-y,1/2+z
-x,y,1/2+z
x,-y,1/2+z
loop_
_atom_site_type_symbol
_atom_site_label
_atom_site_fract_x
_atom_site_fract_y
_atom_site_fract_z
Si Si1 0.731015 0.663606 0.732590
Si Si2 0.010791 0.158200 0.691642
Si Si3 0.967115 0.157200 0.884865
Si Si4 0.773268 0.936079 0.466591
Si Si5 0.638438 0.659298 0.002785
Si Si6 0.599635 0.164775 0.068988
Si Si7 0.381548 0.456156 0.855850
Si Si8 0.118974 0.586531 0.531581
O O1 0.743480 0.750000 0.781325
O O2 0.851459 0.646462 0.683729
O O3 0.629210 0.673275 0.666410
O O4 0.694416 0.587793 0.785592
O O5 0.974977 0.250000 0.677122
O O6 0.974755 0.128931 0.786484
O O7 0.952971 0.105918 0.616882
O O8 0.986302 0.250000 0.889850
O O9 0.842784 0.135349 0.923275
O O10 0.066108 0.118321 0.943249
O O11 0.674428 0.904375 0.528026
O O12 0.709057 0.981603 0.392062
O O13 0.863936 0.991675 0.519309
O O14 0.659116 0.750000 0.976450
O O15 0.587020 0.611399 0.923139
O O16 0.537361 0.647240 0.071518
O O17 0.754485 0.624258 0.042825
O O18 0.622155 0.250000 0.022472
O O19 0.500000 0.500000 0.824432
#
# Coordination Sequence:
#
# PCOD8181695 Si02
#       8
#     8   8   8   8   8   8   8   8
#     4  10  22  41  65  90 120 163 210 257 312 380
#     4  10  21  40  66  95 127 165 214 266 316 380
#     4  11  23  41  63  91 128 168 213 260 312 385
#     4  11  23  40  63  93 128 165 205 257 325 382
#     4  10  20  38  65  90 121 163 211 258 308 379
#     4  10  21  40  63  88 120 164 212 254 309 379
#     4  11  22  41  60  91 126 162 207 257 319 372
#     4  11  23  39  66  95 131 165 212 268 329 386
#
# _framework density 20.882691000000001
#
# number of rings (size 3 to 8) (size 9 to 14) (size 15 to 20)
#    0.000    1.500    1.250    4.500    0.000    3.000 
#    6.750    3.750    0.000    0.000    0.000    0.000 
#    0.000    0.000    0.000    0.000    0.000    0.000 
#
# Total GULP energy -396620.472376 kJ/mol
# GULP energy per Si atom -12394.389762 kJ/mol
# Density = 2.083516 g / cm^3
# Si number density = 20.882691 Si / 1000 Ang^3
#
#
#
# Elastic Constant Matrix: (Units=GPa)
#
#
# Indices 1 2 3 4 5 6 
#
# 1 92.7624 27.3494 45.0779 0.0000 0.0000 0.0000
# 2 27.3494 82.9728 34.3910 0.0000 0.0000 0.0000
# 3 45.0779 34.3910 99.2176 0.0000 0.0000 0.0000
# 4 0.0000 0.0000 0.0000 31.9259 0.0000 0.0000
# 5 0.0000 0.0000 0.0000 0.0000 30.0740 0.0000
# 6 0.0000 0.0000 0.0000 0.0000 0.0000 32.3398
#
#
#
# Elastic Compliance Matrix: (Units=1/GPa)
#
#
# Indices 1 2 3 4 5 6 
#
# 1 0.014215 -0.002346 -0.005645 0.000000 0.000000 0.000000
# 2 -0.002346 0.014461 -0.003947 0.000000 0.000000 0.000000
# 3 -0.005645 -0.003947 0.014012 0.000000 0.000000 0.000000
# 4 0.000000 0.000000 0.000000 0.031323 0.000000 0.000000
# 5 0.000000 0.000000 0.000000 0.000000 0.033251 0.000000
# 6 0.000000 0.000000 0.000000 0.000000 0.000000 0.030922
#
#
# Mechanical properties :
#
#
# Convention : Reuss Voigt Hill
#
# Bulk Modulus (GPa) = 53.15637 54.28769 53.72203
# Shear Modulus (GPa) = 29.70349 30.07690 29.89020
#
# Velocity S-wave (km/s) = 3.77556 3.79922 3.78741
# Velocity P-wave (km/s) = 6.67207 6.73040 6.70130
#
# Compressibility (1/GPa) = 0.01881242
#
# Stress axis : x y z
#
# Youngs Moduli (GPa) = 70.34731 69.15040 71.36840
#
# Poissons Ratio (x) = 0.16220 0.40290
# Poissons Ratio (y) = 0.16501 0.28168
# Poissons Ratio (z) = 0.39714 0.27293
#
# Static dielectric constant tensor:
#      x y z
#    x 3.850490 0.000000 0.000000 
#    y 0.000000 4.209650 0.000000 
#    z 0.000000 0.000000 3.671990 
# 
# 
# High freq. dielectric constant tensor:
#      x y z
#    x 1.831470 0.000000 0.000000 
#    y 0.000000 1.830160 0.000000 
#    z 0.000000 0.000000 1.799540 
# 
# From -- ./inp_files/9486.got.cif
#   From: 2010.03.12/outbox.cif.g09.slc.cpg/sg39_5_cif.got.tgz:9486.got - 2010.04.14 02:53:20.
