data_PCOD8181777
_publ_section_title
;
Structure prediction by ZEFSAII (Michael W. Deem and Ramdas Pophale) SiO2 
 PCOD8181777
Probable space group: A B M 2
;
_chemical_formula_sum "Si O2"
_cell_formula_units_Z 64
_cell_length_a 12.124615
_cell_length_b 27.048563
_cell_length_c 9.652730
_cell_angle_alpha 90.000000
_cell_angle_beta 90.000000
_cell_angle_gamma 90.000000
_cell_volume 3165.645745
_symmetry_space_group_name_H-M "A B M 2"
_symmetry_group_IT_number 39
_symmetry_cell_setting 'orthorhombic'
loop_
_space_group_symop_operation_xyz
x,y,z
-x,-y,z
-x,1/2+y,z
x,1/2-y,z
x,1/2+y,1/2+z
-x,1/2-y,1/2+z
-x,y,1/2+z
x,-y,1/2+z
loop_
_atom_site_type_symbol
_atom_site_label
_atom_site_fract_x
_atom_site_fract_y
_atom_site_fract_z
Si Si1 0.219914 0.504610 0.729330
Si Si2 0.282214 0.895397 0.867354
Si Si3 0.068485 0.193969 0.138873
Si Si4 0.483205 0.393419 0.964107
Si Si5 0.052920 0.637173 0.923997
Si Si6 0.862470 0.440784 0.473103
Si Si7 0.561342 0.046266 0.205240
Si Si8 0.720121 0.644885 0.073612
O O1 0.280631 0.548005 0.815746
O O2 0.136637 0.524601 0.610858
O O3 0.146946 0.473266 0.835895
O O4 0.313974 0.469169 0.661402
O O5 0.174549 0.882968 0.958107
O O6 0.288447 0.859667 0.737062
O O7 0.387772 0.879699 0.958285
O O8 0.057406 0.250000 0.191176
O O9 0.049618 0.155703 0.264823
O O10 0.186529 0.187264 0.057481
O O11 0.974100 0.182554 0.025987
O O12 0.482303 0.437072 0.078517
O O13 0.404098 0.347193 0.012458
O O14 0.435236 0.410476 0.817695
O O15 0.972416 0.591403 0.956101
O O16 0.758117 0.404969 0.494584
O O17 0.500000 0.000000 0.275003
#
# Coordination Sequence:
#
# PCOD8181777 Si02
#       8
#     8   8   8   8   8   8   8   8
#     4  11  21  35  53  81 118 169 225 252 289 330
#     4  10  21  36  54  82 119 164 204 248 294 349
#     4  10  21  42  73  95 113 145 194 257 322 397
#     4  12  20  35  55  80 115 160 207 250 304 339
#     4  10  23  42  63  89 125 154 200 249 316 377
#     4  10  21  37  56  80 119 166 207 257 291 346
#     4  12  22  30  52  78 114 161 221 262 278 327
#     4   9  19  38  57  86 118 149 196 253 311 363
#
# _framework density 20.217044999999999
#
# number of rings (size 3 to 8) (size 9 to 14) (size 15 to 20)
#    0.000    1.500    3.750    3.000    0.000    2.500 
#    0.000    5.000    0.000    3.750    0.000    0.000 
#    0.000    0.000    0.000    0.000    0.000    0.000 
#
# Total GULP energy -396537.829343 kJ/mol
# GULP energy per Si atom -12391.807167 kJ/mol
# Density = 2.017103 g / cm^3
# Si number density = 20.217045 Si / 1000 Ang^3
#
#
#
# Elastic Constant Matrix: (Units=GPa)
#
#
# Indices 1 2 3 4 5 6 
#
# 1 146.8616 34.0915 45.9504 0.0000 0.0000 0.0000
# 2 34.0915 55.0324 27.8125 0.0000 0.0000 0.0000
# 3 45.9504 27.8125 83.3943 0.0000 0.0000 0.0000
# 4 0.0000 0.0000 0.0000 22.5226 0.0000 0.0000
# 5 0.0000 0.0000 0.0000 0.0000 26.9159 0.0000
# 6 0.0000 0.0000 0.0000 0.0000 0.0000 19.2854
#
#
#
# Elastic Compliance Matrix: (Units=1/GPa)
#
#
# Indices 1 2 3 4 5 6 
#
# 1 0.008784 -0.003603 -0.003638 0.000000 0.000000 0.000000
# 2 -0.003603 0.023332 -0.005796 0.000000 0.000000 0.000000
# 3 -0.003638 -0.005796 0.015929 0.000000 0.000000 0.000000
# 4 0.000000 0.000000 0.000000 0.044400 0.000000 0.000000
# 5 0.000000 0.000000 0.000000 0.000000 0.037153 0.000000
# 6 0.000000 0.000000 0.000000 0.000000 0.000000 0.051853
#
#
# Mechanical properties :
#
#
# Convention : Reuss Voigt Hill
#
# Bulk Modulus (GPa) = 45.51585 55.66636 50.59111
# Shear Modulus (GPa) = 23.27219 25.57372 24.42295
#
# Velocity S-wave (km/s) = 3.39649 3.56048 3.47945
# Velocity P-wave (km/s) = 6.15987 6.67060 6.42032
#
# Compressibility (1/GPa) = 0.02197037
#
# Stress axis : x y z
#
# Youngs Moduli (GPa) = 113.84587 42.85912 62.77809
#
# Poissons Ratio (x) = 0.15440 0.22841
# Poissons Ratio (y) = 0.41014 0.36389
# Poissons Ratio (z) = 0.41422 0.24843
#
# Static dielectric constant tensor:
#      x y z
#    x 3.917050 0.000000 0.000000 
#    y 0.000000 3.239100 0.000000 
#    z 0.000000 0.000000 3.661770 
# 
# 
# High freq. dielectric constant tensor:
#      x y z
#    x 1.800610 0.000000 0.000000 
#    y 0.000000 1.734180 0.000000 
#    z 0.000000 0.000000 1.792280 
# 
# From -- ./inp_files/2892.got.cif
#   From: 2010.03.12/outbox.cif.g09.slc.cpg/sg39_2_cif.got.tgz:2892.got - 2010.04.14 02:53:20.
