data_PCOD8181892
_publ_section_title
;
Structure prediction by ZEFSAII (Michael W. Deem and Ramdas Pophale) SiO2 
 PCOD8181892
Probable space group: A B M 2
;
_chemical_formula_sum "Si O2"
_cell_formula_units_Z 56
_cell_length_a 19.010685
_cell_length_b 15.399280
_cell_length_c 9.294725
_cell_angle_alpha 90.000000
_cell_angle_beta 90.000000
_cell_angle_gamma 90.000000
_cell_volume 2721.038749
_symmetry_space_group_name_H-M "A B M 2"
_symmetry_group_IT_number 39
_symmetry_cell_setting 'orthorhombic'
loop_
_space_group_symop_operation_xyz
x,y,z
-x,-y,z
-x,1/2+y,z
x,1/2-y,z
x,1/2+y,1/2+z
-x,1/2-y,1/2+z
-x,y,1/2+z
x,-y,1/2+z
loop_
_atom_site_type_symbol
_atom_site_label
_atom_site_fract_x
_atom_site_fract_y
_atom_site_fract_z
Si Si1 0.196969 0.852035 0.903400
Si Si2 0.057405 0.154332 0.713829
Si Si3 0.333248 0.912475 0.745221
Si Si4 0.043014 0.584894 0.916832
Si Si5 0.426734 0.250000 0.903287
Si Si6 0.336549 0.418502 0.904758
Si Si7 0.211300 0.150546 0.735402
Si Si8 0.571642 0.750000 0.238259
O O1 0.183324 0.750000 0.873665
O O2 0.254402 0.889368 0.794144
O O3 0.125388 0.907298 0.876540
O O4 0.224493 0.866552 0.065907
O O5 0.071237 0.250000 0.646526
O O6 0.031963 0.091890 0.586695
O O7 0.132020 0.122630 0.777528
O O8 0.998418 0.161706 0.835802
O O9 0.331320 0.930953 0.575295
O O10 0.384138 0.833552 0.784589
O O11 0.366462 0.994176 0.830931
O O12 0.000000 0.500000 0.862270
O O13 0.383719 0.336178 0.860850
O O14 0.498382 0.250000 0.817939
O O15 0.444568 0.250000 0.070316
O O16 0.259676 0.408460 0.835406
O O17 0.226999 0.250000 0.775239
#
# Coordination Sequence:
#
# PCOD8181892 Si02
#       8
#     8   8   8   8   4   8   8   4
#     4  10  21  40  64  90 125 176 220 273 332 396
#     4  10  21  39  58  80 116 162 205 258 317 391
#     4  11  24  42  66  97 136 170 223 270 326 389
#     4  11  23  38  57  86 121 156 209 266 324 377
#     4  10  24  44  72  98 141 174 215 262 327 392
#     4  11  23  42  65 100 135 172 218 272 325 394
#     4   9  19  36  61  88 122 165 216 262 324 386
#     4  10  24  46  68 102 133 178 217 262 321 392
#
# _framework density 20.580375
#
# number of rings (size 3 to 8) (size 9 to 14) (size 15 to 20)
#    0.000    1.714    1.429    3.429    2.000    4.000 
#    0.000    4.286    0.000    0.000    0.000    0.000 
#    0.000    0.000    0.000    0.000    0.000    0.000 
#
# Total GULP energy -347161.959284 kJ/mol
# GULP energy per Si atom -12398.641403 kJ/mol
# Density = 2.053353 g / cm^3
# Si number density = 20.580375 Si / 1000 Ang^3
#
#
#
# Elastic Constant Matrix: (Units=GPa)
#
#
# Indices 1 2 3 4 5 6 
#
# 1 141.5603 61.0929 71.1816 0.0000 0.0000 0.0000
# 2 61.0929 129.4015 55.5962 0.0000 0.0000 0.0000
# 3 71.1816 55.5962 93.3815 0.0000 0.0000 0.0000
# 4 0.0000 0.0000 0.0000 32.3070 0.0000 0.0000
# 5 0.0000 0.0000 0.0000 0.0000 42.0291 0.0000
# 6 0.0000 0.0000 0.0000 0.0000 0.0000 23.7337
#
#
#
# Elastic Compliance Matrix: (Units=1/GPa)
#
#
# Indices 1 2 3 4 5 6 
#
# 1 0.011953 -0.002323 -0.007728 0.000000 0.000000 0.000000
# 2 -0.002323 0.010835 -0.004681 0.000000 0.000000 0.000000
# 3 -0.007728 -0.004681 0.019386 0.000000 0.000000 0.000000
# 4 0.000000 0.000000 0.000000 0.030953 0.000000 0.000000
# 5 0.000000 0.000000 0.000000 0.000000 0.023793 0.000000
# 6 0.000000 0.000000 0.000000 0.000000 0.000000 0.042134
#
#
# Mechanical properties :
#
#
# Convention : Reuss Voigt Hill
#
# Bulk Modulus (GPa) = 78.66901 82.23164 80.45033
# Shear Modulus (GPa) = 28.94281 31.37879 30.16080
#
# Velocity S-wave (km/s) = 3.75418 3.90897 3.83235
# Velocity P-wave (km/s) = 7.55646 7.77280 7.66539
#
# Compressibility (1/GPa) = 0.01271149
#
# Stress axis : x y z
#
# Youngs Moduli (GPa) = 83.66438 92.29000 51.58276
#
# Poissons Ratio (x) = 0.21436 0.39864
# Poissons Ratio (y) = 0.19432 0.24144
# Poissons Ratio (z) = 0.64657 0.43197
#
# Static dielectric constant tensor:
#      x y z
#    x 3.607750 0.000000 0.000000 
#    y 0.000000 3.839920 0.000000 
#    z 0.000000 0.000000 3.557900 
# 
# 
# High freq. dielectric constant tensor:
#      x y z
#    x 1.800240 0.000000 0.000000 
#    y 0.000000 1.817200 0.000000 
#    z 0.000000 0.000000 1.801760 
# 
# From -- ./inp_files/3981.got.cif
#   From: 2010.03.12/outbox.cif.g09.slc.cpg/sg39_2_cif.got.tgz:3981.got - 2010.04.14 02:53:20.
