data_PCOD8181995
_publ_section_title
;
Structure prediction by ZEFSAII (Michael W. Deem and Ramdas Pophale) SiO2 
 PCOD8181995
Probable space group: A B M 2
;
_chemical_formula_sum "Si O2"
_cell_formula_units_Z 40
_cell_length_a 8.630622
_cell_length_b 22.114349
_cell_length_c 10.120719
_cell_angle_alpha 90.000000
_cell_angle_beta 90.000000
_cell_angle_gamma 90.000000
_cell_volume 1931.646369
_symmetry_space_group_name_H-M "A B M 2"
_symmetry_group_IT_number 39
_symmetry_cell_setting 'orthorhombic'
loop_
_space_group_symop_operation_xyz
x,y,z
-x,-y,z
-x,1/2+y,z
x,1/2-y,z
x,1/2+y,1/2+z
-x,1/2-y,1/2+z
-x,y,1/2+z
x,-y,1/2+z
loop_
_atom_site_type_symbol
_atom_site_label
_atom_site_fract_x
_atom_site_fract_y
_atom_site_fract_z
Si Si1 0.163530 0.180369 0.595640
Si Si2 0.843739 0.884242 0.102196
Si Si3 0.170886 0.988750 0.785408
Si Si4 0.315907 0.384833 0.826738
Si Si5 0.677080 0.125578 0.855243
O O1 0.115709 0.250000 0.590997
O O2 0.236019 0.166335 0.737996
O O3 0.289682 0.166683 0.482075
O O4 0.013027 0.140080 0.568715
O O5 0.849676 0.955607 0.142155
O O6 0.768710 0.847927 0.226681
O O7 0.736363 0.876234 0.976181
O O8 0.264140 0.943274 0.882841
O O9 0.267130 0.050104 0.768570
O O10 0.000000 0.000000 0.846220
O O11 0.497855 0.375792 0.819731
#
# Coordination Sequence:
#
# PCOD8181995 Si02
#       5
#     8   8   8   8   8
#     4  12  26  46  70  97 135 186 236 276 328 408
#     4  10  24  42  67  98 132 182 222 283 331 413
#     4  10  21  41  68 100 137 173 220 276 343 411
#     4  12  23  44  70 103 139 175 224 284 351 398
#     4  10  25  43  67 101 136 178 220 282 346 403
#
# _framework density 20.707726000000001
#
# number of rings (size 3 to 8) (size 9 to 14) (size 15 to 20)
#    1.200    0.000    2.000    4.200    2.800    4.800 
#    3.600    2.000    0.000    0.000    0.000    0.000 
#    0.000    0.000    0.000    0.000    0.000    0.000 
#
# Total GULP energy -247962.083378 kJ/mol
# GULP energy per Si atom -12398.104169 kJ/mol
# Density = 2.066059 g / cm^3
# Si number density = 20.707726 Si / 1000 Ang^3
#
#
#
# Elastic Constant Matrix: (Units=GPa)
#
#
# Indices 1 2 3 4 5 6 
#
# 1 110.0136 22.0932 7.5020 0.0000 0.0000 0.0000
# 2 22.0932 83.0067 34.8020 0.0000 0.0000 0.0000
# 3 7.5020 34.8020 97.3033 0.0000 0.0000 0.0000
# 4 0.0000 0.0000 0.0000 22.7026 0.0000 0.0000
# 5 0.0000 0.0000 0.0000 0.0000 32.6175 0.0000
# 6 0.0000 0.0000 0.0000 0.0000 0.0000 12.6063
#
#
#
# Elastic Compliance Matrix: (Units=1/GPa)
#
#
# Indices 1 2 3 4 5 6 
#
# 1 0.009607 -0.002643 0.000205 0.000000 0.000000 0.000000
# 2 -0.002643 0.014899 -0.005125 0.000000 0.000000 0.000000
# 3 0.000205 -0.005125 0.012095 0.000000 0.000000 0.000000
# 4 0.000000 0.000000 0.000000 0.044048 0.000000 0.000000
# 5 0.000000 0.000000 0.000000 0.000000 0.030658 0.000000
# 6 0.000000 0.000000 0.000000 0.000000 0.000000 0.079326
#
#
# Mechanical properties :
#
#
# Convention : Reuss Voigt Hill
#
# Bulk Modulus (GPa) = 46.56857 46.56869 46.56863
# Shear Modulus (GPa) = 23.48332 28.64702 26.06517
#
# Velocity S-wave (km/s) = 3.37120 3.72344 3.55169
# Velocity P-wave (km/s) = 6.13927 6.40490 6.27349
#
# Compressibility (1/GPa) = 0.02147371
#
# Stress axis : x y z
#
# Youngs Moduli (GPa) = 104.09574 67.11658 82.68217
#
# Poissons Ratio (x) = 0.17737 -0.01691
# Poissons Ratio (y) = 0.27509 0.42377
# Poissons Ratio (z) = -0.02129 0.34399
#
# Static dielectric constant tensor:
#      x y z
#    x 3.693410 0.000000 0.000000 
#    y 0.000000 3.567560 0.000000 
#    z 0.000000 0.000000 3.627960 
# 
# 
# High freq. dielectric constant tensor:
#      x y z
#    x 1.820410 0.000000 0.000000 
#    y 0.000000 1.789330 0.000000 
#    z 0.000000 0.000000 1.810630 
# 
# From -- ./inp_files/2107.got.cif
#   From: 2010.03.12/outbox.cif.g09.slc.cpg/sg39_2_cif.got.tgz:2107.got - 2010.04.14 02:53:20.
