data_PCOD8181242
_publ_section_title
;
Structure prediction by ZEFSAII (Michael W. Deem and Ramdas Pophale) SiO2 
 PCOD8181242
Probable space group: A B M 2
;
_chemical_formula_sum "Si O2"
_cell_formula_units_Z 60
_cell_length_a 20.574847
_cell_length_b 9.786583
_cell_length_c 14.685595
_cell_angle_alpha 90.000000
_cell_angle_beta 90.000000
_cell_angle_gamma 90.000000
_cell_volume 2957.053930
_symmetry_space_group_name_H-M "A B M 2"
_symmetry_group_IT_number 39
_symmetry_cell_setting 'orthorhombic'
loop_
_space_group_symop_operation_xyz
x,y,z
-x,-y,z
-x,1/2+y,z
x,1/2-y,z
x,1/2+y,1/2+z
-x,1/2-y,1/2+z
-x,y,1/2+z
x,-y,1/2+z
loop_
_atom_site_type_symbol
_atom_site_label
_atom_site_fract_x
_atom_site_fract_y
_atom_site_fract_z
Si Si1 0.236342 0.094048 0.807470
Si Si2 0.646826 0.904215 0.551178
Si Si3 0.000000 0.000000 0.202044
Si Si4 0.212544 0.098707 0.598480
Si Si5 0.435833 0.588338 0.678300
Si Si6 0.905310 0.402969 0.555228
Si Si7 0.646299 0.402817 0.850551
Si Si8 0.902524 0.406863 0.354853
O O1 0.244556 0.250000 0.841409
O O2 0.239224 0.085484 0.699623
O O3 0.168210 0.024028 0.840769
O O4 0.295394 0.008453 0.845791
O O5 0.635732 0.750000 0.592251
O O6 0.724305 0.930240 0.536736
O O7 0.615051 0.912664 0.451069
O O8 0.618265 0.025104 0.612031
O O9 0.050026 0.928058 0.269666
O O10 0.961079 0.902219 0.132598
O O11 0.183992 0.250000 0.580277
O O12 0.154790 0.995430 0.581343
O O13 0.500000 0.500000 0.662443
O O14 0.446943 0.750000 0.656980
O O15 0.411674 0.564351 0.780901
O O16 0.878484 0.250000 0.548409
O O17 0.931760 0.449250 0.454246
O O18 0.673377 0.250000 0.831390
O O19 0.886168 0.250000 0.352612
#
# Coordination Sequence:
#
# PCOD8181242 Si02
#       8
#     8   8   4   8   8   8   8   8
#     4  10  19  36  62  87 117 158 193 237 300 361
#     4  10  21  40  64  91 123 159 200 245 298 355
#     4  12  22  40  58  80 114 156 200 244 300 358
#     4  10  20  37  63  90 121 158 191 240 305 360
#     4  11  24  41  61  88 123 163 202 246 293 344
#     4  11  24  39  61  88 113 150 199 250 297 355
#     4  10  22  39  62  93 124 153 196 251 296 345
#     4  10  22  40  57  81 117 152 193 243 299 360
#
# _framework density 20.290465999999999
#
# number of rings (size 3 to 8) (size 9 to 14) (size 15 to 20)
#    0.000    1.600    2.667    2.000    0.000    3.200 
#    0.000    2.667    0.000    0.000    0.000    0.000 
#    0.000    0.000    0.000    0.000    0.000    0.000 
#
# Total GULP energy -371775.889081 kJ/mol
# GULP energy per Si atom -12392.529636 kJ/mol
# Density = 2.024428 g / cm^3
# Si number density = 20.290466 Si / 1000 Ang^3
#
#
#
# Elastic Constant Matrix: (Units=GPa)
#
#
# Indices 1 2 3 4 5 6 
#
# 1 78.9476 48.0567 21.3399 0.0000 0.0000 0.0000
# 2 48.0567 104.1756 40.3244 0.0000 0.0000 0.0000
# 3 21.3399 40.3244 96.8689 0.0000 0.0000 0.0000
# 4 0.0000 0.0000 0.0000 23.6057 0.0000 0.0000
# 5 0.0000 0.0000 0.0000 0.0000 18.8346 0.0000
# 6 0.0000 0.0000 0.0000 0.0000 0.0000 26.6922
#
#
#
# Elastic Compliance Matrix: (Units=1/GPa)
#
#
# Indices 1 2 3 4 5 6 
#
# 1 0.017641 -0.007908 -0.000594 0.000000 0.000000 0.000000
# 2 -0.007908 0.014988 -0.004497 0.000000 0.000000 0.000000
# 3 -0.000594 -0.004497 0.012326 0.000000 0.000000 0.000000
# 4 0.000000 0.000000 0.000000 0.042363 0.000000 0.000000
# 5 0.000000 0.000000 0.000000 0.000000 0.053094 0.000000
# 6 0.000000 0.000000 0.000000 0.000000 0.000000 0.037464
#
#
# Mechanical properties :
#
#
# Convention : Reuss Voigt Hill
#
# Bulk Modulus (GPa) = 52.75241 55.49267 54.12254
# Shear Modulus (GPa) = 23.78770 25.17790 24.48280
#
# Velocity S-wave (km/s) = 3.42769 3.52643 3.47741
# Velocity P-wave (km/s) = 6.45914 6.63245 6.54637
#
# Compressibility (1/GPa) = 0.01895648
#
# Stress axis : x y z
#
# Youngs Moduli (GPa) = 56.68655 66.72104 81.12813
#
# Poissons Ratio (x) = 0.52761 0.04822
# Poissons Ratio (y) = 0.44826 0.36484
# Poissons Ratio (z) = 0.03369 0.30005
#
# Static dielectric constant tensor:
#      x y z
#    x 3.571000 0.000000 0.000000 
#    y 0.000000 3.647710 0.000000 
#    z 0.000000 0.000000 4.026940 
# 
# 
# High freq. dielectric constant tensor:
#      x y z
#    x 1.783160 0.000000 0.000000 
#    y 0.000000 1.784120 0.000000 
#    z 0.000000 0.000000 1.808390 
# 
# From -- ./inp_files/10536.got.cif
#   From: 2010.03.12/outbox.cif.g09.slc.cpg/sg39_6_cif.got.tgz:10536.got - 2010.04.14 02:53:20.
