data_PCOD8181697
_publ_section_title
;
Structure prediction by ZEFSAII (Michael W. Deem and Ramdas Pophale) SiO2 
 PCOD8181697
Probable space group: A B M 2
;
_chemical_formula_sum "Si O2"
_cell_formula_units_Z 40
_cell_length_a 7.800218
_cell_length_b 23.150820
_cell_length_c 9.369456
_cell_angle_alpha 90.000000
_cell_angle_beta 90.000000
_cell_angle_gamma 90.000000
_cell_volume 1691.949883
_symmetry_space_group_name_H-M "A B M 2"
_symmetry_group_IT_number 39
_symmetry_cell_setting 'orthorhombic'
loop_
_space_group_symop_operation_xyz
x,y,z
-x,-y,z
-x,1/2+y,z
x,1/2-y,z
x,1/2+y,1/2+z
-x,1/2-y,1/2+z
-x,y,1/2+z
x,-y,1/2+z
loop_
_atom_site_type_symbol
_atom_site_label
_atom_site_fract_x
_atom_site_fract_y
_atom_site_fract_z
Si Si1 0.663254 0.373345 0.625000
Si Si2 0.109397 0.941816 0.226020
Si Si3 0.963271 0.750000 0.412375
Si Si4 0.472042 0.563319 0.368580
Si Si5 0.972325 0.374824 0.979414
Si Si6 0.238383 0.750000 0.631702
O O1 0.538882 0.390689 0.495582
O O2 0.619569 0.412351 0.763203
O O3 0.857489 0.382064 0.575827
O O4 0.639535 0.305178 0.658686
O O5 0.295394 0.948754 0.288448
O O6 0.002991 0.894683 0.318162
O O7 0.151134 0.917950 0.066136
O O8 0.000000 0.000000 0.219573
O O9 0.890849 0.810203 0.477533
O O10 0.163648 0.750000 0.467262
O O11 0.925410 0.750000 0.242519
O O12 0.500000 0.500000 0.435010
#
# Coordination Sequence:
#
# PCOD8181697 Si02
#       6
#     8   8   4   8   8   4
#     4  10  23  41  62  91 128 165 207 256 312 379
#     4  11  23  38  61  90 122 160 210 263 311 370
#     4  10  20  38  66  92 124 160 200 256 308 364
#     4  11  24  41  61  88 125 168 209 256 315 376
#     4  10  21  39  62  92 121 157 208 260 314 369
#     4  10  22  42  66  96 128 162 210 262 314 374
#
# _framework density 23.641361
#
# number of rings (size 3 to 8) (size 9 to 14) (size 15 to 20)
#    0.000    1.600    0.000    4.800    0.000    8.800 
#    0.000    2.000    0.000    0.000    0.000    0.000 
#    0.000    0.000    0.000    0.000    0.000    0.000 
#
# Total GULP energy -247776.580431 kJ/mol
# GULP energy per Si atom -12388.829022 kJ/mol
# Density = 2.358755 g / cm^3
# Si number density = 23.641361 Si / 1000 Ang^3
#
#
#
# Elastic Constant Matrix: (Units=GPa)
#
#
# Indices 1 2 3 4 5 6 
#
# 1 29.3671 26.1330 14.8814 0.0000 0.0000 0.0000
# 2 26.1330 192.0613 40.5935 0.0000 0.0000 0.0000
# 3 14.8814 40.5935 112.2175 0.0000 0.0000 0.0000
# 4 0.0000 0.0000 0.0000 36.6468 0.0000 0.0000
# 5 0.0000 0.0000 0.0000 0.0000 20.6464 0.0000
# 6 0.0000 0.0000 0.0000 0.0000 0.0000 27.5907
#
#
#
# Elastic Compliance Matrix: (Units=1/GPa)
#
#
# Indices 1 2 3 4 5 6 
#
# 1 0.040054 -0.004686 -0.003617 0.000000 0.000000 0.000000
# 2 -0.004686 0.006186 -0.001616 0.000000 0.000000 0.000000
# 3 -0.003617 -0.001616 0.009976 0.000000 0.000000 0.000000
# 4 0.000000 0.000000 0.000000 0.027288 0.000000 0.000000
# 5 0.000000 0.000000 0.000000 0.000000 0.048435 0.000000
# 6 0.000000 0.000000 0.000000 0.000000 0.000000 0.036244
#
#
# Mechanical properties :
#
#
# Convention : Reuss Voigt Hill
#
# Bulk Modulus (GPa) = 27.48893 55.20685 41.34789
# Shear Modulus (GPa) = 24.98192 33.77932 29.38062
#
# Velocity S-wave (km/s) = 3.25422 3.78408 3.52911
# Velocity P-wave (km/s) = 5.07668 6.51881 5.84241
#
# Compressibility (1/GPa) = 0.03637828
#
# Stress axis : x y z
#
# Youngs Moduli (GPa) = 24.96629 161.65976 100.24496
#
# Poissons Ratio (x) = 0.75747 0.36256
# Poissons Ratio (y) = 0.11698 0.16203
# Poissons Ratio (z) = 0.09030 0.26129
#
# Static dielectric constant tensor:
#      x y z
#    x 3.986220 0.000000 0.000000 
#    y 0.000000 4.604480 0.000000 
#    z 0.000000 0.000000 4.430250 
# 
# 
# High freq. dielectric constant tensor:
#      x y z
#    x 1.906130 0.000000 0.000000 
#    y 0.000000 1.954430 0.000000 
#    z 0.000000 0.000000 1.946690 
# 
# From -- ./inp_files/2146.got.cif
#   From: 2010.03.12/outbox.cif.g09.slc.cpg/sg39_2_cif.got.tgz:2146.got - 2010.04.14 02:53:20.
