data_PCOD8181646
_publ_section_title
;
Structure prediction by ZEFSAII (Michael W. Deem and Ramdas Pophale) SiO2 
 PCOD8181646
Probable space group: A B M 2
;
_chemical_formula_sum "Si O2"
_cell_formula_units_Z 56
_cell_length_a 5.028662
_cell_length_b 16.632057
_cell_length_c 31.366961
_cell_angle_alpha 90.000000
_cell_angle_beta 90.000000
_cell_angle_gamma 90.000000
_cell_volume 2623.438298
_symmetry_space_group_name_H-M "A B M 2"
_symmetry_group_IT_number 39
_symmetry_cell_setting 'orthorhombic'
loop_
_space_group_symop_operation_xyz
x,y,z
-x,-y,z
-x,1/2+y,z
x,1/2-y,z
x,1/2+y,1/2+z
-x,1/2-y,1/2+z
-x,y,1/2+z
x,-y,1/2+z
loop_
_atom_site_type_symbol
_atom_site_label
_atom_site_fract_x
_atom_site_fract_y
_atom_site_fract_z
Si Si1 0.208972 0.654823 0.880200
Si Si2 0.098158 0.842515 0.597502
Si Si3 0.253939 0.446544 0.462195
Si Si4 0.288130 0.154863 0.827888
Si Si5 0.589996 0.909896 0.553714
Si Si6 0.070547 0.593012 0.688946
Si Si7 0.428918 0.655994 0.234657
O O1 0.189373 0.750000 0.886475
O O2 0.166650 0.615641 0.926104
O O3 0.485389 0.626291 0.860348
O O4 0.986923 0.622721 0.847284
O O5 0.014201 0.750000 0.599644
O O6 0.351034 0.850746 0.566421
O O7 0.177635 0.875270 0.643846
O O8 0.850117 0.893511 0.581194
O O9 0.500000 0.500000 0.445682
O O10 0.345450 0.397141 0.503868
O O11 0.000000 0.500000 0.474900
O O12 0.283420 0.250000 0.824515
O O13 0.336157 0.121121 0.780500
O O14 0.500000 0.000000 0.563573
O O15 0.307193 0.607136 0.722426
O O16 0.000000 0.500000 0.687090
O O17 0.808300 0.642851 0.701340
O O18 0.503233 0.750000 0.236528
#
# Coordination Sequence:
#
# PCOD8181646 Si02
#       7
#     8   8   8   8   8   8   8
#     4  10  20  37  61  89 120 158 204 249 297 356
#     4  12  25  42  65  94 123 157 208 259 304 361
#     4  11  23  41  62  89 124 161 200 244 304 368
#     4   9  19  36  60  88 119 158 202 250 303 355
#     4  11  23  43  65  89 124 166 202 247 312 373
#     4  12  25  42  62  91 128 164 202 251 314 370
#     4  11  22  41  66  90 121 164 213 258 303 361
#
# _framework density 21.346031
#
# number of rings (size 3 to 8) (size 9 to 14) (size 15 to 20)
#    0.000    1.143    0.000    7.714    0.000    3.429 
#    0.000    8.571    0.000    0.000    0.000    0.000 
#    0.000    0.000    0.000    0.000    0.000    0.000 
#
# Total GULP energy -347374.527514 kJ/mol
# GULP energy per Si atom -12406.233125 kJ/mol
# Density = 2.129745 g / cm^3
# Si number density = 21.346031 Si / 1000 Ang^3
#
#
#
# Elastic Constant Matrix: (Units=GPa)
#
#
# Indices 1 2 3 4 5 6 
#
# 1 117.5316 22.9871 30.6791 0.0000 0.0000 0.0000
# 2 22.9871 65.2695 53.6006 0.0000 0.0000 0.0000
# 3 30.6791 53.6006 127.0545 0.0000 0.0000 0.0000
# 4 0.0000 0.0000 0.0000 41.0794 0.0000 0.0000
# 5 0.0000 0.0000 0.0000 0.0000 41.4171 0.0000
# 6 0.0000 0.0000 0.0000 0.0000 0.0000 33.0004
#
#
#
# Elastic Compliance Matrix: (Units=1/GPa)
#
#
# Indices 1 2 3 4 5 6 
#
# 1 0.009280 -0.002185 -0.001319 0.000000 0.000000 0.000000
# 2 -0.002185 0.023957 -0.009579 0.000000 0.000000 0.000000
# 3 -0.001319 -0.009579 0.012230 0.000000 0.000000 0.000000
# 4 0.000000 0.000000 0.000000 0.024343 0.000000 0.000000
# 5 0.000000 0.000000 0.000000 0.000000 0.024145 0.000000
# 6 0.000000 0.000000 0.000000 0.000000 0.000000 0.030303
#
#
# Mechanical properties :
#
#
# Convention : Reuss Voigt Hill
#
# Bulk Modulus (GPa) = 51.81091 58.26547 55.03819
# Shear Modulus (GPa) = 31.87587 36.60530 34.24059
#
# Velocity S-wave (km/s) = 3.86851 4.14557 4.00943
# Velocity P-wave (km/s) = 6.65420 7.09008 6.87560
#
# Compressibility (1/GPa) = 0.01930095
#
# Stress axis : x y z
#
# Youngs Moduli (GPa) = 107.75850 41.74084 81.76396
#
# Poissons Ratio (x) = 0.09121 0.10784
# Poissons Ratio (y) = 0.23547 0.78324
# Poissons Ratio (z) = 0.14213 0.39985
#
# Static dielectric constant tensor:
#      x y z
#    x 4.050390 0.000000 0.000000 
#    y 0.000000 3.609830 0.000000 
#    z 0.000000 0.000000 3.977530 
# 
# 
# High freq. dielectric constant tensor:
#      x y z
#    x 1.856410 0.000000 0.000000 
#    y 0.000000 1.820160 0.000000 
#    z 0.000000 0.000000 1.848600 
# 
# From -- ./inp_files/17274.got.cif
#   From: 2010.03.12/outbox.cif.g09.slc.cpg/sg39_9_cif.got.tgz:17274.got - 2010.04.14 02:53:20.
