data_PCOD8181072
_publ_section_title
;
Structure prediction by ZEFSAII (Michael W. Deem and Ramdas Pophale) SiO2 
 PCOD8181072
Probable space group: A B M 2
;
_chemical_formula_sum "Si O2"
_cell_formula_units_Z 64
_cell_length_a 19.271678
_cell_length_b 8.797734
_cell_length_c 20.286426
_cell_angle_alpha 90.000000
_cell_angle_beta 90.000000
_cell_angle_gamma 90.000000
_cell_volume 3439.504632
_symmetry_space_group_name_H-M "A B M 2"
_symmetry_group_IT_number 39
_symmetry_cell_setting 'orthorhombic'
loop_
_space_group_symop_operation_xyz
x,y,z
-x,-y,z
-x,1/2+y,z
x,1/2-y,z
x,1/2+y,1/2+z
-x,1/2-y,1/2+z
-x,y,1/2+z
x,-y,1/2+z
loop_
_atom_site_type_symbol
_atom_site_label
_atom_site_fract_x
_atom_site_fract_y
_atom_site_fract_z
Si Si1 0.280775 0.427012 0.510590
Si Si2 0.715575 0.927888 0.272346
Si Si3 0.569226 0.427529 0.824651
Si Si4 0.795970 0.428002 0.390817
Si Si5 0.569228 0.573056 0.473756
Si Si6 0.928601 0.430052 0.846002
Si Si7 0.217401 0.425465 0.650160
Si Si8 0.070273 0.927576 0.204416
O O1 0.271311 0.250000 0.492033
O O2 0.249975 0.528730 0.453005
O O3 0.362679 0.466762 0.516936
O O4 0.241480 0.470191 0.577307
O O5 0.727994 0.750000 0.287023
O O6 0.634795 0.971970 0.279756
O O7 0.758966 0.026398 0.323372
O O8 0.739548 0.968222 0.199105
O O9 0.500000 0.500000 0.793372
O O10 0.557918 0.250000 0.825771
O O11 0.581256 0.488556 0.899214
O O12 0.810571 0.250000 0.390020
O O13 0.868783 0.516851 0.395838
O O14 0.500000 0.500000 0.505477
O O15 0.555672 0.750000 0.472534
O O16 0.933606 0.250000 0.843918
O O17 0.911775 0.492220 0.773205
O O18 0.000000 0.500000 0.872830
O O19 0.234428 0.250000 0.666011
O O20 0.134737 0.455619 0.655339
O O21 0.057531 0.750000 0.217531
O O22 0.000000 0.000000 0.173598
#
# Coordination Sequence:
#
# PCOD8181072 Si02
#       8
#     8   8   8   8   8   8   8   8
#     4  10  21  40  59  80 114 155 192 235 288 340
#     4  11  21  36  58  83 113 147 187 234 284 336
#     4   9  18  32  52  81 110 142 184 231 283 339
#     4  12  23  36  57  86 115 146 190 237 282 337
#     4   9  17  32  54  79 108 142 187 232 284 342
#     4  11  21  35  57  85 116 150 186 235 288 337
#     4  10  22  38  58  83 114 151 193 235 282 343
#     4  10  19  33  54  83 112 145 189 232 279 338
#
# _framework density 18.607330999999999
#
# number of rings (size 3 to 8) (size 9 to 14) (size 15 to 20)
#    0.000    1.750    2.500    3.750    0.000    2.500 
#    0.000    1.250    0.000    4.500    0.000    0.000 
#    0.000    0.000    0.000    0.000    0.000    0.000 
#
# Total GULP energy -396846.631932 kJ/mol
# GULP energy per Si atom -12401.457248 kJ/mol
# Density = 1.856498 g / cm^3
# Si number density = 18.607331 Si / 1000 Ang^3
#
#
#
# Elastic Constant Matrix: (Units=GPa)
#
#
# Indices 1 2 3 4 5 6 
#
# 1 150.2881 52.1392 38.3844 0.0000 0.0000 0.0000
# 2 52.1392 94.3415 25.5744 0.0000 0.0000 0.0000
# 3 38.3844 25.5744 54.2726 0.0000 0.0000 0.0000
# 4 0.0000 0.0000 0.0000 21.9144 0.0000 0.0000
# 5 0.0000 0.0000 0.0000 0.0000 28.6539 0.0000
# 6 0.0000 0.0000 0.0000 0.0000 0.0000 34.8060
#
#
#
# Elastic Compliance Matrix: (Units=1/GPa)
#
#
# Indices 1 2 3 4 5 6 
#
# 1 0.009170 -0.003795 -0.004697 0.000000 0.000000 0.000000
# 2 -0.003795 0.013722 -0.003782 0.000000 0.000000 0.000000
# 3 -0.004697 -0.003782 0.023530 0.000000 0.000000 0.000000
# 4 0.000000 0.000000 0.000000 0.045632 0.000000 0.000000
# 5 0.000000 0.000000 0.000000 0.000000 0.034899 0.000000
# 6 0.000000 0.000000 0.000000 0.000000 0.000000 0.028731
#
#
# Mechanical properties :
#
#
# Convention : Reuss Voigt Hill
#
# Bulk Modulus (GPa) = 45.71752 59.01092 52.36422
# Shear Modulus (GPa) = 26.66315 29.26183 27.96249
#
# Velocity S-wave (km/s) = 3.78952 3.96990 3.88076
# Velocity P-wave (km/s) = 6.61591 7.26609 6.94861
#
# Compressibility (1/GPa) = 0.02187345
#
# Stress axis : x y z
#
# Youngs Moduli (GPa) = 109.05012 72.87410 42.49861
#
# Poissons Ratio (x) = 0.27653 0.19964
# Poissons Ratio (y) = 0.41380 0.16075
# Poissons Ratio (z) = 0.51226 0.27565
#
# Static dielectric constant tensor:
#      x y z
#    x 3.807380 0.000000 0.000000 
#    y 0.000000 3.405980 0.000000 
#    z 0.000000 0.000000 3.143730 
# 
# 
# High freq. dielectric constant tensor:
#      x y z
#    x 1.742900 0.000000 0.000000 
#    y 0.000000 1.725990 0.000000 
#    z 0.000000 0.000000 1.682130 
# 
# From -- ./inp_files/13179.got.cif
#   From: 2010.03.12/outbox.cif.g09.slc.cpg/sg39_7_cif.got.tgz:13179.got - 2010.04.14 02:53:20.
