data_PCOD8181144
_publ_section_title
;
Structure prediction by ZEFSAII (Michael W. Deem and Ramdas Pophale) SiO2 
 PCOD8181144
Probable space group: A B M 2
;
_chemical_formula_sum "Si O2"
_cell_formula_units_Z 64
_cell_length_a 16.388952
_cell_length_b 9.146534
_cell_length_c 21.819192
_cell_angle_alpha 90.000000
_cell_angle_beta 90.000000
_cell_angle_gamma 90.000000
_cell_volume 3270.742847
_symmetry_space_group_name_H-M "A B M 2"
_symmetry_group_IT_number 39
_symmetry_cell_setting 'orthorhombic'
loop_
_space_group_symop_operation_xyz
x,y,z
-x,-y,z
-x,1/2+y,z
x,1/2-y,z
x,1/2+y,1/2+z
-x,1/2-y,1/2+z
-x,y,1/2+z
x,-y,1/2+z
loop_
_atom_site_type_symbol
_atom_site_label
_atom_site_fract_x
_atom_site_fract_y
_atom_site_fract_z
Si Si1 0.633391 0.414077 0.873620
Si Si2 0.248352 0.576686 0.075467
Si Si3 0.416973 0.578605 0.009019
Si Si4 0.747706 0.424591 0.703234
Si Si5 0.216885 0.576912 0.321605
Si Si6 0.923495 0.589745 0.523574
Si Si7 0.075651 0.413612 0.379909
Si Si8 0.573155 0.410218 0.745100
O O1 0.672865 0.250000 0.880348
O O2 0.697980 0.534090 0.852533
O O3 0.566879 0.408685 0.819231
O O4 0.592893 0.461654 0.937362
O O5 0.251783 0.750000 0.086673
O O6 0.333920 0.525917 0.043834
O O7 0.232384 0.490198 0.137808
O O8 0.168560 0.529654 0.035931
O O9 0.500000 0.500000 0.033327
O O10 0.429756 0.750000 0.018835
O O11 0.759372 0.250000 0.704549
O O12 0.802179 0.499186 0.756214
O O13 0.657046 0.476670 0.720959
O O14 0.211080 0.750000 0.313889
O O15 0.152558 0.515561 0.369353
O O16 0.929658 0.750000 0.553705
O O17 0.936760 0.600393 0.451799
O O18 0.000000 0.500000 0.552461
O O19 0.083964 0.250000 0.351435
O O20 0.000000 0.500000 0.349690
O O21 0.500000 0.500000 0.715775
O O22 0.563681 0.250000 0.717564
#
# Coordination Sequence:
#
# PCOD8181144 Si02
#       8
#     8   8   8   8   8   8   8   8
#     4   9  18  34  53  76 108 144 178 220 274 330
#     4  10  21  38  57  79 109 148 189 231 277 327
#     4  10  21  36  55  80 114 152 189 229 278 332
#     4  10  22  39  55  74 102 140 184 230 274 322
#     4  11  21  34  55  82 108 139 179 224 274 330
#     4   9  19  36  60  87 115 145 180 222 272 327
#     4  10  19  34  56  84 117 147 174 212 264 325
#     4   9  18  31  50  74 100 131 172 220 272 323
#
# _framework density 19.567422000000001
#
# number of rings (size 3 to 8) (size 9 to 14) (size 15 to 20)
#    0.000    2.250    0.000    3.750    0.000    7.000 
#    0.000    4.375    0.000    1.500    0.000    0.000 
#    0.000    0.000    0.000    0.000    0.000    0.000 
#
# Total GULP energy -396549.032471 kJ/mol
# GULP energy per Si atom -12392.157265 kJ/mol
# Density = 1.952289 g / cm^3
# Si number density = 19.567422 Si / 1000 Ang^3
#
#
#
# Elastic Constant Matrix: (Units=GPa)
#
#
# Indices 1 2 3 4 5 6 
#
# 1 111.5140 47.2190 13.1292 0.0000 0.0000 0.0000
# 2 47.2190 97.2400 23.3036 0.0000 0.0000 0.0000
# 3 13.1292 23.3036 41.5516 0.0000 0.0000 0.0000
# 4 0.0000 0.0000 0.0000 25.3790 0.0000 0.0000
# 5 0.0000 0.0000 0.0000 0.0000 14.6074 0.0000
# 6 0.0000 0.0000 0.0000 0.0000 0.0000 36.0454
#
#
#
# Elastic Compliance Matrix: (Units=1/GPa)
#
#
# Indices 1 2 3 4 5 6 
#
# 1 0.011300 -0.005351 -0.000570 0.000000 0.000000 0.000000
# 2 -0.005351 0.014414 -0.006393 0.000000 0.000000 0.000000
# 3 -0.000570 -0.006393 0.027832 0.000000 0.000000 0.000000
# 4 0.000000 0.000000 0.000000 0.039403 0.000000 0.000000
# 5 0.000000 0.000000 0.000000 0.000000 0.068459 0.000000
# 6 0.000000 0.000000 0.000000 0.000000 0.000000 0.027743
#
#
# Mechanical properties :
#
#
# Convention : Reuss Voigt Hill
#
# Bulk Modulus (GPa) = 34.57931 46.40101 40.49016
# Shear Modulus (GPa) = 22.37959 26.31662 24.34810
#
# Velocity S-wave (km/s) = 3.38556 3.67129 3.53132
# Velocity P-wave (km/s) = 5.74394 6.46035 6.11265
#
# Compressibility (1/GPa) = 0.02891903
#
# Stress axis : x y z
#
# Youngs Moduli (GPa) = 88.49343 69.37554 35.92980
#
# Poissons Ratio (x) = 0.37121 0.02047
# Poissons Ratio (y) = 0.47351 0.22971
# Poissons Ratio (z) = 0.05041 0.44354
#
# Static dielectric constant tensor:
#      x y z
#    x 3.660750 0.000000 0.000000 
#    y 0.000000 3.692280 0.000000 
#    z 0.000000 0.000000 3.414470 
# 
# 
# High freq. dielectric constant tensor:
#      x y z
#    x 1.759370 0.000000 0.000000 
#    y 0.000000 1.761030 0.000000 
#    z 0.000000 0.000000 1.743010 
# 
# From -- ./inp_files/16161.got.cif
#   From: 2010.03.12/outbox.cif.g09.slc.cpg/sg39_9_cif.got.tgz:16161.got - 2010.04.14 02:53:20.
