data_PCOD8181838
_publ_section_title
;
Structure prediction by ZEFSAII (Michael W. Deem and Ramdas Pophale) SiO2 
 PCOD8181838
Probable space group: A B M 2
;
_chemical_formula_sum "Si O2"
_cell_formula_units_Z 40
_cell_length_a 22.722626
_cell_length_b 15.789756
_cell_length_c 5.219070
_cell_angle_alpha 90.000000
_cell_angle_beta 90.000000
_cell_angle_gamma 90.000000
_cell_volume 1872.522570
_symmetry_space_group_name_H-M "A B M 2"
_symmetry_group_IT_number 39
_symmetry_cell_setting 'orthorhombic'
loop_
_space_group_symop_operation_xyz
x,y,z
-x,-y,z
-x,1/2+y,z
x,1/2-y,z
x,1/2+y,1/2+z
-x,1/2-y,1/2+z
-x,y,1/2+z
x,-y,1/2+z
loop_
_atom_site_type_symbol
_atom_site_label
_atom_site_fract_x
_atom_site_fract_y
_atom_site_fract_z
Si Si1 0.474495 0.594703 0.097690
Si Si2 0.345731 0.348957 0.624995
Si Si3 0.966407 0.850457 0.097260
Si Si4 0.727259 0.651395 0.127473
Si Si5 0.152357 0.946453 0.636783
O O1 0.500000 0.500000 0.084222
O O2 0.501947 0.642627 0.343895
O O3 0.404164 0.594763 0.107207
O O4 0.362418 0.250000 0.609018
O O5 0.303784 0.375695 0.391326
O O6 0.314567 0.371967 0.890636
O O7 0.966039 0.750000 0.097829
O O8 0.000095 0.885966 0.346977
O O9 0.899651 0.880421 0.092641
O O10 0.742870 0.750000 0.128612
O O11 0.786881 0.601062 0.093775
O O12 0.147896 0.020093 0.426326
#
# Coordination Sequence:
#
# PCOD8181838 Si02
#       5
#     8   8   8   8   8
#     4  10  21  38  54  85 118 151 191 236 304 372
#     4  10  21  39  64  87 113 156 207 250 300 359
#     4  10  22  41  66  93 124 171 217 253 303 364
#     4  10  22  43  64  87 120 163 207 255 305 360
#     4  12  25  41  60  96 131 162 208 255 315 364
#
# _framework density 21.361559
#
# number of rings (size 3 to 8) (size 9 to 14) (size 15 to 20)
#    0.000    1.600    0.000    4.200    0.000    3.200 
#   21.600    8.000    0.000    0.000    0.000    0.000 
#    0.000    0.000    0.000    0.000    0.000    0.000 
#
# Total GULP energy -248056.498658 kJ/mol
# GULP energy per Si atom -12402.824933 kJ/mol
# Density = 2.131294 g / cm^3
# Si number density = 21.361559 Si / 1000 Ang^3
#
#
#
# Elastic Constant Matrix: (Units=GPa)
#
#
# Indices 1 2 3 4 5 6 
#
# 1 116.8579 30.4449 17.3073 0.0000 0.0000 0.0000
# 2 30.4449 30.7139 12.0159 0.0000 0.0000 0.0000
# 3 17.3073 12.0159 143.9608 0.0000 0.0000 0.0000
# 4 0.0000 0.0000 0.0000 31.5964 0.0000 0.0000
# 5 0.0000 0.0000 0.0000 0.0000 36.7507 0.0000
# 6 0.0000 0.0000 0.0000 0.0000 0.0000 46.2340
#
#
#
# Elastic Compliance Matrix: (Units=1/GPa)
#
#
# Indices 1 2 3 4 5 6 
#
# 1 0.011565 -0.011288 -0.000448 0.000000 0.000000 0.000000
# 2 -0.011288 0.044676 -0.002372 0.000000 0.000000 0.000000
# 3 -0.000448 -0.002372 0.007198 0.000000 0.000000 0.000000
# 4 0.000000 0.000000 0.000000 0.031649 0.000000 0.000000
# 5 0.000000 0.000000 0.000000 0.000000 0.027210 0.000000
# 6 0.000000 0.000000 0.000000 0.000000 0.000000 0.021629
#
#
# Mechanical properties :
#
#
# Convention : Reuss Voigt Hill
#
# Bulk Modulus (GPa) = 28.39102 45.67431 37.03266
# Shear Modulus (GPa) = 27.19106 38.36719 32.77912
#
# Velocity S-wave (km/s) = 3.57164 4.24262 3.92151
# Velocity P-wave (km/s) = 5.50712 6.74001 6.15452
#
# Compressibility (1/GPa) = 0.03522241
#
# Stress axis : x y z
#
# Youngs Moduli (GPa) = 86.47049 22.38356 138.92389
#
# Poissons Ratio (x) = 0.25267 0.06226
# Poissons Ratio (y) = 0.97608 0.32951
# Poissons Ratio (z) = 0.03875 0.05309
#
# Static dielectric constant tensor:
#      x y z
#    x 3.818960 0.000000 0.000000 
#    y 0.000000 3.248900 0.000000 
#    z 0.000000 0.000000 7.466760 
# 
# 
# High freq. dielectric constant tensor:
#      x y z
#    x 1.849760 0.000000 0.000000 
#    y 0.000000 1.819610 0.000000 
#    z 0.000000 0.000000 1.868190 
# 
# From -- ./inp_files/741.got.cif
#   From: 2010.03.12/outbox.cif.g09.slc.cpg/sg39_1_cif.got.tgz:741.got - 2010.04.14 02:53:20.
