data_PCOD8181096
_publ_section_title
;
Structure prediction by ZEFSAII (Michael W. Deem and Ramdas Pophale) SiO2 
 PCOD8181096
Probable space group: A B M 2
;
_chemical_formula_sum "Si O2"
_cell_formula_units_Z 56
_cell_length_a 30.183724
_cell_length_b 17.462182
_cell_length_c 5.182891
_cell_angle_alpha 90.000000
_cell_angle_beta 90.000000
_cell_angle_gamma 90.000000
_cell_volume 2731.765442
_symmetry_space_group_name_H-M "A B M 2"
_symmetry_group_IT_number 39
_symmetry_cell_setting 'orthorhombic'
loop_
_space_group_symop_operation_xyz
x,y,z
-x,-y,z
-x,1/2+y,z
x,1/2-y,z
x,1/2+y,1/2+z
-x,1/2-y,1/2+z
-x,y,1/2+z
x,-y,1/2+z
loop_
_atom_site_type_symbol
_atom_site_label
_atom_site_fract_x
_atom_site_fract_y
_atom_site_fract_z
Si Si1 0.153269 0.160536 0.224320
Si Si2 0.305113 0.840634 0.183792
Si Si3 0.950659 0.530390 0.576438
Si Si4 0.100153 0.662306 0.236618
Si Si5 0.748597 0.840076 0.191052
Si Si6 0.471327 0.336906 0.743982
Si Si7 0.610994 0.447596 0.195690
O O1 0.157262 0.250000 0.164590
O O2 0.134933 0.145538 0.509245
O O3 0.202187 0.123151 0.204640
O O4 0.121117 0.128530 0.999349
O O5 0.315709 0.750000 0.175345
O O6 0.272916 0.861614 0.419462
O O7 0.350050 0.886359 0.221024
O O8 0.281663 0.871161 0.924044
O O9 0.926737 0.520472 0.299386
O O10 0.945846 0.618112 0.670668
O O11 0.000000 0.500000 0.515804
O O12 0.086263 0.750000 0.258030
O O13 0.752807 0.750000 0.229825
O O14 0.452429 0.250000 0.722020
O O15 0.508166 0.350316 0.525665
O O16 0.433747 0.399372 0.705572
O O17 0.613566 0.508267 0.425971
#
# Coordination Sequence:
#
# PCOD8181096 Si02
#       7
#     8   8   8   8   8   8   8
#     4   9  17  30  53  86 114 136 175 234 285 322
#     4  10  20  36  58  81 109 149 194 231 267 328
#     4  10  21  38  56  76 106 145 179 217 268 323
#     4  10  19  33  56  83 110 140 180 229 276 326
#     4   9  17  31  55  84 110 141 184 232 278 323
#     4  10  22  41  64  88 114 145 187 240 289 339
#     4  12  25  39  58  84 117 155 189 230 286 339
#
# _framework density 20.499563999999999
#
# number of rings (size 3 to 8) (size 9 to 14) (size 15 to 20)
#    0.000    2.000    0.000    3.857    0.000    5.143 
#    0.000    8.571    0.000   17.143    0.000    0.000 
#    0.000    0.000    0.000    0.000    0.000    0.000 
#
# Total GULP energy -347037.724597 kJ/mol
# GULP energy per Si atom -12394.204450 kJ/mol
# Density = 2.045291 g / cm^3
# Si number density = 20.499564 Si / 1000 Ang^3
#
#
#
# Elastic Constant Matrix: (Units=GPa)
#
#
# Indices 1 2 3 4 5 6 
#
# 1 77.0292 38.5672 2.5892 0.0000 0.0000 0.0000
# 2 38.5672 61.0927 17.8369 0.0000 0.0000 0.0000
# 3 2.5892 17.8369 108.1280 0.0000 0.0000 0.0000
# 4 0.0000 0.0000 0.0000 25.0540 0.0000 0.0000
# 5 0.0000 0.0000 0.0000 0.0000 1.2653 0.0000
# 6 0.0000 0.0000 0.0000 0.0000 0.0000 11.0657
#
#
#
# Elastic Compliance Matrix: (Units=1/GPa)
#
#
# Indices 1 2 3 4 5 6 
#
# 1 0.019249 -0.012625 0.001622 0.000000 0.000000 0.000000
# 2 -0.012625 0.025477 -0.003900 0.000000 0.000000 0.000000
# 3 0.001622 -0.003900 0.009853 0.000000 0.000000 0.000000
# 4 0.000000 0.000000 0.000000 0.039914 0.000000 0.000000
# 5 0.000000 0.000000 0.000000 0.000000 0.790331 0.000000
# 6 0.000000 0.000000 0.000000 0.000000 0.000000 0.090369
#
#
# Mechanical properties :
#
#
# Convention : Reuss Voigt Hill
#
# Bulk Modulus (GPa) = 40.36898 40.47071 40.41985
# Shear Modulus (GPa) = 4.93458 19.96076 12.44767
#
# Velocity S-wave (km/s) = 1.55319 3.12383 2.46685
# Velocity P-wave (km/s) = 4.79081 5.72679 5.27958
#
# Compressibility (1/GPa) = 0.02477150
#
# Stress axis : x y z
#
# Youngs Moduli (GPa) = 51.95157 39.25051 101.49307
#
# Poissons Ratio (x) = 0.49554 -0.16459
# Poissons Ratio (y) = 0.65589 0.39587
# Poissons Ratio (z) = -0.08425 0.15310
#
# Static dielectric constant tensor:
#      x y z
#    x 3.786780 0.000000 0.000000 
#    y 0.000000 3.573330 0.000000 
#    z 0.000000 0.000000 4.203540 
# 
# 
# High freq. dielectric constant tensor:
#      x y z
#    x 1.791880 0.000000 0.000000 
#    y 0.000000 1.778180 0.000000 
#    z 0.000000 0.000000 1.832820 
# 
# From -- ./inp_files/1500.got.cif
#   From: 2010.03.12/outbox.cif.g09.slc.cpg/sg39_1_cif.got.tgz:1500.got - 2010.04.14 02:53:20.
