data_PCOD8181652
_publ_section_title
;
Structure prediction by ZEFSAII (Michael W. Deem and Ramdas Pophale) SiO2 
 PCOD8181652
Probable space group: A B M 2
;
_chemical_formula_sum "Si O2"
_cell_formula_units_Z 48
_cell_length_a 5.760662
_cell_length_b 26.949712
_cell_length_c 14.251154
_cell_angle_alpha 90.000000
_cell_angle_beta 90.000000
_cell_angle_gamma 90.000000
_cell_volume 2212.465747
_symmetry_space_group_name_H-M "A B M 2"
_symmetry_group_IT_number 39
_symmetry_cell_setting 'orthorhombic'
loop_
_space_group_symop_operation_xyz
x,y,z
-x,-y,z
-x,1/2+y,z
x,1/2-y,z
x,1/2+y,1/2+z
-x,1/2-y,1/2+z
-x,y,1/2+z
x,-y,1/2+z
loop_
_atom_site_type_symbol
_atom_site_label
_atom_site_fract_x
_atom_site_fract_y
_atom_site_fract_z
Si Si1 0.348514 0.542354 0.195470
Si Si2 0.075381 0.372845 0.616582
Si Si3 0.682910 0.191672 0.270159
Si Si4 0.064207 0.625326 0.412128
Si Si5 0.302815 0.378655 0.260633
Si Si6 0.244897 0.022327 0.893910
O O1 0.500000 0.500000 0.141317
O O2 0.189386 0.571845 0.121795
O O3 0.496222 0.581501 0.255284
O O4 0.212896 0.515849 0.280842
O O5 0.222557 0.332146 0.673317
O O6 0.049452 0.356383 0.509204
O O7 0.821047 0.376490 0.660311
O O8 0.705879 0.250000 0.263469
O O9 0.822136 0.172663 0.361268
O O10 0.414433 0.175519 0.281478
O O11 0.246098 0.580356 0.427072
O O12 0.864574 0.604181 0.343971
O O13 0.500000 0.000000 0.926180
O O14 0.000000 0.000000 0.937100
#
# Coordination Sequence:
#
# PCOD8181652 Si02
#       6
#     8   8   8   8   8   8
#     4  10  20  37  62  87 127 178 223 266 335 405
#     4  10  23  40  63  94 132 166 220 288 339 413
#     4  10  23  43  66  94 124 174 229 283 360 421
#     4  11  22  42  66  94 136 173 225 283 353 406
#     4  10  20  42  61  87 127 174 212 289 342 411
#     4  11  22  39  68  96 135 184 230 278 338 415
#
# _framework density 21.695252
#
# number of rings (size 3 to 8) (size 9 to 14) (size 15 to 20)
#    0.000    1.667    5.000    2.000    0.000    6.000 
#    3.000    2.500    0.000    0.000    0.000    0.000 
#    0.000    0.000    0.000    0.000    0.000    0.000 
#
# Total GULP energy -297415.864696 kJ/mol
# GULP energy per Si atom -12392.327696 kJ/mol
# Density = 2.164587 g / cm^3
# Si number density = 21.695252 Si / 1000 Ang^3
#
#
#
# Elastic Constant Matrix: (Units=GPa)
#
#
# Indices 1 2 3 4 5 6 
#
# 1 117.6940 43.2321 23.6161 0.0000 0.0000 0.0000
# 2 43.2321 133.6868 29.7207 0.0000 0.0000 0.0000
# 3 23.6161 29.7207 102.4830 0.0000 0.0000 0.0000
# 4 0.0000 0.0000 0.0000 17.9333 0.0000 0.0000
# 5 0.0000 0.0000 0.0000 0.0000 4.0158 0.0000
# 6 0.0000 0.0000 0.0000 0.0000 0.0000 31.4156
#
#
#
# Elastic Compliance Matrix: (Units=1/GPa)
#
#
# Indices 1 2 3 4 5 6 
#
# 1 0.009836 -0.002861 -0.001437 0.000000 0.000000 0.000000
# 2 -0.002861 0.008828 -0.001901 0.000000 0.000000 0.000000
# 3 -0.001437 -0.001901 0.010640 0.000000 0.000000 0.000000
# 4 0.000000 0.000000 0.000000 0.055762 0.000000 0.000000
# 5 0.000000 0.000000 0.000000 0.000000 0.249014 0.000000
# 6 0.000000 0.000000 0.000000 0.000000 0.000000 0.031831
#
#
# Mechanical properties :
#
#
# Convention : Reuss Voigt Hill
#
# Bulk Modulus (GPa) = 59.15008 60.77797 59.96402
# Shear Modulus (GPa) = 13.02269 27.82594 20.42431
#
# Velocity S-wave (km/s) = 2.45267 3.58520 3.07158
# Velocity P-wave (km/s) = 5.94508 6.72409 6.34655
#
# Compressibility (1/GPa) = 0.01690615
#
# Stress axis : x y z
#
# Youngs Moduli (GPa) = 101.66764 113.27491 93.98440
#
# Poissons Ratio (x) = 0.32412 0.13503
# Poissons Ratio (y) = 0.29091 0.17865
# Poissons Ratio (z) = 0.14607 0.21532
#
# Static dielectric constant tensor:
#      x y z
#    x 4.246360 0.000000 0.000000 
#    y 0.000000 3.771360 0.000000 
#    z 0.000000 0.000000 3.527970 
# 
# 
# High freq. dielectric constant tensor:
#      x y z
#    x 1.864890 0.000000 0.000000 
#    y 0.000000 1.834270 0.000000 
#    z 0.000000 0.000000 1.826610 
# 
# From -- ./inp_files/7555.got.cif
#   From: 2010.03.12/outbox.cif.g09.slc.cpg/sg39_4_cif.got.tgz:7555.got - 2010.04.14 02:53:20.
