data_PCOD8181692
_publ_section_title
;
Structure prediction by ZEFSAII (Michael W. Deem and Ramdas Pophale) SiO2 
 PCOD8181692
Probable space group: A B M 2
;
_chemical_formula_sum "Si O2"
_cell_formula_units_Z 48
_cell_length_a 18.713388
_cell_length_b 8.555122
_cell_length_c 14.946046
_cell_angle_alpha 90.000000
_cell_angle_beta 90.000000
_cell_angle_gamma 90.000000
_cell_volume 2392.791978
_symmetry_space_group_name_H-M "A B M 2"
_symmetry_group_IT_number 39
_symmetry_cell_setting 'orthorhombic'
loop_
_space_group_symop_operation_xyz
x,y,z
-x,-y,z
-x,1/2+y,z
x,1/2-y,z
x,1/2+y,1/2+z
-x,1/2-y,1/2+z
-x,y,1/2+z
x,-y,1/2+z
loop_
_atom_site_type_symbol
_atom_site_label
_atom_site_fract_x
_atom_site_fract_y
_atom_site_fract_z
Si Si1 0.922167 0.066209 0.666080
Si Si2 0.831392 0.567157 0.817862
Si Si3 0.328536 0.068228 0.770105
Si Si4 0.186820 0.064148 0.017916
Si Si5 0.424260 0.566812 0.921509
Si Si6 0.658962 0.065533 0.581552
O O1 0.925675 0.250000 0.659143
O O2 0.870204 0.997624 0.589009
O O3 0.893291 0.019325 0.763395
O O4 0.000000 0.000000 0.649125
O O5 0.847797 0.750000 0.815449
O O6 0.755343 0.528335 0.773344
O O7 0.833271 0.502376 0.919281
O O8 0.342559 0.250000 0.790872
O O9 0.367204 0.965771 0.844479
O O10 0.358795 0.022107 0.673640
O O11 0.188030 0.250000 0.017582
O O12 0.265430 0.003164 0.043723
O O13 0.500000 0.500000 0.889404
O O14 0.428907 0.750000 0.939943
O O15 0.402704 0.478584 0.012306
O O16 0.659995 0.250000 0.598697
#
# Coordination Sequence:
#
# PCOD8181692 Si02
#       6
#     8   8   8   8   8   8
#     4  11  23  40  60  88 124 163 204 254 313 370
#     4  10  20  38  63  91 122 159 203 254 307 367
#     4  11  22  39  65  97 129 165 208 258 313 374
#     4   9  19  37  62  89 121 159 202 251 307 363
#     4  12  26  44  65  94 129 168 210 259 318 375
#     4  11  21  40  66  95 128 165 208 259 312 373
#
# _framework density 20.060248000000001
#
# number of rings (size 3 to 8) (size 9 to 14) (size 15 to 20)
#    0.000    1.333    3.333    3.000    0.000    2.000 
#    0.000    6.667    0.000    0.000    0.000    0.000 
#    0.000    0.000    0.000    0.000    0.000    0.000 
#
# Total GULP energy -297743.108552 kJ/mol
# GULP energy per Si atom -12405.962856 kJ/mol
# Density = 2.001459 g / cm^3
# Si number density = 20.060248 Si / 1000 Ang^3
#
#
#
# Elastic Constant Matrix: (Units=GPa)
#
#
# Indices 1 2 3 4 5 6 
#
# 1 75.5695 33.7354 12.9880 0.0000 0.0000 0.0000
# 2 33.7354 54.3765 18.8774 0.0000 0.0000 0.0000
# 3 12.9880 18.8774 117.4533 0.0000 0.0000 0.0000
# 4 0.0000 0.0000 0.0000 32.4113 0.0000 0.0000
# 5 0.0000 0.0000 0.0000 0.0000 17.8369 0.0000
# 6 0.0000 0.0000 0.0000 0.0000 0.0000 29.2774
#
#
#
# Elastic Compliance Matrix: (Units=1/GPa)
#
#
# Indices 1 2 3 4 5 6 
#
# 1 0.018307 -0.011284 -0.000211 0.000000 0.000000 0.000000
# 2 -0.011284 0.026433 -0.003001 0.000000 0.000000 0.000000
# 3 -0.000211 -0.003001 0.009020 0.000000 0.000000 0.000000
# 4 0.000000 0.000000 0.000000 0.030853 0.000000 0.000000
# 5 0.000000 0.000000 0.000000 0.000000 0.056064 0.000000
# 6 0.000000 0.000000 0.000000 0.000000 0.000000 0.034156
#
#
# Mechanical properties :
#
#
# Convention : Reuss Voigt Hill
#
# Bulk Modulus (GPa) = 40.37495 42.06678 41.22086
# Shear Modulus (GPa) = 23.57613 28.02503 25.80058
#
# Velocity S-wave (km/s) = 3.43193 3.74176 3.59019
# Velocity P-wave (km/s) = 5.98955 6.29948 6.14647
#
# Compressibility (1/GPa) = 0.02476784
#
# Stress axis : x y z
#
# Youngs Moduli (GPa) = 54.62526 37.83180 110.87000
#
# Poissons Ratio (x) = 0.42691 0.02336
# Poissons Ratio (y) = 0.61641 0.33267
# Poissons Ratio (z) = 0.01151 0.11352
#
# Static dielectric constant tensor:
#      x y z
#    x 3.861450 0.000000 0.000000 
#    y 0.000000 3.441180 0.000000 
#    z 0.000000 0.000000 3.819440 
# 
# 
# High freq. dielectric constant tensor:
#      x y z
#    x 1.780220 0.000000 0.000000 
#    y 0.000000 1.772510 0.000000 
#    z 0.000000 0.000000 1.797250 
# 
# From -- ./inp_files/10036.got.cif
#   From: 2010.03.12/outbox.cif.g09.slc.cpg/sg39_6_cif.got.tgz:10036.got - 2010.04.14 02:53:20.
