data_PCOD8181571
_publ_section_title
;
Structure prediction by ZEFSAII (Michael W. Deem and Ramdas Pophale) SiO2 
 PCOD8181571
Probable space group: A B M 2
;
_chemical_formula_sum "Si O2"
_cell_formula_units_Z 64
_cell_length_a 9.701056
_cell_length_b 17.702501
_cell_length_c 19.951842
_cell_angle_alpha 90.000000
_cell_angle_beta 90.000000
_cell_angle_gamma 90.000000
_cell_volume 3426.388755
_symmetry_space_group_name_H-M "A B M 2"
_symmetry_group_IT_number 39
_symmetry_cell_setting 'orthorhombic'
loop_
_space_group_symop_operation_xyz
x,y,z
-x,-y,z
-x,1/2+y,z
x,1/2-y,z
x,1/2+y,1/2+z
-x,1/2-y,1/2+z
-x,y,1/2+z
x,-y,1/2+z
loop_
_atom_site_type_symbol
_atom_site_label
_atom_site_fract_x
_atom_site_fract_y
_atom_site_fract_z
Si Si1 0.825333 0.659996 0.422730
Si Si2 0.132217 0.095878 0.796115
Si Si3 0.664439 0.337749 0.550927
Si Si4 0.863408 0.838072 0.934617
Si Si5 0.354222 0.335815 0.540671
Si Si6 0.333474 0.338935 0.689988
Si Si7 0.408284 0.923513 0.682411
Si Si8 0.824108 0.074272 0.793837
O O1 0.814885 0.750000 0.415167
O O2 0.735542 0.625169 0.483078
O O3 0.764684 0.623224 0.355167
O O4 0.980089 0.632259 0.438930
O O5 0.188389 0.143157 0.859703
O O6 0.219675 0.117178 0.731447
O O7 0.972804 0.111388 0.775162
O O8 0.152094 0.010264 0.818636
O O9 0.697122 0.250000 0.571808
O O10 0.770028 0.371297 0.495130
O O11 0.512839 0.341494 0.518779
O O12 0.664385 0.393827 0.614446
O O13 0.855272 0.750000 0.944900
O O14 0.305137 0.250000 0.545873
O O15 0.323523 0.370978 0.613710
O O16 0.310965 0.250000 0.696623
O O17 0.488461 0.360187 0.712875
O O18 0.282066 0.930428 0.733118
O O19 0.500000 0.000000 0.672735
#
# Coordination Sequence:
#
# PCOD8181571 Si02
#       8
#     8   8   8   8   8   8   8   8
#     4   9  18  34  56  81 110 143 180 228 280 333
#     4  10  20  38  55  80 113 152 187 234 285 339
#     4   9  19  36  56  79 109 144 184 233 279 331
#     4   9  18  34  56  81 110 142 183 231 278 332
#     4   8  16  32  52  77 106 137 177 226 275 322
#     4  10  20  36  60  84 111 149 190 232 281 340
#     4  11  21  38  56  81 117 152 186 237 287 342
#     4  10  22  37  55  78 116 149 188 235 286 337
#
# _framework density 18.678557000000001
#
# number of rings (size 3 to 8) (size 9 to 14) (size 15 to 20)
#    0.000    2.500    1.250    1.500    0.000    3.500 
#    4.500    2.500    0.000    0.000    0.000    0.000 
#    0.000    0.000    0.000    0.000    0.000    0.000 
#
# Total GULP energy -396539.609817 kJ/mol
# GULP energy per Si atom -12391.862807 kJ/mol
# Density = 1.863604 g / cm^3
# Si number density = 18.678557 Si / 1000 Ang^3
#
#
#
# Elastic Constant Matrix: (Units=GPa)
#
#
# Indices 1 2 3 4 5 6 
#
# 1 88.5267 26.9105 75.4988 0.0000 0.0000 0.0000
# 2 26.9105 43.2756 37.5739 0.0000 0.0000 0.0000
# 3 75.4988 37.5739 120.0062 0.0000 0.0000 0.0000
# 4 0.0000 0.0000 0.0000 20.1948 0.0000 0.0000
# 5 0.0000 0.0000 0.0000 0.0000 40.1492 0.0000
# 6 0.0000 0.0000 0.0000 0.0000 0.0000 24.0949
#
#
#
# Elastic Compliance Matrix: (Units=1/GPa)
#
#
# Indices 1 2 3 4 5 6 
#
# 1 0.024577 -0.002552 -0.014663 0.000000 0.000000 0.000000
# 2 -0.002552 0.032000 -0.008414 0.000000 0.000000 0.000000
# 3 -0.014663 -0.008414 0.020192 0.000000 0.000000 0.000000
# 4 0.000000 0.000000 0.000000 0.049518 0.000000 0.000000
# 5 0.000000 0.000000 0.000000 0.000000 0.024907 0.000000
# 6 0.000000 0.000000 0.000000 0.000000 0.000000 0.041502
#
#
# Mechanical properties :
#
#
# Convention : Reuss Voigt Hill
#
# Bulk Modulus (GPa) = 39.19774 59.08612 49.14193
# Shear Modulus (GPa) = 19.80542 24.34282 22.07412
#
# Velocity S-wave (km/s) = 3.25980 3.61397 3.44145
# Velocity P-wave (km/s) = 5.93291 7.00829 6.49290
#
# Compressibility (1/GPa) = 0.02551167
#
# Stress axis : x y z
#
# Youngs Moduli (GPa) = 40.68884 31.25035 49.52460
#
# Poissons Ratio (x) = 0.07975 0.72617
# Poissons Ratio (y) = 0.10383 0.41668
# Poissons Ratio (z) = 0.59661 0.26293
#
# Static dielectric constant tensor:
#      x y z
#    x 3.600930 0.000000 0.000000 
#    y 0.000000 3.353520 0.000000 
#    z 0.000000 0.000000 3.483210 
# 
# 
# High freq. dielectric constant tensor:
#      x y z
#    x 1.724860 0.000000 0.000000 
#    y 0.000000 1.714340 0.000000 
#    z 0.000000 0.000000 1.722520 
# 
# From -- ./inp_files/14194.got.cif
#   From: 2010.03.12/outbox.cif.g09.slc.cpg/sg39_8_cif.got.tgz:14194.got - 2010.04.14 02:53:20.
