data_PCOD8181951
_publ_section_title
;
Structure prediction by ZEFSAII (Michael W. Deem and Ramdas Pophale) SiO2 
 PCOD8181951
Probable space group: A B M 2
;
_chemical_formula_sum "Si O2"
_cell_formula_units_Z 64
_cell_length_a 12.555003
_cell_length_b 17.558312
_cell_length_c 14.774962
_cell_angle_alpha 90.000000
_cell_angle_beta 90.000000
_cell_angle_gamma 90.000000
_cell_volume 3257.061472
_symmetry_space_group_name_H-M "A B M 2"
_symmetry_group_IT_number 39
_symmetry_cell_setting 'orthorhombic'
loop_
_space_group_symop_operation_xyz
x,y,z
-x,-y,z
-x,1/2+y,z
x,1/2-y,z
x,1/2+y,1/2+z
-x,1/2-y,1/2+z
-x,y,1/2+z
x,-y,1/2+z
loop_
_atom_site_type_symbol
_atom_site_label
_atom_site_fract_x
_atom_site_fract_y
_atom_site_fract_z
Si Si1 0.391077 0.539564 0.456310
Si Si2 0.101126 0.340315 0.533143
Si Si3 0.696121 0.070547 0.092039
Si Si4 0.483977 0.165707 0.059937
Si Si5 0.688489 0.167347 0.712479
Si Si6 0.293476 0.011631 0.283553
Si Si7 0.929010 0.662716 0.180593
Si Si8 0.077039 0.065181 0.352938
O O1 0.500000 0.500000 0.483026
O O2 0.300851 0.494849 0.514368
O O3 0.409021 0.627197 0.483608
O O4 0.367738 0.536857 0.350118
O O5 0.115837 0.250000 0.524049
O O6 0.201969 0.375337 0.585121
O O7 0.096078 0.374855 0.432892
O O8 0.994958 0.361126 0.590829
O O9 0.591097 0.121568 0.084641
O O10 0.699094 0.026819 0.186611
O O11 0.514284 0.250000 0.025718
O O12 0.410698 0.169653 0.147157
O O13 0.696832 0.250000 0.762281
O O14 0.666046 0.099692 0.783081
O O15 0.802243 0.150938 0.662374
O O16 0.176720 0.014068 0.324047
O O17 0.955408 0.750000 0.204739
O O18 0.966022 0.611456 0.265654
O O19 0.000000 0.000000 0.388912
#
# Coordination Sequence:
#
# PCOD8181951 Si02
#       8
#     8   8   8   8   8   8   8   8
#     4  10  22  37  59  90 122 161 203 248 303 363
#     4  11  23  41  64  90 125 163 202 255 314 373
#     4  11  22  40  62  89 125 164 202 255 305 373
#     4  10  21  40  62  88 124 162 206 255 305 363
#     4   9  19  36  61  89 119 160 211 254 302 360
#     4  11  22  38  62  90 124 162 205 254 312 367
#     4   9  20  39  60  86 120 162 203 249 305 363
#     4  11  23  38  60  93 121 157 206 257 304 370
#
# _framework density 19.649615000000001
#
# number of rings (size 3 to 8) (size 9 to 14) (size 15 to 20)
#    0.000    1.750    2.500    1.500    1.750    4.000 
#    0.000    1.875    0.000    0.750    0.000    0.000 
#    0.000    0.000    0.000    0.000    0.000    0.000 
#
# Total GULP energy -396620.608938 kJ/mol
# GULP energy per Si atom -12394.394029 kJ/mol
# Density = 1.960489 g / cm^3
# Si number density = 19.649615 Si / 1000 Ang^3
#
#
#
# Elastic Constant Matrix: (Units=GPa)
#
#
# Indices 1 2 3 4 5 6 
#
# 1 66.0538 39.5162 21.0431 0.0000 0.0000 0.0000
# 2 39.5162 121.9907 45.2594 0.0000 0.0000 0.0000
# 3 21.0431 45.2594 93.3886 0.0000 0.0000 0.0000
# 4 0.0000 0.0000 0.0000 28.3604 0.0000 0.0000
# 5 0.0000 0.0000 0.0000 0.0000 25.3999 0.0000
# 6 0.0000 0.0000 0.0000 0.0000 0.0000 30.8918
#
#
#
# Elastic Compliance Matrix: (Units=1/GPa)
#
#
# Indices 1 2 3 4 5 6 
#
# 1 0.018968 -0.005558 -0.001580 0.000000 0.000000 0.000000
# 2 -0.005558 0.011623 -0.004381 0.000000 0.000000 0.000000
# 3 -0.001580 -0.004381 0.013187 0.000000 0.000000 0.000000
# 4 0.000000 0.000000 0.000000 0.035260 0.000000 0.000000
# 5 0.000000 0.000000 0.000000 0.000000 0.039370 0.000000
# 6 0.000000 0.000000 0.000000 0.000000 0.000000 0.032371
#
#
# Mechanical properties :
#
#
# Convention : Reuss Voigt Hill
#
# Bulk Modulus (GPa) = 48.21609 54.78563 51.50086
# Shear Modulus (GPa) = 27.66558 28.63804 28.15181
#
# Velocity S-wave (km/s) = 3.75633 3.82178 3.78920
# Velocity P-wave (km/s) = 6.58821 6.88596 6.73873
#
# Compressibility (1/GPa) = 0.02073996
#
# Stress axis : x y z
#
# Youngs Moduli (GPa) = 52.72165 86.03729 75.83214
#
# Poissons Ratio (x) = 0.47817 0.11985
# Poissons Ratio (y) = 0.29301 0.33219
# Poissons Ratio (z) = 0.08332 0.37689
#
# Static dielectric constant tensor:
#      x y z
#    x 3.628740 0.000000 0.000000 
#    y 0.000000 3.999640 0.000000 
#    z 0.000000 0.000000 3.442340 
# 
# 
# High freq. dielectric constant tensor:
#      x y z
#    x 1.768320 0.000000 0.000000 
#    y 0.000000 1.778450 0.000000 
#    z 0.000000 0.000000 1.752390 
# 
# From -- ./inp_files/9494.got.cif
#   From: 2010.03.12/outbox.cif.g09.slc.cpg/sg39_5_cif.got.tgz:9494.got - 2010.04.14 02:53:20.
