data_PCOD8181996
_publ_section_title
;
Structure prediction by ZEFSAII (Michael W. Deem and Ramdas Pophale) SiO2 
 PCOD8181996
Probable space group: A B M 2
;
_chemical_formula_sum "Si O2"
_cell_formula_units_Z 64
_cell_length_a 11.898197
_cell_length_b 18.666217
_cell_length_c 13.694212
_cell_angle_alpha 90.000000
_cell_angle_beta 90.000000
_cell_angle_gamma 90.000000
_cell_volume 3041.406799
_symmetry_space_group_name_H-M "A B M 2"
_symmetry_group_IT_number 39
_symmetry_cell_setting 'orthorhombic'
loop_
_space_group_symop_operation_xyz
x,y,z
-x,-y,z
-x,1/2+y,z
x,1/2-y,z
x,1/2+y,1/2+z
-x,1/2-y,1/2+z
-x,y,1/2+z
x,-y,1/2+z
loop_
_atom_site_type_symbol
_atom_site_label
_atom_site_fract_x
_atom_site_fract_y
_atom_site_fract_z
Si Si1 0.667951 0.533958 0.879320
Si Si2 0.894842 0.666381 0.100992
Si Si3 0.652532 0.113683 0.655304
Si Si4 0.299322 0.043821 0.656536
Si Si5 0.907551 0.938328 0.928845
Si Si6 0.440205 0.829308 0.068149
Si Si7 0.063112 0.926044 0.205318
Si Si8 0.446488 0.390857 0.371740
O O1 0.708142 0.522542 0.769579
O O2 0.777550 0.538977 0.948775
O O3 0.604759 0.463482 0.915776
O O4 0.582506 0.601568 0.875214
O O5 0.901844 0.750000 0.081668
O O6 0.776125 0.646346 0.149494
O O7 0.989692 0.642353 0.176829
O O8 0.926848 0.628039 0.999841
O O9 0.573123 0.157675 0.582129
O O10 0.601803 0.125192 0.764482
O O11 0.655045 0.031685 0.613305
O O12 0.379249 0.109806 0.631505
O O13 0.171659 0.067653 0.633639
O O14 0.912320 0.911299 0.818368
O O15 0.000000 0.000000 0.950400
O O16 0.406233 0.750000 0.105826
O O17 0.412207 0.831513 0.952136
O O18 0.000000 0.000000 0.188652
#
# Coordination Sequence:
#
# PCOD8181996 Si02
#       8
#     8   8   8   8   8   8   8   8
#     4   9  19  40  64  98 119 162 224 271 318 372
#     4  12  26  42  65  99 135 174 216 269 337 398
#     4  11  23  44  69  93 128 174 225 273 321 392
#     4  10  21  41  68  91 122 165 221 269 317 382
#     4  10  23  40  70  98 129 172 221 272 322 396
#     4  12  26  39  59  98 137 172 209 264 340 401
#     4  10  21  44  69  94 125 168 221 274 323 383
#     4  10  22  38  65  92 131 166 216 277 321 387
#
# _framework density 21.042894
#
# number of rings (size 3 to 8) (size 9 to 14) (size 15 to 20)
#    0.000    1.500    2.500    1.875    7.000    2.000 
#    0.000    1.875    0.000    0.000    0.000    0.000 
#    0.000    0.000    0.000    0.000    0.000    0.000 
#
# Total GULP energy -396580.883082 kJ/mol
# GULP energy per Si atom -12393.152596 kJ/mol
# Density = 2.099500 g / cm^3
# Si number density = 21.042894 Si / 1000 Ang^3
#
#
#
# Elastic Constant Matrix: (Units=GPa)
#
#
# Indices 1 2 3 4 5 6 
#
# 1 132.7679 48.9589 29.1115 0.0000 0.0000 0.0000
# 2 48.9589 142.6359 42.8195 0.0000 0.0000 0.0000
# 3 29.1115 42.8195 72.8425 0.0000 0.0000 0.0000
# 4 0.0000 0.0000 0.0000 20.3710 0.0000 0.0000
# 5 0.0000 0.0000 0.0000 0.0000 23.3410 0.0000
# 6 0.0000 0.0000 0.0000 0.0000 0.0000 23.3404
#
#
#
# Elastic Compliance Matrix: (Units=1/GPa)
#
#
# Indices 1 2 3 4 5 6 
#
# 1 0.008889 -0.002410 -0.002136 0.000000 0.000000 0.000000
# 2 -0.002410 0.009167 -0.004425 0.000000 0.000000 0.000000
# 3 -0.002136 -0.004425 0.017183 0.000000 0.000000 0.000000
# 4 0.000000 0.000000 0.000000 0.049089 0.000000 0.000000
# 5 0.000000 0.000000 0.000000 0.000000 0.042843 0.000000
# 6 0.000000 0.000000 0.000000 0.000000 0.000000 0.042844
#
#
# Mechanical properties :
#
#
# Convention : Reuss Voigt Hill
#
# Bulk Modulus (GPa) = 57.81491 65.55845 61.68668
# Shear Modulus (GPa) = 25.81010 28.56759 27.18885
#
# Velocity S-wave (km/s) = 3.50601 3.68854 3.59843
# Velocity P-wave (km/s) = 6.62751 7.02587 6.82959
#
# Compressibility (1/GPa) = 0.01729658
#
# Stress axis : x y z
#
# Youngs Moduli (GPa) = 112.49961 109.09270 58.19639
#
# Poissons Ratio (x) = 0.26290 0.12430
# Poissons Ratio (y) = 0.27111 0.25754
# Poissons Ratio (z) = 0.24028 0.48277
#
# Static dielectric constant tensor:
#      x y z
#    x 4.167040 0.000000 0.000000 
#    y 0.000000 3.574690 0.000000 
#    z 0.000000 0.000000 3.796850 
# 
# 
# High freq. dielectric constant tensor:
#      x y z
#    x 1.837560 0.000000 0.000000 
#    y 0.000000 1.793420 0.000000 
#    z 0.000000 0.000000 1.835720 
# 
# From -- ./inp_files/9422.got.cif
#   From: 2010.03.12/outbox.cif.g09.slc.cpg/sg39_5_cif.got.tgz:9422.got - 2010.04.14 02:53:20.
