data_PCOD8181724
_publ_section_title
;
Structure prediction by ZEFSAII (Michael W. Deem and Ramdas Pophale) SiO2 
 PCOD8181724
Probable space group: A B M 2
;
_chemical_formula_sum "Si O2"
_cell_formula_units_Z 44
_cell_length_a 15.824028
_cell_length_b 9.647104
_cell_length_c 14.275581
_cell_angle_alpha 90.000000
_cell_angle_beta 90.000000
_cell_angle_gamma 90.000000
_cell_volume 2179.253719
_symmetry_space_group_name_H-M "A B M 2"
_symmetry_group_IT_number 39
_symmetry_cell_setting 'orthorhombic'
loop_
_space_group_symop_operation_xyz
x,y,z
-x,-y,z
-x,1/2+y,z
x,1/2-y,z
x,1/2+y,1/2+z
-x,1/2-y,1/2+z
-x,y,1/2+z
x,-y,1/2+z
loop_
_atom_site_type_symbol
_atom_site_label
_atom_site_fract_x
_atom_site_fract_y
_atom_site_fract_z
Si Si1 0.365823 0.409082 0.921870
Si Si2 0.817940 0.909776 0.874467
Si Si3 0.373043 0.095696 0.128786
Si Si4 0.081953 0.415889 0.511962
Si Si5 0.500000 0.500000 0.771826
Si Si6 0.781351 0.905440 0.666310
O O1 0.345248 0.250000 0.924585
O O2 0.274290 0.475634 0.900151
O O3 0.432939 0.428873 0.839636
O O4 0.399628 0.459003 0.024261
O O5 0.830407 0.750000 0.909732
O O6 0.831105 0.915639 0.763463
O O7 0.888310 0.013497 0.915264
O O8 0.336276 0.250000 0.119944
O O9 0.451647 0.102843 0.200802
O O10 0.300793 0.000059 0.170489
O O11 0.065575 0.250000 0.501343
O O12 0.154739 0.450886 0.585992
O O13 0.000000 0.500000 0.546353
O O14 0.748162 0.750000 0.649088
#
# Coordination Sequence:
#
# PCOD8181724 Si02
#       6
#     8   8   8   8   4   8
#     4  10  21  38  58  85 123 166 206 254 314 364
#     4  10  20  40  66  89 124 168 204 251 311 367
#     4  11  23  38  61  90 121 163 213 260 310 365
#     4  11  24  42  66  97 126 159 203 254 306 370
#     4  12  22  38  58  90 126 164 214 260 306 366
#     4  10  22  41  65  91 125 165 204 249 311 371
#
# _framework density 20.190398999999999
#
# number of rings (size 3 to 8) (size 9 to 14) (size 15 to 20)
#    0.000    1.455    3.636    1.636    0.000    2.909 
#    0.000    3.636    0.000    0.000    0.000    0.000 
#    0.000    0.000    0.000    0.000    0.000    0.000 
#
# Total GULP energy -272653.080490 kJ/mol
# GULP energy per Si atom -12393.321840 kJ/mol
# Density = 2.014444 g / cm^3
# Si number density = 20.190399 Si / 1000 Ang^3
#
#
#
# Elastic Constant Matrix: (Units=GPa)
#
#
# Indices 1 2 3 4 5 6 
#
# 1 79.5517 42.1785 24.9755 0.0000 0.0000 0.0000
# 2 42.1785 91.6202 31.6473 0.0000 0.0000 0.0000
# 3 24.9755 31.6473 108.0056 0.0000 0.0000 0.0000
# 4 0.0000 0.0000 0.0000 26.3201 0.0000 0.0000
# 5 0.0000 0.0000 0.0000 0.0000 25.2244 0.0000
# 6 0.0000 0.0000 0.0000 0.0000 0.0000 31.7475
#
#
#
# Elastic Compliance Matrix: (Units=1/GPa)
#
#
# Indices 1 2 3 4 5 6 
#
# 1 0.016944 -0.007173 -0.001816 0.000000 0.000000 0.000000
# 2 -0.007173 0.015180 -0.002789 0.000000 0.000000 0.000000
# 3 -0.001816 -0.002789 0.010496 0.000000 0.000000 0.000000
# 4 0.000000 0.000000 0.000000 0.037994 0.000000 0.000000
# 5 0.000000 0.000000 0.000000 0.000000 0.039644 0.000000
# 6 0.000000 0.000000 0.000000 0.000000 0.000000 0.031499
#
#
# Mechanical properties :
#
#
# Convention : Reuss Voigt Hill
#
# Bulk Modulus (GPa) = 52.45781 52.97557 52.71669
# Shear Modulus (GPa) = 27.52271 28.68347 28.10309
#
# Velocity S-wave (km/s) = 3.69610 3.77324 3.73487
# Velocity P-wave (km/s) = 6.65228 6.72890 6.69070
#
# Compressibility (1/GPa) = 0.01906294
#
# Stress axis : x y z
#
# Youngs Moduli (GPa) = 59.01878 65.87515 95.27326
#
# Poissons Ratio (x) = 0.47251 0.17305
# Poissons Ratio (y) = 0.42333 0.26575
# Poissons Ratio (z) = 0.10720 0.18375
#
# Static dielectric constant tensor:
#      x y z
#    x 3.575400 0.000000 0.000000 
#    y 0.000000 3.507570 0.000000 
#    z 0.000000 0.000000 3.970680 
# 
# 
# High freq. dielectric constant tensor:
#      x y z
#    x 1.782040 0.000000 0.000000 
#    y 0.000000 1.773360 0.000000 
#    z 0.000000 0.000000 1.806090 
# 
# From -- ./inp_files/10000.got.cif
#   From: 2010.03.12/outbox.cif.g09.slc.cpg/sg39_5_cif.got.tgz:10000.got - 2010.04.14 02:53:20.
