data_PCOD8181376
_publ_section_title
;
Structure prediction by ZEFSAII (Michael W. Deem and Ramdas Pophale) SiO2 
 PCOD8181376
Probable space group: A B M 2
;
_chemical_formula_sum "Si O2"
_cell_formula_units_Z 64
_cell_length_a 20.287056
_cell_length_b 8.709088
_cell_length_c 19.592193
_cell_angle_alpha 90.000000
_cell_angle_beta 90.000000
_cell_angle_gamma 90.000000
_cell_volume 3461.583062
_symmetry_space_group_name_H-M "A B M 2"
_symmetry_group_IT_number 39
_symmetry_cell_setting 'orthorhombic'
loop_
_space_group_symop_operation_xyz
x,y,z
-x,-y,z
-x,1/2+y,z
x,1/2-y,z
x,1/2+y,1/2+z
-x,1/2-y,1/2+z
-x,y,1/2+z
x,-y,1/2+z
loop_
_atom_site_type_symbol
_atom_site_label
_atom_site_fract_x
_atom_site_fract_y
_atom_site_fract_z
Si Si1 0.681462 0.569398 0.781350
Si Si2 0.069075 0.427751 0.031673
Si Si3 0.930518 0.928450 0.871942
Si Si4 0.679833 0.569988 0.627325
Si Si5 0.173149 0.067769 0.631381
Si Si6 0.431303 0.930902 0.873349
Si Si7 0.431806 0.568659 0.029565
Si Si8 0.176795 0.931545 0.775587
O O1 0.686640 0.750000 0.793244
O O2 0.658822 0.529658 0.704473
O O3 0.628830 0.498273 0.831703
O O4 0.752484 0.498025 0.796582
O O5 0.069163 0.250000 0.052015
O O6 0.081700 0.452903 0.951979
O O7 0.000000 0.500000 0.054528
O O8 0.126229 0.515532 0.071053
O O9 0.929524 0.750000 0.851825
O O10 0.873644 0.019383 0.833806
O O11 0.000000 0.000000 0.849598
O O12 0.680434 0.750000 0.615293
O O13 0.753383 0.507198 0.613022
O O14 0.627361 0.496516 0.574871
O O15 0.171813 0.250000 0.639612
O O16 0.151054 0.996037 0.703346
O O17 0.433849 0.750000 0.864035
O O18 0.500000 0.000000 0.846065
O O19 0.419797 0.980419 0.951576
O O20 0.500000 0.500000 0.057299
O O21 0.435686 0.750000 0.037563
O O22 0.181285 0.750000 0.771594
#
# Coordination Sequence:
#
# PCOD8181376 Si02
#       8
#     8   8   8   8   8   8   8   8
#     4  10  20  36  56  78 107 140 176 221 271 322
#     4  10  21  37  57  82 111 142 178 221 268 322
#     4  10  21  38  58  82 112 144 181 225 273 324
#     4   8  17  34  54  75 101 135 172 213 261 311
#     4  10  20  36  57  80 109 144 181 223 272 321
#     4  10  20  34  53  77 106 140 177 219 265 318
#     4   9  18  34  53  75 103 135 173 214 258 309
#     4  11  22  37  57  81 110 144 184 226 271 325
#
# _framework density 18.48865
#
# number of rings (size 3 to 8) (size 9 to 14) (size 15 to 20)
#    0.000    2.250    0.000    3.750    0.000    4.000 
#    0.000    8.750    0.000    0.000    0.000    0.000 
#    0.000    0.000    0.000    0.000    0.000    0.000 
#
# Total GULP energy -396862.854795 kJ/mol
# GULP energy per Si atom -12401.964212 kJ/mol
# Density = 1.844657 g / cm^3
# Si number density = 18.488650 Si / 1000 Ang^3
#
#
#
# Elastic Constant Matrix: (Units=GPa)
#
#
# Indices 1 2 3 4 5 6 
#
# 1 123.3589 37.1629 68.6819 0.0000 0.0000 0.0000
# 2 37.1629 48.4217 29.7343 0.0000 0.0000 0.0000
# 3 68.6819 29.7343 76.2563 0.0000 0.0000 0.0000
# 4 0.0000 0.0000 0.0000 27.0290 0.0000 0.0000
# 5 0.0000 0.0000 0.0000 0.0000 22.6148 0.0000
# 6 0.0000 0.0000 0.0000 0.0000 0.0000 35.7179
#
#
#
# Elastic Compliance Matrix: (Units=1/GPa)
#
#
# Indices 1 2 3 4 5 6 
#
# 1 0.017073 -0.004813 -0.013500 0.000000 0.000000 0.000000
# 2 -0.004813 0.028510 -0.006782 0.000000 0.000000 0.000000
# 3 -0.013500 -0.006782 0.027918 0.000000 0.000000 0.000000
# 4 0.000000 0.000000 0.000000 0.036997 0.000000 0.000000
# 5 0.000000 0.000000 0.000000 0.000000 0.044219 0.000000
# 6 0.000000 0.000000 0.000000 0.000000 0.000000 0.027997
#
#
# Mechanical properties :
#
#
# Convention : Reuss Voigt Hill
#
# Bulk Modulus (GPa) = 42.89984 57.68833 50.29408
# Shear Modulus (GPa) = 20.77492 24.56954 22.67223
#
# Velocity S-wave (km/s) = 3.35574 3.64936 3.50562
# Velocity P-wave (km/s) = 6.18614 7.00192 6.60663
#
# Compressibility (1/GPa) = 0.02331011
#
# Stress axis : x y z
#
# Youngs Moduli (GPa) = 58.57234 35.07493 35.81982
#
# Poissons Ratio (x) = 0.16882 0.48358
# Poissons Ratio (y) = 0.28191 0.24293
# Poissons Ratio (z) = 0.79075 0.23788
#
# Static dielectric constant tensor:
#      x y z
#    x 3.560070 0.000000 0.000000 
#    y 0.000000 3.407880 0.000000 
#    z 0.000000 0.000000 3.444970 
# 
# 
# High freq. dielectric constant tensor:
#      x y z
#    x 1.726610 0.000000 0.000000 
#    y 0.000000 1.720110 0.000000 
#    z 0.000000 0.000000 1.715960 
# 
# From -- ./inp_files/13133.got.cif
#   From: 2010.03.12/outbox.cif.g09.slc.cpg/sg39_7_cif.got.tgz:13133.got - 2010.04.14 02:53:20.
