data_PCOD8181905
_publ_section_title
;
Structure prediction by ZEFSAII (Michael W. Deem and Ramdas Pophale) SiO2 
 PCOD8181905
Probable space group: A B M 2
;
_chemical_formula_sum "Si O2"
_cell_formula_units_Z 48
_cell_length_a 7.733965
_cell_length_b 10.147848
_cell_length_c 30.826486
_cell_angle_alpha 90.000000
_cell_angle_beta 90.000000
_cell_angle_gamma 90.000000
_cell_volume 2419.358222
_symmetry_space_group_name_H-M "A B M 2"
_symmetry_group_IT_number 39
_symmetry_cell_setting 'orthorhombic'
loop_
_space_group_symop_operation_xyz
x,y,z
-x,-y,z
-x,1/2+y,z
x,1/2-y,z
x,1/2+y,1/2+z
-x,1/2-y,1/2+z
-x,y,1/2+z
x,-y,1/2+z
loop_
_atom_site_type_symbol
_atom_site_label
_atom_site_fract_x
_atom_site_fract_y
_atom_site_fract_z
Si Si1 0.142065 0.395062 0.849340
Si Si2 0.749226 0.250000 0.983522
Si Si3 0.000000 0.500000 0.117370
Si Si4 0.334638 0.250000 0.993960
Si Si5 0.664345 0.906956 0.668755
Si Si6 0.628591 0.108732 0.266951
Si Si7 0.299386 0.488985 0.936662
Si Si8 0.041916 0.750000 0.557899
O O1 0.073641 0.250000 0.863288
O O2 0.227269 0.381044 0.802899
O O3 0.258236 0.454023 0.887418
O O4 0.000000 0.500000 0.840388
O O5 0.545258 0.250000 0.998904
O O6 0.789944 0.376476 0.953262
O O7 0.880301 0.250000 0.024022
O O8 0.167425 0.534024 0.145891
O O9 0.964964 0.622795 0.087202
O O10 0.250644 0.373663 0.969371
O O11 0.237570 0.250000 0.039595
O O12 0.634259 0.750000 0.657315
O O13 0.704297 0.925898 0.719758
O O14 0.500000 0.000000 0.655754
O O15 0.531303 0.250000 0.263707
O O16 0.500000 0.000000 0.284302
O O17 0.500000 0.500000 0.938891
#
# Coordination Sequence:
#
# PCOD8181905 Si02
#       8
#     8   4   4   4   8   8   8   4
#     4  11  24  37  56  91 128 166 208 255 305 367
#     4  10  24  40  64  93 121 166 219 263 324 384
#     4  12  26  44  66 100 136 168 216 270 340 406
#     4  10  22  42  64  87 125 166 213 267 318 380
#     4  10  23  44  72 100 133 176 219 268 329 392
#     4   9  20  41  64  92 127 166 211 258 308 373
#     4  10  21  39  61  87 122 165 210 260 314 373
#     4  12  26  42  66  94 126 172 208 272 334 394
#
# _framework density 19.839970999999998
#
# number of rings (size 3 to 8) (size 9 to 14) (size 15 to 20)
#    0.000    1.667    1.667    1.500    5.833    2.000 
#    0.000    0.000    0.000    0.000    0.000    0.000 
#    0.000    0.000    0.000    0.000    0.000    0.000 
#
# Total GULP energy -297345.088062 kJ/mol
# GULP energy per Si atom -12389.378669 kJ/mol
# Density = 1.979481 g / cm^3
# Si number density = 19.839971 Si / 1000 Ang^3
#
#
#
# Elastic Constant Matrix: (Units=GPa)
#
#
# Indices 1 2 3 4 5 6 
#
# 1 91.2425 62.1380 49.3759 0.0000 0.0000 0.0000
# 2 62.1380 192.7020 66.1129 0.0000 0.0000 0.0000
# 3 49.3759 66.1129 104.8798 0.0000 0.0000 0.0000
# 4 0.0000 0.0000 0.0000 33.3326 0.0000 0.0000
# 5 0.0000 0.0000 0.0000 0.0000 28.3191 0.0000
# 6 0.0000 0.0000 0.0000 0.0000 0.0000 317.0175
#
#
#
# Elastic Compliance Matrix: (Units=1/GPa)
#
#
# Indices 1 2 3 4 5 6 
#
# 1 0.016226 -0.003332 -0.005539 0.000000 0.000000 0.000000
# 2 -0.003332 0.007306 -0.003037 0.000000 0.000000 0.000000
# 3 -0.005539 -0.003037 0.014056 0.000000 0.000000 0.000000
# 4 0.000000 0.000000 0.000000 0.030001 0.000000 0.000000
# 5 0.000000 0.000000 0.000000 0.000000 0.035312 0.000000
# 6 0.000000 0.000000 0.000000 0.000000 0.000000 0.003154
#
#
# Mechanical properties :
#
#
# Convention : Reuss Voigt Hill
#
# Bulk Modulus (GPa) = 72.60197 82.67533 77.63865
# Shear Modulus (GPa) = 37.18553 89.81366 63.49959
#
# Velocity S-wave (km/s) = 4.33398 6.73553 5.66351
# Velocity P-wave (km/s) = 7.85607 10.11194 9.05453
#
# Compressibility (1/GPa) = 0.01377373
#
# Stress axis : x y z
#
# Youngs Moduli (GPa) = 61.62854 136.88168 71.14199
#
# Poissons Ratio (x) = 0.45609 0.39403
# Poissons Ratio (y) = 0.20535 0.21603
# Poissons Ratio (z) = 0.34134 0.41565
#
# Static dielectric constant tensor:
#      x y z
#    x 3.267270 0.000000 0.000000 
#    y 0.000000 4.270820 0.000000 
#    z 0.000000 0.000000 3.480640 
# 
# 
# High freq. dielectric constant tensor:
#      x y z
#    x 1.760330 0.000000 0.000000 
#    y 0.000000 1.804770 0.000000 
#    z 0.000000 0.000000 1.782990 
# 
# From -- ./inp_files/17693.got.cif
#   From: 2010.03.12/outbox.cif.g09.slc.cpg/sg39_9_cif.got.tgz:17693.got - 2010.04.14 02:53:20.
