data_PCOD8181582
_publ_section_title
;
Structure prediction by ZEFSAII (Michael W. Deem and Ramdas Pophale) SiO2 
 PCOD8181582
Probable space group: A B M 2
;
_chemical_formula_sum "Si O2"
_cell_formula_units_Z 64
_cell_length_a 15.375914
_cell_length_b 8.799233
_cell_length_c 23.631698
_cell_angle_alpha 90.000000
_cell_angle_beta 90.000000
_cell_angle_gamma 90.000000
_cell_volume 3197.280118
_symmetry_space_group_name_H-M "A B M 2"
_symmetry_group_IT_number 39
_symmetry_cell_setting 'orthorhombic'
loop_
_space_group_symop_operation_xyz
x,y,z
-x,-y,z
-x,1/2+y,z
x,1/2-y,z
x,1/2+y,1/2+z
-x,1/2-y,1/2+z
-x,y,1/2+z
x,-y,1/2+z
loop_
_atom_site_type_symbol
_atom_site_label
_atom_site_fract_x
_atom_site_fract_y
_atom_site_fract_z
Si Si1 0.410080 0.074755 0.365500
Si Si2 0.844995 0.571548 0.983760
Si Si3 0.409955 0.928056 0.106020
Si Si4 0.911277 0.070550 0.872324
Si Si5 0.753350 0.073533 0.307328
Si Si6 0.908186 0.070874 0.606561
Si Si7 0.756214 0.573485 0.674986
Si Si8 0.662252 0.576209 0.486359
O O1 0.407456 0.250000 0.346491
O O2 0.400859 0.059427 0.433002
O O3 0.500000 0.000000 0.346312
O O4 0.335002 0.983441 0.334605
O O5 0.858034 0.750000 0.974852
O O6 0.899384 0.483592 0.936623
O O7 0.743884 0.532921 0.977620
O O8 0.879638 0.515226 0.044352
O O9 0.420407 0.750000 0.112419
O O10 0.331634 0.987847 0.145413
O O11 0.500000 0.000000 0.126752
O O12 0.390641 0.976656 0.041479
O O13 0.917604 0.250000 0.871148
O O14 0.832892 0.019425 0.832770
O O15 0.000000 0.000000 0.847673
O O16 0.766531 0.250000 0.321775
O O17 0.748208 0.042889 0.241052
O O18 0.916408 0.250000 0.608859
O O19 0.837920 0.018810 0.652123
O O20 0.000000 0.000000 0.623495
O O21 0.770369 0.750000 0.660563
O O22 0.695453 0.750000 0.493069
#
# Coordination Sequence:
#
# PCOD8181582 Si02
#       8
#     8   8   8   8   8   8   8   8
#     4  11  23  39  62  93 125 166 207 252 311 368
#     4  11  22  37  62  95 127 162 201 247 305 367
#     4  10  21  38  61  90 123 161 201 248 302 361
#     4  12  25  42  65  93 125 163 204 251 310 370
#     4  11  24  43  65  91 122 161 210 261 313 367
#     4  11  24  40  63  94 125 162 203 248 304 363
#     4  10  23  43  65  88 121 163 206 256 309 360
#     4  10  20  36  61  90 124 162 201 247 306 368
#
# _framework density 20.017014
#
# number of rings (size 3 to 8) (size 9 to 14) (size 15 to 20)
#    0.000    1.250    2.500    3.375    0.000    6.000 
#    0.000    1.250    0.000    0.000    0.000    0.000 
#    0.000    0.000    0.000    0.000    0.000    0.000 
#
# Total GULP energy -397010.212458 kJ/mol
# GULP energy per Si atom -12406.569139 kJ/mol
# Density = 1.997145 g / cm^3
# Si number density = 20.017014 Si / 1000 Ang^3
#
#
#
# Elastic Constant Matrix: (Units=GPa)
#
#
# Indices 1 2 3 4 5 6 
#
# 1 150.3188 43.8233 39.3219 0.0000 0.0000 0.0000
# 2 43.8233 94.0776 40.7081 0.0000 0.0000 0.0000
# 3 39.3219 40.7081 98.7586 0.0000 0.0000 0.0000
# 4 0.0000 0.0000 0.0000 42.0749 0.0000 0.0000
# 5 0.0000 0.0000 0.0000 0.0000 8.2549 0.0000
# 6 0.0000 0.0000 0.0000 0.0000 0.0000 39.3214
#
#
#
# Elastic Compliance Matrix: (Units=1/GPa)
#
#
# Indices 1 2 3 4 5 6 
#
# 1 0.008013 -0.002863 -0.002010 0.000000 0.000000 0.000000
# 2 -0.002863 0.013960 -0.004614 0.000000 0.000000 0.000000
# 3 -0.002010 -0.004614 0.012828 0.000000 0.000000 0.000000
# 4 0.000000 0.000000 0.000000 0.023767 0.000000 0.000000
# 5 0.000000 0.000000 0.000000 0.000000 0.121141 0.000000
# 6 0.000000 0.000000 0.000000 0.000000 0.000000 0.025431
#
#
# Mechanical properties :
#
#
# Convention : Reuss Voigt Hill
#
# Bulk Modulus (GPa) = 63.18756 65.65130 64.41943
# Shear Modulus (GPa) = 21.79689 32.55034 27.17362
#
# Velocity S-wave (km/s) = 3.30346 4.03691 3.68846
# Velocity P-wave (km/s) = 6.79602 7.38903 7.09872
#
# Compressibility (1/GPa) = 0.01582590
#
# Stress axis : x y z
#
# Youngs Moduli (GPa) = 124.79680 71.63491 77.95304
#
# Poissons Ratio (x) = 0.20507 0.15672
# Poissons Ratio (y) = 0.35725 0.35970
# Poissons Ratio (z) = 0.25090 0.33055
#
# Static dielectric constant tensor:
#      x y z
#    x 3.738320 0.000000 0.000000 
#    y 0.000000 3.636750 0.000000 
#    z 0.000000 0.000000 3.730330 
# 
# 
# High freq. dielectric constant tensor:
#      x y z
#    x 1.793360 0.000000 0.000000 
#    y 0.000000 1.785220 0.000000 
#    z 0.000000 0.000000 1.781260 
# 
# From -- ./inp_files/16162.got.cif
#   From: 2010.03.12/outbox.cif.g09.slc.cpg/sg39_9_cif.got.tgz:16162.got - 2010.04.14 02:53:20.
