data_PCOD8181099
_publ_section_title
;
Structure prediction by ZEFSAII (Michael W. Deem and Ramdas Pophale) SiO2 
 PCOD8181099
Probable space group: A B M 2
;
_chemical_formula_sum "Si O2"
_cell_formula_units_Z 48
_cell_length_a 13.903019
_cell_length_b 9.206147
_cell_length_c 20.145080
_cell_angle_alpha 90.000000
_cell_angle_beta 90.000000
_cell_angle_gamma 90.000000
_cell_volume 2578.433992
_symmetry_space_group_name_H-M "A B M 2"
_symmetry_group_IT_number 39
_symmetry_cell_setting 'orthorhombic'
loop_
_space_group_symop_operation_xyz
x,y,z
-x,-y,z
-x,1/2+y,z
x,1/2-y,z
x,1/2+y,1/2+z
-x,1/2-y,1/2+z
-x,y,1/2+z
x,-y,1/2+z
loop_
_atom_site_type_symbol
_atom_site_label
_atom_site_fract_x
_atom_site_fract_y
_atom_site_fract_z
Si Si1 0.095633 0.920534 0.365770
Si Si2 0.278982 0.918054 0.902407
Si Si3 0.906395 0.081960 0.211885
Si Si4 0.598184 0.417535 0.026351
Si Si5 0.595600 0.918416 0.274480
Si Si6 0.297865 0.581780 0.161257
O O1 0.086565 0.750000 0.379060
O O2 0.112415 0.957191 0.288546
O O3 0.184018 0.984488 0.407535
O O4 0.000000 0.000000 0.391512
O O5 0.251392 0.750000 0.914151
O O6 0.325446 0.941896 0.830806
O O7 0.352579 0.972999 0.958714
O O8 0.928350 0.250000 0.202588
O O9 0.812902 0.032963 0.170316
O O10 0.000000 0.000000 0.183986
O O11 0.500000 0.500000 0.040563
O O12 0.570565 0.250000 0.020074
O O13 0.673554 0.445000 0.085408
O O14 0.571889 0.750000 0.263059
O O15 0.500000 0.000000 0.297811
O O16 0.632762 0.985079 0.206043
O O17 0.309914 0.750000 0.182516
#
# Coordination Sequence:
#
# PCOD8181099 Si02
#       6
#     8   8   8   8   8   8
#     4  10  19  33  56  84 113 145 181 225 275 328
#     4  10  21  37  55  80 110 145 185 226 274 326
#     4   9  18  32  53  81 110 140 176 220 271 321
#     4  10  22  39  58  78 109 149 187 228 274 328
#     4  11  22  34  53  79 108 139 180 231 277 325
#     4  10  20  37  57  80 110 144 183 226 275 326
#
# _framework density 18.615950000000002
#
# number of rings (size 3 to 8) (size 9 to 14) (size 15 to 20)
#    0.000    2.000    1.667    2.000    0.000    4.667 
#    0.000    0.833    0.000    2.000    0.000    0.000 
#    0.000    0.000    0.000    0.000    0.000    0.000 
#
# Total GULP energy -297705.788461 kJ/mol
# GULP energy per Si atom -12404.407853 kJ/mol
# Density = 1.857358 g / cm^3
# Si number density = 18.615950 Si / 1000 Ang^3
#
#
#
# Elastic Constant Matrix: (Units=GPa)
#
#
# Indices 1 2 3 4 5 6 
#
# 1 134.4710 60.5797 24.0202 0.0000 0.0000 0.0000
# 2 60.5797 82.3236 26.9107 0.0000 0.0000 0.0000
# 3 24.0202 26.9107 61.1752 0.0000 0.0000 0.0000
# 4 0.0000 0.0000 0.0000 22.2876 0.0000 0.0000
# 5 0.0000 0.0000 0.0000 0.0000 30.8442 0.0000
# 6 0.0000 0.0000 0.0000 0.0000 0.0000 41.2132
#
#
#
# Elastic Compliance Matrix: (Units=1/GPa)
#
#
# Indices 1 2 3 4 5 6 
#
# 1 0.011167 -0.007923 -0.000899 0.000000 0.000000 0.000000
# 2 -0.007923 0.019809 -0.005603 0.000000 0.000000 0.000000
# 3 -0.000899 -0.005603 0.019164 0.000000 0.000000 0.000000
# 4 0.000000 0.000000 0.000000 0.044868 0.000000 0.000000
# 5 0.000000 0.000000 0.000000 0.000000 0.032421 0.000000
# 6 0.000000 0.000000 0.000000 0.000000 0.000000 0.024264
#
#
# Mechanical properties :
#
#
# Convention : Reuss Voigt Hill
#
# Bulk Modulus (GPa) = 46.97174 55.66566 51.31870
# Shear Modulus (GPa) = 26.64672 29.96630 28.30651
#
# Velocity S-wave (km/s) = 3.78748 4.01647 3.90366
# Velocity P-wave (km/s) = 6.66434 7.17471 6.92423
#
# Compressibility (1/GPa) = 0.02128940
#
# Stress axis : x y z
#
# Youngs Moduli (GPa) = 89.55261 50.48139 52.18052
#
# Poissons Ratio (x) = 0.39998 0.04691
# Poissons Ratio (y) = 0.70955 0.29237
# Poissons Ratio (z) = 0.08052 0.28285
#
# Static dielectric constant tensor:
#      x y z
#    x 3.517880 0.000000 0.000000 
#    y 0.000000 3.402810 0.000000 
#    z 0.000000 0.000000 3.251520 
# 
# 
# High freq. dielectric constant tensor:
#      x y z
#    x 1.734070 0.000000 0.000000 
#    y 0.000000 1.722670 0.000000 
#    z 0.000000 0.000000 1.703600 
# 
# From -- ./inp_files/12629.got.cif
#   From: 2010.03.12/outbox.cif.g09.slc.cpg/sg39_7_cif.got.tgz:12629.got - 2010.04.14 02:53:20.
