data_PCOD8181939
_publ_section_title
;
Structure prediction by ZEFSAII (Michael W. Deem and Ramdas Pophale) SiO2 
 PCOD8181939
Probable space group: A B M 2
;
_chemical_formula_sum "Si O2"
_cell_formula_units_Z 48
_cell_length_a 11.856243
_cell_length_b 15.314535
_cell_length_c 13.184145
_cell_angle_alpha 90.000000
_cell_angle_beta 90.000000
_cell_angle_gamma 90.000000
_cell_volume 2393.882761
_symmetry_space_group_name_H-M "A B M 2"
_symmetry_group_IT_number 39
_symmetry_cell_setting 'orthorhombic'
loop_
_space_group_symop_operation_xyz
x,y,z
-x,-y,z
-x,1/2+y,z
x,1/2-y,z
x,1/2+y,1/2+z
-x,1/2-y,1/2+z
-x,y,1/2+z
x,-y,1/2+z
loop_
_atom_site_type_symbol
_atom_site_label
_atom_site_fract_x
_atom_site_fract_y
_atom_site_fract_z
Si Si1 0.265764 0.097812 0.463840
Si Si2 0.988545 0.750000 0.751281
Si Si3 0.202102 0.152961 0.248140
Si Si4 0.513270 0.400799 0.407708
Si Si5 0.731728 0.907090 0.037698
Si Si6 0.775793 0.250000 0.107959
Si Si7 0.386475 0.750000 0.286179
Si Si8 0.828728 0.750000 0.927497
O O1 0.219326 0.099121 0.350215
O O2 0.397435 0.123375 0.462741
O O3 0.208046 0.166097 0.537982
O O4 0.232899 0.003494 0.506017
O O5 0.881585 0.750000 0.680962
O O6 0.947264 0.750000 0.868453
O O7 0.066700 0.664237 0.731428
O O8 0.257693 0.250000 0.257726
O O9 0.265020 0.099849 0.159427
O O10 0.500000 0.500000 0.365948
O O11 0.607035 0.388650 0.494755
O O12 0.540563 0.336898 0.312739
O O13 0.821650 0.836413 0.996728
O O14 0.656143 0.250000 0.169392
O O15 0.274022 0.750000 0.350808
#
# Coordination Sequence:
#
# PCOD8181939 Si02
#       8
#     8   4   8   8   8   4   4   4
#     4  11  23  39  61  93 131 157 204 261 303 362
#     4   9  22  40  67  81 123 161 204 264 317 354
#     4  10  22  41  62  87 119 169 199 254 313 358
#     4   9  20  38  58  90 126 160 196 251 301 362
#     4  10  21  39  66  90 123 167 206 242 305 382
#     4  11  22  41  58  90 122 165 208 259 311 359
#     4   9  19  32  61  85 115 159 202 242 294 372
#     4   9  17  39  60  88 112 157 208 249 296 359
#
# _framework density 20.051106999999998
#
# number of rings (size 3 to 8) (size 9 to 14) (size 15 to 20)
#    0.500    1.667    1.667    0.500    0.000    9.333 
#    0.000   10.000    0.000    0.000    0.000    0.000 
#    0.000    0.000    0.000    0.000    0.000    0.000 
#
# Total GULP energy -297499.701916 kJ/mol
# GULP energy per Si atom -12395.820913 kJ/mol
# Density = 2.000547 g / cm^3
# Si number density = 20.051107 Si / 1000 Ang^3
#
#
#
# Elastic Constant Matrix: (Units=GPa)
#
#
# Indices 1 2 3 4 5 6 
#
# 1 82.0489 40.1310 36.0438 0.0000 0.0000 0.0000
# 2 40.1310 137.0771 67.2629 0.0000 0.0000 0.0000
# 3 36.0438 67.2629 137.4159 0.0000 0.0000 0.0000
# 4 0.0000 0.0000 0.0000 37.4250 0.0000 0.0000
# 5 0.0000 0.0000 0.0000 0.0000 29.8300 0.0000
# 6 0.0000 0.0000 0.0000 0.0000 0.0000 -35.9795
#
#
#
# Elastic Compliance Matrix: (Units=1/GPa)
#
#
# Indices 1 2 3 4 5 6 
#
# 1 0.014763 -0.003187 -0.002312 0.000000 0.000000 0.000000
# 2 -0.003187 0.010289 -0.004200 0.000000 0.000000 0.000000
# 3 -0.002312 -0.004200 0.009940 0.000000 0.000000 0.000000
# 4 0.000000 0.000000 0.000000 0.026720 0.000000 0.000000
# 5 0.000000 0.000000 0.000000 0.000000 0.033523 0.000000
# 6 0.000000 0.000000 0.000000 0.000000 0.000000 -0.027794
#
#
# Mechanical properties :
#
#
# Convention : Reuss Voigt Hill
#
# Bulk Modulus (GPa) = 64.13593 71.49081 67.81337
# Shear Modulus (GPa) = 54.32507 20.46204 37.39356
#
# Velocity S-wave (km/s) = 5.21077 3.19798 4.32315
# Velocity P-wave (km/s) = 8.26187 7.02622 7.66897
#
# Compressibility (1/GPa) = 0.01559188
#
# Stress axis : x y z
#
# Youngs Moduli (GPa) = 67.73919 97.18669 100.60704
#
# Poissons Ratio (x) = 0.30978 0.23260
# Poissons Ratio (y) = 0.21591 0.42260
# Poissons Ratio (z) = 0.15661 0.40823
#
# Static dielectric constant tensor:
#      x y z
#    x 3.595510 0.000000 0.000000 
#    y 0.000000 3.648900 0.000000 
#    z 0.000000 0.000000 3.627010 
# 
# 
# High freq. dielectric constant tensor:
#      x y z
#    x 1.772920 0.000000 0.000000 
#    y 0.000000 1.779260 0.000000 
#    z 0.000000 0.000000 1.781850 
# 
# From -- ./inp_files/5875.got.cif
#   From: 2010.03.12/outbox.cif.g09.slc.cpg/sg39_3_cif.got.tgz:5875.got - 2010.04.14 02:53:20.
