data_PCOD8181306
_publ_section_title
;
Structure prediction by ZEFSAII (Michael W. Deem and Ramdas Pophale) SiO2 
 PCOD8181306
Probable space group: A B M 2
;
_chemical_formula_sum "Si O2"
_cell_formula_units_Z 40
_cell_length_a 13.821131
_cell_length_b 8.751882
_cell_length_c 20.575440
_cell_angle_alpha 90.000000
_cell_angle_beta 90.000000
_cell_angle_gamma 90.000000
_cell_volume 2488.823897
_symmetry_space_group_name_H-M "A B M 2"
_symmetry_group_IT_number 39
_symmetry_cell_setting 'orthorhombic'
loop_
_space_group_symop_operation_xyz
x,y,z
-x,-y,z
-x,1/2+y,z
x,1/2-y,z
x,1/2+y,1/2+z
-x,1/2-y,1/2+z
-x,y,1/2+z
x,-y,1/2+z
loop_
_atom_site_type_symbol
_atom_site_label
_atom_site_fract_x
_atom_site_fract_y
_atom_site_fract_z
Si Si1 0.786719 0.077308 0.713720
Si Si2 0.897270 0.930825 0.963722
Si Si3 0.896910 0.930422 0.600005
Si Si4 0.600745 0.577530 0.283984
Si Si5 0.229385 0.429626 0.842141
O O1 0.825232 0.250000 0.704398
O O2 0.669021 0.073952 0.719357
O O3 0.818051 0.973117 0.653811
O O4 0.828380 0.008850 0.781845
O O5 0.907524 0.750000 0.971105
O O6 0.819455 0.978086 0.909561
O O7 0.000000 0.000000 0.943094
O O8 0.861473 0.001005 0.031618
O O9 0.906663 0.750000 0.593824
O O10 0.000000 0.000000 0.620476
O O11 0.500000 0.500000 0.266776
O O12 0.582065 0.750000 0.307305
O O13 0.658742 0.488526 0.341657
O O14 0.226276 0.250000 0.831520
#
# Coordination Sequence:
#
# PCOD8181306 Si02
#       5
#     8   8   8   8   8
#     4   9  19  33  50  74 100 129 164 205 245 289
#     4  10  20  33  50  71 100 135 167 202 241 290
#     4  11  21  33  51  71  99 135 168 204 242 293
#     4   9  18  31  52  75  99 128 159 203 249 296
#     4   9  18  32  50  74 100 130 166 204 245 288
#
# _framework density 16.071847999999999
#
# number of rings (size 3 to 8) (size 9 to 14) (size 15 to 20)
#    1.200    1.200    0.000    4.800    0.000    4.000 
#    0.000    2.000    0.000    1.200    0.000    5.600 
#    0.000    0.000    0.000    0.000    0.000    0.000 
#
# Total GULP energy -247842.256344 kJ/mol
# GULP energy per Si atom -12392.112817 kJ/mol
# Density = 1.603527 g / cm^3
# Si number density = 16.071848 Si / 1000 Ang^3
#
#
#
# Elastic Constant Matrix: (Units=GPa)
#
#
# Indices 1 2 3 4 5 6 
#
# 1 78.6358 39.1040 55.9095 0.0000 0.0000 0.0000
# 2 39.1040 110.0821 50.1370 0.0000 0.0000 0.0000
# 3 55.9095 50.1370 101.9105 0.0000 0.0000 0.0000
# 4 0.0000 0.0000 0.0000 28.8934 0.0000 0.0000
# 5 0.0000 0.0000 0.0000 0.0000 9.1889 0.0000
# 6 0.0000 0.0000 0.0000 0.0000 0.0000 29.2633
#
#
#
# Elastic Compliance Matrix: (Units=1/GPa)
#
#
# Indices 1 2 3 4 5 6 
#
# 1 0.021557 -0.002927 -0.010387 0.000000 0.000000 0.000000
# 2 -0.002927 0.012105 -0.004349 0.000000 0.000000 0.000000
# 3 -0.010387 -0.004349 0.017650 0.000000 0.000000 0.000000
# 4 0.000000 0.000000 0.000000 0.034610 0.000000 0.000000
# 5 0.000000 0.000000 0.000000 0.000000 0.108827 0.000000
# 6 0.000000 0.000000 0.000000 0.000000 0.000000 0.034173
#
#
# Mechanical properties :
#
#
# Convention : Reuss Voigt Hill
#
# Bulk Modulus (GPa) = 62.55276 64.54771 63.55024
# Shear Modulus (GPa) = 18.54761 23.16764 20.85762
#
# Velocity S-wave (km/s) = 3.40081 3.80083 3.60637
# Velocity P-wave (km/s) = 7.37739 7.71433 7.54774
#
# Compressibility (1/GPa) = 0.01598650
#
# Stress axis : x y z
#
# Youngs Moduli (GPa) = 46.38821 82.61151 56.65564
#
# Poissons Ratio (x) = 0.24181 0.58846
# Poissons Ratio (y) = 0.13578 0.24642
# Poissons Ratio (z) = 0.48181 0.35931
#
# Static dielectric constant tensor:
#      x y z
#    x 2.839150 0.000000 0.000000 
#    y 0.000000 3.180410 0.000000 
#    z 0.000000 0.000000 2.924510 
# 
# 
# High freq. dielectric constant tensor:
#      x y z
#    x 1.594560 0.000000 0.000000 
#    y 0.000000 1.642170 0.000000 
#    z 0.000000 0.000000 1.601670 
# 
# From -- ./inp_files/12834.got.cif
#   From: 2010.03.12/outbox.cif.g09.slc.cpg/sg39_7_cif.got.tgz:12834.got - 2010.04.14 02:53:20.
