data_PCOD8181237
_publ_section_title
;
Structure prediction by ZEFSAII (Michael W. Deem and Ramdas Pophale) SiO2 
 PCOD8181237
Probable space group: A B M 2
;
_chemical_formula_sum "Si O2"
_cell_formula_units_Z 64
_cell_length_a 23.915446
_cell_length_b 8.566168
_cell_length_c 15.290281
_cell_angle_alpha 90.000000
_cell_angle_beta 90.000000
_cell_angle_gamma 90.000000
_cell_volume 3132.423971
_symmetry_space_group_name_H-M "A B M 2"
_symmetry_group_IT_number 39
_symmetry_cell_setting 'orthorhombic'
loop_
_space_group_symop_operation_xyz
x,y,z
-x,-y,z
-x,1/2+y,z
x,1/2-y,z
x,1/2+y,1/2+z
-x,1/2-y,1/2+z
-x,y,1/2+z
x,-y,1/2+z
loop_
_atom_site_type_symbol
_atom_site_label
_atom_site_fract_x
_atom_site_fract_y
_atom_site_fract_z
Si Si1 0.860072 0.066071 0.810500
Si Si2 0.358757 0.431507 0.570957
Si Si3 0.061327 0.936120 0.656585
Si Si4 0.264442 0.931809 0.819959
Si Si5 0.252080 0.432382 0.006703
Si Si6 0.375984 0.427509 0.763452
Si Si7 0.864583 0.935673 0.508020
Si Si8 0.560821 0.431629 0.919375
O O1 0.865506 0.250000 0.811610
O O2 0.901755 0.997806 0.737528
O O3 0.796742 0.018455 0.784700
O O4 0.874950 0.005402 0.908152
O O5 0.344159 0.250000 0.556355
O O6 0.301205 0.530590 0.575664
O O7 0.391816 0.455054 0.662173
O O8 0.397686 0.499538 0.493448
O O9 0.061636 0.750000 0.651849
O O10 0.084012 0.005215 0.565851
O O11 0.000000 0.000000 0.672748
O O12 0.276828 0.750000 0.803560
O O13 0.267101 0.963821 0.922879
O O14 0.310464 0.034554 0.771846
O O15 0.250238 0.250000 0.984073
O O16 0.192253 0.486130 0.044991
O O17 0.386514 0.250000 0.792237
O O18 0.414893 0.534649 0.823354
O O19 0.859138 0.750000 0.512615
O O20 0.500000 0.500000 0.931765
O O21 0.555470 0.250000 0.932961
#
# Coordination Sequence:
#
# PCOD8181237 Si02
#       8
#     8   8   8   8   8   8   8   8
#     4   8  19  38  60  84 118 158 201 247 302 362
#     4  10  23  41  61  90 127 164 203 253 309 366
#     4  11  23  41  61  88 120 160 207 254 302 367
#     4  10  19  36  60  88 124 164 201 252 313 366
#     4  11  21  35  60  92 125 163 205 252 304 371
#     4  11  23  39  61  94 126 160 205 254 306 369
#     4  10  21  40  62  88 121 161 201 253 310 364
#     4  11  24  44  67  88 122 168 209 259 310 362
#
# _framework density 20.431460999999999
#
# number of rings (size 3 to 8) (size 9 to 14) (size 15 to 20)
#    0.000    1.750    1.250    3.750    1.750    2.500 
#    0.000    9.375    0.000    0.000    0.000    0.000 
#    0.000    0.000    0.000    0.000    0.000    0.000 
#
# Total GULP energy -396859.645731 kJ/mol
# GULP energy per Si atom -12401.863929 kJ/mol
# Density = 2.038496 g / cm^3
# Si number density = 20.431461 Si / 1000 Ang^3
#
#
#
# Elastic Constant Matrix: (Units=GPa)
#
#
# Indices 1 2 3 4 5 6 
#
# 1 106.5083 23.6190 29.9812 0.0000 0.0000 0.0000
# 2 23.6190 53.1059 18.5393 0.0000 0.0000 0.0000
# 3 29.9812 18.5393 75.4383 0.0000 0.0000 0.0000
# 4 0.0000 0.0000 0.0000 24.6882 0.0000 0.0000
# 5 0.0000 0.0000 0.0000 0.0000 20.2080 0.0000
# 6 0.0000 0.0000 0.0000 0.0000 0.0000 36.1750
#
#
#
# Elastic Compliance Matrix: (Units=1/GPa)
#
#
# Indices 1 2 3 4 5 6 
#
# 1 0.011217 -0.003755 -0.003535 0.000000 0.000000 0.000000
# 2 -0.003755 0.021854 -0.003879 0.000000 0.000000 0.000000
# 3 -0.003535 -0.003879 0.015614 0.000000 0.000000 0.000000
# 4 0.000000 0.000000 0.000000 0.040505 0.000000 0.000000
# 5 0.000000 0.000000 0.000000 0.000000 0.049485 0.000000
# 6 0.000000 0.000000 0.000000 0.000000 0.000000 0.027643
#
#
# Mechanical properties :
#
#
# Convention : Reuss Voigt Hill
#
# Bulk Modulus (GPa) = 37.95310 42.14796 40.05053
# Shear Modulus (GPa) = 25.32441 27.07510 26.19976
#
# Velocity S-wave (km/s) = 3.52445 3.64423 3.58484
# Velocity P-wave (km/s) = 5.93114 6.19524 6.06463
#
# Compressibility (1/GPa) = 0.02634831
#
# Stress axis : x y z
#
# Youngs Moduli (GPa) = 89.15333 45.75792 64.04513
#
# Poissons Ratio (x) = 0.17180 0.22641
# Poissons Ratio (y) = 0.33473 0.24841
# Poissons Ratio (z) = 0.31517 0.17748
#
# Static dielectric constant tensor:
#      x y z
#    x 3.808940 0.000000 0.000000 
#    y 0.000000 3.541950 0.000000 
#    z 0.000000 0.000000 3.840060 
# 
# 
# High freq. dielectric constant tensor:
#      x y z
#    x 1.796000 0.000000 0.000000 
#    y 0.000000 1.792050 0.000000 
#    z 0.000000 0.000000 1.801240 
# 
# From -- ./inp_files/10651.got.cif
#   From: 2010.03.12/outbox.cif.g09.slc.cpg/sg39_6_cif.got.tgz:10651.got - 2010.04.14 02:53:20.
