data_PCOD8181251
_publ_section_title
;
Structure prediction by ZEFSAII (Michael W. Deem and Ramdas Pophale) SiO2 
 PCOD8181251
Probable space group: A B M 2
;
_chemical_formula_sum "Si O2"
_cell_formula_units_Z 64
_cell_length_a 11.670840
_cell_length_b 17.019662
_cell_length_c 15.908372
_cell_angle_alpha 90.000000
_cell_angle_beta 90.000000
_cell_angle_gamma 90.000000
_cell_volume 3159.939619
_symmetry_space_group_name_H-M "A B M 2"
_symmetry_group_IT_number 39
_symmetry_cell_setting 'orthorhombic'
loop_
_space_group_symop_operation_xyz
x,y,z
-x,-y,z
-x,1/2+y,z
x,1/2-y,z
x,1/2+y,1/2+z
-x,1/2-y,1/2+z
-x,y,1/2+z
x,-y,1/2+z
loop_
_atom_site_type_symbol
_atom_site_label
_atom_site_fract_x
_atom_site_fract_y
_atom_site_fract_z
Si Si1 0.016174 0.407215 0.892190
Si Si2 0.614057 0.546768 0.734146
Si Si3 0.622693 0.162579 0.088907
Si Si4 0.230978 0.946738 0.621541
Si Si5 0.610617 0.334195 0.522606
Si Si6 0.256623 0.338617 0.860012
Si Si7 0.863820 0.600099 0.553090
Si Si8 0.982099 0.906921 0.204561
O O1 0.145646 0.377244 0.905628
O O2 0.000000 0.500000 0.889954
O O3 0.984743 0.371716 0.799265
O O4 0.938016 0.377043 0.970269
O O5 0.500000 0.500000 0.768736
O O6 0.576283 0.604154 0.659994
O O7 0.708162 0.486843 0.700381
O O8 0.688376 0.599661 0.796622
O O9 0.628577 0.250000 0.126975
O O10 0.526003 0.153286 0.017934
O O11 0.742787 0.143024 0.045533
O O12 0.327071 0.904112 0.569150
O O13 0.139775 0.886741 0.661971
O O14 0.161003 0.006510 0.560045
O O15 0.638191 0.250000 0.567215
O O16 0.645191 0.329557 0.427206
O O17 0.229755 0.250000 0.823433
O O18 0.922483 0.629006 0.640964
O O19 0.000000 0.000000 0.209803
#
# Coordination Sequence:
#
# PCOD8181251 Si02
#       8
#     8   8   8   8   8   8   8   8
#     4  11  20  37  60  90 123 168 216 264 318 383
#     4  11  21  39  61  94 119 158 213 262 314 376
#     4  10  21  39  60  84 120 159 202 256 317 382
#     4  10  19  37  60  87 123 154 209 265 313 378
#     4  10  21  39  59  82 119 166 205 251 319 387
#     4  11  24  41  62  90 129 170 208 257 325 393
#     4  10  20  33  59  88 118 161 207 263 314 374
#     4   9  18  33  54  82 118 151 193 254 310 364
#
# _framework density 20.253551999999999
#
# number of rings (size 3 to 8) (size 9 to 14) (size 15 to 20)
#    0.000    1.750    1.250    6.000    0.000    0.500 
#    9.000    1.250    0.000    0.000    0.000    0.000 
#    0.000    0.000    0.000    0.000    0.000    0.000 
#
# Total GULP energy -396418.928282 kJ/mol
# GULP energy per Si atom -12388.091509 kJ/mol
# Density = 2.020745 g / cm^3
# Si number density = 20.253552 Si / 1000 Ang^3
#
#
#
# Elastic Constant Matrix: (Units=GPa)
#
#
# Indices 1 2 3 4 5 6 
#
# 1 132.7360 37.5588 58.0037 0.0000 0.0000 0.0000
# 2 37.5588 70.3577 26.1607 0.0000 0.0000 0.0000
# 3 58.0037 26.1607 107.9977 0.0000 0.0000 0.0000
# 4 0.0000 0.0000 0.0000 25.0058 0.0000 0.0000
# 5 0.0000 0.0000 0.0000 0.0000 35.1314 0.0000
# 6 0.0000 0.0000 0.0000 0.0000 0.0000 15.2724
#
#
#
# Elastic Compliance Matrix: (Units=1/GPa)
#
#
# Indices 1 2 3 4 5 6 
#
# 1 0.010758 -0.003950 -0.004821 0.000000 0.000000 0.000000
# 2 -0.003950 0.017071 -0.002013 0.000000 0.000000 0.000000
# 3 -0.004821 -0.002013 0.012337 0.000000 0.000000 0.000000
# 4 0.000000 0.000000 0.000000 0.039991 0.000000 0.000000
# 5 0.000000 0.000000 0.000000 0.000000 0.028465 0.000000
# 6 0.000000 0.000000 0.000000 0.000000 0.000000 0.065478
#
#
# Mechanical properties :
#
#
# Convention : Reuss Voigt Hill
#
# Bulk Modulus (GPa) = 53.77656 61.61529 57.69593
# Shear Modulus (GPa) = 24.76877 27.70644 26.23761
#
# Velocity S-wave (km/s) = 3.50084 3.70263 3.60315
# Velocity P-wave (km/s) = 6.55366 6.98336 6.77192
#
# Compressibility (1/GPa) = 0.01859546
#
# Stress axis : x y z
#
# Youngs Moduli (GPa) = 92.95099 58.58037 81.06003
#
# Poissons Ratio (x) = 0.23142 0.39081
# Poissons Ratio (y) = 0.36720 0.16320
# Poissons Ratio (z) = 0.44813 0.11794
#
# Static dielectric constant tensor:
#      x y z
#    x 3.962150 0.000000 0.000000 
#    y 0.000000 3.710220 0.000000 
#    z 0.000000 0.000000 3.722200 
# 
# 
# High freq. dielectric constant tensor:
#      x y z
#    x 1.807910 0.000000 0.000000 
#    y 0.000000 1.771950 0.000000 
#    z 0.000000 0.000000 1.779520 
# 
# From -- ./inp_files/9424.got.cif
#   From: 2010.03.12/outbox.cif.g09.slc.cpg/sg39_5_cif.got.tgz:9424.got - 2010.04.14 02:53:20.
