data_PCOD8181879
_publ_section_title
;
Structure prediction by ZEFSAII (Michael W. Deem and Ramdas Pophale) SiO2 
 PCOD8181879
Probable space group: A B M 2
;
_chemical_formula_sum "Si O2"
_cell_formula_units_Z 60
_cell_length_a 8.858196
_cell_length_b 23.627589
_cell_length_c 12.683502
_cell_angle_alpha 90.000000
_cell_angle_beta 90.000000
_cell_angle_gamma 90.000000
_cell_volume 2654.629247
_symmetry_space_group_name_H-M "A B M 2"
_symmetry_group_IT_number 39
_symmetry_cell_setting 'orthorhombic'
loop_
_space_group_symop_operation_xyz
x,y,z
-x,-y,z
-x,1/2+y,z
x,1/2-y,z
x,1/2+y,1/2+z
-x,1/2-y,1/2+z
-x,y,1/2+z
x,-y,1/2+z
loop_
_atom_site_type_symbol
_atom_site_label
_atom_site_fract_x
_atom_site_fract_y
_atom_site_fract_z
Si Si1 0.565874 0.186289 0.802670
Si Si2 0.575555 0.578517 0.419049
Si Si3 0.000000 0.000000 0.979099
Si Si4 0.747582 0.815678 0.109581
Si Si5 0.759354 0.813080 0.881937
Si Si6 0.725028 0.029226 0.342275
Si Si7 0.079811 0.816375 0.184529
Si Si8 0.776590 0.424109 0.109204
O O1 0.629819 0.250000 0.825093
O O2 0.626348 0.142306 0.889750
O O3 0.616278 0.162562 0.687944
O O4 0.385792 0.186231 0.806289
O O5 0.395873 0.570213 0.401395
O O6 0.664178 0.534973 0.342770
O O7 0.624237 0.568021 0.540014
O O8 0.915609 0.044420 0.053708
O O9 0.117563 0.033876 0.904846
O O10 0.716275 0.750000 0.094896
O O11 0.906213 0.828563 0.163341
O O12 0.737812 0.845774 0.993927
O O13 0.805002 0.750000 0.914838
O O14 0.893230 0.835822 0.806942
O O15 0.746218 0.049355 0.223072
O O16 0.122817 0.750000 0.165518
O O17 0.181510 0.857416 0.112577
#
# Coordination Sequence:
#
# PCOD8181879 Si02
#       8
#     8   8   4   8   8   8   8   8
#     4  10  21  38  62  95 131 166 209 259 318 391
#     4  10  24  42  65  95 128 168 213 261 320 384
#     4  10  24  44  68  96 122 162 218 272 320 376
#     4   9  20  38  59  85 124 173 214 256 314 375
#     4   9  19  37  57  82 123 167 206 251 305 373
#     4  10  23  45  66  91 127 164 216 270 315 375
#     4  10  22  39  61  92 129 168 214 264 319 391
#     4  11  24  43  67  94 127 170 212 262 329 382
#
# _framework density 22.602027
#
# number of rings (size 3 to 8) (size 9 to 14) (size 15 to 20)
#    0.000    2.133    0.000    1.200    0.000   13.333 
#    0.000    6.667    0.000    0.000    0.000    0.000 
#    0.000    0.000    0.000    0.000    0.000    0.000 
#
# Total GULP energy -371746.836407 kJ/mol
# GULP energy per Si atom -12391.561214 kJ/mol
# Density = 2.255058 g / cm^3
# Si number density = 22.602027 Si / 1000 Ang^3
#
#
#
# Elastic Constant Matrix: (Units=GPa)
#
#
# Indices 1 2 3 4 5 6 
#
# 1 121.4319 29.2585 106.9745 0.0000 0.0000 0.0000
# 2 29.2585 118.5377 55.9311 0.0000 0.0000 0.0000
# 3 106.9745 55.9311 190.9591 0.0000 0.0000 0.0000
# 4 0.0000 0.0000 0.0000 30.1149 0.0000 0.0000
# 5 0.0000 0.0000 0.0000 0.0000 42.0221 0.0000
# 6 0.0000 0.0000 0.0000 0.0000 0.0000 15.2760
#
#
#
# Elastic Compliance Matrix: (Units=1/GPa)
#
#
# Indices 1 2 3 4 5 6 
#
# 1 0.016270 0.000330 -0.009211 0.000000 0.000000 0.000000
# 2 0.000330 0.009796 -0.003054 0.000000 0.000000 0.000000
# 3 -0.009211 -0.003054 0.011291 0.000000 0.000000 0.000000
# 4 0.000000 0.000000 0.000000 0.033206 0.000000 0.000000
# 5 0.000000 0.000000 0.000000 0.000000 0.023797 0.000000
# 6 0.000000 0.000000 0.000000 0.000000 0.000000 0.065462
#
#
# Mechanical properties :
#
#
# Convention : Reuss Voigt Hill
#
# Bulk Modulus (GPa) = 74.14539 90.58412 82.36475
# Shear Modulus (GPa) = 26.56924 33.40024 29.98474
#
# Velocity S-wave (km/s) = 3.43231 3.84833 3.64626
# Velocity P-wave (km/s) = 6.97020 7.74022 7.36528
#
# Compressibility (1/GPa) = 0.01348702
#
# Stress axis : x y z
#
# Youngs Moduli (GPa) = 61.46305 102.08577 88.56382
#
# Poissons Ratio (x) = -0.03372 0.81577
# Poissons Ratio (y) = -0.02030 0.27049
# Poissons Ratio (z) = 0.56614 0.31178
#
# Static dielectric constant tensor:
#      x y z
#    x 4.044590 0.000000 0.000000 
#    y 0.000000 4.259170 0.000000 
#    z 0.000000 0.000000 4.333360 
# 
# 
# High freq. dielectric constant tensor:
#      x y z
#    x 1.882740 0.000000 0.000000 
#    y 0.000000 1.892870 0.000000 
#    z 0.000000 0.000000 1.894160 
# 
# From -- ./inp_files/5339.got.cif
#   From: 2010.03.12/outbox.cif.g09.slc.cpg/sg39_3_cif.got.tgz:5339.got - 2010.04.14 02:53:20.
