data_PCOD8181527
_publ_section_title
;
Structure prediction by ZEFSAII (Michael W. Deem and Ramdas Pophale) SiO2 
 PCOD8181527
Probable space group: A B M 2
;
_chemical_formula_sum "Si O2"
_cell_formula_units_Z 48
_cell_length_a 14.801079
_cell_length_b 15.740626
_cell_length_c 9.628938
_cell_angle_alpha 90.000000
_cell_angle_beta 90.000000
_cell_angle_gamma 90.000000
_cell_volume 2243.333114
_symmetry_space_group_name_H-M "A B M 2"
_symmetry_group_IT_number 39
_symmetry_cell_setting 'orthorhombic'
loop_
_space_group_symop_operation_xyz
x,y,z
-x,-y,z
-x,1/2+y,z
x,1/2-y,z
x,1/2+y,1/2+z
-x,1/2-y,1/2+z
-x,y,1/2+z
x,-y,1/2+z
loop_
_atom_site_type_symbol
_atom_site_label
_atom_site_fract_x
_atom_site_fract_y
_atom_site_fract_z
Si Si1 0.908005 0.350345 0.381330
Si Si2 0.257821 0.650085 0.565285
Si Si3 0.928147 0.351763 0.067232
Si Si4 0.572051 0.344906 0.882692
Si Si5 0.552046 0.917264 0.102467
Si Si6 0.771045 0.349038 0.873077
O O1 0.919624 0.250000 0.374543
O O2 0.808814 0.374265 0.438888
O O3 0.921770 0.387310 0.225219
O O4 0.982425 0.386343 0.489293
O O5 0.288798 0.750000 0.554252
O O6 0.341737 0.583693 0.558966
O O7 0.203998 0.636805 0.710868
O O8 0.926790 0.250000 0.068540
O O9 0.844487 0.389626 0.976924
O O10 0.570694 0.250000 0.938980
O O11 0.543949 0.345989 0.721238
O O12 0.671223 0.387088 0.902703
O O13 0.500454 0.398813 0.963451
O O14 0.500000 0.000000 0.163025
O O15 0.766433 0.250000 0.905067
#
# Coordination Sequence:
#
# PCOD8181527 Si02
#       6
#     8   8   8   8   8   8
#     4   9  16  24  40  66 101 140 178 220 271 324
#     4   9  17  31  48  69  99 141 185 227 272 326
#     4   9  15  24  39  67 103 138 174 220 272 323
#     4  10  20  36  56  78 105 144 187 232 280 333
#     4  11  22  36  54  79 110 143 183 233 286 336
#     4   8  15  27  44  65  94 130 173 220 269 318
#
# _framework density 21.396730999999999
#
# number of rings (size 3 to 8) (size 9 to 14) (size 15 to 20)
#    0.000    2.667    0.000    4.000    0.000    5.333 
#    0.000    3.333    0.000    0.000    0.000    1.167 
#    0.000    8.000    0.000    0.667    0.000    0.167 
#
# Total GULP energy -297317.002260 kJ/mol
# GULP energy per Si atom -12388.208428 kJ/mol
# Density = 2.134803 g / cm^3
# Si number density = 21.396731 Si / 1000 Ang^3
#
#
#
# Elastic Constant Matrix: (Units=GPa)
#
#
# Indices 1 2 3 4 5 6 
#
# 1 148.5905 27.0059 85.4195 0.0000 0.0000 0.0000
# 2 27.0059 24.4779 12.3167 0.0000 0.0000 0.0000
# 3 85.4195 12.3167 137.0535 0.0000 0.0000 0.0000
# 4 0.0000 0.0000 0.0000 10.4321 0.0000 0.0000
# 5 0.0000 0.0000 0.0000 0.0000 43.6554 0.0000
# 6 0.0000 0.0000 0.0000 0.0000 0.0000 4.0046
#
#
#
# Elastic Compliance Matrix: (Units=1/GPa)
#
#
# Indices 1 2 3 4 5 6 
#
# 1 0.012600 -0.010421 -0.006916 0.000000 0.000000 0.000000
# 2 -0.010421 0.051407 0.001875 0.000000 0.000000 0.000000
# 3 -0.006916 0.001875 0.011439 0.000000 0.000000 0.000000
# 4 0.000000 0.000000 0.000000 0.095858 0.000000 0.000000
# 5 0.000000 0.000000 0.000000 0.000000 0.022907 0.000000
# 6 0.000000 0.000000 0.000000 0.000000 0.000000 0.249710
#
#
# Mechanical properties :
#
#
# Convention : Reuss Voigt Hill
#
# Bulk Modulus (GPa) = 22.46139 62.17846 42.31992
# Shear Modulus (GPa) = 10.21064 23.97708 17.09386
#
# Velocity S-wave (km/s) = 2.18687 3.35116 2.82955
# Velocity P-wave (km/s) = 4.11059 6.64053 5.52239
#
# Compressibility (1/GPa) = 0.04452084
#
# Stress axis : x y z
#
# Youngs Moduli (GPa) = 79.36555 19.45260 87.42301
#
# Poissons Ratio (x) = 0.20272 0.60466
# Poissons Ratio (y) = 0.82707 -0.16393
# Poissons Ratio (z) = 0.54893 -0.03648
#
# Static dielectric constant tensor:
#      x y z
#    x 4.090770 0.000000 0.000000 
#    y 0.000000 3.844800 0.000000 
#    z 0.000000 0.000000 3.956210 
# 
# 
# High freq. dielectric constant tensor:
#      x y z
#    x 1.844700 0.000000 0.000000 
#    y 0.000000 1.779120 0.000000 
#    z 0.000000 0.000000 1.847210 
# 
# From -- ./inp_files/3217.got.cif
#   From: 2010.03.12/outbox.cif.g09.slc.cpg/sg39_2_cif.got.tgz:3217.got - 2010.04.14 02:53:20.
