data_PCOD8181139
_publ_section_title
;
Structure prediction by ZEFSAII (Michael W. Deem and Ramdas Pophale) SiO2 
 PCOD8181139
Probable space group: A B M 2
;
_chemical_formula_sum "Si O2"
_cell_formula_units_Z 64
_cell_length_a 19.862964
_cell_length_b 8.900273
_cell_length_c 19.921589
_cell_angle_alpha 90.000000
_cell_angle_beta 90.000000
_cell_angle_gamma 90.000000
_cell_volume 3521.854092
_symmetry_space_group_name_H-M "A B M 2"
_symmetry_group_IT_number 39
_symmetry_cell_setting 'orthorhombic'
loop_
_space_group_symop_operation_xyz
x,y,z
-x,-y,z
-x,1/2+y,z
x,1/2-y,z
x,1/2+y,1/2+z
-x,1/2-y,1/2+z
-x,y,1/2+z
x,-y,1/2+z
loop_
_atom_site_type_symbol
_atom_site_label
_atom_site_fract_x
_atom_site_fract_y
_atom_site_fract_z
Si Si1 0.826614 0.576250 0.920670
Si Si2 0.071801 0.425398 0.808438
Si Si3 0.311656 0.572377 0.891148
Si Si4 0.799760 0.422215 0.568125
Si Si5 0.179065 0.072610 0.702128
Si Si6 0.676980 0.926633 0.754318
Si Si7 0.430076 0.426968 0.640346
Si Si8 0.650528 0.072402 0.525447
O O1 0.804759 0.750000 0.909285
O O2 0.894285 0.537523 0.880229
O O3 0.766469 0.474529 0.893245
O O4 0.840459 0.546273 0.999275
O O5 0.061331 0.250000 0.798949
O O6 0.119751 0.489863 0.749616
O O7 0.000000 0.500000 0.804089
O O8 0.318240 0.750000 0.897140
O O9 0.343476 0.515498 0.821415
O O10 0.353735 0.496180 0.951057
O O11 0.804617 0.250000 0.589704
O O12 0.833893 0.518937 0.626378
O O13 0.722447 0.470239 0.557567
O O14 0.179331 0.250000 0.702969
O O15 0.250688 0.013240 0.728901
O O16 0.678919 0.750000 0.769877
O O17 0.623027 0.967528 0.697860
O O18 0.500000 0.500000 0.662644
O O19 0.438061 0.250000 0.630593
O O20 0.407462 0.498874 0.570024
O O21 0.640102 0.250000 0.521029
#
# Coordination Sequence:
#
# PCOD8181139 Si02
#       8
#     8   8   8   8   8   8   8   8
#     4   9  18  36  55  76 109 148 182 224 285 339
#     4  10  21  37  56  77 108 148 188 230 283 341
#     4  11  21  32  55  88 115 141 186 240 282 331
#     4   9  18  31  54  83 109 137 177 230 276 323
#     4  10  19  34  56  80 110 146 183 230 280 332
#     4  10  20  37  58  81 114 153 189 231 285 339
#     4  11  23  39  60  85 116 153 191 233 283 344
#     4  10  20  36  57  82 115 150 185 230 284 337
#
# _framework density 18.172245
#
# number of rings (size 3 to 8) (size 9 to 14) (size 15 to 20)
#    0.000    2.000    2.500    2.625    0.000    4.500 
#    0.000    1.250    0.000    4.500    0.000    0.000 
#    0.000    0.000    0.000    0.000    0.000    0.000 
#
# Total GULP energy -396878.524234 kJ/mol
# GULP energy per Si atom -12402.453882 kJ/mol
# Density = 1.813088 g / cm^3
# Si number density = 18.172245 Si / 1000 Ang^3
#
#
#
# Elastic Constant Matrix: (Units=GPa)
#
#
# Indices 1 2 3 4 5 6 
#
# 1 109.6474 41.7491 59.9325 0.0000 0.0000 0.0000
# 2 41.7491 73.3486 51.2088 0.0000 0.0000 0.0000
# 3 59.9325 51.2088 142.7336 0.0000 0.0000 0.0000
# 4 0.0000 0.0000 0.0000 34.2347 0.0000 0.0000
# 5 0.0000 0.0000 0.0000 0.0000 25.4957 0.0000
# 6 0.0000 0.0000 0.0000 0.0000 0.0000 28.7221
#
#
#
# Elastic Compliance Matrix: (Units=1/GPa)
#
#
# Indices 1 2 3 4 5 6 
#
# 1 0.012983 -0.004781 -0.003736 0.000000 0.000000 0.000000
# 2 -0.004781 0.019951 -0.005150 0.000000 0.000000 0.000000
# 3 -0.003736 -0.005150 0.010422 0.000000 0.000000 0.000000
# 4 0.000000 0.000000 0.000000 0.029210 0.000000 0.000000
# 5 0.000000 0.000000 0.000000 0.000000 0.039222 0.000000
# 6 0.000000 0.000000 0.000000 0.000000 0.000000 0.034816
#
#
# Mechanical properties :
#
#
# Convention : Reuss Voigt Hill
#
# Bulk Modulus (GPa) = 62.41781 70.16785 66.29283
# Shear Modulus (GPa) = 27.88940 29.21310 28.55125
#
# Velocity S-wave (km/s) = 3.92181 4.01380 3.96807
# Velocity P-wave (km/s) = 7.41147 7.75740 7.58641
#
# Compressibility (1/GPa) = 0.01602107
#
# Stress axis : x y z
#
# Youngs Moduli (GPa) = 77.02557 50.12387 95.94698
#
# Poissons Ratio (x) = 0.23966 0.35845
# Poissons Ratio (y) = 0.36829 0.49413
# Poissons Ratio (z) = 0.28776 0.25814
#
# Static dielectric constant tensor:
#      x y z
#    x 3.171420 0.000000 0.000000 
#    y 0.000000 3.252920 0.000000 
#    z 0.000000 0.000000 3.561520 
# 
# 
# High freq. dielectric constant tensor:
#      x y z
#    x 1.676100 0.000000 0.000000 
#    y 0.000000 1.701070 0.000000 
#    z 0.000000 0.000000 1.719250 
# 
# From -- ./inp_files/13196.got.cif
#   From: 2010.03.12/outbox.cif.g09.slc.cpg/sg39_7_cif.got.tgz:13196.got - 2010.04.14 02:53:20.
