data_PCOD8181466
_publ_section_title
;
Structure prediction by ZEFSAII (Michael W. Deem and Ramdas Pophale) SiO2 
 PCOD8181466
Probable space group: A B M 2
;
_chemical_formula_sum "Si O2"
_cell_formula_units_Z 64
_cell_length_a 13.934603
_cell_length_b 9.444180
_cell_length_c 24.444208
_cell_angle_alpha 90.000000
_cell_angle_beta 90.000000
_cell_angle_gamma 90.000000
_cell_volume 3216.879747
_symmetry_space_group_name_H-M "A B M 2"
_symmetry_group_IT_number 39
_symmetry_cell_setting 'orthorhombic'
loop_
_space_group_symop_operation_xyz
x,y,z
-x,-y,z
-x,1/2+y,z
x,1/2-y,z
x,1/2+y,1/2+z
-x,1/2-y,1/2+z
-x,y,1/2+z
x,-y,1/2+z
loop_
_atom_site_type_symbol
_atom_site_label
_atom_site_fract_x
_atom_site_fract_y
_atom_site_fract_z
Si Si1 0.296826 0.589525 0.440060
Si Si2 0.402879 0.913670 0.030251
Si Si3 0.108192 0.036268 0.461557
Si Si4 0.402228 0.583763 0.722914
Si Si5 0.700812 0.585440 0.334773
Si Si6 0.910521 0.599309 0.341943
Si Si7 0.906066 0.094012 0.080617
Si Si8 0.715362 0.087748 0.139105
O O1 0.336090 0.750000 0.442887
O O2 0.333899 0.489553 0.487615
O O3 0.180634 0.593285 0.447250
O O4 0.331410 0.518646 0.383393
O O5 0.419507 0.750000 0.013089
O O6 0.359584 0.924107 0.090163
O O7 0.500000 0.000000 0.030165
O O8 0.107445 0.129668 0.406746
O O9 0.138991 0.106970 0.518977
O O10 0.000000 0.000000 0.474889
O O11 0.500000 0.500000 0.711114
O O12 0.415944 0.750000 0.709199
O O13 0.372472 0.560818 0.785620
O O14 0.317517 0.519051 0.686295
O O15 0.699505 0.750000 0.353835
O O16 0.810093 0.543430 0.316591
O O17 0.936997 0.750000 0.315273
O O18 0.000000 0.500000 0.329177
O O19 0.936697 0.250000 0.099311
O O20 0.820843 0.037375 0.119519
O O21 0.000000 0.000000 0.087437
O O22 0.718404 0.250000 0.160540
#
# Coordination Sequence:
#
# PCOD8181466 Si02
#       8
#     8   8   8   8   8   8   8   8
#     4  11  22  36  58  89 121 157 198 241 293 354
#     4  11  23  40  59  83 117 154 192 238 296 358
#     4   9  18  31  49  80 120 159 195 236 277 337
#     4  11  24  43  67  90 112 147 197 252 306 359
#     4   9  21  40  59  82 117 156 193 240 299 355
#     4   9  17  30  52  80 114 153 193 235 282 339
#     4  10  20  35  56  86 122 161 200 240 288 344
#     4  10  22  41  63  88 119 155 196 244 296 350
#
# _framework density 19.895056
#
# number of rings (size 3 to 8) (size 9 to 14) (size 15 to 20)
#    0.000    2.000    1.250    1.875    0.000   11.500 
#    0.000    1.875    0.000    3.000    0.000    0.000 
#    0.000    0.000    0.000    0.000    0.000    0.000 
#
# Total GULP energy -396473.899503 kJ/mol
# GULP energy per Si atom -12389.809359 kJ/mol
# Density = 1.984977 g / cm^3
# Si number density = 19.895056 Si / 1000 Ang^3
#
#
#
# Elastic Constant Matrix: (Units=GPa)
#
#
# Indices 1 2 3 4 5 6 
#
# 1 86.2030 35.0056 24.1106 0.0000 0.0000 0.0000
# 2 35.0056 116.2794 34.2040 0.0000 0.0000 0.0000
# 3 24.1106 34.2040 62.9091 0.0000 0.0000 0.0000
# 4 0.0000 0.0000 0.0000 26.1946 0.0000 0.0000
# 5 0.0000 0.0000 0.0000 0.0000 29.3392 0.0000
# 6 0.0000 0.0000 0.0000 0.0000 0.0000 30.1519
#
#
#
# Elastic Compliance Matrix: (Units=1/GPa)
#
#
# Indices 1 2 3 4 5 6 
#
# 1 0.013878 -0.003111 -0.003628 0.000000 0.000000 0.000000
# 2 -0.003111 0.010935 -0.004753 0.000000 0.000000 0.000000
# 3 -0.003628 -0.004753 0.019870 0.000000 0.000000 0.000000
# 4 0.000000 0.000000 0.000000 0.038176 0.000000 0.000000
# 5 0.000000 0.000000 0.000000 0.000000 0.034084 0.000000
# 6 0.000000 0.000000 0.000000 0.000000 0.000000 0.033165
#
#
# Mechanical properties :
#
#
# Convention : Reuss Voigt Hill
#
# Bulk Modulus (GPa) = 46.08180 50.22578 48.15379
# Shear Modulus (GPa) = 27.72764 28.60854 28.16809
#
# Velocity S-wave (km/s) = 3.73727 3.79617 3.76684
# Velocity P-wave (km/s) = 6.46805 6.67194 6.57078
#
# Compressibility (1/GPa) = 0.02170054
#
# Stress axis : x y z
#
# Youngs Moduli (GPa) = 72.05395 91.45274 50.32597
#
# Poissons Ratio (x) = 0.28451 0.18256
# Poissons Ratio (y) = 0.22416 0.23919
# Poissons Ratio (z) = 0.26138 0.43466
#
# Static dielectric constant tensor:
#      x y z
#    x 3.789270 0.000000 0.000000 
#    y 0.000000 3.626280 0.000000 
#    z 0.000000 0.000000 3.537920 
# 
# 
# High freq. dielectric constant tensor:
#      x y z
#    x 1.784790 0.000000 0.000000 
#    y 0.000000 1.772300 0.000000 
#    z 0.000000 0.000000 1.756980 
# 
# From -- ./inp_files/16276.got.cif
#   From: 2010.03.12/outbox.cif.g09.slc.cpg/sg39_9_cif.got.tgz:16276.got - 2010.04.14 02:53:20.
