data_PCOD8181735
_publ_section_title
;
Structure prediction by ZEFSAII (Michael W. Deem and Ramdas Pophale) SiO2 
 PCOD8181735
Probable space group: A B M 2
;
_chemical_formula_sum "Si O2"
_cell_formula_units_Z 64
_cell_length_a 13.895206
_cell_length_b 18.181531
_cell_length_c 12.302850
_cell_angle_alpha 90.000000
_cell_angle_beta 90.000000
_cell_angle_gamma 90.000000
_cell_volume 3108.144272
_symmetry_space_group_name_H-M "A B M 2"
_symmetry_group_IT_number 39
_symmetry_cell_setting 'orthorhombic'
loop_
_space_group_symop_operation_xyz
x,y,z
-x,-y,z
-x,1/2+y,z
x,1/2-y,z
x,1/2+y,1/2+z
-x,1/2-y,1/2+z
-x,y,1/2+z
x,-y,1/2+z
loop_
_atom_site_type_symbol
_atom_site_label
_atom_site_fract_x
_atom_site_fract_y
_atom_site_fract_z
Si Si1 0.664675 0.564740 0.215380
Si Si2 0.359443 0.576214 0.080935
Si Si3 0.803211 0.451706 0.912378
Si Si4 0.139272 0.111116 0.890818
Si Si5 0.061350 0.164405 0.321775
Si Si6 0.667313 0.336603 0.288395
Si Si7 0.487555 0.085904 0.377933
Si Si8 0.813839 0.667609 0.117402
O O1 0.616518 0.497439 0.149486
O O2 0.738066 0.535010 0.306219
O O3 0.583164 0.611639 0.279741
O O4 0.720276 0.616588 0.130947
O O5 0.352582 0.644639 0.162790
O O6 0.259875 0.561732 0.019129
O O7 0.443754 0.598513 0.997546
O O8 0.866080 0.525480 0.924755
O O9 0.872442 0.381079 0.905277
O O10 0.231251 0.128133 0.817968
O O11 0.046506 0.133920 0.821788
O O12 0.140916 0.159477 0.999207
O O13 0.065669 0.250000 0.354719
O O14 0.101273 0.149378 0.201484
O O15 0.668499 0.250000 0.305677
O O16 0.587205 0.370590 0.369254
O O17 0.500000 0.000000 0.359768
O O18 0.776493 0.750000 0.135007
#
# Coordination Sequence:
#
# PCOD8181735 Si02
#       8
#     8   8   8   8   8   8   8   8
#     4  10  20  41  65  93 124 162 213 265 317 384
#     4  11  22  41  67  94 126 166 215 264 328 385
#     4  10  21  40  68  98 124 164 219 269 319 389
#     4  12  22  43  66  93 133 172 219 271 320 387
#     4  10  23  41  62  94 133 170 215 267 324 384
#     4  12  27  43  63  96 134 171 217 271 329 389
#     4  11  24  40  66  93 126 167 216 268 317 389
#     4  10  22  39  65  95 127 171 214 262 328 383
#
# _framework density 20.591065
#
# number of rings (size 3 to 8) (size 9 to 14) (size 15 to 20)
#    0.000    1.250    3.750    2.250    1.750    2.500 
#    0.000    3.750    0.000    0.000    0.000    0.000 
#    0.000    0.000    0.000    0.000    0.000    0.000 
#
# Total GULP energy -396907.042639 kJ/mol
# GULP energy per Si atom -12403.345082 kJ/mol
# Density = 2.054420 g / cm^3
# Si number density = 20.591065 Si / 1000 Ang^3
#
#
#
# Elastic Constant Matrix: (Units=GPa)
#
#
# Indices 1 2 3 4 5 6 
#
# 1 106.4689 38.2124 40.7608 0.0000 0.0000 0.0000
# 2 38.2124 98.4431 17.8279 0.0000 0.0000 0.0000
# 3 40.7608 17.8279 98.9441 0.0000 0.0000 0.0000
# 4 0.0000 0.0000 0.0000 24.3230 0.0000 0.0000
# 5 0.0000 0.0000 0.0000 0.0000 27.0543 0.0000
# 6 0.0000 0.0000 0.0000 0.0000 0.0000 26.9616
#
#
#
# Elastic Compliance Matrix: (Units=1/GPa)
#
#
# Indices 1 2 3 4 5 6 
#
# 1 0.012552 -0.004068 -0.004438 0.000000 0.000000 0.000000
# 2 -0.004068 0.011820 -0.000454 0.000000 0.000000 0.000000
# 3 -0.004438 -0.000454 0.012017 0.000000 0.000000 0.000000
# 4 0.000000 0.000000 0.000000 0.041113 0.000000 0.000000
# 5 0.000000 0.000000 0.000000 0.000000 0.036963 0.000000
# 6 0.000000 0.000000 0.000000 0.000000 0.000000 0.037090
#
#
# Mechanical properties :
#
#
# Convention : Reuss Voigt Hill
#
# Bulk Modulus (GPa) = 54.14713 55.27314 54.71013
# Shear Modulus (GPa) = 28.46912 29.47146 28.97029
#
# Velocity S-wave (km/s) = 3.72236 3.78732 3.75498
# Velocity P-wave (km/s) = 6.69538 6.78429 6.73998
#
# Compressibility (1/GPa) = 0.01846820
#
# Stress axis : x y z
#
# Youngs Moduli (GPa) = 79.67168 84.60570 83.21842
#
# Poissons Ratio (x) = 0.34421 0.36929
# Poissons Ratio (y) = 0.32414 0.03775
# Poissons Ratio (z) = 0.35355 0.03838
#
# Static dielectric constant tensor:
#      x y z
#    x 3.848990 0.000000 0.000000 
#    y 0.000000 3.678820 0.000000 
#    z 0.000000 0.000000 3.778240 
# 
# 
# High freq. dielectric constant tensor:
#      x y z
#    x 1.808120 0.000000 0.000000 
#    y 0.000000 1.799780 0.000000 
#    z 0.000000 0.000000 1.811170 
# 
# From -- ./inp_files/6648.got.cif
#   From: 2010.03.12/outbox.cif.g09.slc.cpg/sg39_4_cif.got.tgz:6648.got - 2010.04.14 02:53:20.
