data_PCOD8181406
_publ_section_title
;
Structure prediction by ZEFSAII (Michael W. Deem and Ramdas Pophale) SiO2 
 PCOD8181406
Probable space group: A B M 2
;
_chemical_formula_sum "Si O2"
_cell_formula_units_Z 64
_cell_length_a 19.146974
_cell_length_b 8.669463
_cell_length_c 20.515978
_cell_angle_alpha 90.000000
_cell_angle_beta 90.000000
_cell_angle_gamma 90.000000
_cell_volume 3405.528896
_symmetry_space_group_name_H-M "A B M 2"
_symmetry_group_IT_number 39
_symmetry_cell_setting 'orthorhombic'
loop_
_space_group_symop_operation_xyz
x,y,z
-x,-y,z
-x,1/2+y,z
x,1/2-y,z
x,1/2+y,1/2+z
-x,1/2-y,1/2+z
-x,y,1/2+z
x,-y,1/2+z
loop_
_atom_site_type_symbol
_atom_site_label
_atom_site_fract_x
_atom_site_fract_y
_atom_site_fract_z
Si Si1 0.072868 0.931072 0.538290
Si Si2 0.702284 0.429088 0.112584
Si Si3 0.572482 0.931402 0.171573
Si Si4 0.210614 0.931784 0.988661
Si Si5 0.790845 0.429418 0.240245
Si Si6 0.290046 0.931035 0.859288
Si Si7 0.926531 0.932840 0.187653
Si Si8 0.573524 0.432330 0.312487
O O1 0.067529 0.750000 0.532588
O O2 0.086848 0.983001 0.612806
O O3 0.134923 0.990601 0.492617
O O4 0.000000 0.000000 0.512695
O O5 0.681964 0.250000 0.107959
O O6 0.631864 0.528086 0.119399
O O7 0.740708 0.488098 0.047867
O O8 0.752732 0.463156 0.172633
O O9 0.565270 0.750000 0.181375
O O10 0.500000 0.000000 0.144988
O O11 0.592193 0.007256 0.240572
O O12 0.199421 0.750000 0.991881
O O13 0.246840 0.985768 0.922118
O O14 0.789146 0.250000 0.258957
O O15 0.753393 0.526560 0.295711
O O16 0.869641 0.488402 0.233918
O O17 0.304275 0.750000 0.860732
O O18 0.364896 0.015980 0.860810
O O19 0.924648 0.750000 0.196297
O O20 0.000000 0.000000 0.211669
O O21 0.500000 0.500000 0.337546
O O22 0.568194 0.250000 0.310202
#
# Coordination Sequence:
#
# PCOD8181406 Si02
#       8
#     8   8   8   8   8   8   8   8
#     4  10  20  34  57  85 115 149 189 235 282 339
#     4  10  20  36  58  84 114 147 188 232 284 336
#     4  11  21  34  56  85 117 149 189 237 287 339
#     4  10  22  40  60  83 116 154 191 236 283 337
#     4  11  21  35  59  85 115 149 186 235 286 337
#     4  11  23  39  59  85 117 153 193 235 284 340
#     4  10  20  34  55  85 118 150 190 238 288 341
#     4  11  21  36  58  84 114 149 190 236 284 339
#
# _framework density 18.79297
#
# number of rings (size 3 to 8) (size 9 to 14) (size 15 to 20)
#    0.000    1.500    2.500    4.500    0.000    3.000 
#    0.000    1.250    0.000    3.000    0.000    0.000 
#    0.000    0.000    0.000    0.000    0.000    0.000 
#
# Total GULP energy -396969.772315 kJ/mol
# GULP energy per Si atom -12405.305385 kJ/mol
# Density = 1.875020 g / cm^3
# Si number density = 18.792970 Si / 1000 Ang^3
#
#
#
# Elastic Constant Matrix: (Units=GPa)
#
#
# Indices 1 2 3 4 5 6 
#
# 1 157.6187 52.3779 45.8240 0.0000 0.0000 0.0000
# 2 52.3779 92.7497 32.9457 0.0000 0.0000 0.0000
# 3 45.8240 32.9457 70.7260 0.0000 0.0000 0.0000
# 4 0.0000 0.0000 0.0000 22.2537 0.0000 0.0000
# 5 0.0000 0.0000 0.0000 0.0000 25.1891 0.0000
# 6 0.0000 0.0000 0.0000 0.0000 0.0000 38.8501
#
#
#
# Elastic Compliance Matrix: (Units=1/GPa)
#
#
# Indices 1 2 3 4 5 6 
#
# 1 0.008659 -0.003472 -0.003993 0.000000 0.000000 0.000000
# 2 -0.003472 0.014311 -0.004417 0.000000 0.000000 0.000000
# 3 -0.003993 -0.004417 0.018784 0.000000 0.000000 0.000000
# 4 0.000000 0.000000 0.000000 0.044936 0.000000 0.000000
# 5 0.000000 0.000000 0.000000 0.000000 0.039700 0.000000
# 6 0.000000 0.000000 0.000000 0.000000 0.000000 0.025740
#
#
# Mechanical properties :
#
#
# Convention : Reuss Voigt Hill
#
# Bulk Modulus (GPa) = 55.58546 64.82106 60.20326
# Shear Modulus (GPa) = 27.48907 29.92171 28.70539
#
# Velocity S-wave (km/s) = 3.82872 3.99454 3.91250
# Velocity P-wave (km/s) = 7.01337 7.47276 7.24671
#
# Compressibility (1/GPa) = 0.01799032
#
# Stress axis : x y z
#
# Youngs Moduli (GPa) = 115.48764 69.87534 53.23712
#
# Poissons Ratio (x) = 0.24257 0.21258
# Poissons Ratio (y) = 0.40092 0.23516
# Poissons Ratio (z) = 0.46115 0.30866
#
# Static dielectric constant tensor:
#      x y z
#    x 3.631900 0.000000 0.000000 
#    y 0.000000 3.441920 0.000000 
#    z 0.000000 0.000000 3.269210 
# 
# 
# High freq. dielectric constant tensor:
#      x y z
#    x 1.747910 0.000000 0.000000 
#    y 0.000000 1.739920 0.000000 
#    z 0.000000 0.000000 1.697490 
# 
# From -- ./inp_files/13168.got.cif
#   From: 2010.03.12/outbox.cif.g09.slc.cpg/sg39_7_cif.got.tgz:13168.got - 2010.04.14 02:53:20.
