data_PCOD8181317
_publ_section_title
;
Structure prediction by ZEFSAII (Michael W. Deem and Ramdas Pophale) SiO2 
 PCOD8181317
Probable space group: A B M 2
;
_chemical_formula_sum "Si O2"
_cell_formula_units_Z 64
_cell_length_a 20.134658
_cell_length_b 9.231884
_cell_length_c 19.508882
_cell_angle_alpha 90.000000
_cell_angle_beta 90.000000
_cell_angle_gamma 90.000000
_cell_volume 3626.327121
_symmetry_space_group_name_H-M "A B M 2"
_symmetry_group_IT_number 39
_symmetry_cell_setting 'orthorhombic'
loop_
_space_group_symop_operation_xyz
x,y,z
-x,-y,z
-x,1/2+y,z
x,1/2-y,z
x,1/2+y,1/2+z
-x,1/2-y,1/2+z
-x,y,1/2+z
x,-y,1/2+z
loop_
_atom_site_type_symbol
_atom_site_label
_atom_site_fract_x
_atom_site_fract_y
_atom_site_fract_z
Si Si1 0.171129 0.414445 0.581920
Si Si2 0.934364 0.418586 0.827033
Si Si3 0.434827 0.418921 0.835589
Si Si4 0.677303 0.917963 0.573977
Si Si5 0.183369 0.582064 0.924647
Si Si6 0.682923 0.578790 0.935618
Si Si7 0.933513 0.080473 0.669194
Si Si8 0.434788 0.080911 0.679336
O O1 0.151998 0.250000 0.601862
O O2 0.247888 0.445774 0.599557
O O3 0.157690 0.442280 0.501758
O O4 0.128141 0.525994 0.625153
O O5 0.947446 0.250000 0.838220
O O6 0.873056 0.472636 0.872755
O O7 0.918270 0.455705 0.748290
O O8 0.000000 0.500000 0.852393
O O9 0.500000 0.500000 0.863231
O O10 0.449293 0.250000 0.842132
O O11 0.372227 0.465907 0.880509
O O12 0.419345 0.464340 0.757388
O O13 0.668484 0.750000 0.553456
O O14 0.628334 0.966200 0.634485
O O15 0.660582 0.014070 0.508159
O O16 0.201474 0.750000 0.912723
O O17 0.248205 0.487888 0.909429
O O18 0.691084 0.750000 0.942619
O O19 0.943445 0.250000 0.656732
O O20 0.000000 0.000000 0.644508
O O21 0.448844 0.250000 0.672677
O O22 0.500000 0.000000 0.651500
#
# Coordination Sequence:
#
# PCOD8181317 Si02
#       8
#     8   8   8   8   8   8   8   8
#     4   9  18  33  52  73  98 130 165 201 243 292
#     4   9  19  35  53  74 100 130 165 203 243 290
#     4   9  19  34  51  73 100 130 166 206 246 291
#     4   9  19  35  53  72  99 134 165 199 247 297
#     4   9  19  36  54  73 100 132 165 201 245 295
#     4  10  20  33  51  76 102 128 164 207 245 289
#     4  10  20  34  52  74 101 131 163 202 245 290
#     4   9  18  34  53  73  99 131 167 205 246 292
#
# _framework density 17.648710999999999
#
# number of rings (size 3 to 8) (size 9 to 14) (size 15 to 20)
#    0.000    2.750    0.000    1.500    0.000    6.500 
#    0.000    5.000    0.000    0.000    0.000    0.000 
#    0.000    0.000    0.000    0.000    0.000    0.000 
#
# Total GULP energy -396882.600327 kJ/mol
# GULP energy per Si atom -12402.581260 kJ/mol
# Density = 1.760854 g / cm^3
# Si number density = 17.648711 Si / 1000 Ang^3
#
#
#
# Elastic Constant Matrix: (Units=GPa)
#
#
# Indices 1 2 3 4 5 6 
#
# 1 146.8225 67.9929 88.9750 0.0000 0.0000 0.0000
# 2 67.9929 70.2421 50.4970 0.0000 0.0000 0.0000
# 3 88.9750 50.4970 89.8899 0.0000 0.0000 0.0000
# 4 0.0000 0.0000 0.0000 24.5938 0.0000 0.0000
# 5 0.0000 0.0000 0.0000 0.0000 35.4344 0.0000
# 6 0.0000 0.0000 0.0000 0.0000 0.0000 35.9800
#
#
#
# Elastic Compliance Matrix: (Units=1/GPa)
#
#
# Indices 1 2 3 4 5 6 
#
# 1 0.019605 -0.008432 -0.014669 0.000000 0.000000 0.000000
# 2 -0.008432 0.027507 -0.007107 0.000000 0.000000 0.000000
# 3 -0.014669 -0.007107 0.029636 0.000000 0.000000 0.000000
# 4 0.000000 0.000000 0.000000 0.040661 0.000000 0.000000
# 5 0.000000 0.000000 0.000000 0.000000 0.028221 0.000000
# 6 0.000000 0.000000 0.000000 0.000000 0.000000 0.027793
#
#
# Mechanical properties :
#
#
# Convention : Reuss Voigt Hill
#
# Bulk Modulus (GPa) = 61.22084 80.20937 70.71511
# Shear Modulus (GPa) = 20.89576 25.83427 23.36501
#
# Velocity S-wave (km/s) = 3.44464 3.83012 3.64248
# Velocity P-wave (km/s) = 7.11228 8.06884 7.60561
#
# Compressibility (1/GPa) = 0.01633431
#
# Stress axis : x y z
#
# Youngs Moduli (GPa) = 51.00726 36.35396 33.74236
#
# Poissons Ratio (x) = 0.30653 0.49496
# Poissons Ratio (y) = 0.43009 0.23979
# Poissons Ratio (z) = 0.74821 0.25835
#
# Static dielectric constant tensor:
#      x y z
#    x 3.343180 0.000000 0.000000 
#    y 0.000000 3.230370 0.000000 
#    z 0.000000 0.000000 3.302270 
# 
# 
# High freq. dielectric constant tensor:
#      x y z
#    x 1.686380 0.000000 0.000000 
#    y 0.000000 1.682310 0.000000 
#    z 0.000000 0.000000 1.679490 
# 
# From -- ./inp_files/13146.got.cif
#   From: 2010.03.12/outbox.cif.g09.slc.cpg/sg39_7_cif.got.tgz:13146.got - 2010.04.14 02:53:20.
