data_PCOD8181516
_publ_section_title
;
Structure prediction by ZEFSAII (Michael W. Deem and Ramdas Pophale) SiO2 
 PCOD8181516
Probable space group: A B M 2
;
_chemical_formula_sum "Si O2"
_cell_formula_units_Z 64
_cell_length_a 9.181498
_cell_length_b 18.936196
_cell_length_c 17.252743
_cell_angle_alpha 90.000000
_cell_angle_beta 90.000000
_cell_angle_gamma 90.000000
_cell_volume 2999.607544
_symmetry_space_group_name_H-M "A B M 2"
_symmetry_group_IT_number 39
_symmetry_cell_setting 'orthorhombic'
loop_
_space_group_symop_operation_xyz
x,y,z
-x,-y,z
-x,1/2+y,z
x,1/2-y,z
x,1/2+y,1/2+z
-x,1/2-y,1/2+z
-x,y,1/2+z
x,-y,1/2+z
loop_
_atom_site_type_symbol
_atom_site_label
_atom_site_fract_x
_atom_site_fract_y
_atom_site_fract_z
Si Si1 0.497767 0.669967 0.372150
Si Si2 0.655157 0.532137 0.856592
Si Si3 0.207953 0.907336 0.215694
Si Si4 0.959210 0.829165 0.292202
Si Si5 0.965908 0.424096 0.065748
Si Si6 0.492421 0.330071 0.691791
Si Si7 0.215368 0.101224 0.423969
Si Si8 0.794824 0.830405 0.133070
O O1 0.446767 0.750000 0.393617
O O2 0.370058 0.612131 0.390646
O O3 0.536925 0.663520 0.281731
O O4 0.644869 0.652248 0.418785
O O5 0.500000 0.500000 0.834345
O O6 0.746459 0.532202 0.776480
O O7 0.737320 0.481295 0.916991
O O8 0.107274 0.939154 0.148983
O O9 0.349666 0.875280 0.173773
O O10 0.122517 0.847816 0.264786
O O11 0.960688 0.750000 0.325749
O O12 0.904753 0.881721 0.358887
O O13 0.852947 0.835314 0.219827
O O14 0.000000 0.500000 0.028684
O O15 0.113250 0.378686 0.074464
O O16 0.856118 0.384704 0.007631
O O17 0.455956 0.250000 0.670236
O O18 0.626566 0.356308 0.637766
O O19 0.804869 0.750000 0.102833
#
# Coordination Sequence:
#
# PCOD8181516 Si02
#       8
#     8   8   8   8   8   8   8   8
#     4   9  17  35  63  95 124 160 212 267 322 373
#     4   9  21  37  62  95 123 161 213 270 316 377
#     4  10  22  37  63  90 121 159 210 267 315 368
#     4  10  20  35  62  95 121 158 212 260 311 372
#     4  11  27  41  57  88 130 174 210 255 314 383
#     4   9  16  34  65  96 121 150 200 265 312 360
#     4  11  22  38  61  86 130 173 211 257 325 384
#     4   9  19  39  65  92 123 159 205 259 310 373
#
# _framework density 21.336124999999999
#
# number of rings (size 3 to 8) (size 9 to 14) (size 15 to 20)
#    0.000    2.250    1.250    0.750    5.250    2.000 
#    0.000    5.625    0.000    1.500    0.000    0.000 
#    0.000    0.000    0.000    0.000    0.000    0.000 
#
# Total GULP energy -396726.692875 kJ/mol
# GULP energy per Si atom -12397.709152 kJ/mol
# Density = 2.128756 g / cm^3
# Si number density = 21.336125 Si / 1000 Ang^3
#
#
#
# Elastic Constant Matrix: (Units=GPa)
#
#
# Indices 1 2 3 4 5 6 
#
# 1 104.4594 38.7276 20.4077 0.0000 0.0000 0.0000
# 2 38.7276 120.3723 20.9231 0.0000 0.0000 0.0000
# 3 20.4077 20.9231 45.0385 0.0000 0.0000 0.0000
# 4 0.0000 0.0000 0.0000 14.7960 0.0000 0.0000
# 5 0.0000 0.0000 0.0000 0.0000 33.0079 0.0000
# 6 0.0000 0.0000 0.0000 0.0000 0.0000 27.4954
#
#
#
# Elastic Compliance Matrix: (Units=1/GPa)
#
#
# Indices 1 2 3 4 5 6 
#
# 1 0.011431 -0.003021 -0.003776 0.000000 0.000000 0.000000
# 2 -0.003021 0.009836 -0.003200 0.000000 0.000000 0.000000
# 3 -0.003776 -0.003200 0.025401 0.000000 0.000000 0.000000
# 4 0.000000 0.000000 0.000000 0.067586 0.000000 0.000000
# 5 0.000000 0.000000 0.000000 0.000000 0.030296 0.000000
# 6 0.000000 0.000000 0.000000 0.000000 0.000000 0.036370
#
#
# Mechanical properties :
#
#
# Convention : Reuss Voigt Hill
#
# Bulk Modulus (GPa) = 37.49184 47.77633 42.63408
# Shear Modulus (GPa) = 23.83163 27.71398 25.77281
#
# Velocity S-wave (km/s) = 3.34572 3.60797 3.47932
# Velocity P-wave (km/s) = 5.70397 6.30852 6.01385
#
# Compressibility (1/GPa) = 0.02667247
#
# Stress axis : x y z
#
# Youngs Moduli (GPa) = 87.48200 101.66831 39.36868
#
# Poissons Ratio (x) = 0.30718 0.14865
# Poissons Ratio (y) = 0.26431 0.12599
# Poissons Ratio (z) = 0.33033 0.32537
#
# Static dielectric constant tensor:
#      x y z
#    x 4.008850 0.000000 0.000000 
#    y 0.000000 3.982140 0.000000 
#    z 0.000000 0.000000 3.384930 
# 
# 
# High freq. dielectric constant tensor:
#      x y z
#    x 1.846530 0.000000 0.000000 
#    y 0.000000 1.836030 0.000000 
#    z 0.000000 0.000000 1.797800 
# 
# From -- ./inp_files/11941.got.cif
#   From: 2010.03.12/outbox.cif.g09.slc.cpg/sg39_6_cif.got.tgz:11941.got - 2010.04.14 02:53:20.
