data_PCOD8181792
_publ_section_title
;
Structure prediction by ZEFSAII (Michael W. Deem and Ramdas Pophale) SiO2 
 PCOD8181792
Probable space group: A B M 2
;
_chemical_formula_sum "Si O2"
_cell_formula_units_Z 64
_cell_length_a 10.903144
_cell_length_b 28.633358
_cell_length_c 9.747018
_cell_angle_alpha 90.000000
_cell_angle_beta 90.000000
_cell_angle_gamma 90.000000
_cell_volume 3042.956887
_symmetry_space_group_name_H-M "A B M 2"
_symmetry_group_IT_number 39
_symmetry_cell_setting 'orthorhombic'
loop_
_space_group_symop_operation_xyz
x,y,z
-x,-y,z
-x,1/2+y,z
x,1/2-y,z
x,1/2+y,1/2+z
-x,1/2-y,1/2+z
-x,y,1/2+z
x,-y,1/2+z
loop_
_atom_site_type_symbol
_atom_site_label
_atom_site_fract_x
_atom_site_fract_y
_atom_site_fract_z
Si Si1 0.135582 0.020806 0.655070
Si Si2 0.777843 0.948286 0.943654
Si Si3 0.007024 0.604923 0.043842
Si Si4 0.749678 0.802535 0.740505
Si Si5 0.364473 0.359240 0.970619
Si Si6 0.978775 0.335304 0.794986
Si Si7 0.603280 0.803863 0.477389
Si Si8 0.263282 0.301268 0.202535
O O1 0.214123 0.028614 0.793066
O O2 0.117367 0.068009 0.566376
O O3 0.219556 0.986900 0.562864
O O4 0.000000 0.000000 0.688504
O O5 0.656016 0.915503 0.961018
O O6 0.896695 0.916152 0.955896
O O7 0.964601 0.620204 0.194823
O O8 0.049142 0.648620 0.950998
O O9 0.717873 0.750000 0.786203
O O10 0.717259 0.810516 0.581042
O O11 0.890900 0.811580 0.772078
O O12 0.663871 0.837732 0.822950
O O13 0.499361 0.342053 0.015947
O O14 0.269122 0.339034 0.081902
O O15 0.875205 0.297909 0.757883
O O16 0.554943 0.750000 0.486352
O O17 0.646354 0.815966 0.324747
O O18 0.299233 0.250000 0.146703
#
# Coordination Sequence:
#
# PCOD8181792 Si02
#       8
#     8   8   8   8   8   8   8   8
#     4  10  21  36  60  88 128 160 195 257 325 389
#     4  11  22  37  58  91 121 154 205 256 316 375
#     4  11  20  35  56  87 130 158 197 250 309 383
#     4  11  22  38  60  88 129 172 209 257 310 366
#     4  12  22  39  61  89 120 158 217 270 305 366
#     4  12  21  36  58  94 131 164 204 252 317 375
#     4  10  23  41  62  90 124 170 221 259 300 360
#     4  11  23  38  59  89 127 169 211 256 308 367
#
# _framework density 21.032174000000001
#
# number of rings (size 3 to 8) (size 9 to 14) (size 15 to 20)
#    0.000    1.000    3.750    4.125    1.750    2.000 
#    0.000    3.750    0.000    0.000    0.000   28.000 
#    0.000    0.000    0.000    0.000    0.000    0.000 
#
# Total GULP energy -396765.486520 kJ/mol
# GULP energy per Si atom -12398.921454 kJ/mol
# Density = 2.098430 g / cm^3
# Si number density = 21.032174 Si / 1000 Ang^3
#
#
#
# Elastic Constant Matrix: (Units=GPa)
#
#
# Indices 1 2 3 4 5 6 
#
# 1 77.1791 31.0549 21.1460 0.0000 0.0000 0.0000
# 2 31.0549 97.3939 49.3148 0.0000 0.0000 0.0000
# 3 21.1460 49.3148 113.1756 0.0000 0.0000 0.0000
# 4 0.0000 0.0000 0.0000 34.4674 0.0000 0.0000
# 5 0.0000 0.0000 0.0000 0.0000 21.7647 0.0000
# 6 0.0000 0.0000 0.0000 0.0000 0.0000 32.9265
#
#
#
# Elastic Compliance Matrix: (Units=1/GPa)
#
#
# Indices 1 2 3 4 5 6 
#
# 1 0.014938 -0.004298 -0.000918 0.000000 0.000000 0.000000
# 2 -0.004298 0.014411 -0.005476 0.000000 0.000000 0.000000
# 3 -0.000918 -0.005476 0.011394 0.000000 0.000000 0.000000
# 4 0.000000 0.000000 0.000000 0.029013 0.000000 0.000000
# 5 0.000000 0.000000 0.000000 0.000000 0.045946 0.000000
# 6 0.000000 0.000000 0.000000 0.000000 0.000000 0.030371
#
#
# Mechanical properties :
#
#
# Convention : Reuss Voigt Hill
#
# Bulk Modulus (GPa) = 51.66035 54.53111 53.09573
# Shear Modulus (GPa) = 28.75053 30.24725 29.49889
#
# Velocity S-wave (km/s) = 3.70128 3.79640 3.74914
# Velocity P-wave (km/s) = 6.54842 6.72314 6.63636
#
# Compressibility (1/GPa) = 0.01935720
#
# Stress axis : x y z
#
# Youngs Moduli (GPa) = 66.94369 69.39146 87.76848
#
# Poissons Ratio (x) = 0.29826 0.08059
# Poissons Ratio (y) = 0.28774 0.48065
# Poissons Ratio (z) = 0.06146 0.38001
#
# Static dielectric constant tensor:
#      x y z
#    x 3.503730 0.000000 0.000000 
#    y 0.000000 3.850370 0.000000 
#    z 0.000000 0.000000 3.843690 
# 
# 
# High freq. dielectric constant tensor:
#      x y z
#    x 1.791940 0.000000 0.000000 
#    y 0.000000 1.815570 0.000000 
#    z 0.000000 0.000000 1.840120 
# 
# From -- ./inp_files/2916.got.cif
#   From: 2010.03.12/outbox.cif.g09.slc.cpg/sg39_2_cif.got.tgz:2916.got - 2010.04.14 02:53:20.
