data_PCOD8181021
_publ_section_title
;
Structure prediction by ZEFSAII (Michael W. Deem and Ramdas Pophale) SiO2 
 PCOD8181021
Probable space group: A B M 2
;
_chemical_formula_sum "Si O2"
_cell_formula_units_Z 48
_cell_length_a 8.943622
_cell_length_b 27.589857
_cell_length_c 9.657773
_cell_angle_alpha 90.000000
_cell_angle_beta 90.000000
_cell_angle_gamma 90.000000
_cell_volume 2383.086895
_symmetry_space_group_name_H-M "A B M 2"
_symmetry_group_IT_number 39
_symmetry_cell_setting 'orthorhombic'
loop_
_space_group_symop_operation_xyz
x,y,z
-x,-y,z
-x,1/2+y,z
x,1/2-y,z
x,1/2+y,1/2+z
-x,1/2-y,1/2+z
-x,y,1/2+z
x,-y,1/2+z
loop_
_atom_site_type_symbol
_atom_site_label
_atom_site_fract_x
_atom_site_fract_y
_atom_site_fract_z
Si Si1 0.500000 0.000000 0.730330
Si Si2 0.242538 0.566953 0.134792
Si Si3 0.636040 0.854782 0.824513
Si Si4 0.000000 0.000000 0.739135
Si Si5 0.660350 0.750000 0.156127
Si Si6 0.252941 0.934304 0.834631
Si Si7 0.390536 0.750000 0.350524
Si Si8 0.333897 0.144991 0.146295
O O1 0.621689 0.971643 0.638636
O O2 0.414118 0.960409 0.822711
O O3 0.249669 0.607938 0.253763
O O4 0.084840 0.539535 0.146089
O O5 0.248710 0.592098 0.983809
O O6 0.698517 0.799267 0.809840
O O7 0.478779 0.857691 0.745342
O O8 0.621950 0.867785 0.988016
O O9 0.122420 0.974061 0.834893
O O10 0.552359 0.750000 0.284928
O O11 0.748118 0.801806 0.158440
O O12 0.568077 0.750000 0.012920
O O13 0.224824 0.895850 0.709743
#
# Coordination Sequence:
#
# PCOD8181021 Si02
#       8
#     4   8   8   4   4   8   4   8
#     4  10  22  34  56  82 114 138 186 230 282 332
#     4  11  22  38  58  82 112 147 188 233 282 333
#     4  10  19  32  54  83 115 147 183 226 275 330
#     4  10  26  42  56  78 110 150 196 232 282 332
#     4   8  16  30  48  77 114 147 176 218 274 328
#     4  11  22  38  58  82 112 147 188 233 282 333
#     4   8  16  30  48  77 114 147 176 218 274 328
#     4  10  19  32  54  83 115 147 183 226 275 330
#
# _framework density 20.141943000000001
#
# number of rings (size 3 to 8) (size 9 to 14) (size 15 to 20)
#    0.000    2.000    1.667    2.000    0.000    8.000 
#    0.000    0.000    0.000    1.000    0.000    0.000 
#    0.000    0.000    0.000    0.000    0.000    0.000 
#
# Total GULP energy -297313.676406 kJ/mol
# GULP energy per Si atom -12388.069850 kJ/mol
# Density = 2.009610 g / cm^3
# Si number density = 20.141943 Si / 1000 Ang^3
#
#
#
# Elastic Constant Matrix: (Units=GPa)
#
#
# Indices 1 2 3 4 5 6 
#
# 1 59.8901 17.5637 11.9882 0.0000 0.0000 0.0000
# 2 17.5637 122.7135 49.6431 0.0000 0.0000 0.0000
# 3 11.9882 49.6431 140.8294 0.0000 0.0000 0.0000
# 4 0.0000 0.0000 0.0000 24.3428 0.0000 0.0000
# 5 0.0000 0.0000 0.0000 0.0000 10.5861 0.0000
# 6 0.0000 0.0000 0.0000 0.0000 0.0000 19.7044
#
#
#
# Elastic Compliance Matrix: (Units=1/GPa)
#
#
# Indices 1 2 3 4 5 6 
#
# 1 0.017489 -0.002217 -0.000707 0.000000 0.000000 0.000000
# 2 -0.002217 0.009785 -0.003261 0.000000 0.000000 0.000000
# 3 -0.000707 -0.003261 0.008310 0.000000 0.000000 0.000000
# 4 0.000000 0.000000 0.000000 0.041080 0.000000 0.000000
# 5 0.000000 0.000000 0.000000 0.000000 0.094464 0.000000
# 6 0.000000 0.000000 0.000000 0.000000 0.000000 0.050750
#
#
# Mechanical properties :
#
#
# Convention : Reuss Voigt Hill
#
# Bulk Modulus (GPa) = 43.07577 53.53588 48.30582
# Shear Modulus (GPa) = 20.66228 27.20920 23.93574
#
# Velocity S-wave (km/s) = 3.20634 3.67941 3.45099
# Velocity P-wave (km/s) = 5.92790 6.68489 6.31774
#
# Compressibility (1/GPa) = 0.02321491
#
# Stress axis : x y z
#
# Youngs Moduli (GPa) = 57.17881 102.19220 120.33096
#
# Poissons Ratio (x) = 0.22656 0.08510
# Poissons Ratio (y) = 0.12677 0.39236
# Poissons Ratio (z) = 0.04044 0.33322
#
# Static dielectric constant tensor:
#      x y z
#    x 3.234960 0.000000 0.000000 
#    y 0.000000 4.336070 0.000000 
#    z 0.000000 0.000000 3.676710 
# 
# 
# High freq. dielectric constant tensor:
#      x y z
#    x 1.725680 0.000000 0.000000 
#    y 0.000000 1.804350 0.000000 
#    z 0.000000 0.000000 1.796810 
# 
# From -- ./inp_files/2354.got.cif
#   From: 2010.03.12/outbox.cif.g09.slc.cpg/sg39_2_cif.got.tgz:2354.got - 2010.04.14 02:53:20.
