data_PCOD8181095
_publ_section_title
;
Structure prediction by ZEFSAII (Michael W. Deem and Ramdas Pophale) SiO2 
 PCOD8181095
Probable space group: A B M 2
;
_chemical_formula_sum "Si O2"
_cell_formula_units_Z 64
_cell_length_a 19.123511
_cell_length_b 9.036514
_cell_length_c 20.439245
_cell_angle_alpha 90.000000
_cell_angle_beta 90.000000
_cell_angle_gamma 90.000000
_cell_volume 3532.103371
_symmetry_space_group_name_H-M "A B M 2"
_symmetry_group_IT_number 39
_symmetry_cell_setting 'orthorhombic'
loop_
_space_group_symop_operation_xyz
x,y,z
-x,-y,z
-x,1/2+y,z
x,1/2-y,z
x,1/2+y,1/2+z
-x,1/2-y,1/2+z
-x,y,1/2+z
x,-y,1/2+z
loop_
_atom_site_type_symbol
_atom_site_label
_atom_site_fract_x
_atom_site_fract_y
_atom_site_fract_z
Si Si1 0.280620 0.575204 0.688930
Si Si2 0.931060 0.422039 0.004057
Si Si3 0.283415 0.920715 0.449645
Si Si4 0.433249 0.080547 0.993451
Si Si5 0.430127 0.924082 0.642207
Si Si6 0.070191 0.423891 0.867490
Si Si7 0.212083 0.420135 0.568232
Si Si8 0.783055 0.579295 0.812074
O O1 0.275801 0.750000 0.683576
O O2 0.361444 0.523523 0.682025
O O3 0.233069 0.510672 0.631688
O O4 0.250451 0.523462 0.757662
O O5 0.945568 0.250000 0.988778
O O6 0.870691 0.440940 0.057624
O O7 0.000000 0.500000 0.033488
O O8 0.909817 0.503244 0.936783
O O9 0.266382 0.750000 0.467100
O O10 0.366545 0.948569 0.447818
O O11 0.252983 0.965411 0.379937
O O12 0.251281 0.024607 0.504194
O O13 0.453676 0.250000 0.996438
O O14 0.500000 0.000000 0.961998
O O15 0.418081 0.024068 0.067263
O O16 0.440405 0.750000 0.648000
O O17 0.500000 0.000000 0.671387
O O18 0.057504 0.250000 0.878268
O O19 0.133796 0.450718 0.817210
O O20 0.000000 0.500000 0.838761
O O21 0.231849 0.250000 0.579492
O O22 0.768337 0.750000 0.794726
#
# Coordination Sequence:
#
# PCOD8181095 Si02
#       8
#     8   8   8   8   8   8   8   8
#     4  11  23  39  58  81 113 150 188 232 280 331
#     4  10  20  33  53  83 114 144 182 229 277 328
#     4  10  19  36  58  80 111 147 182 224 278 331
#     4   9  17  31  52  79 110 141 181 226 273 329
#     4   9  18  33  54  80 107 140 182 226 273 331
#     4  10  19  33  56  82 111 146 184 227 275 330
#     4  11  22  35  56  85 113 141 183 232 275 328
#     4  10  22  38  57  82 113 151 188 228 279 332
#
# _framework density 18.119513999999999
#
# number of rings (size 3 to 8) (size 9 to 14) (size 15 to 20)
#    0.000    2.000    2.500    2.250    0.000    4.500 
#    0.000    1.250    0.000    3.000    0.000    0.000 
#    0.000    0.000    0.000    0.000    0.000    0.000 
#
# Total GULP energy -396812.468711 kJ/mol
# GULP energy per Si atom -12400.389647 kJ/mol
# Density = 1.807827 g / cm^3
# Si number density = 18.119514 Si / 1000 Ang^3
#
#
#
# Elastic Constant Matrix: (Units=GPa)
#
#
# Indices 1 2 3 4 5 6 
#
# 1 126.4292 53.3124 48.8104 0.0000 0.0000 0.0000
# 2 53.3124 86.6534 38.0197 0.0000 0.0000 0.0000
# 3 48.8104 38.0197 73.4436 0.0000 0.0000 0.0000
# 4 0.0000 0.0000 0.0000 29.2851 0.0000 0.0000
# 5 0.0000 0.0000 0.0000 0.0000 24.8901 0.0000
# 6 0.0000 0.0000 0.0000 0.0000 0.0000 33.3772
#
#
#
# Elastic Compliance Matrix: (Units=1/GPa)
#
#
# Indices 1 2 3 4 5 6 
#
# 1 0.012159 -0.005091 -0.005445 0.000000 0.000000 0.000000
# 2 -0.005091 0.017064 -0.005450 0.000000 0.000000 0.000000
# 3 -0.005445 -0.005450 0.020056 0.000000 0.000000 0.000000
# 4 0.000000 0.000000 0.000000 0.034147 0.000000 0.000000
# 5 0.000000 0.000000 0.000000 0.000000 0.040177 0.000000
# 6 0.000000 0.000000 0.000000 0.000000 0.000000 0.029961
#
#
# Mechanical properties :
#
#
# Convention : Reuss Voigt Hill
#
# Bulk Modulus (GPa) = 57.78324 62.97902 60.38113
# Shear Modulus (GPa) = 26.13656 27.26940 26.70298
#
# Velocity S-wave (km/s) = 3.80209 3.88361 3.84306
# Velocity P-wave (km/s) = 7.15778 7.41235 7.28617
#
# Compressibility (1/GPa) = 0.01730606
#
# Stress axis : x y z
#
# Youngs Moduli (GPa) = 82.24614 58.60375 49.86122
#
# Poissons Ratio (x) = 0.29838 0.27149
# Poissons Ratio (y) = 0.41875 0.27173
# Poissons Ratio (z) = 0.44782 0.31937
#
# Static dielectric constant tensor:
#      x y z
#    x 3.640070 0.000000 0.000000 
#    y 0.000000 3.392830 0.000000 
#    z 0.000000 0.000000 3.194910 
# 
# 
# High freq. dielectric constant tensor:
#      x y z
#    x 1.719290 0.000000 0.000000 
#    y 0.000000 1.708440 0.000000 
#    z 0.000000 0.000000 1.667650 
# 
# From -- ./inp_files/13188.got.cif
#   From: 2010.03.12/outbox.cif.g09.slc.cpg/sg39_7_cif.got.tgz:13188.got - 2010.04.14 02:53:20.
