data_PCOD8181410
_publ_section_title
;
Structure prediction by ZEFSAII (Michael W. Deem and Ramdas Pophale) SiO2 
 PCOD8181410
Probable space group: A B M 2
;
_chemical_formula_sum "Si O2"
_cell_formula_units_Z 60
_cell_length_a 12.152268
_cell_length_b 25.503549
_cell_length_c 8.834889
_cell_angle_alpha 90.000000
_cell_angle_beta 90.000000
_cell_angle_gamma 90.000000
_cell_volume 2738.161476
_symmetry_space_group_name_H-M "A B M 2"
_symmetry_group_IT_number 39
_symmetry_cell_setting 'orthorhombic'
loop_
_space_group_symop_operation_xyz
x,y,z
-x,-y,z
-x,1/2+y,z
x,1/2-y,z
x,1/2+y,1/2+z
-x,1/2-y,1/2+z
-x,y,1/2+z
x,-y,1/2+z
loop_
_atom_site_type_symbol
_atom_site_label
_atom_site_fract_x
_atom_site_fract_y
_atom_site_fract_z
Si Si1 0.785811 0.954930 0.349730
Si Si2 0.065657 0.106310 0.938820
Si Si3 0.000000 0.500000 0.884695
Si Si4 0.710848 0.115066 0.594872
Si Si5 0.858860 0.113608 0.105679
Si Si6 0.396565 0.460939 0.862194
Si Si7 0.548461 0.810814 0.982517
Si Si8 0.623718 0.359701 0.176763
O O1 0.738434 0.904543 0.262031
O O2 0.804488 0.937714 0.524910
O O3 0.903314 0.973807 0.282974
O O4 0.707567 0.003748 0.329898
O O5 0.073524 0.102756 0.757691
O O6 0.177589 0.129156 0.005761
O O7 0.051490 0.045659 0.992089
O O8 0.953788 0.137503 0.992009
O O9 0.631724 0.072576 0.511876
O O10 0.643242 0.169330 0.599391
O O11 0.754045 0.150056 0.146615
O O12 0.500000 0.500000 0.884048
O O13 0.407727 0.419945 0.722336
O O14 0.527700 0.750000 0.009593
O O15 0.584717 0.821290 0.810756
O O16 0.438143 0.843538 0.022733
#
# Coordination Sequence:
#
# PCOD8181410 Si02
#       8
#     8   8   4   8   8   8   8   8
#     4  11  24  36  62  94 147 191 229 273 331 413
#     4  11  21  40  60  94 138 185 233 278 337 401
#     4  10  20  34  56  90 130 186 228 258 312 404
#     4  11  24  40  63 101 136 183 235 289 345 421
#     4  11  24  41  64  98 140 187 232 287 332 415
#     4  11  24  38  60  95 145 190 227 276 340 419
#     4  11  25  48  77 100 134 180 236 303 367 427
#     4  11  25  46  68 107 140 179 237 293 356 431
#
# _framework density 21.912512
#
# number of rings (size 3 to 8) (size 9 to 14) (size 15 to 20)
#    0.000    1.067    4.000    2.800    9.333    3.200 
#    0.000    0.000    0.000    1.600    0.000    0.000 
#    0.000    0.000    0.000    0.000    0.000    0.000 
#
# Total GULP energy -371648.907650 kJ/mol
# GULP energy per Si atom -12388.296922 kJ/mol
# Density = 2.186264 g / cm^3
# Si number density = 21.912512 Si / 1000 Ang^3
#
#
#
# Elastic Constant Matrix: (Units=GPa)
#
#
# Indices 1 2 3 4 5 6 
#
# 1 170.4971 52.4653 49.6611 0.0000 0.0000 0.0000
# 2 52.4653 68.6923 32.2702 0.0000 0.0000 0.0000
# 3 49.6611 32.2702 104.4377 0.0000 0.0000 0.0000
# 4 0.0000 0.0000 0.0000 15.7714 0.0000 0.0000
# 5 0.0000 0.0000 0.0000 0.0000 41.3500 0.0000
# 6 0.0000 0.0000 0.0000 0.0000 0.0000 19.3202
#
#
#
# Elastic Compliance Matrix: (Units=1/GPa)
#
#
# Indices 1 2 3 4 5 6 
#
# 1 0.008103 -0.005122 -0.002270 0.000000 0.000000 0.000000
# 2 -0.005122 0.020268 -0.003827 0.000000 0.000000 0.000000
# 3 -0.002270 -0.003827 0.011837 0.000000 0.000000 0.000000
# 4 0.000000 0.000000 0.000000 0.063406 0.000000 0.000000
# 5 0.000000 0.000000 0.000000 0.000000 0.024184 0.000000
# 6 0.000000 0.000000 0.000000 0.000000 0.000000 0.051759
#
#
# Mechanical properties :
#
#
# Convention : Reuss Voigt Hill
#
# Bulk Modulus (GPa) = 56.27803 68.04672 62.16237
# Shear Modulus (GPa) = 24.04801 29.23702 26.64251
#
# Velocity S-wave (km/s) = 3.31638 3.65672 3.49070
# Velocity P-wave (km/s) = 6.35636 6.99643 6.68406
#
# Compressibility (1/GPa) = 0.01776892
#
# Stress axis : x y z
#
# Youngs Moduli (GPa) = 123.41703 49.33994 84.48039
#
# Poissons Ratio (x) = 0.25272 0.19179
# Poissons Ratio (y) = 0.63215 0.32330
# Poissons Ratio (z) = 0.28018 0.18882
#
# Static dielectric constant tensor:
#      x y z
#    x 4.610160 0.000000 0.000000 
#    y 0.000000 3.562960 0.000000 
#    z 0.000000 0.000000 3.921360 
# 
# 
# High freq. dielectric constant tensor:
#      x y z
#    x 1.892200 0.000000 0.000000 
#    y 0.000000 1.797910 0.000000 
#    z 0.000000 0.000000 1.860190 
# 
# From -- ./inp_files/2843.got.cif
#   From: 2010.03.12/outbox.cif.g09.slc.cpg/sg39_2_cif.got.tgz:2843.got - 2010.04.14 02:53:20.
