data_PCOD8181470
_publ_section_title
;
Structure prediction by ZEFSAII (Michael W. Deem and Ramdas Pophale) SiO2 
 PCOD8181470
Probable space group: A B M 2
;
_chemical_formula_sum "Si O2"
_cell_formula_units_Z 48
_cell_length_a 19.083417
_cell_length_b 8.491835
_cell_length_c 15.023753
_cell_angle_alpha 90.000000
_cell_angle_beta 90.000000
_cell_angle_gamma 90.000000
_cell_volume 2434.647676
_symmetry_space_group_name_H-M "A B M 2"
_symmetry_group_IT_number 39
_symmetry_cell_setting 'orthorhombic'
loop_
_space_group_symop_operation_xyz
x,y,z
-x,-y,z
-x,1/2+y,z
x,1/2-y,z
x,1/2+y,1/2+z
-x,1/2-y,1/2+z
-x,y,1/2+z
x,-y,1/2+z
loop_
_atom_site_type_symbol
_atom_site_label
_atom_site_fract_x
_atom_site_fract_y
_atom_site_fract_z
Si Si1 0.073737 0.064741 0.300140
Si Si2 0.073528 0.063830 0.100376
Si Si3 0.425746 0.434692 0.606860
Si Si4 0.576616 0.935863 0.297962
Si Si5 0.666464 0.934678 0.953517
Si Si6 0.172867 0.564532 0.445975
O O1 0.068983 0.250000 0.300090
O O2 0.087244 0.999405 0.200129
O O3 0.138425 0.011571 0.359525
O O4 0.000000 0.000000 0.337733
O O5 0.070783 0.250000 0.100398
O O6 0.134811 0.002518 0.035407
O O7 0.000000 0.000000 0.063144
O O8 0.500000 0.500000 0.571859
O O9 0.432352 0.250000 0.626995
O O10 0.403513 0.524388 0.696616
O O11 0.368482 0.466085 0.532107
O O12 0.579229 0.750000 0.314360
O O13 0.500000 0.000000 0.322135
O O14 0.632545 0.022563 0.359522
O O15 0.658055 0.750000 0.973094
O O16 0.746864 0.987996 0.950340
O O17 0.165315 0.750000 0.436636
#
# Coordination Sequence:
#
# PCOD8181470 Si02
#       6
#     8   8   8   8   8   8
#     4  10  20  35  57  82 110 143 185 231 278 331
#     4   9  19  36  56  80 107 141 181 225 273 324
#     4  11  22  39  62  88 115 148 191 237 285 340
#     4  11  22  39  62  87 114 148 191 239 287 339
#     4  11  23  39  57  83 119 156 190 233 287 344
#     4  10  22  38  56  80 113 148 184 227 279 332
#
# _framework density 19.715378000000001
#
# number of rings (size 3 to 8) (size 9 to 14) (size 15 to 20)
#    0.000    1.667    0.000    6.000    0.000    5.333 
#    0.000    1.667    0.000    0.000    0.000    0.000 
#    0.000    0.000    0.000    0.000    0.000    0.000 
#
# Total GULP energy -297710.902006 kJ/mol
# GULP energy per Si atom -12404.620917 kJ/mol
# Density = 1.967051 g / cm^3
# Si number density = 19.715378 Si / 1000 Ang^3
#
#
#
# Elastic Constant Matrix: (Units=GPa)
#
#
# Indices 1 2 3 4 5 6 
#
# 1 148.7447 28.8531 79.9283 0.0000 0.0000 0.0000
# 2 28.8531 50.0063 15.7786 0.0000 0.0000 0.0000
# 3 79.9283 15.7786 109.6668 0.0000 0.0000 0.0000
# 4 0.0000 0.0000 0.0000 29.8150 0.0000 0.0000
# 5 0.0000 0.0000 0.0000 0.0000 8.8823 0.0000
# 6 0.0000 0.0000 0.0000 0.0000 0.0000 29.5557
#
#
#
# Elastic Compliance Matrix: (Units=1/GPa)
#
#
# Indices 1 2 3 4 5 6 
#
# 1 0.011879 -0.004318 -0.008036 0.000000 0.000000 0.000000
# 2 -0.004318 0.022518 -0.000093 0.000000 0.000000 0.000000
# 3 -0.008036 -0.000093 0.014989 0.000000 0.000000 0.000000
# 4 0.000000 0.000000 0.000000 0.033540 0.000000 0.000000
# 5 0.000000 0.000000 0.000000 0.000000 0.112584 0.000000
# 6 0.000000 0.000000 0.000000 0.000000 0.000000 0.033834
#
#
# Mechanical properties :
#
#
# Convention : Reuss Voigt Hill
#
# Bulk Modulus (GPa) = 40.83016 61.94862 51.38939
# Shear Modulus (GPa) = 19.05464 25.90778 22.48121
#
# Velocity S-wave (km/s) = 3.11221 3.62897 3.38048
# Velocity P-wave (km/s) = 5.80252 7.00349 6.43110
#
# Compressibility (1/GPa) = 0.02449170
#
# Stress axis : x y z
#
# Youngs Moduli (GPa) = 84.18233 44.40835 66.71540
#
# Poissons Ratio (x) = 0.19177 0.53615
# Poissons Ratio (y) = 0.36352 0.00618
# Poissons Ratio (z) = 0.67653 0.00411
#
# Static dielectric constant tensor:
#      x y z
#    x 3.656770 0.000000 0.000000 
#    y 0.000000 3.602810 0.000000 
#    z 0.000000 0.000000 3.798950 
# 
# 
# High freq. dielectric constant tensor:
#      x y z
#    x 1.764580 0.000000 0.000000 
#    y 0.000000 1.773240 0.000000 
#    z 0.000000 0.000000 1.780330 
# 
# From -- ./inp_files/10042.got.cif
#   From: 2010.03.12/outbox.cif.g09.slc.cpg/sg39_6_cif.got.tgz:10042.got - 2010.04.14 02:53:20.
