data_PCOD8181205
_publ_section_title
;
Structure prediction by ZEFSAII (Michael W. Deem and Ramdas Pophale) SiO2 
 PCOD8181205
Probable space group: A B M 2
;
_chemical_formula_sum "Si O2"
_cell_formula_units_Z 64
_cell_length_a 10.293561
_cell_length_b 17.813258
_cell_length_c 18.045858
_cell_angle_alpha 90.000000
_cell_angle_beta 90.000000
_cell_angle_gamma 90.000000
_cell_volume 3308.922049
_symmetry_space_group_name_H-M "A B M 2"
_symmetry_group_IT_number 39
_symmetry_cell_setting 'orthorhombic'
loop_
_space_group_symop_operation_xyz
x,y,z
-x,-y,z
-x,1/2+y,z
x,1/2-y,z
x,1/2+y,1/2+z
-x,1/2-y,1/2+z
-x,y,1/2+z
x,-y,1/2+z
loop_
_atom_site_type_symbol
_atom_site_label
_atom_site_fract_x
_atom_site_fract_y
_atom_site_fract_z
Si Si1 0.261191 0.163288 0.540660
Si Si2 0.990903 0.914547 0.202160
Si Si3 0.502540 0.337862 0.934610
Si Si4 0.746596 0.161443 0.210673
Si Si5 0.993722 0.583871 0.526202
Si Si6 0.498365 0.911007 0.280740
Si Si7 0.248871 0.837628 0.520239
Si Si8 0.728601 0.160879 0.690485
O O1 0.223265 0.250000 0.537705
O O2 0.391404 0.144595 0.496997
O O3 0.282809 0.138785 0.625679
O O4 0.142684 0.119687 0.501529
O O5 0.856122 0.876330 0.228095
O O6 0.110640 0.866791 0.234822
O O7 0.996621 0.911332 0.114122
O O8 0.000000 0.000000 0.231247
O O9 0.502412 0.250000 0.913255
O O10 0.535586 0.387919 0.863899
O O11 0.365102 0.364255 0.967584
O O12 0.736569 0.250000 0.223850
O O13 0.644127 0.119917 0.262666
O O14 0.000000 0.500000 0.495875
O O15 0.115893 0.626320 0.490325
O O16 0.600632 0.873142 0.226156
O O17 0.500000 0.000000 0.271547
O O18 0.229308 0.750000 0.515688
O O19 0.279664 0.861319 0.604319
O O20 0.733289 0.250000 0.702881
#
# Coordination Sequence:
#
# PCOD8181205 Si02
#       8
#     8   8   8   8   8   8   8   8
#     4   9  18  34  58  83 106 135 176 221 264 312
#     4   9  17  31  52  83 116 141 170 216 268 317
#     4  10  21  38  56  76 104 140 181 224 266 316
#     4  10  19  35  59  84 108 140 180 221 265 319
#     4   9  17  29  50  81 114 141 168 208 262 317
#     4  12  25  38  52  76 110 146 181 224 272 318
#     4   9  18  34  58  83 106 135 176 221 264 312
#     4  10  19  35  59  84 108 140 180 221 265 319
#
# _framework density 19.341646000000001
#
# number of rings (size 3 to 8) (size 9 to 14) (size 15 to 20)
#    0.000    2.250    0.000    3.375    0.000    7.000 
#    0.000    2.500    0.000    4.500    0.000    0.000 
#    0.000    0.000    0.000    0.000    0.000    0.000 
#
# Total GULP energy -396864.382393 kJ/mol
# GULP energy per Si atom -12402.011950 kJ/mol
# Density = 1.929762 g / cm^3
# Si number density = 19.341646 Si / 1000 Ang^3
#
#
#
# Elastic Constant Matrix: (Units=GPa)
#
#
# Indices 1 2 3 4 5 6 
#
# 1 101.9591 29.8794 8.5717 0.0000 0.0000 0.0000
# 2 29.8794 79.9157 17.0432 0.0000 0.0000 0.0000
# 3 8.5717 17.0432 37.7423 0.0000 0.0000 0.0000
# 4 0.0000 0.0000 0.0000 19.0030 0.0000 0.0000
# 5 0.0000 0.0000 0.0000 0.0000 6.2621 0.0000
# 6 0.0000 0.0000 0.0000 0.0000 0.0000 30.8152
#
#
#
# Elastic Compliance Matrix: (Units=1/GPa)
#
#
# Indices 1 2 3 4 5 6 
#
# 1 0.011032 -0.003973 -0.000711 0.000000 0.000000 0.000000
# 2 -0.003973 0.015277 -0.005996 0.000000 0.000000 0.000000
# 3 -0.000711 -0.005996 0.029365 0.000000 0.000000 0.000000
# 4 0.000000 0.000000 0.000000 0.052623 0.000000 0.000000
# 5 0.000000 0.000000 0.000000 0.000000 0.159691 0.000000
# 6 0.000000 0.000000 0.000000 0.000000 0.000000 0.032451
#
#
# Mechanical properties :
#
#
# Convention : Reuss Voigt Hill
#
# Bulk Modulus (GPa) = 29.14390 36.73398 32.93894
# Shear Modulus (GPa) = 15.00424 22.15759 18.58092
#
# Velocity S-wave (km/s) = 2.78825 3.38833 3.10283
# Velocity P-wave (km/s) = 5.04643 5.86013 5.46843
#
# Compressibility (1/GPa) = 0.03431250
#
# Stress axis : x y z
#
# Youngs Moduli (GPa) = 90.64575 65.45589 34.05430
#
# Poissons Ratio (x) = 0.26005 0.02423
# Poissons Ratio (y) = 0.36013 0.20421
# Poissons Ratio (z) = 0.06449 0.39251
#
# Static dielectric constant tensor:
#      x y z
#    x 3.780070 0.000000 0.000000 
#    y 0.000000 3.592210 0.000000 
#    z 0.000000 0.000000 3.265080 
# 
# 
# High freq. dielectric constant tensor:
#      x y z
#    x 1.770970 0.000000 0.000000 
#    y 0.000000 1.755630 0.000000 
#    z 0.000000 0.000000 1.716300 
# 
# From -- ./inp_files/11950.got.cif
#   From: 2010.03.12/outbox.cif.g09.slc.cpg/sg39_6_cif.got.tgz:11950.got - 2010.04.14 02:53:20.
