data_PCOD8181259
_publ_section_title
;
Structure prediction by ZEFSAII (Michael W. Deem and Ramdas Pophale) SiO2 
 PCOD8181259
Probable space group: A B M 2
;
_chemical_formula_sum "Si O2"
_cell_formula_units_Z 48
_cell_length_a 5.005797
_cell_length_b 26.950961
_cell_length_c 17.490750
_cell_angle_alpha 90.000000
_cell_angle_beta 90.000000
_cell_angle_gamma 90.000000
_cell_volume 2359.695268
_symmetry_space_group_name_H-M "A B M 2"
_symmetry_group_IT_number 39
_symmetry_cell_setting 'orthorhombic'
loop_
_space_group_symop_operation_xyz
x,y,z
-x,-y,z
-x,1/2+y,z
x,1/2-y,z
x,1/2+y,1/2+z
-x,1/2-y,1/2+z
-x,y,1/2+z
x,-y,1/2+z
loop_
_atom_site_type_symbol
_atom_site_label
_atom_site_fract_x
_atom_site_fract_y
_atom_site_fract_z
Si Si1 0.947586 0.305400 0.864000
Si Si2 0.045513 0.596993 0.949321
Si Si3 0.545468 0.942702 0.867876
Si Si4 0.554463 0.194545 0.260953
Si Si5 0.461858 0.095254 0.199738
Si Si6 0.962946 0.557905 0.614769
O O1 0.990061 0.250000 0.897702
O O2 0.988642 0.344530 0.932295
O O3 0.652601 0.311870 0.830380
O O4 0.152678 0.315491 0.795031
O O5 0.343103 0.578560 0.930927
O O6 0.844071 0.565068 0.897929
O O7 0.986311 0.588782 0.038121
O O8 0.508820 0.914968 0.788456
O O9 0.500000 0.000000 0.853003
O O10 0.534032 0.250000 0.225737
O O11 0.496960 0.155063 0.192858
O O12 0.665000 0.066165 0.145405
O O13 0.165766 0.077892 0.178494
O O14 0.000000 0.500000 0.597928
#
# Coordination Sequence:
#
# PCOD8181259 Si02
#       6
#     8   8   8   8   8   8
#     4  10  19  37  64  92 118 151 197 254 308 352
#     4  12  23  42  61  91 122 161 206 249 305 357
#     4  12  23  38  64  89 117 157 217 259 286 352
#     4  10  20  38  64  92 118 151 197 255 309 352
#     4  12  23  42  62  91 121 162 206 248 305 358
#     4  12  26  41  59  87 132 170 195 243 313 363
#
# _framework density 20.341609999999999
#
# number of rings (size 3 to 8) (size 9 to 14) (size 15 to 20)
#    0.000    0.667    3.333    6.000    0.000    0.000 
#    0.000    1.667    0.000    0.000    0.000    0.000 
#    0.000    0.000    0.000    0.000    0.000    0.000 
#
# Total GULP energy -297748.465394 kJ/mol
# GULP energy per Si atom -12406.186058 kJ/mol
# Density = 2.029531 g / cm^3
# Si number density = 20.341610 Si / 1000 Ang^3
#
#
#
# Elastic Constant Matrix: (Units=GPa)
#
#
# Indices 1 2 3 4 5 6 
#
# 1 69.7520 18.8975 11.2541 0.0000 0.0000 0.0000
# 2 18.8975 140.2518 13.3443 0.0000 0.0000 0.0000
# 3 11.2541 13.3443 71.5930 0.0000 0.0000 0.0000
# 4 0.0000 0.0000 0.0000 29.6150 0.0000 0.0000
# 5 0.0000 0.0000 0.0000 0.0000 12.0840 0.0000
# 6 0.0000 0.0000 0.0000 0.0000 0.0000 30.0313
#
#
#
# Elastic Compliance Matrix: (Units=1/GPa)
#
#
# Indices 1 2 3 4 5 6 
#
# 1 0.015167 -0.001850 -0.002039 0.000000 0.000000 0.000000
# 2 -0.001850 0.007484 -0.001104 0.000000 0.000000 0.000000
# 3 -0.002039 -0.001104 0.014494 0.000000 0.000000 0.000000
# 4 0.000000 0.000000 0.000000 0.033767 0.000000 0.000000
# 5 0.000000 0.000000 0.000000 0.000000 0.082754 0.000000
# 6 0.000000 0.000000 0.000000 0.000000 0.000000 0.033299
#
#
# Mechanical properties :
#
#
# Convention : Reuss Voigt Hill
#
# Bulk Modulus (GPa) = 36.82043 40.95429 38.88736
# Shear Modulus (GPa) = 24.27141 30.21945 27.24543
#
# Velocity S-wave (km/s) = 3.45801 3.85853 3.66374
# Velocity P-wave (km/s) = 5.83816 6.32676 6.08736
#
# Compressibility (1/GPa) = 0.02715883
#
# Stress axis : x y z
#
# Youngs Moduli (GPa) = 65.93421 133.61298 68.99285
#
# Poissons Ratio (x) = 0.24712 0.14070
# Poissons Ratio (y) = 0.12195 0.07619
# Poissons Ratio (z) = 0.13447 0.14755
#
# Static dielectric constant tensor:
#      x y z
#    x 3.875160 0.000000 0.000000 
#    y 0.000000 4.100270 0.000000 
#    z 0.000000 0.000000 3.323120 
# 
# 
# High freq. dielectric constant tensor:
#      x y z
#    x 1.815170 0.000000 0.000000 
#    y 0.000000 1.816230 0.000000 
#    z 0.000000 0.000000 1.758990 
# 
# From -- ./inp_files/7540.got.cif
#   From: 2010.03.12/outbox.cif.g09.slc.cpg/sg39_4_cif.got.tgz:7540.got - 2010.04.14 02:53:20.
