data_PCOD8181662
_publ_section_title
;
Structure prediction by ZEFSAII (Michael W. Deem and Ramdas Pophale) SiO2 
 PCOD8181662
Probable space group: A B M 2
;
_chemical_formula_sum "Si O2"
_cell_formula_units_Z 64
_cell_length_a 13.647612
_cell_length_b 18.858429
_cell_length_c 13.006044
_cell_angle_alpha 90.000000
_cell_angle_beta 90.000000
_cell_angle_gamma 90.000000
_cell_volume 3347.398345
_symmetry_space_group_name_H-M "A B M 2"
_symmetry_group_IT_number 39
_symmetry_cell_setting 'orthorhombic'
loop_
_space_group_symop_operation_xyz
x,y,z
-x,-y,z
-x,1/2+y,z
x,1/2-y,z
x,1/2+y,1/2+z
-x,1/2-y,1/2+z
-x,y,1/2+z
x,-y,1/2+z
loop_
_atom_site_type_symbol
_atom_site_label
_atom_site_fract_x
_atom_site_fract_y
_atom_site_fract_z
Si Si1 0.917692 0.555440 0.349250
Si Si2 0.698728 0.330838 0.319174
Si Si3 0.008215 0.669105 0.998926
Si Si4 0.387855 0.479824 0.842069
Si Si5 0.247965 0.036252 0.501664
Si Si6 0.755735 0.055366 0.689274
Si Si7 0.208258 0.169977 0.039399
Si Si8 0.206506 0.829134 0.102825
O O1 0.966857 0.624979 0.396962
O O2 0.844741 0.518311 0.430491
O O3 0.852596 0.576911 0.251691
O O4 0.000000 0.500000 0.315497
O O5 0.652753 0.250000 0.316009
O O6 0.619990 0.395314 0.317115
O O7 0.761261 0.341132 0.421634
O O8 0.769854 0.342737 0.222216
O O9 0.000939 0.750000 0.961122
O O10 0.090078 0.658720 0.087373
O O11 0.904896 0.645658 0.047567
O O12 0.500000 0.500000 0.840269
O O13 0.333574 0.531344 0.761302
O O14 0.344220 0.498906 0.954594
O O15 0.264667 0.120383 0.521977
O O16 0.220007 0.009101 0.614228
O O17 0.727147 0.122576 0.617461
O O18 0.224651 0.250000 0.075330
O O19 0.237655 0.750000 0.070532
#
# Coordination Sequence:
#
# PCOD8181662 Si02
#       8
#     8   8   8   8   8   8   8   8
#     4  10  22  33  52  82 118 157 193 237 282 328
#     4  10  20  38  63  87 118 151 190 244 296 348
#     4   9  19  34  54  82 118 162 204 231 277 339
#     4  11  24  42  63  87 112 149 197 247 308 359
#     4  10  20  38  57  81 118 151 193 242 289 355
#     4  11  22  37  57  83 117 150 196 239 293 354
#     4  10  21  37  57  84 121 160 194 240 288 345
#     4   9  18  35  59  87 118 157 198 239 281 340
#
# _framework density 19.119323999999999
#
# number of rings (size 3 to 8) (size 9 to 14) (size 15 to 20)
#    0.000    2.000    2.500    0.750    1.750    4.500 
#    0.000    5.625    0.000    3.000    0.000    0.000 
#    0.000    0.000    0.000    0.000    0.000    0.000 
#
# Total GULP energy -396629.063163 kJ/mol
# GULP energy per Si atom -12394.658224 kJ/mol
# Density = 1.907581 g / cm^3
# Si number density = 19.119324 Si / 1000 Ang^3
#
#
#
# Elastic Constant Matrix: (Units=GPa)
#
#
# Indices 1 2 3 4 5 6 
#
# 1 78.2299 52.1394 22.9579 0.0000 0.0000 0.0000
# 2 52.1394 130.2254 42.5323 0.0000 0.0000 0.0000
# 3 22.9579 42.5323 85.7087 0.0000 0.0000 0.0000
# 4 0.0000 0.0000 0.0000 35.4213 0.0000 0.0000
# 5 0.0000 0.0000 0.0000 0.0000 14.2197 0.0000
# 6 0.0000 0.0000 0.0000 0.0000 0.0000 23.7680
#
#
#
# Elastic Compliance Matrix: (Units=1/GPa)
#
#
# Indices 1 2 3 4 5 6 
#
# 1 0.017586 -0.006567 -0.001452 0.000000 0.000000 0.000000
# 2 -0.006567 0.011616 -0.004006 0.000000 0.000000 0.000000
# 3 -0.001452 -0.004006 0.014044 0.000000 0.000000 0.000000
# 4 0.000000 0.000000 0.000000 0.028232 0.000000 0.000000
# 5 0.000000 0.000000 0.000000 0.000000 0.070325 0.000000
# 6 0.000000 0.000000 0.000000 0.000000 0.000000 0.042073
#
#
# Mechanical properties :
#
#
# Convention : Reuss Voigt Hill
#
# Bulk Modulus (GPa) = 52.08926 58.82482 55.45704
# Shear Modulus (GPa) = 23.32922 26.45074 24.88998
#
# Velocity S-wave (km/s) = 3.49691 3.72352 3.61199
# Velocity P-wave (km/s) = 6.60363 7.02283 6.81645
#
# Compressibility (1/GPa) = 0.01919781
#
# Stress axis : x y z
#
# Youngs Moduli (GPa) = 56.86491 86.08503 71.20455
#
# Poissons Ratio (x) = 0.56530 0.10337
# Poissons Ratio (y) = 0.37342 0.28522
# Poissons Ratio (z) = 0.08256 0.34482
#
# Static dielectric constant tensor:
#      x y z
#    x 3.142400 0.000000 0.000000 
#    y 0.000000 3.836070 0.000000 
#    z 0.000000 0.000000 3.562530 
# 
# 
# High freq. dielectric constant tensor:
#      x y z
#    x 1.702410 0.000000 0.000000 
#    y 0.000000 1.761290 0.000000 
#    z 0.000000 0.000000 1.747750 
# 
# From -- ./inp_files/6621.got.cif
#   From: 2010.03.12/outbox.cif.g09.slc.cpg/sg39_4_cif.got.tgz:6621.got - 2010.04.14 02:53:20.
