data_PCOD8181478
_publ_section_title
;
Structure prediction by ZEFSAII (Michael W. Deem and Ramdas Pophale) SiO2 
 PCOD8181478
Probable space group: A B M 2
;
_chemical_formula_sum "Si O2"
_cell_formula_units_Z 64
_cell_length_a 24.269527
_cell_length_b 9.455978
_cell_length_c 14.907293
_cell_angle_alpha 90.000000
_cell_angle_beta 90.000000
_cell_angle_gamma 90.000000
_cell_volume 3421.106175
_symmetry_space_group_name_H-M "A B M 2"
_symmetry_group_IT_number 39
_symmetry_cell_setting 'orthorhombic'
loop_
_space_group_symop_operation_xyz
x,y,z
-x,-y,z
-x,1/2+y,z
x,1/2-y,z
x,1/2+y,1/2+z
-x,1/2-y,1/2+z
-x,y,1/2+z
x,-y,1/2+z
loop_
_atom_site_type_symbol
_atom_site_label
_atom_site_fract_x
_atom_site_fract_y
_atom_site_fract_z
Si Si1 0.944630 0.917296 0.180950
Si Si2 0.331646 0.582541 0.885854
Si Si3 0.129084 0.086798 0.549037
Si Si4 0.671978 0.581909 0.185431
Si Si5 0.548854 0.093371 0.894333
Si Si6 0.549117 0.593971 0.180827
Si Si7 0.947593 0.588553 0.386353
Si Si8 0.257247 0.585210 0.047264
O O1 0.951546 0.750000 0.161664
O O2 0.929982 0.947879 0.284732
O O3 0.895202 0.981612 0.123193
O O4 0.000000 0.000000 0.153227
O O5 0.337716 0.750000 0.879477
O O6 0.316933 0.527364 0.786707
O O7 0.391503 0.525566 0.919170
O O8 0.284430 0.533922 0.954094
O O9 0.118664 0.250000 0.577239
O O10 0.103104 0.054568 0.451707
O O11 0.193064 0.052383 0.540432
O O12 0.679483 0.750000 0.176912
O O13 0.610111 0.536672 0.154899
O O14 0.717496 0.504251 0.127237
O O15 0.542417 0.250000 0.934951
O O16 0.544462 0.099102 0.787489
O O17 0.500000 0.000000 0.936526
O O18 0.500000 0.500000 0.139034
O O19 0.541202 0.750000 0.140760
O O20 0.966251 0.750000 0.393245
O O21 0.000000 0.500000 0.418509
O O22 0.269180 0.750000 0.064390
#
# Coordination Sequence:
#
# PCOD8181478 Si02
#       8
#     8   8   8   8   8   8   8   8
#     4  10  20  35  57  84 111 139 171 207 251 301
#     4   8  16  33  54  71  95 135 172 204 254 316
#     4  10  21  36  53  76 107 140 175 215 254 295
#     4   9  18  34  54  74  99 132 170 213 259 307
#     4   8  13  24  44  69  93 120 158 201 249 306
#     4   8  14  25  44  70  96 123 158 202 252 306
#     4   9  19  35  55  80 108 137 169 205 248 300
#     4  10  21  36  53  74 101 136 178 217 252 297
#
# _framework density 18.707398999999999
#
# number of rings (size 3 to 8) (size 9 to 14) (size 15 to 20)
#    0.000    3.000    0.000    2.250    0.000    4.000 
#    0.000    6.250    0.000    3.000    0.000    0.000 
#    0.000    0.000    0.000    0.000    0.000    0.000 
#
# Total GULP energy -396697.342754 kJ/mol
# GULP energy per Si atom -12396.791961 kJ/mol
# Density = 1.866482 g / cm^3
# Si number density = 18.707399 Si / 1000 Ang^3
#
#
#
# Elastic Constant Matrix: (Units=GPa)
#
#
# Indices 1 2 3 4 5 6 
#
# 1 164.6999 68.3658 73.9789 0.0000 0.0000 0.0000
# 2 68.3658 73.2600 45.1665 0.0000 0.0000 0.0000
# 3 73.9789 45.1665 89.0903 0.0000 0.0000 0.0000
# 4 0.0000 0.0000 0.0000 -66.3864 0.0000 0.0000
# 5 0.0000 0.0000 0.0000 0.0000 49.7488 0.0000
# 6 0.0000 0.0000 0.0000 0.0000 0.0000 32.2509
#
#
#
# Elastic Compliance Matrix: (Units=1/GPa)
#
#
# Indices 1 2 3 4 5 6 
#
# 1 0.011854 -0.007264 -0.006161 0.000000 0.000000 0.000000
# 2 -0.007264 0.024307 -0.006291 0.000000 0.000000 0.000000
# 3 -0.006161 -0.006291 0.019530 0.000000 0.000000 0.000000
# 4 0.000000 0.000000 0.000000 -0.015063 0.000000 0.000000
# 5 0.000000 0.000000 0.000000 0.000000 0.020101 0.000000
# 6 0.000000 0.000000 0.000000 0.000000 0.000000 0.031007
#
#
# Mechanical properties :
#
#
# Convention : Reuss Voigt Hill
#
# Bulk Modulus (GPa) = 61.50354 78.00806 69.75580
# Shear Modulus (GPa) = 36.60635 12.42526 24.51580
#
# Velocity S-wave (km/s) = 4.42835 2.57998 3.62399
# Velocity P-wave (km/s) = 7.68733 7.11791 7.40809
#
# Compressibility (1/GPa) = 0.01625923
#
# Stress axis : x y z
#
# Youngs Moduli (GPa) = 84.35877 41.13961 51.20324
#
# Poissons Ratio (x) = 0.29883 0.31545
# Poissons Ratio (y) = 0.61277 0.32214
# Poissons Ratio (z) = 0.51972 0.25883
#
# Static dielectric constant tensor:
#      x y z
#    x 3.421660 0.000000 0.000000 
#    y 0.000000 3.433370 0.000000 
#    z 0.000000 0.000000 3.353990 
# 
# 
# High freq. dielectric constant tensor:
#      x y z
#    x 1.726810 0.000000 0.000000 
#    y 0.000000 1.709690 0.000000 
#    z 0.000000 0.000000 1.718720 
# 
# From -- ./inp_files/10668.got.cif
#   From: 2010.03.12/outbox.cif.g09.slc.cpg/sg39_6_cif.got.tgz:10668.got - 2010.04.14 02:53:20.
