data_PCOD8181855
_publ_section_title
;
Structure prediction by ZEFSAII (Michael W. Deem and Ramdas Pophale) SiO2 
 PCOD8181855
Probable space group: A B M 2
;
_chemical_formula_sum "Si O2"
_cell_formula_units_Z 48
_cell_length_a 9.337988
_cell_length_b 8.497799
_cell_length_c 30.410647
_cell_angle_alpha 90.000000
_cell_angle_beta 90.000000
_cell_angle_gamma 90.000000
_cell_volume 2413.156155
_symmetry_space_group_name_H-M "A B M 2"
_symmetry_group_IT_number 39
_symmetry_cell_setting 'orthorhombic'
loop_
_space_group_symop_operation_xyz
x,y,z
-x,-y,z
-x,1/2+y,z
x,1/2-y,z
x,1/2+y,1/2+z
-x,1/2-y,1/2+z
-x,y,1/2+z
x,-y,1/2+z
loop_
_atom_site_type_symbol
_atom_site_label
_atom_site_fract_x
_atom_site_fract_y
_atom_site_fract_z
Si Si1 0.341270 0.435161 0.327300
Si Si2 0.342858 0.934402 0.573670
Si Si3 0.841868 0.066483 0.151780
Si Si4 0.344845 0.933680 0.236801
Si Si5 0.844551 0.565073 0.497466
Si Si6 0.151274 0.065772 0.903119
O O1 0.500000 0.500000 0.327176
O O2 0.332498 0.250000 0.336245
O O3 0.277969 0.477581 0.279279
O O4 0.262979 0.528964 0.365400
O O5 0.353950 0.750000 0.568262
O O6 0.500000 0.000000 0.583006
O O7 0.240269 0.975506 0.613799
O O8 0.279557 0.004015 0.528966
O O9 0.845150 0.250000 0.139874
O O10 0.763365 0.033608 0.197471
O O11 0.000000 0.000000 0.155800
O O12 0.360907 0.750000 0.247721
O O13 0.500000 0.000000 0.223446
O O14 0.852985 0.750000 0.500843
O O15 0.801209 0.515517 0.448361
O O16 0.000000 0.500000 0.511369
O O17 0.139603 0.250000 0.911765
O O18 0.000000 0.000000 0.886824
#
# Coordination Sequence:
#
# PCOD8181855 Si02
#       6
#     8   8   8   8   8   8
#     4  11  22  38  60  87 119 157 199 244 295 349
#     4  12  25  42  63  89 120 155 196 242 293 349
#     4  11  24  41  62  89 120 156 197 242 293 348
#     4  10  21  38  60  86 117 154 197 244 296 351
#     4  11  22  40  63  89 120 156 197 241 293 348
#     4  11  22  39  61  88 120 156 198 243 294 349
#
# _framework density 19.890964
#
# number of rings (size 3 to 8) (size 9 to 14) (size 15 to 20)
#    0.000    1.000    0.000   10.000    0.000    5.333 
#    0.000    5.000    0.000    0.000    0.000    0.000 
#    0.000    0.000    0.000    0.000    0.000    0.000 
#
# Total GULP energy -297729.699613 kJ/mol
# GULP energy per Si atom -12405.404151 kJ/mol
# Density = 1.984569 g / cm^3
# Si number density = 19.890964 Si / 1000 Ang^3
#
#
#
# Elastic Constant Matrix: (Units=GPa)
#
#
# Indices 1 2 3 4 5 6 
#
# 1 94.4361 41.2640 55.0580 0.0000 0.0000 0.0000
# 2 41.2640 152.6707 38.0615 0.0000 0.0000 0.0000
# 3 55.0580 38.0615 103.8057 0.0000 0.0000 0.0000
# 4 0.0000 0.0000 0.0000 35.5452 0.0000 0.0000
# 5 0.0000 0.0000 0.0000 0.0000 54.6976 0.0000
# 6 0.0000 0.0000 0.0000 0.0000 0.0000 36.1132
#
#
#
# Elastic Compliance Matrix: (Units=1/GPa)
#
#
# Indices 1 2 3 4 5 6 
#
# 1 0.016121 -0.002449 -0.007652 0.000000 0.000000 0.000000
# 2 -0.002449 0.007581 -0.001481 0.000000 0.000000 0.000000
# 3 -0.007652 -0.001481 0.014235 0.000000 0.000000 0.000000
# 4 0.000000 0.000000 0.000000 0.028133 0.000000 0.000000
# 5 0.000000 0.000000 0.000000 0.000000 0.018282 0.000000
# 6 0.000000 0.000000 0.000000 0.000000 0.000000 0.027691
#
#
# Mechanical properties :
#
#
# Convention : Reuss Voigt Hill
#
# Bulk Modulus (GPa) = 67.69355 68.85327 68.27341
# Shear Modulus (GPa) = 35.68060 39.70646 37.69353
#
# Velocity S-wave (km/s) = 4.23993 4.47274 4.35789
# Velocity P-wave (km/s) = 7.62073 7.83354 7.72787
#
# Compressibility (1/GPa) = 0.01477246
#
# Stress axis : x y z
#
# Youngs Moduli (GPa) = 62.03130 131.90548 70.24933
#
# Poissons Ratio (x) = 0.32309 0.53757
# Poissons Ratio (y) = 0.15194 0.10401
# Poissons Ratio (z) = 0.47468 0.19530
#
# Static dielectric constant tensor:
#      x y z
#    x 3.455950 0.000000 0.000000 
#    y 0.000000 3.884920 0.000000 
#    z 0.000000 0.000000 3.857910 
# 
# 
# High freq. dielectric constant tensor:
#      x y z
#    x 1.775410 0.000000 0.000000 
#    y 0.000000 1.800220 0.000000 
#    z 0.000000 0.000000 1.791940 
# 
# From -- ./inp_files/17613.got.cif
#   From: 2010.03.12/outbox.cif.g09.slc.cpg/sg39_9_cif.got.tgz:17613.got - 2010.04.14 02:53:20.
