data_PCOD8181630
_publ_section_title
;
Structure prediction by ZEFSAII (Michael W. Deem and Ramdas Pophale) SiO2 
 PCOD8181630
Probable space group: A B M 2
;
_chemical_formula_sum "Si O2"
_cell_formula_units_Z 48
_cell_length_a 9.549280
_cell_length_b 8.692980
_cell_length_c 29.920919
_cell_angle_alpha 90.000000
_cell_angle_beta 90.000000
_cell_angle_gamma 90.000000
_cell_volume 2483.786353
_symmetry_space_group_name_H-M "A B M 2"
_symmetry_group_IT_number 39
_symmetry_cell_setting 'orthorhombic'
loop_
_space_group_symop_operation_xyz
x,y,z
-x,-y,z
-x,1/2+y,z
x,1/2-y,z
x,1/2+y,1/2+z
-x,1/2-y,1/2+z
-x,y,1/2+z
x,-y,1/2+z
loop_
_atom_site_type_symbol
_atom_site_label
_atom_site_fract_x
_atom_site_fract_y
_atom_site_fract_z
Si Si1 0.348379 0.070353 0.260740
Si Si2 0.855872 0.430349 0.088523
Si Si3 0.853146 0.931789 0.689661
Si Si4 0.145143 0.930451 0.841580
Si Si5 0.850394 0.432527 0.436907
Si Si6 0.346802 0.067696 0.510789
O O1 0.359886 0.250000 0.251375
O O2 0.263778 0.034096 0.305640
O O3 0.500000 0.000000 0.267185
O O4 0.274548 0.993588 0.218515
O O5 0.874950 0.250000 0.087687
O O6 0.824794 0.487467 0.138867
O O7 0.730782 0.483068 0.056325
O O8 0.000000 0.500000 0.070029
O O9 0.860968 0.750000 0.693850
O O10 0.000000 0.000000 0.707260
O O11 0.125755 0.750000 0.850738
O O12 0.188834 0.014128 0.887137
O O13 0.000000 0.000000 0.823147
O O14 0.857034 0.250000 0.439258
O O15 0.730072 0.495005 0.468656
O O16 0.000000 0.500000 0.451929
O O17 0.351560 0.250000 0.505038
O O18 0.500000 0.000000 0.513716
#
# Coordination Sequence:
#
# PCOD8181630 Si02
#       6
#     8   8   8   8   8   8
#     4  11  24  39  57  83 115 152 190 231 282 337
#     4   9  20  37  59  85 112 146 188 233 279 331
#     4  10  20  37  60  86 115 148 189 234 280 331
#     4  10  21  38  60  85 112 145 188 234 281 333
#     4  11  22  38  61  87 114 147 188 233 281 332
#     4  11  23  39  57  82 116 152 190 231 281 336
#
# _framework density 19.325334000000002
#
# number of rings (size 3 to 8) (size 9 to 14) (size 15 to 20)
#    0.000    1.667    0.000    5.500    0.000    8.667 
#    0.000    3.333    0.000    0.000    0.000    0.000 
#    0.000    0.000    0.000    0.000    0.000    0.000 
#
# Total GULP energy -297711.490656 kJ/mol
# GULP energy per Si atom -12404.645444 kJ/mol
# Density = 1.928135 g / cm^3
# Si number density = 19.325334 Si / 1000 Ang^3
#
#
#
# Elastic Constant Matrix: (Units=GPa)
#
#
# Indices 1 2 3 4 5 6 
#
# 1 175.1508 71.6231 90.8937 0.0000 0.0000 0.0000
# 2 71.6231 111.9900 60.3012 0.0000 0.0000 0.0000
# 3 90.8937 60.3012 106.2631 0.0000 0.0000 0.0000
# 4 0.0000 0.0000 0.0000 24.8857 0.0000 0.0000
# 5 0.0000 0.0000 0.0000 0.0000 24.7956 0.0000
# 6 0.0000 0.0000 0.0000 0.0000 0.0000 38.2737
#
#
#
# Elastic Compliance Matrix: (Units=1/GPa)
#
#
# Indices 1 2 3 4 5 6 
#
# 1 0.010842 -0.002794 -0.007688 0.000000 0.000000 0.000000
# 2 -0.002794 0.013578 -0.005315 0.000000 0.000000 0.000000
# 3 -0.007688 -0.005315 0.019003 0.000000 0.000000 0.000000
# 4 0.000000 0.000000 0.000000 0.040184 0.000000 0.000000
# 5 0.000000 0.000000 0.000000 0.000000 0.040330 0.000000
# 6 0.000000 0.000000 0.000000 0.000000 0.000000 0.026128
#
#
# Mechanical properties :
#
#
# Convention : Reuss Voigt Hill
#
# Bulk Modulus (GPa) = 84.54460 93.22665 88.88562
# Shear Modulus (GPa) = 26.93946 28.96339 27.95143
#
# Velocity S-wave (km/s) = 3.73768 3.87554 3.80723
# Velocity P-wave (km/s) = 7.90380 8.26872 8.08832
#
# Compressibility (1/GPa) = 0.01182808
#
# Stress axis : x y z
#
# Youngs Moduli (GPa) = 92.23775 73.64630 52.62368
#
# Poissons Ratio (x) = 0.20578 0.40456
# Poissons Ratio (y) = 0.25773 0.27971
# Poissons Ratio (z) = 0.70911 0.39146
#
# Static dielectric constant tensor:
#      x y z
#    x 3.555090 0.000000 0.000000 
#    y 0.000000 3.655960 0.000000 
#    z 0.000000 0.000000 3.758230 
# 
# 
# High freq. dielectric constant tensor:
#      x y z
#    x 1.751900 0.000000 0.000000 
#    y 0.000000 1.766620 0.000000 
#    z 0.000000 0.000000 1.764360 
# 
# From -- ./inp_files/17574.got.cif
#   From: 2010.03.12/outbox.cif.g09.slc.cpg/sg39_9_cif.got.tgz:17574.got - 2010.04.14 02:53:20.
