data_PCOD8181140
_publ_section_title
;
Structure prediction by ZEFSAII (Michael W. Deem and Ramdas Pophale) SiO2 
 PCOD8181140
Probable space group: A B M 2
;
_chemical_formula_sum "Si O2"
_cell_formula_units_Z 64
_cell_length_a 8.811378
_cell_length_b 15.335768
_cell_length_c 20.767384
_cell_angle_alpha 90.000000
_cell_angle_beta 90.000000
_cell_angle_gamma 90.000000
_cell_volume 2806.280999
_symmetry_space_group_name_H-M "A B M 2"
_symmetry_group_IT_number 39
_symmetry_cell_setting 'orthorhombic'
loop_
_space_group_symop_operation_xyz
x,y,z
-x,-y,z
-x,1/2+y,z
x,1/2-y,z
x,1/2+y,1/2+z
-x,1/2-y,1/2+z
-x,y,1/2+z
x,-y,1/2+z
loop_
_atom_site_type_symbol
_atom_site_label
_atom_site_fract_x
_atom_site_fract_y
_atom_site_fract_z
Si Si1 0.611425 0.084553 0.753640
Si Si2 0.330827 0.147159 0.002552
Si Si3 0.845573 0.645984 0.879216
Si Si4 0.845573 0.354016 0.128064
Si Si5 0.307181 0.154009 0.753640
Si Si6 0.330827 0.647159 0.004727
Si Si7 0.191546 0.647232 0.638767
Si Si8 0.808454 0.647232 0.368513
O O1 0.489562 0.162793 0.753640
O O2 0.717618 0.090983 0.691158
O O3 0.717618 0.090983 0.816122
O O4 0.500000 0.000000 0.753640
O O5 0.340247 0.250000 0.992695
O O6 0.230679 0.106911 0.944108
O O7 0.500000 0.107031 0.003640
O O8 0.254205 0.122686 0.069299
O O9 0.836182 0.750000 0.882913
O O10 0.752656 0.606810 0.818318
O O11 0.018004 0.615863 0.869859
O O12 0.836182 0.250000 0.124367
O O13 0.752656 0.393190 0.188961
O O14 0.018004 0.384137 0.137421
O O15 0.769321 0.393089 0.063172
O O16 0.235064 0.250000 0.753640
O O17 0.340248 0.750000 0.014585
O O18 0.254205 0.622686 0.937981
O O19 0.206772 0.750000 0.654592
O O20 0.793228 0.750000 0.352688
#
# Coordination Sequence:
#
# PCOD8181140 Si02
#       8
#     8   8   8   8   8   8   8   8
#     4  12  25  38  52  76 108 148 195 242 284 334
#     4   9  16  27  49  84 118 142 172 222 279 332
#     4   9  17  30  53  87 116 140 179 230 282 340
#     4   9  17  30  53  87 116 140 179 230 282 340
#     4  10  19  34  57  80 105 138 177 224 278 338
#     4   9  16  27  49  84 118 142 172 222 279 332
#     4  10  19  34  56  80 110 146 185 232 289 349
#     4  10  19  34  56  80 110 146 185 232 289 349
#
# _framework density 22.805983000000001
#
# number of rings (size 3 to 8) (size 9 to 14) (size 15 to 20)
#    0.000    2.250    0.000    4.125    0.000    9.000 
#    0.000    2.500    0.000    6.750    0.000    7.000 
#    0.000    0.000    0.000    0.000    0.000    1.000 
#
# Total GULP energy -396646.699251 kJ/mol
# GULP energy per Si atom -12395.209352 kJ/mol
# Density = 2.275408 g / cm^3
# Si number density = 22.805983 Si / 1000 Ang^3
#
#
#
# Elastic Constant Matrix: (Units=GPa)
#
#
# Indices 1 2 3 4 5 6 
#
# 1 221.6676 12.4096 128.4014 0.0000 0.0000 0.0000
# 2 12.4096 40.0268 21.4470 0.0000 0.0000 0.0000
# 3 128.4014 21.4470 223.1078 0.0000 0.0000 0.0000
# 4 0.0000 0.0000 0.0000 -0.9337 0.0000 0.0000
# 5 0.0000 0.0000 0.0000 0.0000 50.3579 0.0000
# 6 0.0000 0.0000 0.0000 0.0000 0.0000 15.5134
#
#
#
# Elastic Compliance Matrix: (Units=1/GPa)
#
#
# Indices 1 2 3 4 5 6 
#
# 1 0.006767 -0.000012 -0.003893 0.000000 0.000000 0.000000
# 2 -0.000012 0.026340 -0.002525 0.000000 0.000000 0.000000
# 3 -0.003893 -0.002525 0.006966 0.000000 0.000000 0.000000
# 4 0.000000 0.000000 0.000000 -1.071064 0.000000 0.000000
# 5 0.000000 0.000000 0.000000 0.000000 0.019858 0.000000
# 6 0.000000 0.000000 0.000000 0.000000 0.000000 0.064460
#
#
# Mechanical properties :
#
#
# Convention : Reuss Voigt Hill
#
# Bulk Modulus (GPa) = 36.74887 89.92425 63.33656
# Shear Modulus (GPa) = -5.40691 34.49048 14.54178
#
# Velocity S-wave (km/s) = -1.54142 3.89311 2.52787
# Velocity P-wave (km/s) = 3.60287 7.72813 6.02929
#
# Compressibility (1/GPa) = 0.02721172
#
# Stress axis : x y z
#
# Youngs Moduli (GPa) = 147.77079 37.96515 143.56196
#
# Poissons Ratio (x) = 0.00045 0.55896
# Poissons Ratio (y) = 0.00175 0.36252
# Poissons Ratio (z) = 0.57534 0.09587
#
# Static dielectric constant tensor:
#      x y z
#    x 4.419250 0.000000 0.000000 
#    y 0.000000 3.488330 0.000000 
#    z 0.000000 0.000000 4.322430 
# 
# 
# High freq. dielectric constant tensor:
#      x y z
#    x 1.916360 0.000000 0.000000 
#    y 0.000000 1.850740 0.000000 
#    z 0.000000 0.000000 1.916560 
# 
# From -- ./inp_files/14173.got.cif
#   From: 2010.03.12/outbox.cif.g09.slc.cpg/sg39_8_cif.got.tgz:14173.got - 2010.04.14 02:53:20.
