data_PCOD8181836
_publ_section_title
;
Structure prediction by ZEFSAII (Michael W. Deem and Ramdas Pophale) SiO2 
 PCOD8181836
Probable space group: A B M 2
;
_chemical_formula_sum "Si O2"
_cell_formula_units_Z 64
_cell_length_a 15.428259
_cell_length_b 8.767388
_cell_length_c 23.595100
_cell_angle_alpha 90.000000
_cell_angle_beta 90.000000
_cell_angle_gamma 90.000000
_cell_volume 3191.603773
_symmetry_space_group_name_H-M "A B M 2"
_symmetry_group_IT_number 39
_symmetry_cell_setting 'orthorhombic'
loop_
_space_group_symop_operation_xyz
x,y,z
-x,-y,z
-x,1/2+y,z
x,1/2-y,z
x,1/2+y,1/2+z
-x,1/2-y,1/2+z
-x,y,1/2+z
x,-y,1/2+z
loop_
_atom_site_type_symbol
_atom_site_label
_atom_site_fract_x
_atom_site_fract_y
_atom_site_fract_z
Si Si1 0.753910 0.070962 0.962650
Si Si2 0.413526 0.928724 0.264415
Si Si3 0.088625 0.570516 0.265752
Si Si4 0.646809 0.429945 0.649676
Si Si5 0.249717 0.072340 0.842105
Si Si6 0.588701 0.569876 0.534055
Si Si7 0.909249 0.570115 0.030103
Si Si8 0.153947 0.570589 0.652781
O O1 0.767349 0.250000 0.970627
O O2 0.744318 0.030979 0.897161
O O3 0.668089 0.013504 0.995121
O O4 0.836511 0.984973 0.987067
O O5 0.423781 0.750000 0.252728
O O6 0.334574 0.962904 0.305880
O O7 0.500000 0.000000 0.292678
O O8 0.400937 0.016777 0.205834
O O9 0.079952 0.750000 0.264775
O O10 0.166940 0.518016 0.305937
O O11 0.103044 0.514831 0.201948
O O12 0.000000 0.500000 0.290211
O O13 0.637409 0.250000 0.641450
O O14 0.601575 0.512728 0.597620
O O15 0.746511 0.481043 0.653110
O O16 0.243010 0.250000 0.858543
O O17 0.500000 0.500000 0.508995
O O18 0.580803 0.750000 0.533651
O O19 0.914924 0.750000 0.026202
O O20 0.887119 0.516306 0.093632
O O21 0.000000 0.500000 0.010593
O O22 0.144403 0.750000 0.662320
#
# Coordination Sequence:
#
# PCOD8181836 Si02
#       8
#     8   8   8   8   8   8   8   8
#     4  11  25  43  65  91 120 160 208 258 309 361
#     4  11  23  41  63  92 125 163 204 250 306 363
#     4  11  23  40  63  92 124 161 202 248 303 361
#     4  11  21  37  63  94 126 162 201 247 305 365
#     4  10  24  44  64  86 120 163 206 254 307 361
#     4  11  24  41  63  92 125 162 204 250 306 367
#     4  11  23  41  64  93 127 163 204 249 305 365
#     4  10  21  37  62  94 125 162 200 244 303 363
#
# _framework density 20.052614999999999
#
# number of rings (size 3 to 8) (size 9 to 14) (size 15 to 20)
#    0.000    1.250    2.500    3.000    0.000    7.000 
#    0.000    3.750    0.000    0.000    0.000    0.000 
#    0.000    0.000    0.000    0.000    0.000    0.000 
#
# Total GULP energy -397023.213850 kJ/mol
# GULP energy per Si atom -12406.975433 kJ/mol
# Density = 2.000697 g / cm^3
# Si number density = 20.052615 Si / 1000 Ang^3
#
#
#
# Elastic Constant Matrix: (Units=GPa)
#
#
# Indices 1 2 3 4 5 6 
#
# 1 169.9789 42.7578 48.0107 0.0000 0.0000 0.0000
# 2 42.7578 56.7139 26.7467 0.0000 0.0000 0.0000
# 3 48.0107 26.7467 102.6612 0.0000 0.0000 0.0000
# 4 0.0000 0.0000 0.0000 37.0672 0.0000 0.0000
# 5 0.0000 0.0000 0.0000 0.0000 -30.2153 0.0000
# 6 0.0000 0.0000 0.0000 0.0000 0.0000 33.4369
#
#
#
# Elastic Compliance Matrix: (Units=1/GPa)
#
#
# Indices 1 2 3 4 5 6 
#
# 1 0.007744 -0.004709 -0.002395 0.000000 0.000000 0.000000
# 2 -0.004709 0.022966 -0.003781 0.000000 0.000000 0.000000
# 3 -0.002395 -0.003781 0.011846 0.000000 0.000000 0.000000
# 4 0.000000 0.000000 0.000000 0.026978 0.000000 0.000000
# 5 0.000000 0.000000 0.000000 0.000000 -0.033096 0.000000
# 6 0.000000 0.000000 0.000000 0.000000 0.000000 0.029907
#
#
# Mechanical properties :
#
#
# Convention : Reuss Voigt Hill
#
# Bulk Modulus (GPa) = 48.10960 62.70939 55.40950
# Shear Modulus (GPa) = 52.60757 22.18033 37.39395
#
# Velocity S-wave (km/s) = 5.12755 3.32943 4.32301
# Velocity P-wave (km/s) = 7.68761 6.79120 7.25327
#
# Compressibility (1/GPa) = 0.02078587
#
# Stress axis : x y z
#
# Youngs Moduli (GPa) = 129.13203 43.54300 84.41797
#
# Poissons Ratio (x) = 0.20504 0.20216
# Poissons Ratio (y) = 0.60808 0.31920
# Poissons Ratio (z) = 0.30923 0.16464
#
# Static dielectric constant tensor:
#      x y z
#    x 3.997110 0.000000 0.000000 
#    y 0.000000 3.565340 0.000000 
#    z 0.000000 0.000000 3.549530 
# 
# 
# High freq. dielectric constant tensor:
#      x y z
#    x 1.804990 0.000000 0.000000 
#    y 0.000000 1.788200 0.000000 
#    z 0.000000 0.000000 1.776990 
# 
# From -- ./inp_files/16194.got.cif
#   From: 2010.03.12/outbox.cif.g09.slc.cpg/sg39_9_cif.got.tgz:16194.got - 2010.04.14 02:53:20.
