data_PCOD8181784
_publ_section_title
;
Structure prediction by ZEFSAII (Michael W. Deem and Ramdas Pophale) SiO2 
 PCOD8181784
Probable space group: A B M 2
;
_chemical_formula_sum "Si O2"
_cell_formula_units_Z 56
_cell_length_a 14.482500
_cell_length_b 8.834207
_cell_length_c 20.622287
_cell_angle_alpha 90.000000
_cell_angle_beta 90.000000
_cell_angle_gamma 90.000000
_cell_volume 2638.444329
_symmetry_space_group_name_H-M "A B M 2"
_symmetry_group_IT_number 39
_symmetry_cell_setting 'orthorhombic'
loop_
_space_group_symop_operation_xyz
x,y,z
-x,-y,z
-x,1/2+y,z
x,1/2-y,z
x,1/2+y,1/2+z
-x,1/2-y,1/2+z
-x,y,1/2+z
x,-y,1/2+z
loop_
_atom_site_type_symbol
_atom_site_label
_atom_site_fract_x
_atom_site_fract_y
_atom_site_fract_z
Si Si1 0.598801 0.073084 0.127630
Si Si2 0.598771 0.427002 0.276070
Si Si3 0.277672 0.428990 0.018218
Si Si4 0.899807 0.925851 0.561000
Si Si5 0.097351 0.577033 0.829229
Si Si6 0.285749 0.424815 0.387671
Si Si7 0.097802 0.076676 0.704410
O O1 0.592694 0.250000 0.112000
O O2 0.630896 0.044881 0.201795
O O3 0.500000 0.000000 0.114558
O O4 0.671520 0.996872 0.080131
O O5 0.500000 0.500000 0.288919
O O6 0.592696 0.250000 0.291240
O O7 0.671529 0.503618 0.323424
O O8 0.283191 0.250000 0.020856
O O9 0.171610 0.484677 0.016262
O O10 0.323184 0.488933 0.951418
O O11 0.906410 0.750000 0.540481
O O12 0.856286 0.940133 0.633797
O O13 0.000000 0.000000 0.553723
O O14 0.074183 0.750000 0.815404
O O15 0.174009 0.558165 0.884986
O O16 0.146418 0.507726 0.764375
O O17 0.000000 0.500000 0.848868
O O18 0.315015 0.250000 0.392139
O O19 0.087989 0.250000 0.724396
O O20 0.000000 0.000000 0.697587
#
# Coordination Sequence:
#
# PCOD8181784 Si02
#       7
#     8   8   8   8   8   8   8
#     4  10  22  43  70 100 131 163 204 257 314 378
#     4  10  22  42  70 100 129 162 203 253 313 377
#     4  12  26  42  63  92 127 170 216 263 316 376
#     4  10  21  38  59  87 123 166 212 262 317 372
#     4  10  21  36  57  85 119 162 207 257 309 364
#     4  11  25  43  62  90 128 168 213 263 314 373
#     4   9  17  30  52  80 112 149 195 249 303 358
#
# _framework density 21.224627999999999
#
# number of rings (size 3 to 8) (size 9 to 14) (size 15 to 20)
#    0.000    1.714    0.000    4.714    2.000    6.857 
#    0.000    4.286    0.000    0.000    0.000    0.000 
#    0.000    0.000    0.000    0.000    0.000    0.000 
#
# Total GULP energy -347105.444077 kJ/mol
# GULP energy per Si atom -12396.623003 kJ/mol
# Density = 2.117632 g / cm^3
# Si number density = 21.224628 Si / 1000 Ang^3
#
#
#
# Elastic Constant Matrix: (Units=GPa)
#
#
# Indices 1 2 3 4 5 6 
#
# 1 85.3267 63.0541 54.9901 0.0000 0.0000 0.0000
# 2 63.0541 189.2188 68.4208 0.0000 0.0000 0.0000
# 3 54.9901 68.4208 108.0049 0.0000 0.0000 0.0000
# 4 0.0000 0.0000 0.0000 31.4675 0.0000 0.0000
# 5 0.0000 0.0000 0.0000 0.0000 24.6122 0.0000
# 6 0.0000 0.0000 0.0000 0.0000 0.0000 33.1252
#
#
#
# Elastic Compliance Matrix: (Units=1/GPa)
#
#
# Indices 1 2 3 4 5 6 
#
# 1 0.019279 -0.003729 -0.007453 0.000000 0.000000 0.000000
# 2 -0.003729 0.007577 -0.002901 0.000000 0.000000 0.000000
# 3 -0.007453 -0.002901 0.014891 0.000000 0.000000 0.000000
# 4 0.000000 0.000000 0.000000 0.031779 0.000000 0.000000
# 5 0.000000 0.000000 0.000000 0.000000 0.040630 0.000000
# 6 0.000000 0.000000 0.000000 0.000000 0.000000 0.030188
#
#
# Mechanical properties :
#
#
# Convention : Reuss Voigt Hill
#
# Bulk Modulus (GPa) = 73.63884 83.94228 78.79056
# Shear Modulus (GPa) = 28.24251 30.91335 29.57793
#
# Velocity S-wave (km/s) = 3.65176 3.82053 3.73710
# Velocity P-wave (km/s) = 7.24919 7.68748 7.47155
#
# Compressibility (1/GPa) = 0.01357979
#
# Stress axis : x y z
#
# Youngs Moduli (GPa) = 51.87024 131.98506 67.15290
#
# Poissons Ratio (x) = 0.49221 0.50051
# Poissons Ratio (y) = 0.19344 0.19481
# Poissons Ratio (z) = 0.38660 0.38289
#
# Static dielectric constant tensor:
#      x y z
#    x 3.571990 0.000000 0.000000 
#    y 0.000000 3.964900 0.000000 
#    z 0.000000 0.000000 4.279650 
# 
# 
# High freq. dielectric constant tensor:
#      x y z
#    x 1.820050 0.000000 0.000000 
#    y 0.000000 1.847070 0.000000 
#    z 0.000000 0.000000 1.839660 
# 
# From -- ./inp_files/14802.got.cif
#   From: 2010.03.12/outbox.cif.g09.slc.cpg/sg39_8_cif.got.tgz:14802.got - 2010.04.14 02:53:20.
