data_PCOD8181717
_publ_section_title
;
Structure prediction by ZEFSAII (Michael W. Deem and Ramdas Pophale) SiO2 
 PCOD8181717
Probable space group: A B M 2
;
_chemical_formula_sum "Si O2"
_cell_formula_units_Z 44
_cell_length_a 6.316625
_cell_length_b 24.842356
_cell_length_c 14.156848
_cell_angle_alpha 90.000000
_cell_angle_beta 90.000000
_cell_angle_gamma 90.000000
_cell_volume 2221.490422
_symmetry_space_group_name_H-M "A B M 2"
_symmetry_group_IT_number 39
_symmetry_cell_setting 'orthorhombic'
loop_
_space_group_symop_operation_xyz
x,y,z
-x,-y,z
-x,1/2+y,z
x,1/2-y,z
x,1/2+y,1/2+z
-x,1/2-y,1/2+z
-x,y,1/2+z
x,-y,1/2+z
loop_
_atom_site_type_symbol
_atom_site_label
_atom_site_fract_x
_atom_site_fract_y
_atom_site_fract_z
Si Si1 0.327134 0.963350 0.649460
Si Si2 0.744585 0.688473 0.217611
Si Si3 0.978133 0.877642 0.072529
Si Si4 0.000000 0.000000 0.287865
Si Si5 0.008463 0.883190 0.355901
Si Si6 0.361564 0.875656 0.210399
O O1 0.159674 0.932660 0.582916
O O2 0.205706 0.004347 0.720105
O O3 0.454677 0.920370 0.712154
O O4 0.500000 0.000000 0.592232
O O5 0.794410 0.750000 0.242407
O O6 0.861855 0.672817 0.120352
O O7 0.830047 0.650109 0.301053
O O8 0.491860 0.680493 0.203688
O O9 0.206889 0.885027 0.121076
O O10 0.000740 0.863912 0.963168
O O11 0.969883 0.947307 0.351542
O O12 0.236330 0.872820 0.308884
#
# Coordination Sequence:
#
# PCOD8181717 Si02
#       6
#     8   8   8   4   8   8
#     4  11  19  37  61  87 126 176 206 243 302 374
#     4  10  23  44  66  90 124 167 214 264 319 372
#     4  10  23  41  62  96 126 161 213 260 313 370
#     4  12  20  38  62  94 134 166 204 252 310 378
#     4  11  23  40  64  98 129 163 208 259 313 378
#     4  10  20  40  61  85 126 164 209 255 309 367
#
# _framework density 19.806521
#
# number of rings (size 3 to 8) (size 9 to 14) (size 15 to 20)
#    0.000    1.455    7.273    0.000    0.000    8.727 
#    3.273    1.818    0.000    0.000    0.000    0.000 
#    0.000    0.000    0.000    0.000    0.000    0.000 
#
# Total GULP energy -272664.622650 kJ/mol
# GULP energy per Si atom -12393.846484 kJ/mol
# Density = 1.976144 g / cm^3
# Si number density = 19.806521 Si / 1000 Ang^3
#
#
#
# Elastic Constant Matrix: (Units=GPa)
#
#
# Indices 1 2 3 4 5 6 
#
# 1 122.3326 41.0803 53.2020 0.0000 0.0000 0.0000
# 2 41.0803 120.0982 38.6873 0.0000 0.0000 0.0000
# 3 53.2020 38.6873 148.4687 0.0000 0.0000 0.0000
# 4 0.0000 0.0000 0.0000 12.8869 0.0000 0.0000
# 5 0.0000 0.0000 0.0000 0.0000 11.0665 0.0000
# 6 0.0000 0.0000 0.0000 0.0000 0.0000 24.8571
#
#
#
# Elastic Compliance Matrix: (Units=1/GPa)
#
#
# Indices 1 2 3 4 5 6 
#
# 1 0.010359 -0.002563 -0.003044 0.000000 0.000000 0.000000
# 2 -0.002563 0.009723 -0.001615 0.000000 0.000000 0.000000
# 3 -0.003044 -0.001615 0.008247 0.000000 0.000000 0.000000
# 4 0.000000 0.000000 0.000000 0.077598 0.000000 0.000000
# 5 0.000000 0.000000 0.000000 0.000000 0.090363 0.000000
# 6 0.000000 0.000000 0.000000 0.000000 0.000000 0.040230
#
#
# Mechanical properties :
#
#
# Convention : Reuss Voigt Hill
#
# Bulk Modulus (GPa) = 72.02012 72.98207 72.50110
# Shear Modulus (GPa) = 19.56230 26.95742 23.25986
#
# Velocity S-wave (km/s) = 3.14613 3.69323 3.43060
# Velocity P-wave (km/s) = 7.04544 7.42388 7.23714
#
# Compressibility (1/GPa) = 0.01388501
#
# Stress axis : x y z
#
# Youngs Moduli (GPa) = 96.53505 102.84397 121.25298
#
# Poissons Ratio (x) = 0.26356 0.36912
# Poissons Ratio (y) = 0.24739 0.19587
# Poissons Ratio (z) = 0.29387 0.16613
#
# Static dielectric constant tensor:
#      x y z
#    x 3.972330 0.000000 0.000000 
#    y 0.000000 3.607080 0.000000 
#    z 0.000000 0.000000 3.191030 
# 
# 
# High freq. dielectric constant tensor:
#      x y z
#    x 1.794040 0.000000 0.000000 
#    y 0.000000 1.767430 0.000000 
#    z 0.000000 0.000000 1.734390 
# 
# From -- ./inp_files/7498.got.cif
#   From: 2010.03.12/outbox.cif.g09.slc.cpg/sg39_4_cif.got.tgz:7498.got - 2010.04.14 02:53:20.
