data_PCOD8181834
_publ_section_title
;
Structure prediction by ZEFSAII (Michael W. Deem and Ramdas Pophale) SiO2 
 PCOD8181834
Probable space group: A B M 2
;
_chemical_formula_sum "Si O2"
_cell_formula_units_Z 40
_cell_length_a 11.632424
_cell_length_b 13.478496
_cell_length_c 12.016530
_cell_angle_alpha 90.000000
_cell_angle_beta 90.000000
_cell_angle_gamma 90.000000
_cell_volume 1884.042663
_symmetry_space_group_name_H-M "A B M 2"
_symmetry_group_IT_number 39
_symmetry_cell_setting 'orthorhombic'
loop_
_space_group_symop_operation_xyz
x,y,z
-x,-y,z
-x,1/2+y,z
x,1/2-y,z
x,1/2+y,1/2+z
-x,1/2-y,1/2+z
-x,y,1/2+z
x,-y,1/2+z
loop_
_atom_site_type_symbol
_atom_site_label
_atom_site_fract_x
_atom_site_fract_y
_atom_site_fract_z
Si Si1 0.703473 0.546693 0.232850
Si Si2 0.544177 0.135919 0.905206
Si Si3 0.735285 0.137167 0.091147
Si Si4 0.699466 0.864500 0.995369
Si Si5 0.868081 0.524883 0.418794
O O1 0.588636 0.569333 0.303108
O O2 0.708902 0.430310 0.198745
O O3 0.702996 0.617574 0.126779
O O4 0.816266 0.574204 0.306660
O O5 0.536711 0.250000 0.865870
O O6 0.627452 0.126439 0.010345
O O7 0.420294 0.095273 0.944037
O O8 0.755670 0.250000 0.130707
O O9 0.848051 0.097415 0.024763
O O10 0.716133 0.750000 0.970014
O O11 0.801822 0.921784 0.935965
O O12 0.000000 0.500000 0.402227
#
# Coordination Sequence:
#
# PCOD8181834 Si02
#       5
#     8   8   8   8   8
#     4  10  21  37  62  87 119 159 197 240 299 363
#     4   9  19  37  60  90 123 151 186 239 304 368
#     4   9  20  38  61  89 120 154 195 245 299 360
#     4  10  22  39  61  89 118 153 200 249 301 364
#     4  10  23  40  57  83 120 160 203 252 304 353
#
# _framework density 21.230941999999999
#
# number of rings (size 3 to 8) (size 9 to 14) (size 15 to 20)
#    0.000    2.400    0.000    0.600    0.000   16.000 
#    0.000    4.000    0.000    4.800    0.000    0.000 
#    0.000    0.000    0.000    0.000    0.000    0.000 
#
# Total GULP energy -248023.346776 kJ/mol
# GULP energy per Si atom -12401.167339 kJ/mol
# Density = 2.118262 g / cm^3
# Si number density = 21.230942 Si / 1000 Ang^3
#
#
#
# Elastic Constant Matrix: (Units=GPa)
#
#
# Indices 1 2 3 4 5 6 
#
# 1 159.3529 32.5832 53.4791 0.0000 0.0000 0.0000
# 2 32.5832 77.5902 28.0154 0.0000 0.0000 0.0000
# 3 53.4791 28.0154 109.2624 0.0000 0.0000 0.0000
# 4 0.0000 0.0000 0.0000 31.4825 0.0000 0.0000
# 5 0.0000 0.0000 0.0000 0.0000 20.8926 0.0000
# 6 0.0000 0.0000 0.0000 0.0000 0.0000 24.1035
#
#
#
# Elastic Compliance Matrix: (Units=1/GPa)
#
#
# Indices 1 2 3 4 5 6 
#
# 1 0.007805 -0.002092 -0.003284 0.000000 0.000000 0.000000
# 2 -0.002092 0.014764 -0.002762 0.000000 0.000000 0.000000
# 3 -0.003284 -0.002762 0.011468 0.000000 0.000000 0.000000
# 4 0.000000 0.000000 0.000000 0.031764 0.000000 0.000000
# 5 0.000000 0.000000 0.000000 0.000000 0.047864 0.000000
# 6 0.000000 0.000000 0.000000 0.000000 0.000000 0.041488
#
#
# Mechanical properties :
#
#
# Convention : Reuss Voigt Hill
#
# Bulk Modulus (GPa) = 56.30067 63.81789 60.05928
# Shear Modulus (GPa) = 28.19324 30.77092 29.48208
#
# Velocity S-wave (km/s) = 3.64803 3.81115 3.73049
# Velocity P-wave (km/s) = 6.65733 7.03496 6.84875
#
# Compressibility (1/GPa) = 0.01776178
#
# Stress axis : x y z
#
# Youngs Moduli (GPa) = 128.11930 67.73300 87.20151
#
# Poissons Ratio (x) = 0.14170 0.28636
# Poissons Ratio (y) = 0.26803 0.24081
# Poissons Ratio (z) = 0.42073 0.18705
#
# Static dielectric constant tensor:
#      x y z
#    x 3.612460 0.000000 0.000000 
#    y 0.000000 4.002060 0.000000 
#    z 0.000000 0.000000 3.919100 
# 
# 
# High freq. dielectric constant tensor:
#      x y z
#    x 1.809580 0.000000 0.000000 
#    y 0.000000 1.842070 0.000000 
#    z 0.000000 0.000000 1.840160 
# 
# From -- ./inp_files/5656.got.cif
#   From: 2010.03.12/outbox.cif.g09.slc.cpg/sg39_3_cif.got.tgz:5656.got - 2010.04.14 02:53:20.
