data_PCOD8181909
_publ_section_title
;
Structure prediction by ZEFSAII (Michael W. Deem and Ramdas Pophale) SiO2 
 PCOD8181909
Probable space group: A B M 2
;
_chemical_formula_sum "Si O2"
_cell_formula_units_Z 64
_cell_length_a 23.676434
_cell_length_b 9.034592
_cell_length_c 15.341176
_cell_angle_alpha 90.000000
_cell_angle_beta 90.000000
_cell_angle_gamma 90.000000
_cell_volume 3281.583726
_symmetry_space_group_name_H-M "A B M 2"
_symmetry_group_IT_number 39
_symmetry_cell_setting 'orthorhombic'
loop_
_space_group_symop_operation_xyz
x,y,z
-x,-y,z
-x,1/2+y,z
x,1/2-y,z
x,1/2+y,1/2+z
-x,1/2-y,1/2+z
-x,y,1/2+z
x,-y,1/2+z
loop_
_atom_site_type_symbol
_atom_site_label
_atom_site_fract_x
_atom_site_fract_y
_atom_site_fract_z
Si Si1 0.059614 0.076044 0.325770
Si Si2 0.367719 0.918716 0.721769
Si Si3 0.125549 0.079159 0.154285
Si Si4 0.759520 0.918050 0.242579
Si Si5 0.245464 0.424663 0.920216
Si Si6 0.440122 0.576680 0.078956
Si Si7 0.861908 0.924313 0.484802
Si Si8 0.639203 0.922422 0.421434
O O1 0.050384 0.250000 0.328463
O O2 0.088608 0.025709 0.236050
O O3 0.099996 0.024672 0.403945
O O4 0.000000 0.000000 0.337196
O O5 0.386438 0.750000 0.704250
O O6 0.301596 0.940692 0.698639
O O7 0.379325 0.961883 0.822739
O O8 0.403163 0.026221 0.660969
O O9 0.113369 0.250000 0.132630
O O10 0.192015 0.052992 0.172323
O O11 0.107265 0.978161 0.072987
O O12 0.764552 0.750000 0.280130
O O13 0.767867 0.031299 0.321149
O O14 0.244345 0.250000 0.931254
O O15 0.198286 0.494834 0.982099
O O16 0.306338 0.484321 0.949714
O O17 0.500000 0.500000 0.081405
O O18 0.449287 0.750000 0.087472
O O19 0.410657 0.534672 0.987535
O O20 0.852579 0.750000 0.486019
O O21 0.655276 0.750000 0.427346
#
# Coordination Sequence:
#
# PCOD8181909 Si02
#       8
#     8   8   8   8   8   8   8   8
#     4  10  23  43  65  85 120 163 203 250 301 354
#     4   9  19  37  61  87 118 156 193 238 297 355
#     4  10  21  39  61  90 122 158 199 246 303 359
#     4   9  18  37  61  85 124 161 192 240 306 363
#     4  11  21  34  59  92 123 157 201 247 297 360
#     4  11  24  41  61  86 118 156 202 247 293 353
#     4  11  23  40  60  88 123 162 201 247 303 357
#     4   9  21  41  61  85 119 160 197 243 303 357
#
# _framework density 19.502779
#
# number of rings (size 3 to 8) (size 9 to 14) (size 15 to 20)
#    0.000    2.000    1.250    2.625    1.750    6.000 
#    0.000    3.750    0.000    0.000    0.000    0.000 
#    0.000    0.000    0.000    0.000    0.000    0.000 
#
# Total GULP energy -396895.770207 kJ/mol
# GULP energy per Si atom -12402.992819 kJ/mol
# Density = 1.945839 g / cm^3
# Si number density = 19.502779 Si / 1000 Ang^3
#
#
#
# Elastic Constant Matrix: (Units=GPa)
#
#
# Indices 1 2 3 4 5 6 
#
# 1 86.8757 46.0761 32.7963 0.0000 0.0000 0.0000
# 2 46.0761 82.6881 43.4527 0.0000 0.0000 0.0000
# 3 32.7963 43.4527 96.9169 0.0000 0.0000 0.0000
# 4 0.0000 0.0000 0.0000 32.4059 0.0000 0.0000
# 5 0.0000 0.0000 0.0000 0.0000 18.5908 0.0000
# 6 0.0000 0.0000 0.0000 0.0000 0.0000 32.7944
#
#
#
# Elastic Compliance Matrix: (Units=1/GPa)
#
#
# Indices 1 2 3 4 5 6 
#
# 1 0.016610 -0.008244 -0.001924 0.000000 0.000000 0.000000
# 2 -0.008244 0.019913 -0.006138 0.000000 0.000000 0.000000
# 3 -0.001924 -0.006138 0.013721 0.000000 0.000000 0.000000
# 4 0.000000 0.000000 0.000000 0.030859 0.000000 0.000000
# 5 0.000000 0.000000 0.000000 0.000000 0.053790 0.000000
# 6 0.000000 0.000000 0.000000 0.000000 0.000000 0.030493
#
#
# Mechanical properties :
#
#
# Convention : Reuss Voigt Hill
#
# Bulk Modulus (GPa) = 56.71939 56.79231 56.75585
# Shear Modulus (GPa) = 24.52470 26.36860 25.44665
#
# Velocity S-wave (km/s) = 3.54997 3.68100 3.61608
# Velocity P-wave (km/s) = 6.77856 6.87384 6.82637
#
# Compressibility (1/GPa) = 0.01763066
#
# Stress axis : x y z
#
# Youngs Moduli (GPa) = 60.20636 50.21815 72.87867
#
# Poissons Ratio (x) = 0.41400 0.14025
# Poissons Ratio (y) = 0.49634 0.44735
# Poissons Ratio (z) = 0.11586 0.30825
#
# Static dielectric constant tensor:
#      x y z
#    x 3.574100 0.000000 0.000000 
#    y 0.000000 3.444930 0.000000 
#    z 0.000000 0.000000 3.596430 
# 
# 
# High freq. dielectric constant tensor:
#      x y z
#    x 1.757640 0.000000 0.000000 
#    y 0.000000 1.754580 0.000000 
#    z 0.000000 0.000000 1.764330 
# 
# From -- ./inp_files/10590.got.cif
#   From: 2010.03.12/outbox.cif.g09.slc.cpg/sg39_6_cif.got.tgz:10590.got - 2010.04.14 02:53:20.
