data_PCOD8181064
_publ_section_title
;
Structure prediction by ZEFSAII (Michael W. Deem and Ramdas Pophale) SiO2 
 PCOD8181064
Probable space group: A B M 2
;
_chemical_formula_sum "Si O2"
_cell_formula_units_Z 64
_cell_length_a 17.569764
_cell_length_b 9.018014
_cell_length_c 22.453658
_cell_angle_alpha 90.000000
_cell_angle_beta 90.000000
_cell_angle_gamma 90.000000
_cell_volume 3557.655870
_symmetry_space_group_name_H-M "A B M 2"
_symmetry_group_IT_number 39
_symmetry_cell_setting 'orthorhombic'
loop_
_space_group_symop_operation_xyz
x,y,z
-x,-y,z
-x,1/2+y,z
x,1/2-y,z
x,1/2+y,1/2+z
-x,1/2-y,1/2+z
-x,y,1/2+z
x,-y,1/2+z
loop_
_atom_site_type_symbol
_atom_site_label
_atom_site_fract_x
_atom_site_fract_y
_atom_site_fract_z
Si Si1 0.917819 0.571016 0.027480
Si Si2 0.801105 0.089077 0.619502
Si Si3 0.801976 0.583131 0.445230
Si Si4 0.577977 0.917301 0.639797
Si Si5 0.290270 0.572442 0.347372
Si Si6 0.696640 0.928879 0.219975
Si Si7 0.678317 0.501828 0.033981
Si Si8 0.576708 0.412813 0.430180
O O1 0.920380 0.750000 0.024210
O O2 0.873148 0.512170 0.087110
O O3 0.000000 0.500000 0.030102
O O4 0.873928 0.507121 0.970485
O O5 0.829005 0.250000 0.639536
O O6 0.766899 0.010905 0.678420
O O7 0.732741 0.110040 0.571604
O O8 0.827180 0.750000 0.428253
O O9 0.778372 0.493461 0.386226
O O10 0.732483 0.598364 0.492218
O O11 0.561798 0.750000 0.661704
O O12 0.628761 0.905405 0.580040
O O13 0.500000 0.000000 0.624185
O O14 0.618479 0.007408 0.693093
O O15 0.282285 0.750000 0.343539
O O16 0.287472 0.496836 0.283690
O O17 0.369725 0.523172 0.377946
O O18 0.692343 0.750000 0.221564
O O19 0.621990 0.595212 0.992349
O O20 0.500000 0.500000 0.437740
O O21 0.551241 0.250000 0.411894
#
# Coordination Sequence:
#
# PCOD8181064 Si02
#       8
#     8   8   8   8   8   8   8   8
#     4  10  19  33  54  83 116 144 165 195 241 296
#     4   8  16  31  52  76 103 132 164 202 249 301
#     4  10  19  33  54  80 105 134 172 212 252 301
#     4  11  22  34  48  70  99 132 168 212 263 314
#     4  10  21  37  53  72  99 134 174 217 261 307
#     4  10  20  36  56  75  95 128 173 219 261 304
#     4   9  18  31  50  73 100 129 166 211 259 309
#     4  10  21  33  48  69  97 131 168 212 264 314
#
# _framework density 17.989374000000002
#
# number of rings (size 3 to 8) (size 9 to 14) (size 15 to 20)
#    0.000    2.250    0.000    3.000    0.000    9.000 
#    0.000    3.125    0.000    0.750    0.000    3.500 
#    0.000    0.000    0.000    0.000    0.000    0.000 
#
# Total GULP energy -396516.788142 kJ/mol
# GULP energy per Si atom -12391.149629 kJ/mol
# Density = 1.794843 g / cm^3
# Si number density = 17.989374 Si / 1000 Ang^3
#
#
#
# Elastic Constant Matrix: (Units=GPa)
#
#
# Indices 1 2 3 4 5 6 
#
# 1 126.8582 42.8680 58.7926 0.0000 0.0000 0.0000
# 2 42.8680 101.0126 36.8677 0.0000 0.0000 0.0000
# 3 58.7926 36.8677 129.3807 0.0000 0.0000 0.0000
# 4 0.0000 0.0000 0.0000 22.7635 0.0000 0.0000
# 5 0.0000 0.0000 0.0000 0.0000 16.6741 0.0000
# 6 0.0000 0.0000 0.0000 0.0000 0.0000 23.2573
#
#
#
# Elastic Compliance Matrix: (Units=1/GPa)
#
#
# Indices 1 2 3 4 5 6 
#
# 1 0.010798 -0.003116 -0.004019 0.000000 0.000000 0.000000
# 2 -0.003116 0.011948 -0.001989 0.000000 0.000000 0.000000
# 3 -0.004019 -0.001989 0.010122 0.000000 0.000000 0.000000
# 4 0.000000 0.000000 0.000000 0.043930 0.000000 0.000000
# 5 0.000000 0.000000 0.000000 0.000000 0.059973 0.000000
# 6 0.000000 0.000000 0.000000 0.000000 0.000000 0.042997
#
#
# Mechanical properties :
#
#
# Convention : Reuss Voigt Hill
#
# Bulk Modulus (GPa) = 68.39382 70.47868 69.43625
# Shear Modulus (GPa) = 24.64389 27.12052 25.88220
#
# Velocity S-wave (km/s) = 3.70525 3.88698 3.79720
# Velocity P-wave (km/s) = 7.51044 7.70764 7.60968
#
# Compressibility (1/GPa) = 0.01462121
#
# Stress axis : x y z
#
# Youngs Moduli (GPa) = 92.60687 83.69690 98.79304
#
# Poissons Ratio (x) = 0.26078 0.39706
# Poissons Ratio (y) = 0.28854 0.19648
# Poissons Ratio (z) = 0.37220 0.16645
#
# Static dielectric constant tensor:
#      x y z
#    x 3.257620 0.000000 0.000000 
#    y 0.000000 3.223660 0.000000 
#    z 0.000000 0.000000 3.334380 
# 
# 
# High freq. dielectric constant tensor:
#      x y z
#    x 1.681000 0.000000 0.000000 
#    y 0.000000 1.695670 0.000000 
#    z 0.000000 0.000000 1.689580 
# 
# From -- ./inp_files/16358.got.cif
#   From: 2010.03.12/outbox.cif.g09.slc.cpg/sg39_9_cif.got.tgz:16358.got - 2010.04.14 02:53:20.
