data_PCOD8181184
_publ_section_title
;
Structure prediction by ZEFSAII (Michael W. Deem and Ramdas Pophale) SiO2 
 PCOD8181184
Probable space group: A B M 2
;
_chemical_formula_sum "Si O2"
_cell_formula_units_Z 40
_cell_length_a 7.928748
_cell_length_b 13.142237
_cell_length_c 14.603217
_cell_angle_alpha 90.000000
_cell_angle_beta 90.000000
_cell_angle_gamma 90.000000
_cell_volume 1521.676902
_symmetry_space_group_name_H-M "A B M 2"
_symmetry_group_IT_number 39
_symmetry_cell_setting 'orthorhombic'
loop_
_space_group_symop_operation_xyz
x,y,z
-x,-y,z
-x,1/2+y,z
x,1/2-y,z
x,1/2+y,1/2+z
-x,1/2-y,1/2+z
-x,y,1/2+z
x,-y,1/2+z
loop_
_atom_site_type_symbol
_atom_site_label
_atom_site_fract_x
_atom_site_fract_y
_atom_site_fract_z
Si Si1 0.609807 0.860197 0.011740
Si Si2 0.786676 0.872641 0.319717
Si Si3 0.760984 0.933953 0.522795
Si Si4 0.904986 0.630915 0.700305
Si Si5 0.418429 0.136145 0.798160
O O1 0.667961 0.750000 0.051010
O O2 0.414710 0.875144 0.038809
O O3 0.731594 0.947707 0.049089
O O4 0.629514 0.862920 0.903610
O O5 0.778674 0.750000 0.327234
O O6 0.829668 0.916996 0.420241
O O7 0.603021 0.916971 0.287199
O O8 0.925899 0.913568 0.247712
O O9 0.903812 0.892514 0.591948
O O10 0.906023 0.750000 0.720746
O O11 0.735453 0.581089 0.744885
O O12 0.436031 0.250000 0.758807
#
# Coordination Sequence:
#
# PCOD8181184 Si02
#       5
#     8   8   8   8   8
#     4   9  18  36  64  94 128 176 227 280 346 409
#     4   9  18  35  60  94 138 178 216 274 340 400
#     4  10  19  35  63  99 137 179 227 281 338 413
#     4  10  19  34  63  99 134 173 218 274 336 398
#     4   8  16  34  60  89 124 169 218 269 334 405
#
# _framework density 26.286787
#
# number of rings (size 3 to 8) (size 9 to 14) (size 15 to 20)
#    0.000    2.800    0.000    3.000    0.000    0.000 
#    0.000   13.000    0.000   27.600    0.000    7.000 
#    0.000    0.000    0.000    0.000    0.000    0.000 
#
# Total GULP energy -247969.909801 kJ/mol
# GULP energy per Si atom -12398.495490 kJ/mol
# Density = 2.622696 g / cm^3
# Si number density = 26.286787 Si / 1000 Ang^3
#
#
#
# Elastic Constant Matrix: (Units=GPa)
#
#
# Indices 1 2 3 4 5 6 
#
# 1 154.7949 32.0163 106.7126 0.0000 0.0000 0.0000
# 2 32.0163 78.0967 12.6815 0.0000 0.0000 0.0000
# 3 106.7126 12.6815 110.3160 0.0000 0.0000 0.0000
# 4 0.0000 0.0000 0.0000 6.4097 0.0000 0.0000
# 5 0.0000 0.0000 0.0000 0.0000 43.5517 0.0000
# 6 0.0000 0.0000 0.0000 0.0000 0.0000 30.3779
#
#
#
# Elastic Compliance Matrix: (Units=1/GPa)
#
#
# Indices 1 2 3 4 5 6 
#
# 1 0.021515 -0.005544 -0.020175 0.000000 0.000000 0.000000
# 2 -0.005544 0.014477 0.003699 0.000000 0.000000 0.000000
# 3 -0.020175 0.003699 0.028156 0.000000 0.000000 0.000000
# 4 0.000000 0.000000 0.000000 0.156014 0.000000 0.000000
# 5 0.000000 0.000000 0.000000 0.000000 0.022961 0.000000
# 6 0.000000 0.000000 0.000000 0.000000 0.000000 0.032919
#
#
# Mechanical properties :
#
#
# Convention : Reuss Voigt Hill
#
# Bulk Modulus (GPa) = 49.73377 71.78092 60.75734
# Shear Modulus (GPa) = 15.30060 28.85434 22.07747
#
# Velocity S-wave (km/s) = 2.41522 3.31671 2.90119
# Velocity P-wave (km/s) = 5.17092 6.48333 5.86396
#
# Compressibility (1/GPa) = 0.02010706
#
# Stress axis : x y z
#
# Youngs Moduli (GPa) = 46.47885 69.07556 35.51680
#
# Poissons Ratio (x) = 0.38297 0.71655
# Poissons Ratio (y) = 0.25769 -0.13137
# Poissons Ratio (z) = 0.93771 -0.25551
#
# Static dielectric constant tensor:
#      x y z
#    x 4.821710 0.000000 0.000000 
#    y 0.000000 5.062990 0.000000 
#    z 0.000000 0.000000 4.361400 
# 
# 
# High freq. dielectric constant tensor:
#      x y z
#    x 2.046180 0.000000 0.000000 
#    y 0.000000 2.074160 0.000000 
#    z 0.000000 0.000000 2.032410 
# 
# From -- ./inp_files/8076.got.cif
#   From: 2010.03.12/outbox.cif.g09.slc.cpg/sg39_5_cif.got.tgz:8076.got - 2010.04.14 02:53:20.
