data_PCOD8181651
_publ_section_title
;
Structure prediction by ZEFSAII (Michael W. Deem and Ramdas Pophale) SiO2 
 PCOD8181651
Probable space group: A B M 2
;
_chemical_formula_sum "Si O2"
_cell_formula_units_Z 48
_cell_length_a 7.630791
_cell_length_b 25.793761
_cell_length_c 11.373470
_cell_angle_alpha 90.000000
_cell_angle_beta 90.000000
_cell_angle_gamma 90.000000
_cell_volume 2238.603697
_symmetry_space_group_name_H-M "A B M 2"
_symmetry_group_IT_number 39
_symmetry_cell_setting 'orthorhombic'
loop_
_space_group_symop_operation_xyz
x,y,z
-x,-y,z
-x,1/2+y,z
x,1/2-y,z
x,1/2+y,1/2+z
-x,1/2-y,1/2+z
-x,y,1/2+z
x,-y,1/2+z
loop_
_atom_site_type_symbol
_atom_site_label
_atom_site_fract_x
_atom_site_fract_y
_atom_site_fract_z
Si Si1 0.730501 0.398686 0.598720
Si Si2 0.784821 0.647527 0.844371
Si Si3 0.406962 0.151185 0.319237
Si Si4 0.573883 0.053697 0.984920
Si Si5 0.109011 0.592718 0.120848
Si Si6 0.897240 0.307530 0.959676
O O1 0.747474 0.374392 0.471722
O O2 0.691108 0.354503 0.694858
O O3 0.560432 0.435090 0.592423
O O4 0.910661 0.429929 0.627716
O O5 0.602952 0.675213 0.802816
O O6 0.823942 0.600823 0.753407
O O7 0.952462 0.684931 0.859218
O O8 0.422723 0.094382 0.378722
O O9 0.292476 0.189392 0.398501
O O10 0.767440 0.054036 0.045608
O O11 0.500000 0.000000 0.930929
O O12 0.093964 0.650075 0.062618
O O13 0.917131 0.250000 0.014159
#
# Coordination Sequence:
#
# PCOD8181651 Si02
#       6
#     8   8   8   8   8   8
#     4  10  20  37  62  87 120 160 203 249 314 371
#     4  10  20  37  62  86 115 164 200 248 312 367
#     4  10  20  39  62  87 123 160 201 260 311 366
#     4  10  22  38  62  89 120 162 210 253 309 374
#     4  10  20  39  62  85 124 163 201 259 316 364
#     4  10  22  38  60  88 118 161 211 256 310 373
#
# _framework density 21.441939000000001
#
# number of rings (size 3 to 8) (size 9 to 14) (size 15 to 20)
#    0.000    2.000    3.333    0.000    0.000    2.667 
#    0.000    0.000    0.000    0.000    0.000    0.000 
#    0.000    0.000    0.000    0.000    0.000    0.000 
#
# Total GULP energy -297341.347644 kJ/mol
# GULP energy per Si atom -12389.222818 kJ/mol
# Density = 2.139314 g / cm^3
# Si number density = 21.441939 Si / 1000 Ang^3
#
#
#
# Elastic Constant Matrix: (Units=GPa)
#
#
# Indices 1 2 3 4 5 6 
#
# 1 167.5227 4.7539 19.5232 0.0000 0.0000 0.0000
# 2 4.7539 69.0979 6.8837 0.0000 0.0000 0.0000
# 3 19.5232 6.8837 96.1951 0.0000 0.0000 0.0000
# 4 0.0000 0.0000 0.0000 15.9681 0.0000 0.0000
# 5 0.0000 0.0000 0.0000 0.0000 30.5987 0.0000
# 6 0.0000 0.0000 0.0000 0.0000 0.0000 -288.0332
#
#
#
# Elastic Compliance Matrix: (Units=1/GPa)
#
#
# Indices 1 2 3 4 5 6 
#
# 1 0.006120 -0.000299 -0.001221 0.000000 0.000000 0.000000
# 2 -0.000299 0.014591 -0.000983 0.000000 0.000000 0.000000
# 3 -0.001221 -0.000983 0.010714 0.000000 0.000000 0.000000
# 4 0.000000 0.000000 0.000000 0.062625 0.000000 0.000000
# 5 0.000000 0.000000 0.000000 0.000000 0.032681 0.000000
# 6 0.000000 0.000000 0.000000 0.000000 0.000000 -0.003472
#
#
# Mechanical properties :
#
#
# Convention : Reuss Voigt Hill
#
# Bulk Modulus (GPa) = 37.85353 43.90413 40.87883
# Shear Modulus (GPa) = 36.47734 -28.18295 4.14719
#
# Velocity S-wave (km/s) = 4.12905 -3.62938 1.39225
# Velocity P-wave (km/s) = 6.35802 1.71962 4.65733
#
# Compressibility (1/GPa) = 0.02641761
#
# Stress axis : x y z
#
# Youngs Moduli (GPa) = 163.39613 68.53644 93.33886
#
# Poissons Ratio (x) = 0.02052 0.11394
# Poissons Ratio (y) = 0.04893 0.09178
# Poissons Ratio (z) = 0.19945 0.06739
#
# Static dielectric constant tensor:
#      x y z
#    x 5.071950 0.000000 0.000000 
#    y 0.000000 3.291950 0.000000 
#    z 0.000000 0.000000 3.781000 
# 
# 
# High freq. dielectric constant tensor:
#      x y z
#    x 1.879310 0.000000 0.000000 
#    y 0.000000 1.775870 0.000000 
#    z 0.000000 0.000000 1.840600 
# 
# From -- ./inp_files/5182.got.cif
#   From: 2010.03.12/outbox.cif.g09.slc.cpg/sg39_3_cif.got.tgz:5182.got - 2010.04.14 02:53:20.
