data_PCOD8181057
_publ_section_title
;
Structure prediction by ZEFSAII (Michael W. Deem and Ramdas Pophale) SiO2 
 PCOD8181057
Probable space group: A B M 2
;
_chemical_formula_sum "Si O2"
_cell_formula_units_Z 48
_cell_length_a 8.832092
_cell_length_b 31.063496
_cell_length_c 8.783487
_cell_angle_alpha 90.000000
_cell_angle_beta 90.000000
_cell_angle_gamma 90.000000
_cell_volume 2409.799325
_symmetry_space_group_name_H-M "A B M 2"
_symmetry_group_IT_number 39
_symmetry_cell_setting 'orthorhombic'
loop_
_space_group_symop_operation_xyz
x,y,z
-x,-y,z
-x,1/2+y,z
x,1/2-y,z
x,1/2+y,1/2+z
-x,1/2-y,1/2+z
-x,y,1/2+z
x,-y,1/2+z
loop_
_atom_site_type_symbol
_atom_site_label
_atom_site_fract_x
_atom_site_fract_y
_atom_site_fract_z
Si Si1 0.193924 0.202013 0.591830
Si Si2 0.389505 0.880707 0.112151
Si Si3 0.080666 0.045412 0.117978
Si Si4 0.143066 0.588834 0.317204
Si Si5 0.046765 0.834285 0.809944
Si Si6 0.695488 0.398292 0.768727
O O1 0.258803 0.250000 0.618465
O O2 0.331168 0.168604 0.620179
O O3 0.128766 0.198147 0.423271
O O4 0.046802 0.194470 0.694011
O O5 0.311674 0.906643 0.251484
O O6 0.565535 0.885312 0.148828
O O7 0.355820 0.900274 0.945010
O O8 0.230286 0.055035 0.222908
O O9 0.953074 0.079613 0.164531
O O10 0.129532 0.051056 0.941783
O O11 0.000000 0.000000 0.145673
O O12 0.073956 0.632751 0.389453
O O13 0.180215 0.862097 0.733626
#
# Coordination Sequence:
#
# PCOD8181057 Si02
#       6
#     8   8   8   8   8   8
#     4  10  19  33  53  83 115 148 195 249 288 328
#     4  10  21  37  59  82 115 159 197 232 287 354
#     4  11  21  35  58  87 113 141 183 236 286 334
#     4  10  19  35  57  82 113 149 189 230 279 350
#     4   9  18  33  55  78 108 151 193 232 285 340
#     4  10  20  37  58  82 112 152 196 235 282 352
#
# _framework density 19.918672000000001
#
# number of rings (size 3 to 8) (size 9 to 14) (size 15 to 20)
#    0.000    2.000    0.000    7.000    0.000    1.333 
#    0.000    5.833    0.000    6.000    0.000    0.000 
#    0.000    0.000    0.000    0.000    0.000    0.000 
#
# Total GULP energy -297326.692151 kJ/mol
# GULP energy per Si atom -12388.612173 kJ/mol
# Density = 1.987334 g / cm^3
# Si number density = 19.918672 Si / 1000 Ang^3
#
#
#
# Elastic Constant Matrix: (Units=GPa)
#
#
# Indices 1 2 3 4 5 6 
#
# 1 110.7985 51.2646 43.5722 0.0000 0.0000 0.0000
# 2 51.2646 106.5749 51.5529 0.0000 0.0000 0.0000
# 3 43.5722 51.5529 103.4175 0.0000 0.0000 0.0000
# 4 0.0000 0.0000 0.0000 23.3468 0.0000 0.0000
# 5 0.0000 0.0000 0.0000 0.0000 29.7725 0.0000
# 6 0.0000 0.0000 0.0000 0.0000 0.0000 24.1889
#
#
#
# Elastic Compliance Matrix: (Units=1/GPa)
#
#
# Indices 1 2 3 4 5 6 
#
# 1 0.012248 -0.004474 -0.002930 0.000000 0.000000 0.000000
# 2 -0.004474 0.013999 -0.005093 0.000000 0.000000 0.000000
# 3 -0.002930 -0.005093 0.013443 0.000000 0.000000 0.000000
# 4 0.000000 0.000000 0.000000 0.042832 0.000000 0.000000
# 5 0.000000 0.000000 0.000000 0.000000 0.033588 0.000000
# 6 0.000000 0.000000 0.000000 0.000000 0.000000 0.041341
#
#
# Mechanical properties :
#
#
# Convention : Reuss Voigt Hill
#
# Bulk Modulus (GPa) = 68.05081 68.17447 68.11264
# Shear Modulus (GPa) = 26.68880 27.08838 26.88859
#
# Velocity S-wave (km/s) = 3.66442 3.69175 3.67811
# Velocity P-wave (km/s) = 7.22097 7.24381 7.23240
#
# Compressibility (1/GPa) = 0.01469490
#
# Stress axis : x y z
#
# Youngs Moduli (GPa) = 81.64794 71.43373 74.38815
#
# Poissons Ratio (x) = 0.31960 0.21795
# Poissons Ratio (y) = 0.36530 0.37889
# Poissons Ratio (z) = 0.23922 0.36384
#
# Static dielectric constant tensor:
#      x y z
#    x 3.598810 0.000000 0.000000 
#    y 0.000000 3.477650 0.000000 
#    z 0.000000 0.000000 3.629620 
# 
# 
# High freq. dielectric constant tensor:
#      x y z
#    x 1.771890 0.000000 0.000000 
#    y 0.000000 1.752190 0.000000 
#    z 0.000000 0.000000 1.784890 
# 
# From -- ./inp_files/2294.got.cif
#   From: 2010.03.12/outbox.cif.g09.slc.cpg/sg39_2_cif.got.tgz:2294.got - 2010.04.14 02:53:20.
