data_PCOD8181584
_publ_section_title
;
Structure prediction by ZEFSAII (Michael W. Deem and Ramdas Pophale) SiO2 
 PCOD8181584
Probable space group: A B M 2
;
_chemical_formula_sum "Si O2"
_cell_formula_units_Z 60
_cell_length_a 16.798527
_cell_length_b 9.254825
_cell_length_c 18.971812
_cell_angle_alpha 90.000000
_cell_angle_beta 90.000000
_cell_angle_gamma 90.000000
_cell_volume 2949.498809
_symmetry_space_group_name_H-M "A B M 2"
_symmetry_group_IT_number 39
_symmetry_cell_setting 'orthorhombic'
loop_
_space_group_symop_operation_xyz
x,y,z
-x,-y,z
-x,1/2+y,z
x,1/2-y,z
x,1/2+y,1/2+z
-x,1/2-y,1/2+z
-x,y,1/2+z
x,-y,1/2+z
loop_
_atom_site_type_symbol
_atom_site_label
_atom_site_fract_x
_atom_site_fract_y
_atom_site_fract_z
Si Si1 0.388071 0.908824 0.928670
Si Si2 0.375567 0.411897 0.699187
Si Si3 0.082018 0.084110 0.149280
Si Si4 0.634549 0.081852 0.561830
Si Si5 0.500000 0.000000 0.811514
Si Si6 0.188551 0.911577 0.518783
Si Si7 0.787519 0.581206 0.387474
Si Si8 0.201549 0.421130 0.749069
O O1 0.379455 0.750000 0.962318
O O2 0.305258 0.957818 0.894271
O O3 0.451110 0.898718 0.865058
O O4 0.409953 0.017091 0.992728
O O5 0.367786 0.250000 0.669778
O O6 0.400206 0.513224 0.633658
O O7 0.440815 0.411676 0.761253
O O8 0.292064 0.464070 0.731392
O O9 0.072628 0.250000 0.175863
O O10 0.113289 0.082659 0.069729
O O11 0.145903 0.996784 0.193184
O O12 0.000000 0.000000 0.154351
O O13 0.614355 0.250000 0.564203
O O14 0.728946 0.048043 0.558558
O O15 0.198298 0.750000 0.487024
O O16 0.169009 0.026913 0.458143
O O17 0.804215 0.750000 0.375544
O O18 0.822729 0.488890 0.323693
O O19 0.187492 0.250000 0.749767
#
# Coordination Sequence:
#
# PCOD8181584 Si02
#       8
#     8   8   8   8   4   8   8   8
#     4  10  22  39  60  86 119 158 205 261 317 372
#     4  11  24  40  62  91 123 163 212 264 316 374
#     4  11  23  41  65  97 132 166 205 254 311 372
#     4  10  21  39  64  88 117 158 205 255 310 371
#     4  12  24  42  60  88 124 166 212 266 324 372
#     4   9  19  37  61  90 122 158 201 250 304 369
#     4  10  20  36  61  91 120 159 207 257 308 370
#     4  11  22  39  63  92 127 167 210 259 312 374
#
# _framework density 20.342438999999999
#
# number of rings (size 3 to 8) (size 9 to 14) (size 15 to 20)
#    0.000    1.600    2.667    2.000    0.000    5.333 
#    0.000    0.667    0.000    1.600    0.000    0.000 
#    0.000    0.000    0.000    0.000    0.000    0.000 
#
# Total GULP energy -372005.572140 kJ/mol
# GULP energy per Si atom -12400.185738 kJ/mol
# Density = 2.029614 g / cm^3
# Si number density = 20.342439 Si / 1000 Ang^3
#
#
#
# Elastic Constant Matrix: (Units=GPa)
#
#
# Indices 1 2 3 4 5 6 
#
# 1 75.0893 34.5626 22.7318 0.0000 0.0000 0.0000
# 2 34.5626 130.6932 68.6169 0.0000 0.0000 0.0000
# 3 22.7318 68.6169 107.7139 0.0000 0.0000 0.0000
# 4 0.0000 0.0000 0.0000 38.3927 0.0000 0.0000
# 5 0.0000 0.0000 0.0000 0.0000 13.4276 0.0000
# 6 0.0000 0.0000 0.0000 0.0000 0.0000 20.9739
#
#
#
# Elastic Compliance Matrix: (Units=1/GPa)
#
#
# Indices 1 2 3 4 5 6 
#
# 1 0.015231 -0.003516 -0.000974 0.000000 0.000000 0.000000
# 2 -0.003516 0.012308 -0.007099 0.000000 0.000000 0.000000
# 3 -0.000974 -0.007099 0.014012 0.000000 0.000000 0.000000
# 4 0.000000 0.000000 0.000000 0.026047 0.000000 0.000000
# 5 0.000000 0.000000 0.000000 0.000000 0.074474 0.000000
# 6 0.000000 0.000000 0.000000 0.000000 0.000000 0.047678
#
#
# Mechanical properties :
#
#
# Convention : Reuss Voigt Hill
#
# Bulk Modulus (GPa) = 54.43021 62.81322 58.62171
# Shear Modulus (GPa) = 22.82559 27.06451 24.94505
#
# Velocity S-wave (km/s) = 3.35336 3.65148 3.50559
# Velocity P-wave (km/s) = 6.46594 6.98017 6.72797
#
# Compressibility (1/GPa) = 0.01837215
#
# Stress axis : x y z
#
# Youngs Moduli (GPa) = 65.65567 81.24497 71.36954
#
# Poissons Ratio (x) = 0.28569 0.06953
# Poissons Ratio (y) = 0.23087 0.50663
# Poissons Ratio (z) = 0.06397 0.57674
#
# Static dielectric constant tensor:
#      x y z
#    x 3.886920 0.000000 0.000000 
#    y 0.000000 3.687880 0.000000 
#    z 0.000000 0.000000 3.684660 
# 
# 
# High freq. dielectric constant tensor:
#      x y z
#    x 1.772180 0.000000 0.000000 
#    y 0.000000 1.802710 0.000000 
#    z 0.000000 0.000000 1.799670 
# 
# From -- ./inp_files/12997.got.cif
#   From: 2010.03.12/outbox.cif.g09.slc.cpg/sg39_7_cif.got.tgz:12997.got - 2010.04.14 02:53:20.
