data_PCOD8181861
_publ_section_title
;
Structure prediction by ZEFSAII (Michael W. Deem and Ramdas Pophale) SiO2 
 PCOD8181861
Probable space group: A B M 2
;
_chemical_formula_sum "Si O2"
_cell_formula_units_Z 64
_cell_length_a 18.883487
_cell_length_b 8.832351
_cell_length_c 19.225923
_cell_angle_alpha 90.000000
_cell_angle_beta 90.000000
_cell_angle_gamma 90.000000
_cell_volume 3206.606820
_symmetry_space_group_name_H-M "A B M 2"
_symmetry_group_IT_number 39
_symmetry_cell_setting 'orthorhombic'
loop_
_space_group_symop_operation_xyz
x,y,z
-x,-y,z
-x,1/2+y,z
x,1/2-y,z
x,1/2+y,1/2+z
-x,1/2-y,1/2+z
-x,y,1/2+z
x,-y,1/2+z
loop_
_atom_site_type_symbol
_atom_site_label
_atom_site_fract_x
_atom_site_fract_y
_atom_site_fract_z
Si Si1 0.205252 0.571280 0.703920
Si Si2 0.423708 0.428030 0.387767
Si Si3 0.072928 0.072069 0.296125
Si Si4 0.073084 0.571975 0.953716
Si Si5 0.654378 0.070909 0.264584
Si Si6 0.429850 0.077005 0.146477
Si Si7 0.193078 0.073741 0.044084
Si Si8 0.349312 0.079397 0.008614
O O1 0.219594 0.750000 0.709848
O O2 0.135458 0.519361 0.745330
O O3 0.270096 0.485718 0.738933
O O4 0.196838 0.520710 0.624104
O O5 0.500000 0.500000 0.372865
O O6 0.429583 0.250000 0.376315
O O7 0.363281 0.498939 0.339061
O O8 0.397374 0.462878 0.465784
O O9 0.063226 0.250000 0.293225
O O10 0.090164 0.018002 0.374881
O O11 0.000000 0.000000 0.269090
O O12 0.064994 0.750000 0.957348
O O13 0.000000 0.500000 0.979966
O O14 0.134437 0.522198 0.005207
O O15 0.655069 0.250000 0.270976
O O16 0.592514 0.018140 0.213334
O O17 0.444280 0.250000 0.168445
O O18 0.500000 0.000000 0.115298
O O19 0.368510 0.067489 0.089602
O O20 0.173535 0.250000 0.040236
O O21 0.266523 0.039667 0.004327
O O22 0.364289 0.250000 0.981528
#
# Coordination Sequence:
#
# PCOD8181861 Si02
#       8
#     8   8   8   8   8   8   8   8
#     4  10  21  41  63  89 124 164 202 247 307 361
#     4  12  26  44  65  89 122 160 204 258 313 368
#     4   9  20  38  62  89 121 157 201 246 297 357
#     4  10  21  38  60  90 122 160 205 251 301 360
#     4  12  25  41  62  91 123 160 207 254 303 364
#     4  11  22  40  64  90 122 161 201 249 304 361
#     4  10  21  39  62  89 125 163 198 247 304 362
#     4  10  22  41  63  91 125 161 203 248 305 367
#
# _framework density 19.958793
#
# number of rings (size 3 to 8) (size 9 to 14) (size 15 to 20)
#    0.000    1.500    1.250    3.750    1.750    4.500 
#    0.000    1.250    0.000    0.000    0.000    0.000 
#    0.000    0.000    0.000    0.000    0.000    0.000 
#
# Total GULP energy -396961.725163 kJ/mol
# GULP energy per Si atom -12405.053911 kJ/mol
# Density = 1.991337 g / cm^3
# Si number density = 19.958793 Si / 1000 Ang^3
#
#
#
# Elastic Constant Matrix: (Units=GPa)
#
#
# Indices 1 2 3 4 5 6 
#
# 1 119.7173 52.8963 40.8223 0.0000 0.0000 0.0000
# 2 52.8963 105.5202 39.7375 0.0000 0.0000 0.0000
# 3 40.8223 39.7375 83.3622 0.0000 0.0000 0.0000
# 4 0.0000 0.0000 0.0000 28.8644 0.0000 0.0000
# 5 0.0000 0.0000 0.0000 0.0000 35.0962 0.0000
# 6 0.0000 0.0000 0.0000 0.0000 0.0000 38.0341
#
#
#
# Elastic Compliance Matrix: (Units=1/GPa)
#
#
# Indices 1 2 3 4 5 6 
#
# 1 0.011519 -0.004449 -0.003520 0.000000 0.000000 0.000000
# 2 -0.004449 0.013268 -0.004146 0.000000 0.000000 0.000000
# 3 -0.003520 -0.004146 0.015696 0.000000 0.000000 0.000000
# 4 0.000000 0.000000 0.000000 0.034645 0.000000 0.000000
# 5 0.000000 0.000000 0.000000 0.000000 0.028493 0.000000
# 6 0.000000 0.000000 0.000000 0.000000 0.000000 0.026292
#
#
# Mechanical properties :
#
#
# Convention : Reuss Voigt Hill
#
# Bulk Modulus (GPa) = 61.52670 63.94578 62.73624
# Shear Modulus (GPa) = 31.33583 32.07518 31.70550
#
# Velocity S-wave (km/s) = 3.96665 4.01318 3.98998
# Velocity P-wave (km/s) = 7.20229 7.32001 7.26139
#
# Compressibility (1/GPa) = 0.01625311
#
# Stress axis : x y z
#
# Youngs Moduli (GPa) = 86.81319 75.36698 63.70982
#
# Poissons Ratio (x) = 0.33529 0.22427
# Poissons Ratio (y) = 0.38621 0.26416
# Poissons Ratio (z) = 0.30560 0.31250
#
# Static dielectric constant tensor:
#      x y z
#    x 3.730380 0.000000 0.000000 
#    y 0.000000 3.567360 0.000000 
#    z 0.000000 0.000000 3.685200 
# 
# 
# High freq. dielectric constant tensor:
#      x y z
#    x 1.789050 0.000000 0.000000 
#    y 0.000000 1.777210 0.000000 
#    z 0.000000 0.000000 1.782530 
# 
# From -- ./inp_files/13189.got.cif
#   From: 2010.03.12/outbox.cif.g09.slc.cpg/sg39_7_cif.got.tgz:13189.got - 2010.04.14 02:53:20.
