data_PCOD8181923
_publ_section_title
;
Structure prediction by ZEFSAII (Michael W. Deem and Ramdas Pophale) SiO2 
 PCOD8181923
Probable space group: A B M 2
;
_chemical_formula_sum "Si O2"
_cell_formula_units_Z 64
_cell_length_a 11.985081
_cell_length_b 17.018170
_cell_length_c 15.281397
_cell_angle_alpha 90.000000
_cell_angle_beta 90.000000
_cell_angle_gamma 90.000000
_cell_volume 3116.857088
_symmetry_space_group_name_H-M "A B M 2"
_symmetry_group_IT_number 39
_symmetry_cell_setting 'orthorhombic'
loop_
_space_group_symop_operation_xyz
x,y,z
-x,-y,z
-x,1/2+y,z
x,1/2-y,z
x,1/2+y,1/2+z
-x,1/2-y,1/2+z
-x,y,1/2+z
x,-y,1/2+z
loop_
_atom_site_type_symbol
_atom_site_label
_atom_site_fract_x
_atom_site_fract_y
_atom_site_fract_z
Si Si1 0.831668 0.086543 0.980380
Si Si2 0.774666 0.590891 0.928356
Si Si3 0.431511 0.656594 0.348200
Si Si4 0.768808 0.339232 0.602999
Si Si5 0.592891 0.842050 0.502712
Si Si6 0.461946 0.656801 0.667028
Si Si7 0.004014 0.406536 0.836173
Si Si8 0.000586 0.410457 0.642164
O O1 0.720385 0.134717 0.992519
O O2 0.896186 0.119450 0.893955
O O3 0.797086 0.995757 0.967584
O O4 0.906363 0.104289 0.067552
O O5 0.676251 0.599741 0.857081
O O6 0.887197 0.623970 0.886033
O O7 0.731160 0.651304 0.002480
O O8 0.402885 0.750000 0.350262
O O9 0.522719 0.631212 0.419185
O O10 0.484504 0.630327 0.256935
O O11 0.797216 0.250000 0.627044
O O12 0.667186 0.372692 0.662158
O O13 0.879329 0.390363 0.607372
O O14 0.589612 0.750000 0.512908
O O15 0.536888 0.880247 0.589197
O O16 0.456627 0.750000 0.656130
O O17 0.012428 0.368607 0.738078
O O18 0.000000 0.500000 0.833961
O O19 0.000000 0.500000 0.666909
#
# Coordination Sequence:
#
# PCOD8181923 Si02
#       8
#     8   8   8   8   8   8   8   8
#     4  11  22  39  60  88 122 159 195 248 303 361
#     4  11  20  40  64  86 120 156 201 252 296 358
#     4  10  21  39  63  87 119 160 198 249 308 353
#     4  11  21  38  65  89 115 159 210 247 292 368
#     4  10  22  39  59  84 121 160 196 245 306 361
#     4   9  20  39  61  88 119 155 202 253 305 358
#     4   9  21  38  59  85 115 155 198 238 298 361
#     4  11  21  40  63  85 119 160 192 244 313 353
#
# _framework density 20.533505000000002
#
# number of rings (size 3 to 8) (size 9 to 14) (size 15 to 20)
#    0.000    1.750    3.750    0.750    3.500    1.000 
#    0.000    1.250    2.750    0.000    0.000    0.000 
#    0.000    0.000    0.000    0.000    0.000    0.000 
#
# Total GULP energy -396519.781815 kJ/mol
# GULP energy per Si atom -12391.243182 kJ/mol
# Density = 2.048677 g / cm^3
# Si number density = 20.533505 Si / 1000 Ang^3
#
#
#
# Elastic Constant Matrix: (Units=GPa)
#
#
# Indices 1 2 3 4 5 6 
#
# 1 169.0384 26.6289 69.1269 0.0000 0.0000 0.0000
# 2 26.6289 16.8280 25.5019 0.0000 0.0000 0.0000
# 3 69.1269 25.5019 153.5643 0.0000 0.0000 0.0000
# 4 0.0000 0.0000 0.0000 6.7765 0.0000 0.0000
# 5 0.0000 0.0000 0.0000 0.0000 36.3383 0.0000
# 6 0.0000 0.0000 0.0000 0.0000 0.0000 30.7607
#
#
#
# Elastic Compliance Matrix: (Units=1/GPa)
#
#
# Indices 1 2 3 4 5 6 
#
# 1 0.008354 -0.010050 -0.002092 0.000000 0.000000 0.000000
# 2 -0.010050 0.091500 -0.010671 0.000000 0.000000 0.000000
# 3 -0.002092 -0.010671 0.009226 0.000000 0.000000 0.000000
# 4 0.000000 0.000000 0.000000 0.147568 0.000000 0.000000
# 5 0.000000 0.000000 0.000000 0.000000 0.027519 0.000000
# 6 0.000000 0.000000 0.000000 0.000000 0.000000 0.032509
#
#
# Mechanical properties :
#
#
# Convention : Reuss Voigt Hill
#
# Bulk Modulus (GPa) = 15.75950 64.66069 40.21009
# Shear Modulus (GPa) = 13.03940 29.31996 21.17968
#
# Velocity S-wave (km/s) = 2.52271 3.78287 3.21513
# Velocity P-wave (km/s) = 4.02208 7.11609 5.77996
#
# Compressibility (1/GPa) = 0.06345380
#
# Stress axis : x y z
#
# Youngs Moduli (GPa) = 119.69656 10.92900 108.39404
#
# Poissons Ratio (x) = 0.10984 0.22673
# Poissons Ratio (y) = 1.20299 1.15666
# Poissons Ratio (z) = 0.25037 0.11662
#
# Static dielectric constant tensor:
#      x y z
#    x 4.006360 0.000000 0.000000 
#    y 0.000000 3.255950 0.000000 
#    z 0.000000 0.000000 4.138010 
# 
# 
# High freq. dielectric constant tensor:
#      x y z
#    x 1.818210 0.000000 0.000000 
#    y 0.000000 1.759300 0.000000 
#    z 0.000000 0.000000 1.819640 
# 
# From -- ./inp_files/9427.got.cif
#   From: 2010.03.12/outbox.cif.g09.slc.cpg/sg39_5_cif.got.tgz:9427.got - 2010.04.14 02:53:20.
