data_PCOD8181780
_publ_section_title
;
Structure prediction by ZEFSAII (Michael W. Deem and Ramdas Pophale) SiO2 
 PCOD8181780
Probable space group: A B M 2
;
_chemical_formula_sum "Si O2"
_cell_formula_units_Z 64
_cell_length_a 35.198752
_cell_length_b 9.174643
_cell_length_c 10.111673
_cell_angle_alpha 90.000000
_cell_angle_beta 90.000000
_cell_angle_gamma 90.000000
_cell_volume 3265.423067
_symmetry_space_group_name_H-M "A B M 2"
_symmetry_group_IT_number 39
_symmetry_cell_setting 'orthorhombic'
loop_
_space_group_symop_operation_xyz
x,y,z
-x,-y,z
-x,1/2+y,z
x,1/2-y,z
x,1/2+y,1/2+z
-x,1/2-y,1/2+z
-x,y,1/2+z
x,-y,1/2+z
loop_
_atom_site_type_symbol
_atom_site_label
_atom_site_fract_x
_atom_site_fract_y
_atom_site_fract_z
Si Si1 0.539653 0.421550 0.900710
Si Si2 0.207646 0.079361 0.412631
Si Si3 0.833048 0.579191 0.145839
Si Si4 0.919383 0.418925 0.617458
Si Si5 0.706189 0.578607 0.402035
Si Si6 0.667522 0.082051 0.168176
Si Si7 0.419979 0.582432 0.172133
Si Si8 0.961404 0.580238 0.848215
O O1 0.500000 0.500000 0.876390
O O2 0.534449 0.250000 0.881011
O O3 0.569486 0.478871 0.793363
O O4 0.554809 0.460281 0.045854
O O5 0.206111 0.250000 0.441834
O O6 0.180613 0.034958 0.291623
O O7 0.250407 0.029139 0.380035
O O8 0.193841 0.999240 0.542644
O O9 0.829303 0.750000 0.120521
O O10 0.876244 0.526237 0.129565
O O11 0.923455 0.250000 0.658565
O O12 0.945209 0.514476 0.713372
O O13 0.931817 0.444742 0.466706
O O14 0.701264 0.750000 0.387308
O O15 0.678890 0.507167 0.296014
O O16 0.692601 0.525703 0.545770
O O17 0.676002 0.250000 0.197776
O O18 0.623624 0.055131 0.134108
O O19 0.426968 0.750000 0.213011
O O20 0.969828 0.750000 0.824837
O O21 0.000000 0.500000 0.887869
#
# Coordination Sequence:
#
# PCOD8181780 Si02
#       8
#     8   8   8   8   8   8   8   8
#     4  11  23  39  60  85 114 148 185 228 277 330
#     4  10  21  36  56  83 114 149 188 231 280 332
#     4  10  21  37  57  83 114 147 187 232 276 329
#     4  10  22  39  58  83 114 147 186 231 277 329
#     4  10  21  37  56  82 115 148 187 233 279 331
#     4  10  21  37  57  82 112 146 186 231 277 329
#     4  10  22  39  58  83 113 145 185 230 276 329
#     4  11  23  38  58  83 110 144 184 226 276 331
#
# _framework density 19.599297
#
# number of rings (size 3 to 8) (size 9 to 14) (size 15 to 20)
#    0.000    1.750    0.000    3.750    0.000    7.500 
#    0.000    0.000    0.000    0.000    0.000    0.000 
#    0.000    0.000    0.000    0.000    0.000    0.000 
#
# Total GULP energy -397007.527208 kJ/mol
# GULP energy per Si atom -12406.485225 kJ/mol
# Density = 1.955469 g / cm^3
# Si number density = 19.599297 Si / 1000 Ang^3
#
#
#
# Elastic Constant Matrix: (Units=GPa)
#
#
# Indices 1 2 3 4 5 6 
#
# 1 83.2853 28.6442 18.0530 0.0000 0.0000 0.0000
# 2 28.6442 62.8767 42.3556 0.0000 0.0000 0.0000
# 3 18.0530 42.3556 88.6255 0.0000 0.0000 0.0000
# 4 0.0000 0.0000 0.0000 31.7112 0.0000 0.0000
# 5 0.0000 0.0000 0.0000 0.0000 42.0053 0.0000
# 6 0.0000 0.0000 0.0000 0.0000 0.0000 28.0757
#
#
#
# Elastic Compliance Matrix: (Units=1/GPa)
#
#
# Indices 1 2 3 4 5 6 
#
# 1 0.014243 -0.006687 0.000295 0.000000 0.000000 0.000000
# 2 -0.006687 0.026595 -0.011348 0.000000 0.000000 0.000000
# 3 0.000295 -0.011348 0.016647 0.000000 0.000000 0.000000
# 4 0.000000 0.000000 0.000000 0.031535 0.000000 0.000000
# 5 0.000000 0.000000 0.000000 0.000000 0.023806 0.000000
# 6 0.000000 0.000000 0.000000 0.000000 0.000000 0.035618
#
#
# Mechanical properties :
#
#
# Convention : Reuss Voigt Hill
#
# Bulk Modulus (GPa) = 45.44676 45.87701 45.66189
# Shear Modulus (GPa) = 26.14258 30.07409 28.10833
#
# Velocity S-wave (km/s) = 3.65616 3.92145 3.79113
# Velocity P-wave (km/s) = 6.40793 6.63038 6.52011
#
# Compressibility (1/GPa) = 0.02200377
#
# Stress axis : x y z
#
# Youngs Moduli (GPa) = 70.21038 37.60143 60.07158
#
# Poissons Ratio (x) = 0.25144 -0.01769
# Poissons Ratio (y) = 0.46949 0.68169
# Poissons Ratio (z) = -0.02068 0.42670
#
# Static dielectric constant tensor:
#      x y z
#    x 3.761390 0.000000 0.000000 
#    y 0.000000 3.524450 0.000000 
#    z 0.000000 0.000000 3.533970 
# 
# 
# High freq. dielectric constant tensor:
#      x y z
#    x 1.780180 0.000000 0.000000 
#    y 0.000000 1.758930 0.000000 
#    z 0.000000 0.000000 1.773350 
# 
# From -- ./inp_files/7085.got.cif
#   From: 2010.03.12/outbox.cif.g09.slc.cpg/sg39_4_cif.got.tgz:7085.got - 2010.04.14 02:53:20.
