data_PCOD8181037
_publ_section_title
;
Structure prediction by ZEFSAII (Michael W. Deem and Ramdas Pophale) SiO2 
 PCOD8181037
Probable space group: A B M 2
;
_chemical_formula_sum "Si O2"
_cell_formula_units_Z 56
_cell_length_a 19.570328
_cell_length_b 8.803219
_cell_length_c 16.059532
_cell_angle_alpha 90.000000
_cell_angle_beta 90.000000
_cell_angle_gamma 90.000000
_cell_volume 2766.766418
_symmetry_space_group_name_H-M "A B M 2"
_symmetry_group_IT_number 39
_symmetry_cell_setting 'orthorhombic'
loop_
_space_group_symop_operation_xyz
x,y,z
-x,-y,z
-x,1/2+y,z
x,1/2-y,z
x,1/2+y,1/2+z
-x,1/2-y,1/2+z
-x,y,1/2+z
x,-y,1/2+z
loop_
_atom_site_type_symbol
_atom_site_label
_atom_site_fract_x
_atom_site_fract_y
_atom_site_fract_z
Si Si1 0.208974 0.071564 0.936570
Si Si2 0.659242 0.071410 0.184776
Si Si3 0.351740 0.428006 0.869322
Si Si4 0.066048 0.071449 0.186426
Si Si5 0.574133 0.069698 0.025648
Si Si6 0.931606 0.430242 0.366060
Si Si7 0.787064 0.926630 0.119658
O O1 0.197248 0.250000 0.942331
O O2 0.271277 0.030423 0.875522
O O3 0.137017 0.000135 0.907469
O O4 0.229231 0.010335 0.027608
O O5 0.663336 0.250000 0.179017
O O6 0.626126 0.026230 0.274767
O O7 0.616160 0.007266 0.106167
O O8 0.736763 0.010954 0.183022
O O9 0.363949 0.250000 0.886693
O O10 0.393850 0.520628 0.937598
O O11 0.056017 0.250000 0.202899
O O12 0.133769 0.037056 0.134684
O O13 0.071899 0.979450 0.271187
O O14 0.000000 0.000000 0.138432
O O15 0.569479 0.250000 0.027309
O O16 0.500000 0.000000 0.033705
O O17 0.935034 0.250000 0.373945
O O18 0.000000 0.500000 0.408647
O O19 0.771433 0.750000 0.129289
#
# Coordination Sequence:
#
# PCOD8181037 Si02
#       7
#     8   8   8   8   8   8   8
#     4   9  18  33  55  80 109 148 191 236 291 347
#     4  10  22  39  62  93 123 155 197 243 291 347
#     4  10  20  39  65  89 119 159 199 240 293 349
#     4  10  20  33  50  74 106 144 191 242 293 350
#     4  11  24  42  63  92 126 156 193 238 287 344
#     4  10  19  33  52  74 105 145 191 241 294 350
#     4  10  20  35  56  82 112 151 197 242 292 351
#
# _framework density 20.240234999999998
#
# number of rings (size 3 to 8) (size 9 to 14) (size 15 to 20)
#    0.000    2.000    1.429    3.000    0.000    4.571 
#    0.000    4.286    0.000    0.000    0.000    0.000 
#    0.000    0.000    0.000    0.000    0.000    0.000 
#
# Total GULP energy -347068.527623 kJ/mol
# GULP energy per Si atom -12395.304558 kJ/mol
# Density = 2.019417 g / cm^3
# Si number density = 20.240235 Si / 1000 Ang^3
#
#
#
# Elastic Constant Matrix: (Units=GPa)
#
#
# Indices 1 2 3 4 5 6 
#
# 1 123.1302 39.4406 57.0620 0.0000 0.0000 0.0000
# 2 39.4406 49.6176 32.5412 0.0000 0.0000 0.0000
# 3 57.0620 32.5412 123.8908 0.0000 0.0000 0.0000
# 4 0.0000 0.0000 0.0000 23.3618 0.0000 0.0000
# 5 0.0000 0.0000 0.0000 0.0000 26.5496 0.0000
# 6 0.0000 0.0000 0.0000 0.0000 0.0000 32.2046
#
#
#
# Elastic Compliance Matrix: (Units=1/GPa)
#
#
# Indices 1 2 3 4 5 6 
#
# 1 0.012152 -0.007235 -0.003697 0.000000 0.000000 0.000000
# 2 -0.007235 0.028656 -0.004194 0.000000 0.000000 0.000000
# 3 -0.003697 -0.004194 0.010876 0.000000 0.000000 0.000000
# 4 0.000000 0.000000 0.000000 0.042805 0.000000 0.000000
# 5 0.000000 0.000000 0.000000 0.000000 0.037665 0.000000
# 6 0.000000 0.000000 0.000000 0.000000 0.000000 0.031051
#
#
# Mechanical properties :
#
#
# Convention : Reuss Voigt Hill
#
# Bulk Modulus (GPa) = 46.65983 61.63622 54.14803
# Shear Modulus (GPa) = 24.92488 27.59618 26.26053
#
# Velocity S-wave (km/s) = 3.51301 3.69647 3.60591
# Velocity P-wave (km/s) = 6.28952 6.98119 6.64436
#
# Compressibility (1/GPa) = 0.02143171
#
# Stress axis : x y z
#
# Youngs Moduli (GPa) = 82.28962 34.89638 91.94590
#
# Poissons Ratio (x) = 0.25248 0.33989
# Poissons Ratio (y) = 0.59539 0.38566
# Poissons Ratio (z) = 0.30420 0.14637
#
# Static dielectric constant tensor:
#      x y z
#    x 4.084610 0.000000 0.000000 
#    y 0.000000 3.471160 0.000000 
#    z 0.000000 0.000000 3.840800 
# 
# 
# High freq. dielectric constant tensor:
#      x y z
#    x 1.799780 0.000000 0.000000 
#    y 0.000000 1.770860 0.000000 
#    z 0.000000 0.000000 1.792030 
# 
# From -- ./inp_files/10324.got.cif
#   From: 2010.03.12/outbox.cif.g09.slc.cpg/sg39_6_cif.got.tgz:10324.got - 2010.04.14 02:53:20.
