data_PCOD8181506
_publ_section_title
;
Structure prediction by ZEFSAII (Michael W. Deem and Ramdas Pophale) SiO2 
 PCOD8181506
Probable space group: A B M 2
;
_chemical_formula_sum "Si O2"
_cell_formula_units_Z 64
_cell_length_a 23.468698
_cell_length_b 8.791826
_cell_length_c 15.438708
_cell_angle_alpha 90.000000
_cell_angle_beta 90.000000
_cell_angle_gamma 90.000000
_cell_volume 3185.510449
_symmetry_space_group_name_H-M "A B M 2"
_symmetry_group_IT_number 39
_symmetry_cell_setting 'orthorhombic'
loop_
_space_group_symop_operation_xyz
x,y,z
-x,-y,z
-x,1/2+y,z
x,1/2-y,z
x,1/2+y,1/2+z
-x,1/2-y,1/2+z
-x,y,1/2+z
x,-y,1/2+z
loop_
_atom_site_type_symbol
_atom_site_label
_atom_site_fract_x
_atom_site_fract_y
_atom_site_fract_z
Si Si1 0.753909 0.574714 0.462130
Si Si2 0.438930 0.568909 0.318046
Si Si3 0.874931 0.074801 0.725184
Si Si4 0.938508 0.069348 0.554807
Si Si5 0.630439 0.426164 0.663954
Si Si6 0.138251 0.071862 0.897820
Si Si7 0.625027 0.069267 0.977748
Si Si8 0.240571 0.921500 0.638145
O O1 0.763634 0.750000 0.442680
O O2 0.796465 0.484770 0.399619
O O3 0.688500 0.527299 0.444715
O O4 0.768838 0.540200 0.561471
O O5 0.500000 0.500000 0.296139
O O6 0.441620 0.750000 0.325633
O O7 0.398207 0.522244 0.239557
O O8 0.418580 0.499257 0.408983
O O9 0.888730 0.250000 0.741535
O O10 0.912201 0.012308 0.645405
O O11 0.807687 0.048416 0.709097
O O12 0.892555 0.983206 0.810473
O O13 0.942346 0.250000 0.552162
O O14 0.897306 0.007658 0.479083
O O15 0.000000 0.000000 0.540513
O O16 0.611290 0.250000 0.668201
O O17 0.612877 0.493858 0.570846
O O18 0.697845 0.442338 0.681391
O O19 0.138655 0.250000 0.899529
O O20 0.616850 0.250000 0.985898
O O21 0.234036 0.750000 0.599935
#
# Coordination Sequence:
#
# PCOD8181506 Si02
#       8
#     8   8   8   8   8   8   8   8
#     4  10  20  35  60  91 125 161 201 248 303 364
#     4  12  26  44  65  91 124 165 212 259 307 367
#     4  10  21  39  60  88 122 160 199 247 305 361
#     4  10  23  43  64  84 119 161 204 253 304 358
#     4  10  21  39  64  94 126 164 204 252 309 368
#     4  11  23  39  59  89 123 160 203 250 302 362
#     4  10  22  41  63  92 127 164 207 256 310 369
#     4   9  18  36  61  87 125 162 196 245 306 365
#
# _framework density 20.090972000000001
#
# number of rings (size 3 to 8) (size 9 to 14) (size 15 to 20)
#    0.000    1.750    1.250    2.625    1.750    5.000 
#    0.000    5.000    0.000    0.000    0.000    0.000 
#    0.000    0.000    0.000    0.000    0.000    0.000 
#
# Total GULP energy -396883.370996 kJ/mol
# GULP energy per Si atom -12402.605344 kJ/mol
# Density = 2.004524 g / cm^3
# Si number density = 20.090972 Si / 1000 Ang^3
#
#
#
# Elastic Constant Matrix: (Units=GPa)
#
#
# Indices 1 2 3 4 5 6 
#
# 1 71.7652 28.2332 23.4047 0.0000 0.0000 0.0000
# 2 28.2332 69.1008 30.7219 0.0000 0.0000 0.0000
# 3 23.4047 30.7219 96.8812 0.0000 0.0000 0.0000
# 4 0.0000 0.0000 0.0000 38.4084 0.0000 0.0000
# 5 0.0000 0.0000 0.0000 0.0000 22.9193 0.0000
# 6 0.0000 0.0000 0.0000 0.0000 0.0000 30.6919
#
#
#
# Elastic Compliance Matrix: (Units=1/GPa)
#
#
# Indices 1 2 3 4 5 6 
#
# 1 0.017003 -0.005961 -0.002217 0.000000 0.000000 0.000000
# 2 -0.005961 0.018937 -0.004565 0.000000 0.000000 0.000000
# 3 -0.002217 -0.004565 0.012305 0.000000 0.000000 0.000000
# 4 0.000000 0.000000 0.000000 0.026036 0.000000 0.000000
# 5 0.000000 0.000000 0.000000 0.000000 0.043631 0.000000
# 6 0.000000 0.000000 0.000000 0.000000 0.000000 0.032582
#
#
# Mechanical properties :
#
#
# Convention : Reuss Voigt Hill
#
# Bulk Modulus (GPa) = 43.94062 44.71851 44.32956
# Shear Modulus (GPa) = 27.23813 28.76309 28.00061
#
# Velocity S-wave (km/s) = 3.68603 3.78781 3.73727
# Velocity P-wave (km/s) = 6.32725 6.43711 6.38241
#
# Compressibility (1/GPa) = 0.02275799
#
# Stress axis : x y z
#
# Youngs Moduli (GPa) = 58.81455 52.80732 81.26705
#
# Poissons Ratio (x) = 0.31479 0.18018
# Poissons Ratio (y) = 0.35060 0.37098
# Poissons Ratio (z) = 0.13040 0.24106
#
# Static dielectric constant tensor:
#      x y z
#    x 3.723570 0.000000 0.000000 
#    y 0.000000 3.635980 0.000000 
#    z 0.000000 0.000000 3.671510 
# 
# 
# High freq. dielectric constant tensor:
#      x y z
#    x 1.783610 0.000000 0.000000 
#    y 0.000000 1.784980 0.000000 
#    z 0.000000 0.000000 1.787940 
# 
# From -- ./inp_files/10591.got.cif
#   From: 2010.03.12/outbox.cif.g09.slc.cpg/sg39_6_cif.got.tgz:10591.got - 2010.04.14 02:53:20.
