data_PCOD8181110
_publ_section_title
;
Structure prediction by ZEFSAII (Michael W. Deem and Ramdas Pophale) SiO2 
 PCOD8181110
Probable space group: A B M 2
;
_chemical_formula_sum "Si O2"
_cell_formula_units_Z 64
_cell_length_a 23.649098
_cell_length_b 8.888629
_cell_length_c 15.520936
_cell_angle_alpha 90.000000
_cell_angle_beta 90.000000
_cell_angle_gamma 90.000000
_cell_volume 3262.625820
_symmetry_space_group_name_H-M "A B M 2"
_symmetry_group_IT_number 39
_symmetry_cell_setting 'orthorhombic'
loop_
_space_group_symop_operation_xyz
x,y,z
-x,-y,z
-x,1/2+y,z
x,1/2-y,z
x,1/2+y,1/2+z
-x,1/2-y,1/2+z
-x,y,1/2+z
x,-y,1/2+z
loop_
_atom_site_type_symbol
_atom_site_label
_atom_site_fract_x
_atom_site_fract_y
_atom_site_fract_z
Si Si1 0.135082 0.927197 0.399100
Si Si2 0.061157 0.571080 0.558734
Si Si3 0.133277 0.575392 0.719811
Si Si4 0.262054 0.424453 0.224883
Si Si5 0.263056 0.426565 0.902796
Si Si6 0.439149 0.427347 0.810818
Si Si7 0.370164 0.077268 0.460751
Si Si8 0.637505 0.922941 0.651802
O O1 0.131842 0.750000 0.388872
O O2 0.093884 0.986345 0.473834
O O3 0.198859 0.975679 0.424009
O O4 0.115789 0.995827 0.308399
O O5 0.056976 0.750000 0.558738
O O6 0.094565 0.512605 0.642785
O O7 0.000000 0.500000 0.558992
O O8 0.122167 0.750000 0.734220
O O9 0.198246 0.544343 0.693414
O O10 0.269775 0.250000 0.249727
O O11 0.277455 0.530441 0.304968
O O12 0.306133 0.473508 0.151481
O O13 0.272855 0.250000 0.916840
O O14 0.305355 0.520027 0.962696
O O15 0.500000 0.500000 0.806070
O O16 0.446133 0.250000 0.814415
O O17 0.407839 0.478576 0.897351
O O18 0.405080 0.479011 0.725962
O O19 0.372620 0.250000 0.430538
O O20 0.392547 0.058618 0.558734
O O21 0.655151 0.750000 0.666832
#
# Coordination Sequence:
#
# PCOD8181110 Si02
#       8
#     8   8   8   8   8   8   8   8
#     4   9  20  37  58  82 114 152 193 239 294 350
#     4  10  22  40  58  81 114 154 197 243 290 350
#     4   9  20  37  57  83 116 150 191 241 292 346
#     4  10  19  33  59  88 118 155 195 239 293 355
#     4  10  19  34  58  86 120 157 193 240 298 355
#     4  11  24  44  66  87 119 162 202 248 297 347
#     4  11  23  39  60  91 124 158 198 245 294 349
#     4  10  23  40  59  88 125 158 194 243 295 347
#
# _framework density 19.616102000000001
#
# number of rings (size 3 to 8) (size 9 to 14) (size 15 to 20)
#    0.000    2.000    1.250    1.500    1.750    4.500 
#    0.000    3.750    0.000    0.000    0.000    0.000 
#    0.000    0.000    0.000    0.000    0.000    0.000 
#
# Total GULP energy -396850.651400 kJ/mol
# GULP energy per Si atom -12401.582856 kJ/mol
# Density = 1.957145 g / cm^3
# Si number density = 19.616102 Si / 1000 Ang^3
#
#
#
# Elastic Constant Matrix: (Units=GPa)
#
#
# Indices 1 2 3 4 5 6 
#
# 1 132.1215 40.4270 79.9182 0.0000 0.0000 0.0000
# 2 40.4270 51.0551 38.3149 0.0000 0.0000 0.0000
# 3 79.9182 38.3149 141.9348 0.0000 0.0000 0.0000
# 4 0.0000 0.0000 0.0000 29.3369 0.0000 0.0000
# 5 0.0000 0.0000 0.0000 0.0000 22.6832 0.0000
# 6 0.0000 0.0000 0.0000 0.0000 0.0000 35.9178
#
#
#
# Elastic Compliance Matrix: (Units=1/GPa)
#
#
# Indices 1 2 3 4 5 6 
#
# 1 0.012756 -0.005907 -0.005588 0.000000 0.000000 0.000000
# 2 -0.005907 0.027298 -0.004043 0.000000 0.000000 0.000000
# 3 -0.005588 -0.004043 0.011283 0.000000 0.000000 0.000000
# 4 0.000000 0.000000 0.000000 0.034087 0.000000 0.000000
# 5 0.000000 0.000000 0.000000 0.000000 0.044085 0.000000
# 6 0.000000 0.000000 0.000000 0.000000 0.000000 0.027841
#
#
# Mechanical properties :
#
#
# Convention : Reuss Voigt Hill
#
# Bulk Modulus (GPa) = 49.35463 71.38129 60.36796
# Shear Modulus (GPa) = 25.61712 28.68434 27.15073
#
# Velocity S-wave (km/s) = 3.61768 3.82813 3.72439
# Velocity P-wave (km/s) = 6.53184 7.48382 7.02398
#
# Compressibility (1/GPa) = 0.02026152
#
# Stress axis : x y z
#
# Youngs Moduli (GPa) = 78.39173 36.63227 88.62694
#
# Poissons Ratio (x) = 0.21640 0.49525
# Poissons Ratio (y) = 0.46309 0.35831
# Poissons Ratio (z) = 0.43805 0.14810
#
# Static dielectric constant tensor:
#      x y z
#    x 3.641140 0.000000 0.000000 
#    y 0.000000 3.501620 0.000000 
#    z 0.000000 0.000000 3.653990 
# 
# 
# High freq. dielectric constant tensor:
#      x y z
#    x 1.760650 0.000000 0.000000 
#    y 0.000000 1.762510 0.000000 
#    z 0.000000 0.000000 1.768770 
# 
# From -- ./inp_files/10625.got.cif
#   From: 2010.03.12/outbox.cif.g09.slc.cpg/sg39_6_cif.got.tgz:10625.got - 2010.04.14 02:53:20.
