data_PCOD8181417
_publ_section_title
;
Structure prediction by ZEFSAII (Michael W. Deem and Ramdas Pophale) SiO2 
 PCOD8181417
Probable space group: A B M 2
;
_chemical_formula_sum "Si O2"
_cell_formula_units_Z 56
_cell_length_a 14.353116
_cell_length_b 22.393086
_cell_length_c 8.699692
_cell_angle_alpha 90.000000
_cell_angle_beta 90.000000
_cell_angle_gamma 90.000000
_cell_volume 2796.172886
_symmetry_space_group_name_H-M "A B M 2"
_symmetry_group_IT_number 39
_symmetry_cell_setting 'orthorhombic'
loop_
_space_group_symop_operation_xyz
x,y,z
-x,-y,z
-x,1/2+y,z
x,1/2-y,z
x,1/2+y,1/2+z
-x,1/2-y,1/2+z
-x,y,1/2+z
x,-y,1/2+z
loop_
_atom_site_type_symbol
_atom_site_label
_atom_site_fract_x
_atom_site_fract_y
_atom_site_fract_z
Si Si1 0.450170 0.120608 0.019030
Si Si2 0.246314 0.132504 0.557862
Si Si3 0.894613 0.454714 0.430698
Si Si4 0.695470 0.553012 0.828435
Si Si5 0.936876 0.076746 0.087830
Si Si6 0.523448 0.250000 0.416632
Si Si7 0.643569 0.750000 0.609160
Si Si8 0.376960 0.080293 0.343184
O O1 0.425013 0.104691 0.191655
O O2 0.379772 0.097149 0.893873
O O3 0.443419 0.191659 0.006916
O O4 0.551253 0.091752 0.984274
O O5 0.275862 0.074773 0.659339
O O6 0.132775 0.133165 0.557249
O O7 0.288095 0.193413 0.626126
O O8 0.285113 0.118737 0.386807
O O9 0.784549 0.442104 0.441703
O O10 0.932835 0.445185 0.260556
O O11 0.907444 0.523490 0.474137
O O12 0.954603 0.410075 0.542604
O O13 0.650209 0.487970 0.817929
O O14 0.409641 0.250000 0.442693
O O15 0.562917 0.250000 0.242070
#
# Coordination Sequence:
#
# PCOD8181417 Si02
#       8
#     8   8   8   8   8   4   4   8
#     4  12  25  39  62  85 125 168 211 263 304 367
#     4  11  23  40  64  92 123 167 207 255 313 370
#     4  10  20  34  60  86 128 153 197 247 307 383
#     4  11  23  40  59  92 126 166 199 256 319 378
#     4  10  20  36  61  93 122 161 199 249 316 373
#     4  12  24  44  64  85 117 168 226 255 305 355
#     4  12  24  44  66  83 127 166 222 263 299 365
#     4  12  24  40  59  88 127 165 207 255 317 381
#
# _framework density 20.027373000000001
#
# number of rings (size 3 to 8) (size 9 to 14) (size 15 to 20)
#    0.000    0.857    4.286    4.714    2.000    2.286 
#    0.000    0.000    0.000    4.286    0.000    0.000 
#    0.000    0.000    0.000    0.000    0.000    0.000 
#
# Total GULP energy -347013.068059 kJ/mol
# GULP energy per Si atom -12393.323859 kJ/mol
# Density = 1.998179 g / cm^3
# Si number density = 20.027373 Si / 1000 Ang^3
#
#
#
# Elastic Constant Matrix: (Units=GPa)
#
#
# Indices 1 2 3 4 5 6 
#
# 1 89.1496 47.4775 14.0063 0.0000 0.0000 0.0000
# 2 47.4775 126.2875 25.9270 0.0000 0.0000 0.0000
# 3 14.0063 25.9270 71.6735 0.0000 0.0000 0.0000
# 4 0.0000 0.0000 0.0000 14.6034 0.0000 0.0000
# 5 0.0000 0.0000 0.0000 0.0000 31.1972 0.0000
# 6 0.0000 0.0000 0.0000 0.0000 0.0000 20.4022
#
#
#
# Elastic Compliance Matrix: (Units=1/GPa)
#
#
# Indices 1 2 3 4 5 6 
#
# 1 0.014079 -0.005107 -0.000904 0.000000 0.000000 0.000000
# 2 -0.005107 0.010407 -0.002766 0.000000 0.000000 0.000000
# 3 -0.000904 -0.002766 0.015129 0.000000 0.000000 0.000000
# 4 0.000000 0.000000 0.000000 0.068477 0.000000 0.000000
# 5 0.000000 0.000000 0.000000 0.000000 0.032054 0.000000
# 6 0.000000 0.000000 0.000000 0.000000 0.000000 0.049014
#
#
# Mechanical properties :
#
#
# Convention : Reuss Voigt Hill
#
# Bulk Modulus (GPa) = 45.33097 51.32580 48.32839
# Shear Modulus (GPa) = 23.35692 26.55388 24.95540
#
# Velocity S-wave (km/s) = 3.41874 3.64521 3.53379
# Velocity P-wave (km/s) = 6.18606 6.58788 6.39013
#
# Compressibility (1/GPa) = 0.02205997
#
# Stress axis : x y z
#
# Youngs Moduli (GPa) = 71.02716 96.09364 66.09625
#
# Poissons Ratio (x) = 0.49080 0.05973
# Poissons Ratio (y) = 0.36277 0.18284
# Poissons Ratio (z) = 0.06419 0.26583
#
# Static dielectric constant tensor:
#      x y z
#    x 4.486490 0.000000 0.000000 
#    y 0.000000 3.654100 0.000000 
#    z 0.000000 0.000000 3.691370 
# 
# 
# High freq. dielectric constant tensor:
#      x y z
#    x 1.793460 0.000000 0.000000 
#    y 0.000000 1.754070 0.000000 
#    z 0.000000 0.000000 1.786570 
# 
# From -- ./inp_files/3428.got.cif
#   From: 2010.03.12/outbox.cif.g09.slc.cpg/sg39_2_cif.got.tgz:3428.got - 2010.04.14 02:53:20.
