data_PCOD8181282
_publ_section_title
;
Structure prediction by ZEFSAII (Michael W. Deem and Ramdas Pophale) SiO2 
 PCOD8181282
Probable space group: A B M 2
;
_chemical_formula_sum "Si O2"
_cell_formula_units_Z 52
_cell_length_a 11.871244
_cell_length_b 25.921674
_cell_length_c 8.764323
_cell_angle_alpha 90.000000
_cell_angle_beta 90.000000
_cell_angle_gamma 90.000000
_cell_volume 2696.979533
_symmetry_space_group_name_H-M "A B M 2"
_symmetry_group_IT_number 39
_symmetry_cell_setting 'orthorhombic'
loop_
_space_group_symop_operation_xyz
x,y,z
-x,-y,z
-x,1/2+y,z
x,1/2-y,z
x,1/2+y,1/2+z
-x,1/2-y,1/2+z
-x,y,1/2+z
x,-y,1/2+z
loop_
_atom_site_type_symbol
_atom_site_label
_atom_site_fract_x
_atom_site_fract_y
_atom_site_fract_z
Si Si1 0.931575 0.190148 0.062010
Si Si2 0.500000 0.000000 0.847708
Si Si3 0.349372 0.645301 0.547160
Si Si4 0.466179 0.250000 0.947360
Si Si5 0.745641 0.857543 0.723074
Si Si6 0.649052 0.250000 0.156410
Si Si7 0.843953 0.808902 0.225817
Si Si8 0.436148 0.573284 0.096426
O O1 0.896294 0.250000 0.097619
O O2 0.875996 0.145064 0.171048
O O3 0.064810 0.184500 0.089947
O O4 0.899776 0.176449 0.887535
O O5 0.575202 0.962533 0.745084
O O6 0.420601 0.963677 0.951056
O O7 0.408138 0.699058 0.512076
O O8 0.280833 0.625914 0.396600
O O9 0.261196 0.653415 0.685725
O O10 0.443782 0.603352 0.593980
O O11 0.599112 0.250000 0.985672
O O12 0.462021 0.250000 0.764853
O O13 0.723327 0.798119 0.692741
O O14 0.669446 0.888778 0.602727
O O15 0.800874 0.750000 0.228428
#
# Coordination Sequence:
#
# PCOD8181282 Si02
#       8
#     8   4   8   4   8   4   8   8
#     4  10  21  35  53  79 117 159 194 227 266 322
#     4  10  24  42  56  80 114 142 192 246 296 342
#     4  11  21  34  54  83 114 155 187 227 274 342
#     4  10  20  30  45  76 119 148 181 217 265 329
#     4  11  21  34  54  83 114 155 187 227 274 342
#     4  10  20  30  45  76 119 148 181 217 265 329
#     4  10  21  35  53  79 117 159 194 227 266 322
#     4  11  22  39  60  84 112 149 188 237 294 344
#
# _framework density 19.280828
#
# number of rings (size 3 to 8) (size 9 to 14) (size 15 to 20)
#    0.000    1.538    4.615    0.923    2.154    2.462 
#    0.000    0.000    0.000    0.000    0.000    6.462 
#    0.000    0.000    0.000    0.000    0.000    0.000 
#
# Total GULP energy -322135.715521 kJ/mol
# GULP energy per Si atom -12389.835212 kJ/mol
# Density = 1.923694 g / cm^3
# Si number density = 19.280828 Si / 1000 Ang^3
#
#
#
# Elastic Constant Matrix: (Units=GPa)
#
#
# Indices 1 2 3 4 5 6 
#
# 1 60.2507 25.3382 14.1571 0.0000 0.0000 0.0000
# 2 25.3382 77.2488 29.6079 0.0000 0.0000 0.0000
# 3 14.1571 29.6079 65.4853 0.0000 0.0000 0.0000
# 4 0.0000 0.0000 0.0000 -0.0950 0.0000 0.0000
# 5 0.0000 0.0000 0.0000 0.0000 30.9801 0.0000
# 6 0.0000 0.0000 0.0000 0.0000 0.0000 9.2441
#
#
#
# Elastic Compliance Matrix: (Units=1/GPa)
#
#
# Indices 1 2 3 4 5 6 
#
# 1 0.019389 -0.005750 -0.001592 0.000000 0.000000 0.000000
# 2 -0.005750 0.017364 -0.006608 0.000000 0.000000 0.000000
# 3 -0.001592 -0.006608 0.018602 0.000000 0.000000 0.000000
# 4 0.000000 0.000000 0.000000-10.529270 0.000000 0.000000
# 5 0.000000 0.000000 0.000000 0.000000 0.032279 0.000000
# 6 0.000000 0.000000 0.000000 0.000000 0.000000 0.108178
#
#
# Mechanical properties :
#
#
# Convention : Reuss Voigt Hill
#
# Bulk Modulus (GPa) = 36.42121 37.91013 37.16567
# Shear Modulus (GPa) = -0.48561 16.95128 8.23284
#
# Velocity S-wave (km/s) = -0.50240 2.96831 2.06863
# Velocity P-wave (km/s) = 4.31211 5.60826 5.00235
#
# Compressibility (1/GPa) = 0.02745653
#
# Stress axis : x y z
#
# Youngs Moduli (GPa) = 51.57452 57.59143 53.75672
#
# Poissons Ratio (x) = 0.33113 0.08559
# Poissons Ratio (y) = 0.29653 0.35521
# Poissons Ratio (z) = 0.08212 0.38054
#
# Static dielectric constant tensor:
#      x y z
#    x 3.448930 0.000000 0.000000 
#    y 0.000000 3.494430 0.000000 
#    z 0.000000 0.000000 3.817760 
# 
# 
# High freq. dielectric constant tensor:
#      x y z
#    x 1.734260 0.000000 0.000000 
#    y 0.000000 1.716720 0.000000 
#    z 0.000000 0.000000 1.764540 
# 
# From -- ./inp_files/2805.got.cif
#   From: 2010.03.12/outbox.cif.g09.slc.cpg/sg39_2_cif.got.tgz:2805.got - 2010.04.14 02:53:20.
