data_PCOD8181726
_publ_section_title
;
Structure prediction by ZEFSAII (Michael W. Deem and Ramdas Pophale) SiO2 
 PCOD8181726
Probable space group: A B M 2
;
_chemical_formula_sum "Si O2"
_cell_formula_units_Z 52
_cell_length_a 5.063246
_cell_length_b 28.157202
_cell_length_c 17.163949
_cell_angle_alpha 90.000000
_cell_angle_beta 90.000000
_cell_angle_gamma 90.000000
_cell_volume 2447.009978
_symmetry_space_group_name_H-M "A B M 2"
_symmetry_group_IT_number 39
_symmetry_cell_setting 'orthorhombic'
loop_
_space_group_symop_operation_xyz
x,y,z
-x,-y,z
-x,1/2+y,z
x,1/2-y,z
x,1/2+y,1/2+z
-x,1/2-y,1/2+z
-x,y,1/2+z
x,-y,1/2+z
loop_
_atom_site_type_symbol
_atom_site_label
_atom_site_fract_x
_atom_site_fract_y
_atom_site_fract_z
Si Si1 0.436025 0.849702 0.929140
Si Si2 0.179966 0.250000 0.104106
Si Si3 0.928028 0.850966 0.166555
Si Si4 0.053208 0.396927 0.000694
Si Si5 0.422297 0.872904 0.260219
Si Si6 0.668269 0.250000 0.004497
Si Si7 0.000000 0.000000 0.943739
Si Si8 0.251790 0.523028 0.292300
O O1 0.655850 0.879422 0.976440
O O2 0.501765 0.845755 0.838491
O O3 0.156280 0.875420 0.940188
O O4 0.406954 0.795941 0.955565
O O5 0.153015 0.203192 0.155072
O O6 0.483647 0.250000 0.079363
O O7 0.974476 0.250000 0.031301
O O8 0.689818 0.878926 0.209655
O O9 0.198068 0.844960 0.214189
O O10 0.001252 0.878764 0.087670
O O11 0.005102 0.453719 0.998937
O O12 0.274327 0.921192 0.283986
O O13 0.247565 0.006464 0.883835
O O14 0.500000 0.500000 0.249844
O O15 0.000000 0.500000 0.248343
#
# Coordination Sequence:
#
# PCOD8181726 Si02
#       8
#     8   4   8   8   8   4   4   8
#     4  12  23  43  73 101 130 177 239 290 331 422
#     4  12  24  46  70  96 138 194 222 284 366 426
#     4  12  26  44  68 100 145 185 222 291 360 423
#     4  12  24  45  70 103 132 183 239 278 341 416
#     4  12  25  44  67 102 146 177 228 294 353 414
#     4  12  22  42  74 100 128 178 244 292 346 402
#     4  10  24  40  76  96 134 180 238 284 336 408
#     4  10  20  40  67  96 127 183 225 273 347 396
#
# _framework density 21.250425
#
# number of rings (size 3 to 8) (size 9 to 14) (size 15 to 20)
#    0.462    0.000    4.615    4.615    0.000    1.231 
#    4.154    0.000    0.000    0.000    0.000    0.000 
#    0.000    0.000    0.000    0.000    0.000    0.000 
#
# Total GULP energy -322267.340047 kJ/mol
# GULP energy per Si atom -12394.897694 kJ/mol
# Density = 2.120206 g / cm^3
# Si number density = 21.250425 Si / 1000 Ang^3
#
#
#
# Elastic Constant Matrix: (Units=GPa)
#
#
# Indices 1 2 3 4 5 6 
#
# 1 115.8968 17.0872 22.3619 0.0000 0.0000 0.0000
# 2 17.0872 136.6130 18.0932 0.0000 0.0000 0.0000
# 3 22.3619 18.0932 80.2895 0.0000 0.0000 0.0000
# 4 0.0000 0.0000 0.0000 17.0111 0.0000 0.0000
# 5 0.0000 0.0000 0.0000 0.0000 31.3038 0.0000
# 6 0.0000 0.0000 0.0000 0.0000 0.0000 13.4471
#
#
#
# Elastic Compliance Matrix: (Units=1/GPa)
#
#
# Indices 1 2 3 4 5 6 
#
# 1 0.009210 -0.000837 -0.002377 0.000000 0.000000 0.000000
# 2 -0.000837 0.007621 -0.001484 0.000000 0.000000 0.000000
# 3 -0.002377 -0.001484 0.013451 0.000000 0.000000 0.000000
# 4 0.000000 0.000000 0.000000 0.058785 0.000000 0.000000
# 5 0.000000 0.000000 0.000000 0.000000 0.031945 0.000000
# 6 0.000000 0.000000 0.000000 0.000000 0.000000 0.074366
#
#
# Mechanical properties :
#
#
# Convention : Reuss Voigt Hill
#
# Bulk Modulus (GPa) = 47.87717 49.76489 48.82103
# Shear Modulus (GPa) = 23.61419 30.70285 27.15852
#
# Velocity S-wave (km/s) = 3.33713 3.80519 3.57882
# Velocity P-wave (km/s) = 6.11780 6.54027 6.33256
#
# Compressibility (1/GPa) = 0.02088678
#
# Stress axis : x y z
#
# Youngs Moduli (GPa) = 108.57348 131.21209 74.34220
#
# Poissons Ratio (x) = 0.10986 0.17668
# Poissons Ratio (y) = 0.09090 0.11034
# Poissons Ratio (z) = 0.25803 0.19475
#
# Static dielectric constant tensor:
#      x y z
#    x 4.100230 0.000000 0.000000 
#    y 0.000000 3.889680 0.000000 
#    z 0.000000 0.000000 3.740500 
# 
# 
# High freq. dielectric constant tensor:
#      x y z
#    x 1.854660 0.000000 0.000000 
#    y 0.000000 1.841710 0.000000 
#    z 0.000000 0.000000 1.816060 
# 
# From -- ./inp_files/11135.got.cif
#   From: 2010.03.12/outbox.cif.g09.slc.cpg/sg39_6_cif.got.tgz:11135.got - 2010.04.14 02:53:20.
