data_PCOD8181414
_publ_section_title
;
Structure prediction by ZEFSAII (Michael W. Deem and Ramdas Pophale) SiO2 
 PCOD8181414
Probable space group: A B M 2
;
_chemical_formula_sum "Si O2"
_cell_formula_units_Z 32
_cell_length_a 10.634150
_cell_length_b 15.289414
_cell_length_c 8.931999
_cell_angle_alpha 90.000000
_cell_angle_beta 90.000000
_cell_angle_gamma 90.000000
_cell_volume 1452.253020
_symmetry_space_group_name_H-M "A B M 2"
_symmetry_group_IT_number 39
_symmetry_cell_setting 'orthorhombic'
loop_
_space_group_symop_operation_xyz
x,y,z
-x,-y,z
-x,1/2+y,z
x,1/2-y,z
x,1/2+y,1/2+z
-x,1/2-y,1/2+z
-x,y,1/2+z
x,-y,1/2+z
loop_
_atom_site_type_symbol
_atom_site_label
_atom_site_fract_x
_atom_site_fract_y
_atom_site_fract_z
Si Si1 0.000000 0.500000 0.119491
Si Si2 0.150777 0.426976 0.358500
Si Si3 0.833464 0.250000 0.305816
Si Si4 0.898883 0.750000 0.464043
Si Si5 0.500000 0.500000 0.076554
Si Si6 0.336997 0.075511 0.821628
O O1 0.958980 0.577725 0.232456
O O2 0.887376 0.467456 0.017922
O O3 0.183754 0.327922 0.394127
O O4 0.259347 0.486432 0.292908
O O5 0.747552 0.336851 0.330974
O O6 0.951925 0.250000 0.421215
O O7 0.892049 0.250000 0.141823
O O8 0.428234 0.572957 0.177515
O O9 0.588070 0.562510 0.975955
#
# Coordination Sequence:
#
# PCOD8181414 Si02
#       6
#     4   8   4   4   4   8
#     4  10  20  34  58  86 124 170 206 248 314 384
#     4  11  21  38  60  89 130 169 206 256 313 378
#     4  12  26  42  66  98 132 168 208 256 318 386
#     4  12  24  38  62 100 136 170 206 244 312 402
#     4  10  24  46  68  88 120 168 224 272 316 362
#     4  11  24  44  67  93 126 168 216 269 317 364
#
# _framework density 22.034727
#
# number of rings (size 3 to 8) (size 9 to 14) (size 15 to 20)
#    0.000    1.000    0.000    9.000    0.000    3.000 
#    0.000    5.000    0.000    0.000    0.000    0.000 
#    0.000    0.000    0.000    0.000    0.000    0.000 
#
# Total GULP energy -198246.882738 kJ/mol
# GULP energy per Si atom -12390.430171 kJ/mol
# Density = 2.198458 g / cm^3
# Si number density = 22.034727 Si / 1000 Ang^3
#
#
#
# Elastic Constant Matrix: (Units=GPa)
#
#
# Indices 1 2 3 4 5 6 
#
# 1 92.3724 53.7067 42.3331 0.0000 0.0000 0.0000
# 2 53.7067 161.8793 38.9571 0.0000 0.0000 0.0000
# 3 42.3331 38.9571 144.4386 0.0000 0.0000 0.0000
# 4 0.0000 0.0000 0.0000 18.1544 0.0000 0.0000
# 5 0.0000 0.0000 0.0000 0.0000 35.7844 0.0000
# 6 0.0000 0.0000 0.0000 0.0000 0.0000 37.3566
#
#
#
# Elastic Compliance Matrix: (Units=1/GPa)
#
#
# Indices 1 2 3 4 5 6 
#
# 1 0.014673 -0.004099 -0.003195 0.000000 0.000000 0.000000
# 2 -0.004099 0.007751 -0.000889 0.000000 0.000000 0.000000
# 3 -0.003195 -0.000889 0.008100 0.000000 0.000000 0.000000
# 4 0.000000 0.000000 0.000000 0.055083 0.000000 0.000000
# 5 0.000000 0.000000 0.000000 0.000000 0.027945 0.000000
# 6 0.000000 0.000000 0.000000 0.000000 0.000000 0.026769
#
#
# Mechanical properties :
#
#
# Convention : Reuss Voigt Hill
#
# Bulk Modulus (GPa) = 70.63404 74.29824 72.46614
# Shear Modulus (GPa) = 30.97747 35.83864 33.40805
#
# Velocity S-wave (km/s) = 3.75353 4.03732 3.89801
# Velocity P-wave (km/s) = 7.13517 7.45152 7.29506
#
# Compressibility (1/GPa) = 0.01415748
#
# Stress axis : x y z
#
# Youngs Moduli (GPa) = 68.15082 129.00795 123.46308
#
# Poissons Ratio (x) = 0.52884 0.39446
# Poissons Ratio (y) = 0.27937 0.10979
# Poissons Ratio (z) = 0.21774 0.11472
#
# Static dielectric constant tensor:
#      x y z
#    x 4.035730 0.000000 0.000000 
#    y 0.000000 4.135710 0.000000 
#    z 0.000000 0.000000 4.254570 
# 
# 
# High freq. dielectric constant tensor:
#      x y z
#    x 1.855760 0.000000 0.000000 
#    y 0.000000 1.857120 0.000000 
#    z 0.000000 0.000000 1.899080 
# 
# From -- ./inp_files/2468.got.cif
#   From: 2010.03.12/outbox.cif.g09.slc.cpg/sg39_2_cif.got.tgz:2468.got - 2010.04.14 02:53:20.
