data_PCOD8181733
_publ_section_title
;
Structure prediction by ZEFSAII (Michael W. Deem and Ramdas Pophale) SiO2 
 PCOD8181733
Probable space group: A B M 2
;
_chemical_formula_sum "Si O2"
_cell_formula_units_Z 48
_cell_length_a 8.698320
_cell_length_b 22.773275
_cell_length_c 11.286707
_cell_angle_alpha 90.000000
_cell_angle_beta 90.000000
_cell_angle_gamma 90.000000
_cell_volume 2235.775137
_symmetry_space_group_name_H-M "A B M 2"
_symmetry_group_IT_number 39
_symmetry_cell_setting 'orthorhombic'
loop_
_space_group_symop_operation_xyz
x,y,z
-x,-y,z
-x,1/2+y,z
x,1/2-y,z
x,1/2+y,1/2+z
-x,1/2-y,1/2+z
-x,y,1/2+z
x,-y,1/2+z
loop_
_atom_site_type_symbol
_atom_site_label
_atom_site_fract_x
_atom_site_fract_y
_atom_site_fract_z
Si Si1 0.794497 0.598414 0.243420
Si Si2 0.885149 0.389251 0.355330
Si Si3 0.739787 0.682728 0.664408
Si Si4 0.383826 0.907378 0.979534
Si Si5 0.080984 0.813769 0.572086
Si Si6 0.292459 0.466348 0.025336
O O1 0.672469 0.610699 0.347816
O O2 0.793019 0.652721 0.151497
O O3 0.739675 0.543312 0.164758
O O4 0.970195 0.587499 0.280993
O O5 0.744318 0.359694 0.280330
O O6 0.947102 0.339421 0.442653
O O7 0.835176 0.444557 0.433898
O O8 0.675484 0.750000 0.684414
O O9 0.640110 0.648992 0.564419
O O10 0.916963 0.688349 0.632878
O O11 0.556800 0.930984 0.983022
O O12 0.284630 0.963514 0.018205
O O13 0.152967 0.750000 0.556548
#
# Coordination Sequence:
#
# PCOD8181733 Si02
#       6
#     8   8   8   8   8   8
#     4  10  22  41  61  97 123 164 220 268 324 380
#     4  10  20  41  63  94 126 164 217 269 318 382
#     4  10  21  37  62  92 125 167 210 261 320 381
#     4  11  24  43  64  92 128 175 216 259 337 391
#     4   9  18  37  63  93 127 165 211 263 321 379
#     4  10  26  42  65  91 130 173 213 269 330 397
#
# _framework density 21.469062999999998
#
# number of rings (size 3 to 8) (size 9 to 14) (size 15 to 20)
#    0.000    2.000    1.667    0.500    4.667    3.333 
#    3.000    4.167    0.000    0.000    0.000    0.000 
#    0.000    0.000    0.000    0.000    0.000    0.000 
#
# Total GULP energy -297408.672062 kJ/mol
# GULP energy per Si atom -12392.028003 kJ/mol
# Density = 2.142020 g / cm^3
# Si number density = 21.469063 Si / 1000 Ang^3
#
#
#
# Elastic Constant Matrix: (Units=GPa)
#
#
# Indices 1 2 3 4 5 6 
#
# 1 43.6346 12.2297 16.5312 0.0000 0.0000 0.0000
# 2 12.2297 94.9165 17.8842 0.0000 0.0000 0.0000
# 3 16.5312 17.8842 100.5449 0.0000 0.0000 0.0000
# 4 0.0000 0.0000 0.0000 11.8823 0.0000 0.0000
# 5 0.0000 0.0000 0.0000 0.0000 32.1186 0.0000
# 6 0.0000 0.0000 0.0000 0.0000 0.0000 26.3119
#
#
#
# Elastic Compliance Matrix: (Units=1/GPa)
#
#
# Indices 1 2 3 4 5 6 
#
# 1 0.025015 -0.002533 -0.003662 0.000000 0.000000 0.000000
# 2 -0.002533 0.011157 -0.001568 0.000000 0.000000 0.000000
# 3 -0.003662 -0.001568 0.010827 0.000000 0.000000 0.000000
# 4 0.000000 0.000000 0.000000 0.084158 0.000000 0.000000
# 5 0.000000 0.000000 0.000000 0.000000 0.031135 0.000000
# 6 0.000000 0.000000 0.000000 0.000000 0.000000 0.038006
#
#
# Mechanical properties :
#
#
# Convention : Reuss Voigt Hill
#
# Bulk Modulus (GPa) = 31.77396 36.93182 34.35289
# Shear Modulus (GPa) = 22.09303 26.89263 24.49283
#
# Velocity S-wave (km/s) = 3.21138 3.54308 3.38130
# Velocity P-wave (km/s) = 5.34627 5.82903 5.59286
#
# Compressibility (1/GPa) = 0.03147232
#
# Stress axis : x y z
#
# Youngs Moduli (GPa) = 39.97600 89.62649 92.36276
#
# Poissons Ratio (x) = 0.22703 0.33826
# Poissons Ratio (y) = 0.10126 0.14484
# Poissons Ratio (z) = 0.14640 0.14055
#
# Static dielectric constant tensor:
#      x y z
#    x 3.569960 0.000000 0.000000 
#    y 0.000000 4.184820 0.000000 
#    z 0.000000 0.000000 4.040370 
# 
# 
# High freq. dielectric constant tensor:
#      x y z
#    x 1.819470 0.000000 0.000000 
#    y 0.000000 1.845380 0.000000 
#    z 0.000000 0.000000 1.854780 
# 
# From -- ./inp_files/5174.got.cif
#   From: 2010.03.12/outbox.cif.g09.slc.cpg/sg39_3_cif.got.tgz:5174.got - 2010.04.14 02:53:20.
