data_PCOD8181670
_publ_section_title
;
Structure prediction by ZEFSAII (Michael W. Deem and Ramdas Pophale) SiO2 
 PCOD8181670
Probable space group: A B M 2
;
_chemical_formula_sum "Si O2"
_cell_formula_units_Z 56
_cell_length_a 5.032878
_cell_length_b 16.404018
_cell_length_c 31.726297
_cell_angle_alpha 90.000000
_cell_angle_beta 90.000000
_cell_angle_gamma 90.000000
_cell_volume 2619.304720
_symmetry_space_group_name_H-M "A B M 2"
_symmetry_group_IT_number 39
_symmetry_cell_setting 'orthorhombic'
loop_
_space_group_symop_operation_xyz
x,y,z
-x,-y,z
-x,1/2+y,z
x,1/2-y,z
x,1/2+y,1/2+z
-x,1/2-y,1/2+z
-x,y,1/2+z
x,-y,1/2+z
loop_
_atom_site_type_symbol
_atom_site_label
_atom_site_fract_x
_atom_site_fract_y
_atom_site_fract_z
Si Si1 0.247103 0.652980 0.048510
Si Si2 0.251432 0.347022 0.998352
Si Si3 0.376140 0.843732 0.141302
Si Si4 0.113055 0.090932 0.362691
Si Si5 0.622367 0.343719 0.405485
Si Si6 0.753111 0.942399 0.273315
Si Si7 0.114440 0.090756 0.183930
O O1 0.233021 0.750000 0.047991
O O2 0.497221 0.619406 0.023268
O O3 0.263833 0.623024 0.096765
O O4 0.997329 0.615556 0.023557
O O5 0.237108 0.250000 0.998854
O O6 0.266381 0.377001 0.950070
O O7 0.468529 0.750000 0.138457
O O8 0.636532 0.896136 0.152870
O O9 0.133972 0.850308 0.174485
O O10 0.362557 0.103880 0.393643
O O11 0.864920 0.149741 0.372402
O O12 0.225971 0.111514 0.315784
O O13 0.000000 0.000000 0.367153
O O14 0.529841 0.250000 0.408303
O O15 0.500000 0.000000 0.274000
O O16 0.769303 0.888800 0.230685
O O17 0.000000 0.000000 0.272553
O O18 0.000000 0.000000 0.179236
#
# Coordination Sequence:
#
# PCOD8181670 Si02
#       7
#     8   8   8   8   8   8   8
#     4   9  17  31  53  80 111 150 193 232 274 338
#     4   9  17  31  53  80 111 150 193 232 274 338
#     4  11  22  37  59  90 122 150 193 250 300 342
#     4  11  22  39  61  85 115 156 200 241 290 353
#     4  11  22  37  59  90 122 150 193 250 300 342
#     4  10  20  38  61  84 109 150 203 238 269 346
#     4  11  22  39  61  85 115 156 200 241 290 353
#
# _framework density 21.379721
#
# number of rings (size 3 to 8) (size 9 to 14) (size 15 to 20)
#    0.000    1.714    0.000    6.857    0.000    4.571 
#    0.000    4.286    0.000   12.857    0.000    0.000 
#    0.000    0.000    0.000    0.000    0.000    0.286 
#
# Total GULP energy -347113.192388 kJ/mol
# GULP energy per Si atom -12396.899728 kJ/mol
# Density = 2.133106 g / cm^3
# Si number density = 21.379721 Si / 1000 Ang^3
#
#
#
# Elastic Constant Matrix: (Units=GPa)
#
#
# Indices 1 2 3 4 5 6 
#
# 1 193.5903 27.5639 79.3206 0.0000 0.0000 0.0000
# 2 27.5639 38.6561 46.2379 0.0000 0.0000 0.0000
# 3 79.3206 46.2379 160.4054 0.0000 0.0000 0.0000
# 4 0.0000 0.0000 0.0000 19.9964 0.0000 0.0000
# 5 0.0000 0.0000 0.0000 0.0000 44.4771 0.0000
# 6 0.0000 0.0000 0.0000 0.0000 0.0000 29.8546
#
#
#
# Elastic Compliance Matrix: (Units=1/GPa)
#
#
# Indices 1 2 3 4 5 6 
#
# 1 0.006515 -0.001209 -0.002873 0.000000 0.000000 0.000000
# 2 -0.001209 0.039707 -0.010848 0.000000 0.000000 0.000000
# 3 -0.002873 -0.010848 0.010782 0.000000 0.000000 0.000000
# 4 0.000000 0.000000 0.000000 0.050009 0.000000 0.000000
# 5 0.000000 0.000000 0.000000 0.000000 0.022484 0.000000
# 6 0.000000 0.000000 0.000000 0.000000 0.000000 0.033496
#
#
# Mechanical properties :
#
#
# Convention : Reuss Voigt Hill
#
# Bulk Modulus (GPa) = 36.84086 77.65518 57.24802
# Shear Modulus (GPa) = 24.76477 34.83424 29.79951
#
# Velocity S-wave (km/s) = 3.40712 4.04085 3.73744
# Velocity P-wave (km/s) = 5.72250 7.62706 6.74237
#
# Compressibility (1/GPa) = 0.02714377
#
# Stress axis : x y z
#
# Youngs Moduli (GPa) = 153.49432 25.18460 92.74697
#
# Poissons Ratio (x) = 0.03044 0.26648
# Poissons Ratio (y) = 0.18554 1.00612
# Poissons Ratio (z) = 0.44102 0.27320
#
# Static dielectric constant tensor:
#      x y z
#    x 4.035760 0.000000 0.000000 
#    y 0.000000 3.360310 0.000000 
#    z 0.000000 0.000000 -0.146110 
# 
# 
# High freq. dielectric constant tensor:
#      x y z
#    x 1.862210 0.000000 0.000000 
#    y 0.000000 1.788380 0.000000 
#    z 0.000000 0.000000 1.853830 
# 
# From -- ./inp_files/17275.got.cif
#   From: 2010.03.12/outbox.cif.g09.slc.cpg/sg39_9_cif.got.tgz:17275.got - 2010.04.14 02:53:20.
