data_PCOD8181481
_publ_section_title
;
Structure prediction by ZEFSAII (Michael W. Deem and Ramdas Pophale) SiO2 
 PCOD8181481
Probable space group: A B M 2
;
_chemical_formula_sum "Si O2"
_cell_formula_units_Z 60
_cell_length_a 15.384107
_cell_length_b 9.054320
_cell_length_c 21.375741
_cell_angle_alpha 90.000000
_cell_angle_beta 90.000000
_cell_angle_gamma 90.000000
_cell_volume 2977.483133
_symmetry_space_group_name_H-M "A B M 2"
_symmetry_group_IT_number 39
_symmetry_cell_setting 'orthorhombic'
loop_
_space_group_symop_operation_xyz
x,y,z
-x,-y,z
-x,1/2+y,z
x,1/2-y,z
x,1/2+y,1/2+z
-x,1/2-y,1/2+z
-x,y,1/2+z
x,-y,1/2+z
loop_
_atom_site_type_symbol
_atom_site_label
_atom_site_fract_x
_atom_site_fract_y
_atom_site_fract_z
Si Si1 0.270107 0.084052 0.427560
Si Si2 0.900322 0.406578 0.997454
Si Si3 0.236273 0.576375 0.185260
Si Si4 0.173817 0.415234 0.823177
Si Si5 0.000000 0.500000 0.883224
Si Si6 0.083972 0.576893 0.615343
Si Si7 0.407886 0.074917 0.143814
Si Si8 0.587725 0.921129 0.000344
O O1 0.305437 0.250000 0.417554
O O2 0.200835 0.078329 0.483077
O O3 0.230483 0.029015 0.362526
O O4 0.344678 0.975185 0.449263
O O5 0.916900 0.250000 0.033497
O O6 0.926422 0.546881 0.040369
O O7 0.949862 0.392125 0.931025
O O8 0.246048 0.750000 0.170564
O O9 0.190097 0.546266 0.251199
O O10 0.173577 0.499764 0.134822
O O11 0.331087 0.500034 0.184136
O O12 0.205716 0.250000 0.838446
O O13 0.070784 0.423092 0.838413
O O14 0.086492 0.750000 0.630156
O O15 0.000000 0.500000 0.648649
O O16 0.412944 0.250000 0.157713
O O17 0.500000 0.000000 0.162007
O O18 0.384847 0.042131 0.071502
O O19 0.573107 0.750000 0.991365
O O20 0.500000 0.000000 0.982416
#
# Coordination Sequence:
#
# PCOD8181481 Si02
#       8
#     8   8   8   8   4   8   8   8
#     4  10  21  36  57  86 118 153 193 240 292 349
#     4  10  20  35  57  85 116 149 190 241 298 355
#     4  11  24  42  62  88 123 162 206 255 303 359
#     4  10  23  41  61  85 115 157 205 250 297 352
#     4  10  20  36  62  86 112 152 200 250 298 358
#     4  12  25  39  58  85 121 160 201 249 302 360
#     4  10  21  39  65  95 124 159 200 248 307 367
#     4  10  20  35  59  90 123 155 191 238 297 359
#
# _framework density 20.151247999999999
#
# number of rings (size 3 to 8) (size 9 to 14) (size 15 to 20)
#    0.000    1.600    0.667    4.000    0.933    8.000 
#    0.000    0.667    0.000    3.200    0.000    0.000 
#    0.000    0.000    0.000    0.000    0.000    0.000 
#
# Total GULP energy -371894.181179 kJ/mol
# GULP energy per Si atom -12396.472706 kJ/mol
# Density = 2.010538 g / cm^3
# Si number density = 20.151248 Si / 1000 Ang^3
#
#
#
# Elastic Constant Matrix: (Units=GPa)
#
#
# Indices 1 2 3 4 5 6 
#
# 1 131.1600 58.5630 45.0776 0.0000 0.0000 0.0000
# 2 58.5630 129.2214 33.3972 0.0000 0.0000 0.0000
# 3 45.0776 33.3972 73.5459 0.0000 0.0000 0.0000
# 4 0.0000 0.0000 0.0000 26.0632 0.0000 0.0000
# 5 0.0000 0.0000 0.0000 0.0000 35.5508 0.0000
# 6 0.0000 0.0000 0.0000 0.0000 0.0000 35.2655
#
#
#
# Elastic Compliance Matrix: (Units=1/GPa)
#
#
# Indices 1 2 3 4 5 6 
#
# 1 0.011012 -0.003678 -0.005079 0.000000 0.000000 0.000000
# 2 -0.003678 0.009996 -0.002285 0.000000 0.000000 0.000000
# 3 -0.005079 -0.002285 0.017748 0.000000 0.000000 0.000000
# 4 0.000000 0.000000 0.000000 0.038368 0.000000 0.000000
# 5 0.000000 0.000000 0.000000 0.000000 0.028129 0.000000
# 6 0.000000 0.000000 0.000000 0.000000 0.000000 0.028356
#
#
# Mechanical properties :
#
#
# Convention : Reuss Voigt Hill
#
# Bulk Modulus (GPa) = 59.98277 67.55590 63.76933
# Shear Modulus (GPa) = 31.00753 32.50185 31.75469
#
# Velocity S-wave (km/s) = 3.92693 4.02044 3.97396
# Velocity P-wave (km/s) = 7.09873 7.42625 7.26434
#
# Compressibility (1/GPa) = 0.01667145
#
# Stress axis : x y z
#
# Youngs Moduli (GPa) = 90.80848 100.03971 56.34502
#
# Poissons Ratio (x) = 0.36794 0.28620
# Poissons Ratio (y) = 0.33399 0.12874
# Poissons Ratio (z) = 0.46125 0.22858
#
# Static dielectric constant tensor:
#      x y z
#    x 3.393450 0.000000 0.000000 
#    y 0.000000 3.722830 0.000000 
#    z 0.000000 0.000000 3.412550 
# 
# 
# High freq. dielectric constant tensor:
#      x y z
#    x 1.796000 0.000000 0.000000 
#    y 0.000000 1.798180 0.000000 
#    z 0.000000 0.000000 1.764020 
# 
# From -- ./inp_files/16111.got.cif
#   From: 2010.03.12/outbox.cif.g09.slc.cpg/sg39_9_cif.got.tgz:16111.got - 2010.04.14 02:53:20.
