data_PCOD8181429
_publ_section_title
;
Structure prediction by ZEFSAII (Michael W. Deem and Ramdas Pophale) SiO2 
 PCOD8181429
Probable space group: A B M 2
;
_chemical_formula_sum "Si O2"
_cell_formula_units_Z 64
_cell_length_a 14.274380
_cell_length_b 8.783140
_cell_length_c 25.469407
_cell_angle_alpha 90.000000
_cell_angle_beta 90.000000
_cell_angle_gamma 90.000000
_cell_volume 3193.198325
_symmetry_space_group_name_H-M "A B M 2"
_symmetry_group_IT_number 39
_symmetry_cell_setting 'orthorhombic'
loop_
_space_group_symop_operation_xyz
x,y,z
-x,-y,z
-x,1/2+y,z
x,1/2-y,z
x,1/2+y,1/2+z
-x,1/2-y,1/2+z
-x,y,1/2+z
x,-y,1/2+z
loop_
_atom_site_type_symbol
_atom_site_label
_atom_site_fract_x
_atom_site_fract_y
_atom_site_fract_z
Si Si1 0.777269 0.570290 0.974330
Si Si2 0.102713 0.070043 0.073096
Si Si3 0.399277 0.927686 0.818566
Si Si4 0.603099 0.069598 0.213960
Si Si5 0.099712 0.430620 0.760805
Si Si6 0.223436 0.569712 0.672699
Si Si7 0.601168 0.926577 0.434963
Si Si8 0.097145 0.428085 0.879671
O O1 0.764577 0.750000 0.977417
O O2 0.674217 0.496229 0.976609
O O3 0.824482 0.515655 0.920110
O O4 0.840756 0.511125 0.022301
O O5 0.091122 0.250000 0.072028
O O6 0.161495 0.015708 0.123532
O O7 0.000000 0.000000 0.074645
O O8 0.405082 0.750000 0.804014
O O9 0.355188 0.954420 0.876257
O O10 0.500000 0.000000 0.823171
O O11 0.350894 0.016683 0.770093
O O12 0.597216 0.250000 0.211124
O O13 0.500000 0.000000 0.205652
O O14 0.673024 0.005780 0.169096
O O15 0.098194 0.250000 0.751838
O O16 0.176796 0.509395 0.725518
O O17 0.125236 0.475885 0.820665
O O18 0.000000 0.500000 0.744921
O O19 0.234171 0.750000 0.674271
O O20 0.588479 0.750000 0.446275
O O21 0.500000 0.000000 0.443089
O O22 0.082707 0.250000 0.883732
O O23 0.000000 0.500000 0.897356
#
# Coordination Sequence:
#
# PCOD8181429 Si02
#       8
#     8   8   8   8   8   8   8   8
#     4  10  21  38  59  85 116 152 194 243 293 346
#     4  10  23  42  65  89 116 151 196 246 298 349
#     4   9  17  31  51  79 114 153 194 234 281 336
#     4  11  22  37  58  85 118 156 197 242 292 350
#     4  10  20  35  54  83 116 152 190 234 292 356
#     4  11  23  39  59  85 116 153 197 247 295 350
#     4  10  21  36  56  85 118 157 198 240 288 344
#     4   9  19  34  54  81 114 148 184 230 287 347
#
# _framework density 20.042601000000001
#
# number of rings (size 3 to 8) (size 9 to 14) (size 15 to 20)
#    0.000    2.000    0.000    4.125    1.750    5.000 
#    0.000    0.625    0.000    0.000    0.000    0.000 
#    0.000    0.000    0.000    0.000    0.000    0.000 
#
# Total GULP energy -396722.359706 kJ/mol
# GULP energy per Si atom -12397.573741 kJ/mol
# Density = 1.999698 g / cm^3
# Si number density = 20.042601 Si / 1000 Ang^3
#
#
#
# Elastic Constant Matrix: (Units=GPa)
#
#
# Indices 1 2 3 4 5 6 
#
# 1 149.1765 55.5663 79.2634 0.0000 0.0000 0.0000
# 2 55.5663 91.3366 46.1779 0.0000 0.0000 0.0000
# 3 79.2634 46.1779 94.7463 0.0000 0.0000 0.0000
# 4 0.0000 0.0000 0.0000 22.7152 0.0000 0.0000
# 5 0.0000 0.0000 0.0000 0.0000 35.4752 0.0000
# 6 0.0000 0.0000 0.0000 0.0000 0.0000 37.4000
#
#
#
# Elastic Compliance Matrix: (Units=1/GPa)
#
#
# Indices 1 2 3 4 5 6 
#
# 1 0.012707 -0.003126 -0.009106 0.000000 0.000000 0.000000
# 2 -0.003126 0.015298 -0.004840 0.000000 0.000000 0.000000
# 3 -0.009106 -0.004840 0.020532 0.000000 0.000000 0.000000
# 4 0.000000 0.000000 0.000000 0.044023 0.000000 0.000000
# 5 0.000000 0.000000 0.000000 0.000000 0.028189 0.000000
# 6 0.000000 0.000000 0.000000 0.000000 0.000000 0.026738
#
#
# Mechanical properties :
#
#
# Convention : Reuss Voigt Hill
#
# Bulk Modulus (GPa) = 69.49320 77.47495 73.48408
# Shear Modulus (GPa) = 26.81983 29.40155 28.11069
#
# Velocity S-wave (km/s) = 3.66203 3.83424 3.74912
# Velocity P-wave (km/s) = 7.25456 7.63812 7.44881
#
# Compressibility (1/GPa) = 0.01438990
#
# Stress axis : x y z
#
# Youngs Moduli (GPa) = 78.69934 65.36949 48.70440
#
# Poissons Ratio (x) = 0.20436 0.44353
# Poissons Ratio (y) = 0.24603 0.23575
# Poissons Ratio (z) = 0.71667 0.31642
#
# Static dielectric constant tensor:
#      x y z
#    x 3.603420 0.000000 0.000000 
#    y 0.000000 3.592470 0.000000 
#    z 0.000000 0.000000 3.977300 
# 
# 
# High freq. dielectric constant tensor:
#      x y z
#    x 1.787420 0.000000 0.000000 
#    y 0.000000 1.784140 0.000000 
#    z 0.000000 0.000000 1.769960 
# 
# From -- ./inp_files/16218.got.cif
#   From: 2010.03.12/outbox.cif.g09.slc.cpg/sg39_9_cif.got.tgz:16218.got - 2010.04.14 02:53:20.
