data_PCOD8181545
_publ_section_title
;
Structure prediction by ZEFSAII (Michael W. Deem and Ramdas Pophale) SiO2 
 PCOD8181545
Probable space group: A B M 2
;
_chemical_formula_sum "Si O2"
_cell_formula_units_Z 56
_cell_length_a 19.573073
_cell_length_b 9.825556
_cell_length_c 15.317934
_cell_angle_alpha 90.000000
_cell_angle_beta 90.000000
_cell_angle_gamma 90.000000
_cell_volume 2945.888771
_symmetry_space_group_name_H-M "A B M 2"
_symmetry_group_IT_number 39
_symmetry_cell_setting 'orthorhombic'
loop_
_space_group_symop_operation_xyz
x,y,z
-x,-y,z
-x,1/2+y,z
x,1/2-y,z
x,1/2+y,1/2+z
-x,1/2-y,1/2+z
-x,y,1/2+z
x,-y,1/2+z
loop_
_atom_site_type_symbol
_atom_site_label
_atom_site_fract_x
_atom_site_fract_y
_atom_site_fract_z
Si Si1 0.847950 0.091489 0.894570
Si Si2 0.558355 0.097843 0.170971
Si Si3 0.934499 0.906200 0.566574
Si Si4 0.292529 0.088618 0.470171
Si Si5 0.152050 0.591489 0.238577
Si Si6 0.292529 0.911383 0.162976
Si Si7 0.558355 0.597843 0.462176
O O1 0.852434 0.250000 0.868609
O O2 0.769674 0.042064 0.908858
O O3 0.878696 1.000000 0.816574
O O4 0.889891 0.061184 0.981743
O O5 0.543784 0.250000 0.205536
O O6 0.633417 0.045392 0.202180
O O7 0.500000 0.000000 0.210224
O O8 0.557530 0.096733 0.066573
O O9 0.958492 0.750000 0.566574
O O10 0.889891 0.938816 0.651404
O O11 0.000000 0.000000 0.566574
O O12 0.290725 0.250000 0.480093
O O13 0.282599 0.024016 0.566573
O O14 0.366583 0.045392 0.430967
O O15 0.147566 0.750000 0.264538
O O16 0.230326 0.542064 0.224289
O O17 0.290725 0.750000 0.153054
O O18 0.500000 0.500000 0.422923
O O19 0.543784 0.750000 0.427611
#
# Coordination Sequence:
#
# PCOD8181545 Si02
#       7
#     8   8   8   8   8   8   8
#     4  10  20  36  58  83 109 141 180 220 262 312
#     4   8  13  21  37  63  93 126 166 213 259 305
#     4  10  22  40  62  84 111 144 176 212 259 318
#     4   8  13  26  49  71  95 134 180 216 254 310
#     4  10  20  36  58  83 109 141 180 220 262 312
#     4   8  13  26  49  71  95 134 180 216 254 310
#     4   8  13  21  37  63  93 126 166 213 259 305
#
# _framework density 19.009544000000002
#
# number of rings (size 3 to 8) (size 9 to 14) (size 15 to 20)
#    0.000    3.143    1.429    1.714    0.000    1.714 
#    0.000    4.286    0.000    2.571    0.000    6.000 
#    0.000    0.000    0.000    0.000    0.000    0.000 
#
# Total GULP energy -347002.049647 kJ/mol
# GULP energy per Si atom -12392.930345 kJ/mol
# Density = 1.896628 g / cm^3
# Si number density = 19.009544 Si / 1000 Ang^3
#
#
#
# Elastic Constant Matrix: (Units=GPa)
#
#
# Indices 1 2 3 4 5 6 
#
# 1 139.9323 67.4487 44.9849 0.0000 0.0000 0.0000
# 2 67.4487 76.6887 50.7867 0.0000 0.0000 0.0000
# 3 44.9849 50.7867 90.3920 0.0000 0.0000 0.0000
# 4 0.0000 0.0000 0.0000 22.6996 0.0000 0.0000
# 5 0.0000 0.0000 0.0000 0.0000 1.3055 0.0000
# 6 0.0000 0.0000 0.0000 0.0000 0.0000 32.9188
#
#
#
# Elastic Compliance Matrix: (Units=1/GPa)
#
#
# Indices 1 2 3 4 5 6 
#
# 1 0.012406 -0.010865 -0.000069 0.000000 0.000000 0.000000
# 2 -0.010865 0.030282 -0.011607 0.000000 0.000000 0.000000
# 3 -0.000069 -0.011607 0.017619 0.000000 0.000000 0.000000
# 4 0.000000 0.000000 0.000000 0.044054 0.000000 0.000000
# 5 0.000000 0.000000 0.000000 0.000000 0.765974 0.000000
# 6 0.000000 0.000000 0.000000 0.000000 0.000000 0.030378
#
#
# Mechanical properties :
#
#
# Convention : Reuss Voigt Hill
#
# Bulk Modulus (GPa) = 65.68530 70.38374 68.03452
# Shear Modulus (GPa) = 5.25834 20.97096 13.11465
#
# Velocity S-wave (km/s) = 1.66498 3.32502 2.62944
# Velocity P-wave (km/s) = 6.19073 7.20048 6.71461
#
# Compressibility (1/GPa) = 0.01522411
#
# Stress axis : x y z
#
# Youngs Moduli (GPa) = 80.60852 33.02258 56.75748
#
# Poissons Ratio (x) = 0.35879 0.00394
# Poissons Ratio (y) = 0.87581 0.65878
# Poissons Ratio (z) = 0.00559 0.38329
#
# Static dielectric constant tensor:
#      x y z
#    x 3.852680 0.000000 0.000000 
#    y 0.000000 3.220040 0.000000 
#    z 0.000000 0.000000 3.174320 
# 
# 
# High freq. dielectric constant tensor:
#      x y z
#    x 1.748590 0.000000 0.000000 
#    y 0.000000 1.703010 0.000000 
#    z 0.000000 0.000000 1.715290 
# 
# From -- ./inp_files/10335.got.cif
#   From: 2010.03.12/outbox.cif.g09.slc.cpg/sg39_6_cif.got.tgz:10335.got - 2010.04.14 02:53:20.
