data_PCOD8181162
_publ_section_title
;
Structure prediction by ZEFSAII (Michael W. Deem and Ramdas Pophale) SiO2 
 PCOD8181162
Probable space group: A B M 2
;
_chemical_formula_sum "Si O2"
_cell_formula_units_Z 48
_cell_length_a 9.089147
_cell_length_b 8.761558
_cell_length_c 31.015097
_cell_angle_alpha 90.000000
_cell_angle_beta 90.000000
_cell_angle_gamma 90.000000
_cell_volume 2469.889998
_symmetry_space_group_name_H-M "A B M 2"
_symmetry_group_IT_number 39
_symmetry_cell_setting 'orthorhombic'
loop_
_space_group_symop_operation_xyz
x,y,z
-x,-y,z
-x,1/2+y,z
x,1/2-y,z
x,1/2+y,1/2+z
-x,1/2-y,1/2+z
-x,y,1/2+z
x,-y,1/2+z
loop_
_atom_site_type_symbol
_atom_site_label
_atom_site_fract_x
_atom_site_fract_y
_atom_site_fract_z
Si Si1 0.159500 0.069124 0.567190
Si Si2 0.657591 0.072450 0.643500
Si Si3 0.338516 0.930306 0.303540
Si Si4 0.154770 0.573880 0.728472
Si Si5 0.337297 0.570067 0.490655
Si Si6 0.345287 0.574372 0.397056
O O1 0.147538 0.250000 0.566200
O O2 0.264181 0.018060 0.605585
O O3 0.224394 0.010191 0.522402
O O4 0.000000 0.000000 0.575255
O O5 0.645778 0.250000 0.630934
O O6 0.742482 0.047514 0.687732
O O7 0.500000 0.000000 0.650757
O O8 0.350778 0.750000 0.297005
O O9 0.273271 0.976740 0.351363
O O10 0.500000 0.000000 0.296321
O O11 0.223540 0.995564 0.270059
O O12 0.131785 0.750000 0.739094
O O13 0.000000 0.500000 0.717097
O O14 0.500000 0.500000 0.496086
O O15 0.347767 0.750000 0.500589
O O16 0.264929 0.539744 0.442721
O O17 0.500000 0.500000 0.402318
O O18 0.378644 0.750000 0.392714
#
# Coordination Sequence:
#
# PCOD8181162 Si02
#       6
#     8   8   8   8   8   8
#     4  12  25  41  60  84 115 150 188 231 283 338
#     4  11  24  42  64  89 115 146 186 230 277 331
#     4  10  19  34  57  85 116 150 191 236 282 332
#     4  11  24  40  59  84 115 151 189 231 282 337
#     4  10  19  35  58  85 116 150 191 235 281 332
#     4   8  16  30  52  81 112 147 187 233 280 328
#
# _framework density 19.434063999999999
#
# number of rings (size 3 to 8) (size 9 to 14) (size 15 to 20)
#    0.000    1.667    0.000    5.000    0.000    6.667 
#    0.000    0.833    0.000    0.000    0.000    0.000 
#    0.000    0.000    0.000    0.000    0.000    0.000 
#
# Total GULP energy -297460.850278 kJ/mol
# GULP energy per Si atom -12394.202095 kJ/mol
# Density = 1.938983 g / cm^3
# Si number density = 19.434064 Si / 1000 Ang^3
#
#
#
# Elastic Constant Matrix: (Units=GPa)
#
#
# Indices 1 2 3 4 5 6 
#
# 1 102.9724 56.3132 42.7252 0.0000 0.0000 0.0000
# 2 56.3132 131.9631 68.2002 0.0000 0.0000 0.0000
# 3 42.7252 68.2002 121.1435 0.0000 0.0000 0.0000
# 4 0.0000 0.0000 0.0000 26.9316 0.0000 0.0000
# 5 0.0000 0.0000 0.0000 0.0000 -47.8255 0.0000
# 6 0.0000 0.0000 0.0000 0.0000 0.0000 32.3293
#
#
#
# Elastic Compliance Matrix: (Units=1/GPa)
#
#
# Indices 1 2 3 4 5 6 
#
# 1 0.013024 -0.004490 -0.002065 0.000000 0.000000 0.000000
# 2 -0.004490 0.012236 -0.005305 0.000000 0.000000 0.000000
# 3 -0.002065 -0.005305 0.011969 0.000000 0.000000 0.000000
# 4 0.000000 0.000000 0.000000 0.037131 0.000000 0.000000
# 5 0.000000 0.000000 0.000000 0.000000 -0.020909 0.000000
# 6 0.000000 0.000000 0.000000 0.000000 0.000000 0.030932
#
#
# Mechanical properties :
#
#
# Convention : Reuss Voigt Hill
#
# Bulk Modulus (GPa) = 74.02864 76.72848 75.37856
# Shear Modulus (GPa) = 44.40270 14.87645 29.63957
#
# Velocity S-wave (km/s) = 4.78513 2.76974 3.90953
# Velocity P-wave (km/s) = 8.28884 7.05661 7.69742
#
# Compressibility (1/GPa) = 0.01350829
#
# Stress axis : x y z
#
# Youngs Moduli (GPa) = 76.78140 81.72918 83.54623
#
# Poissons Ratio (x) = 0.36699 0.17256
# Poissons Ratio (y) = 0.34478 0.44318
# Poissons Ratio (z) = 0.15858 0.43354
#
# Static dielectric constant tensor:
#      x y z
#    x 3.329730 0.000000 0.000000 
#    y 0.000000 3.767300 0.000000 
#    z 0.000000 0.000000 4.197720 
# 
# 
# High freq. dielectric constant tensor:
#      x y z
#    x 1.733860 0.000000 0.000000 
#    y 0.000000 1.774410 0.000000 
#    z 0.000000 0.000000 1.786240 
# 
# From -- ./inp_files/17590.got.cif
#   From: 2010.03.12/outbox.cif.g09.slc.cpg/sg39_9_cif.got.tgz:17590.got - 2010.04.14 02:53:20.
