data_PCOD8181849
_publ_section_title
;
Structure prediction by ZEFSAII (Michael W. Deem and Ramdas Pophale) SiO2 
 PCOD8181849
Probable space group: A B M 2
;
_chemical_formula_sum "Si O2"
_cell_formula_units_Z 56
_cell_length_a 19.425941
_cell_length_b 8.657312
_cell_length_c 15.741710
_cell_angle_alpha 90.000000
_cell_angle_beta 90.000000
_cell_angle_gamma 90.000000
_cell_volume 2647.384623
_symmetry_space_group_name_H-M "A B M 2"
_symmetry_group_IT_number 39
_symmetry_cell_setting 'orthorhombic'
loop_
_space_group_symop_operation_xyz
x,y,z
-x,-y,z
-x,1/2+y,z
x,1/2-y,z
x,1/2+y,1/2+z
-x,1/2-y,1/2+z
-x,y,1/2+z
x,-y,1/2+z
loop_
_atom_site_type_symbol
_atom_site_label
_atom_site_fract_x
_atom_site_fract_y
_atom_site_fract_z
Si Si1 0.292249 0.929891 0.050700
Si Si2 0.570514 0.074946 0.817881
Si Si3 0.165301 0.429971 0.123912
Si Si4 0.842677 0.072256 0.813074
Si Si5 0.289739 0.070174 0.873361
Si Si6 0.075163 0.068901 0.966023
Si Si7 0.570776 0.425785 0.616469
O O1 0.289149 0.750000 0.028072
O O2 0.236384 0.973440 0.122106
O O3 0.368374 0.970139 0.080928
O O4 0.270680 0.031756 0.969986
O O5 0.575446 0.250000 0.851362
O O6 0.573662 0.068693 0.717220
O O7 0.500000 0.000000 0.851654
O O8 0.632156 0.976633 0.856286
O O9 0.183019 0.250000 0.111300
O O10 0.130810 0.456694 0.216607
O O11 0.114734 0.492382 0.049965
O O12 0.850716 0.250000 0.839217
O O13 0.762301 0.025125 0.814000
O O14 0.885776 0.971944 0.879245
O O15 0.279567 0.250000 0.855421
O O16 0.068101 0.250000 0.971429
O O17 0.000000 0.000000 0.964304
O O18 0.500000 0.500000 0.582855
O O19 0.577145 0.250000 0.583290
#
# Coordination Sequence:
#
# PCOD8181849 Si02
#       7
#     8   8   8   8   8   8   8
#     4  12  24  38  61  90 122 163 213 264 318 380
#     4  10  21  38  59  85 118 159 207 262 321 382
#     4  10  23  43  67  96 133 172 213 264 321 378
#     4  11  23  42  68  99 132 171 216 266 320 380
#     4  12  24  39  60  88 124 165 211 265 321 379
#     4  11  24  44  69  98 135 175 213 263 317 376
#     4  10  21  38  59  84 119 159 205 262 320 381
#
# _framework density 21.152951999999999
#
# number of rings (size 3 to 8) (size 9 to 14) (size 15 to 20)
#    0.000    1.143    1.429    5.143    0.000    8.000 
#    0.000    4.286    0.000    0.000    0.000    0.000 
#    0.000    0.000    0.000    0.000    0.000    0.000 
#
# Total GULP energy -347339.878359 kJ/mol
# GULP energy per Si atom -12404.995656 kJ/mol
# Density = 2.110481 g / cm^3
# Si number density = 21.152952 Si / 1000 Ang^3
#
#
#
# Elastic Constant Matrix: (Units=GPa)
#
#
# Indices 1 2 3 4 5 6 
#
# 1 122.4528 23.3606 46.9304 0.0000 0.0000 0.0000
# 2 23.3606 74.1848 22.1468 0.0000 0.0000 0.0000
# 3 46.9304 22.1468 92.3259 0.0000 0.0000 0.0000
# 4 0.0000 0.0000 0.0000 30.6210 0.0000 0.0000
# 5 0.0000 0.0000 0.0000 0.0000 14.9528 0.0000
# 6 0.0000 0.0000 0.0000 0.0000 0.0000 35.6720
#
#
#
# Elastic Compliance Matrix: (Units=1/GPa)
#
#
# Indices 1 2 3 4 5 6 
#
# 1 0.010366 -0.001822 -0.004832 0.000000 0.000000 0.000000
# 2 -0.001822 0.014840 -0.002634 0.000000 0.000000 0.000000
# 3 -0.004832 -0.002634 0.013919 0.000000 0.000000 0.000000
# 4 0.000000 0.000000 0.000000 0.032657 0.000000 0.000000
# 5 0.000000 0.000000 0.000000 0.000000 0.066877 0.000000
# 6 0.000000 0.000000 0.000000 0.000000 0.000000 0.028033
#
#
# Mechanical properties :
#
#
# Convention : Reuss Voigt Hill
#
# Bulk Modulus (GPa) = 48.66227 52.64877 50.65552
# Shear Modulus (GPa) = 26.02577 29.35088 27.68833
#
# Velocity S-wave (km/s) = 3.51146 3.72903 3.62188
# Velocity P-wave (km/s) = 6.28453 6.59428 6.44127
#
# Compressibility (1/GPa) = 0.02054980
#
# Stress axis : x y z
#
# Youngs Moduli (GPa) = 96.47060 67.38666 71.84321
#
# Poissons Ratio (x) = 0.12275 0.34716
# Poissons Ratio (y) = 0.17573 0.18922
# Poissons Ratio (z) = 0.46616 0.17748
#
# Static dielectric constant tensor:
#      x y z
#    x 3.887640 0.000000 0.000000 
#    y 0.000000 3.855650 0.000000 
#    z 0.000000 0.000000 3.879260 
# 
# 
# High freq. dielectric constant tensor:
#      x y z
#    x 1.830210 0.000000 0.000000 
#    y 0.000000 1.836750 0.000000 
#    z 0.000000 0.000000 1.832990 
# 
# From -- ./inp_files/10354.got.cif
#   From: 2010.03.12/outbox.cif.g09.slc.cpg/sg39_6_cif.got.tgz:10354.got - 2010.04.14 02:53:20.
