data_PCOD8181894
_publ_section_title
;
Structure prediction by ZEFSAII (Michael W. Deem and Ramdas Pophale) SiO2 
 PCOD8181894
Probable space group: A B M 2
;
_chemical_formula_sum "Si O2"
_cell_formula_units_Z 48
_cell_length_a 14.039313
_cell_length_b 8.639737
_cell_length_c 20.574964
_cell_angle_alpha 90.000000
_cell_angle_beta 90.000000
_cell_angle_gamma 90.000000
_cell_volume 2495.660257
_symmetry_space_group_name_H-M "A B M 2"
_symmetry_group_IT_number 39
_symmetry_cell_setting 'orthorhombic'
loop_
_space_group_symop_operation_xyz
x,y,z
-x,-y,z
-x,1/2+y,z
x,1/2-y,z
x,1/2+y,1/2+z
-x,1/2-y,1/2+z
-x,y,1/2+z
x,-y,1/2+z
loop_
_atom_site_type_symbol
_atom_site_label
_atom_site_fract_x
_atom_site_fract_y
_atom_site_fract_z
Si Si1 0.784801 0.567756 0.720040
Si Si2 0.600309 0.067101 0.771678
Si Si3 0.104915 0.567191 0.092105
Si Si4 0.897332 0.930222 0.338732
Si Si5 0.221194 0.429376 0.468054
Si Si6 0.400513 0.932099 0.412474
O O1 0.767627 0.750000 0.719754
O O2 0.682498 0.484224 0.722130
O O3 0.838104 0.510523 0.655401
O O4 0.848721 0.522454 0.780888
O O5 0.593852 0.250000 0.774918
O O6 0.500000 0.000000 0.746800
O O7 0.626279 0.005407 0.843090
O O8 0.095517 0.750000 0.090478
O O9 0.000000 0.500000 0.093017
O O10 0.161373 0.506607 0.028972
O O11 0.903306 0.750000 0.320320
O O12 0.839056 0.958701 0.403802
O O13 0.000000 0.000000 0.351294
O O14 0.246994 0.250000 0.477256
O O15 0.319186 0.525158 0.464187
O O16 0.409897 0.750000 0.403821
O O17 0.500000 0.000000 0.438474
#
# Coordination Sequence:
#
# PCOD8181894 Si02
#       6
#     8   8   8   8   8   8
#     4  11  22  38  59  86 118 153 198 243 293 348
#     4  11  21  36  59  88 120 154 192 239 295 351
#     4  10  23  41  61  84 117 160 199 242 291 349
#     4  11  22  35  56  83 114 149 192 245 296 346
#     4  10  21  39  59  84 117 154 197 241 292 345
#     4  11  21  35  59  89 120 154 192 238 293 349
#
# _framework density 19.233388000000001
#
# number of rings (size 3 to 8) (size 9 to 14) (size 15 to 20)
#    0.000    1.333    1.667    6.000    0.000    4.000 
#    0.000    0.833    0.000    0.000    0.000    0.000 
#    0.000    0.000    0.000    0.000    0.000    0.000 
#
# Total GULP energy -297721.907066 kJ/mol
# GULP energy per Si atom -12405.079461 kJ/mol
# Density = 1.918961 g / cm^3
# Si number density = 19.233388 Si / 1000 Ang^3
#
#
#
# Elastic Constant Matrix: (Units=GPa)
#
#
# Indices 1 2 3 4 5 6 
#
# 1 170.0105 65.0620 62.0924 0.0000 0.0000 0.0000
# 2 65.0620 108.5854 47.6631 0.0000 0.0000 0.0000
# 3 62.0924 47.6631 109.5186 0.0000 0.0000 0.0000
# 4 0.0000 0.0000 0.0000 23.2878 0.0000 0.0000
# 5 0.0000 0.0000 0.0000 0.0000 29.3838 0.0000
# 6 0.0000 0.0000 0.0000 0.0000 0.0000 40.1531
#
#
#
# Elastic Compliance Matrix: (Units=1/GPa)
#
#
# Indices 1 2 3 4 5 6 
#
# 1 0.008451 -0.003659 -0.003199 0.000000 0.000000 0.000000
# 2 -0.003659 0.012969 -0.003569 0.000000 0.000000 0.000000
# 3 -0.003199 -0.003569 0.012498 0.000000 0.000000 0.000000
# 4 0.000000 0.000000 0.000000 0.042941 0.000000 0.000000
# 5 0.000000 0.000000 0.000000 0.000000 0.034032 0.000000
# 6 0.000000 0.000000 0.000000 0.000000 0.000000 0.024905
#
#
# Mechanical properties :
#
#
# Convention : Reuss Voigt Hill
#
# Bulk Modulus (GPa) = 76.55524 81.97216 79.26370
# Shear Modulus (GPa) = 31.05517 32.78475 31.91996
#
# Velocity S-wave (km/s) = 4.02263 4.13313 4.07825
# Velocity P-wave (km/s) = 7.83997 8.09254 7.96726
#
# Compressibility (1/GPa) = 0.01306246
#
# Stress axis : x y z
#
# Youngs Moduli (GPa) = 118.33438 77.10849 80.01482
#
# Poissons Ratio (x) = 0.28218 0.25593
# Poissons Ratio (y) = 0.43304 0.28560
# Poissons Ratio (z) = 0.37850 0.27522
#
# Static dielectric constant tensor:
#      x y z
#    x 3.755450 0.000000 0.000000 
#    y 0.000000 3.557310 0.000000 
#    z 0.000000 0.000000 3.548950 
# 
# 
# High freq. dielectric constant tensor:
#      x y z
#    x 1.768640 0.000000 0.000000 
#    y 0.000000 1.756090 0.000000 
#    z 0.000000 0.000000 1.731700 
# 
# From -- ./inp_files/12656.got.cif
#   From: 2010.03.12/outbox.cif.g09.slc.cpg/sg39_7_cif.got.tgz:12656.got - 2010.04.14 02:53:20.
