data_PCOD8181671
_publ_section_title
;
Structure prediction by ZEFSAII (Michael W. Deem and Ramdas Pophale) SiO2 
 PCOD8181671
Probable space group: A B M 2
;
_chemical_formula_sum "Si O2"
_cell_formula_units_Z 40
_cell_length_a 20.915448
_cell_length_b 9.970830
_cell_length_c 8.998728
_cell_angle_alpha 90.000000
_cell_angle_beta 90.000000
_cell_angle_gamma 90.000000
_cell_volume 1876.634119
_symmetry_space_group_name_H-M "A B M 2"
_symmetry_group_IT_number 39
_symmetry_cell_setting 'orthorhombic'
loop_
_space_group_symop_operation_xyz
x,y,z
-x,-y,z
-x,1/2+y,z
x,1/2-y,z
x,1/2+y,1/2+z
-x,1/2-y,1/2+z
-x,y,1/2+z
x,-y,1/2+z
loop_
_atom_site_type_symbol
_atom_site_label
_atom_site_fract_x
_atom_site_fract_y
_atom_site_fract_z
Si Si1 0.772200 0.103311 0.322120
Si Si2 0.943179 0.395707 0.843632
Si Si3 0.857711 0.525053 0.079183
Si Si4 0.442448 0.404988 0.570146
Si Si5 0.632414 0.597729 0.862160
O O1 0.754153 0.250000 0.266396
O O2 0.801771 0.033490 0.179455
O O3 0.704853 0.038466 0.372395
O O4 0.822906 0.116376 0.456828
O O5 0.974830 0.250000 0.860179
O O6 0.905804 0.396283 0.686903
O O7 0.000000 0.500000 0.843109
O O8 0.896864 0.414638 0.985075
O O9 0.500000 0.500000 0.628696
O O10 0.463667 0.250000 0.526641
O O11 0.387580 0.394211 0.691660
O O12 0.413326 0.486669 0.432843
O O13 0.626904 0.750000 0.932046
#
# Coordination Sequence:
#
# PCOD8181671 Si02
#       5
#     8   8   8   8   8
#     4  10  20  38  61  85 117 153 190 236 290 348
#     4  11  24  40  60  87 118 154 197 243 292 347
#     4  10  22  38  60  87 117 152 194 239 290 347
#     4  11  23  39  60  87 119 156 198 242 290 344
#     4  10  22  39  61  90 120 153 194 240 292 348
#
# _framework density 21.314755999999999
#
# number of rings (size 3 to 8) (size 9 to 14) (size 15 to 20)
#    0.000    1.600    0.000    4.200    0.000    9.600 
#    0.000    5.000    0.000    0.000    0.000    0.000 
#    0.000    0.000    0.000    0.000    0.000    0.000 
#
# Total GULP energy -247817.820939 kJ/mol
# GULP energy per Si atom -12390.891047 kJ/mol
# Density = 2.126624 g / cm^3
# Si number density = 21.314756 Si / 1000 Ang^3
#
#
#
# Elastic Constant Matrix: (Units=GPa)
#
#
# Indices 1 2 3 4 5 6 
#
# 1 117.2061 50.9141 21.4995 0.0000 0.0000 0.0000
# 2 50.9141 145.2771 31.1811 0.0000 0.0000 0.0000
# 3 21.4995 31.1811 84.7767 0.0000 0.0000 0.0000
# 4 0.0000 0.0000 0.0000 16.3854 0.0000 0.0000
# 5 0.0000 0.0000 0.0000 0.0000 29.4319 0.0000
# 6 0.0000 0.0000 0.0000 0.0000 0.0000 31.3455
#
#
#
# Elastic Compliance Matrix: (Units=1/GPa)
#
#
# Indices 1 2 3 4 5 6 
#
# 1 0.010211 -0.003282 -0.001382 0.000000 0.000000 0.000000
# 2 -0.003282 0.008528 -0.002304 0.000000 0.000000 0.000000
# 3 -0.001382 -0.002304 0.012994 0.000000 0.000000 0.000000
# 4 0.000000 0.000000 0.000000 0.061030 0.000000 0.000000
# 5 0.000000 0.000000 0.000000 0.000000 0.033977 0.000000
# 6 0.000000 0.000000 0.000000 0.000000 0.000000 0.031903
#
#
# Mechanical properties :
#
#
# Convention : Reuss Voigt Hill
#
# Bulk Modulus (GPa) = 56.19343 61.60549 58.89946
# Shear Modulus (GPa) = 28.00935 31.67692 29.84313
#
# Velocity S-wave (km/s) = 3.62896 3.85924 3.74587
# Velocity P-wave (km/s) = 6.63174 6.98741 6.81190
#
# Compressibility (1/GPa) = 0.01779567
#
# Stress axis : x y z
#
# Youngs Moduli (GPa) = 97.93136 117.25827 76.95949
#
# Poissons Ratio (x) = 0.38483 0.10640
# Poissons Ratio (y) = 0.32140 0.17734
# Poissons Ratio (z) = 0.13539 0.27021
#
# Static dielectric constant tensor:
#      x y z
#    x 4.096400 0.000000 0.000000 
#    y 0.000000 3.844690 0.000000 
#    z 0.000000 0.000000 3.787190 
# 
# 
# High freq. dielectric constant tensor:
#      x y z
#    x 1.849500 0.000000 0.000000 
#    y 0.000000 1.830080 0.000000 
#    z 0.000000 0.000000 1.835700 
# 
# From -- ./inp_files/3615.got.cif
#   From: 2010.03.12/outbox.cif.g09.slc.cpg/sg39_2_cif.got.tgz:3615.got - 2010.04.14 02:53:20.
