data_PCOD8181134
_publ_section_title
;
Structure prediction by ZEFSAII (Michael W. Deem and Ramdas Pophale) SiO2 
 PCOD8181134
Probable space group: A B M 2
;
_chemical_formula_sum "Si O2"
_cell_formula_units_Z 64
_cell_length_a 19.073380
_cell_length_b 9.060181
_cell_length_c 19.486349
_cell_angle_alpha 90.000000
_cell_angle_beta 90.000000
_cell_angle_gamma 90.000000
_cell_volume 3367.402358
_symmetry_space_group_name_H-M "A B M 2"
_symmetry_group_IT_number 39
_symmetry_cell_setting 'orthorhombic'
loop_
_space_group_symop_operation_xyz
x,y,z
-x,-y,z
-x,1/2+y,z
x,1/2-y,z
x,1/2+y,1/2+z
-x,1/2-y,1/2+z
-x,y,1/2+z
x,-y,1/2+z
loop_
_atom_site_type_symbol
_atom_site_label
_atom_site_fract_x
_atom_site_fract_y
_atom_site_fract_z
Si Si1 0.928096 0.077234 0.488410
Si Si2 0.073141 0.575897 0.645637
Si Si3 0.567339 0.086238 0.304152
Si Si4 0.342017 0.924206 0.183629
Si Si5 0.655425 0.915500 0.937371
Si Si6 0.573889 0.923852 0.551602
Si Si7 0.807753 0.425998 0.234485
Si Si8 0.196049 0.425290 0.892075
O O1 0.938940 0.250000 0.478051
O O2 0.906524 0.040805 0.566691
O O3 0.868966 0.015212 0.436852
O O4 0.000000 0.000000 0.467507
O O5 0.067081 0.750000 0.658601
O O6 0.130392 0.506684 0.695114
O O7 0.000000 0.500000 0.664438
O O8 0.541449 0.250000 0.285701
O O9 0.602163 0.008667 0.237656
O O10 0.626656 0.091005 0.361028
O O11 0.500000 0.000000 0.330760
O O12 0.340769 0.750000 0.195097
O O13 0.368365 0.968717 0.108342
O O14 0.263870 0.982824 0.198429
O O15 0.655375 0.750000 0.969610
O O16 0.733661 0.982228 0.930381
O O17 0.605808 0.022770 0.980260
O O18 0.560626 0.750000 0.548746
O O19 0.500000 0.000000 0.567609
O O20 0.817067 0.250000 0.228720
O O21 0.809193 0.480348 0.313591
O O22 0.199149 0.250000 0.891841
#
# Coordination Sequence:
#
# PCOD8181134 Si02
#       8
#     8   8   8   8   8   8   8   8
#     4   9  19  36  57  82 111 144 183 223 266 320
#     4  10  21  37  57  84 115 147 184 225 269 321
#     4  10  19  34  56  79 103 140 184 224 270 324
#     4   9  19  36  56  79 108 143 184 224 271 331
#     4  10  20  36  58  81 109 144 183 226 275 329
#     4  11  23  38  55  79 110 144 184 230 279 331
#     4  10  19  36  60  83 111 147 184 225 274 327
#     4   9  18  35  59  83 109 147 186 221 270 329
#
# _framework density 19.005749000000002
#
# number of rings (size 3 to 8) (size 9 to 14) (size 15 to 20)
#    0.000    2.250    1.250    1.500    1.750    2.500 
#    0.000    5.000    0.000    0.000    0.000    0.000 
#    0.000    0.000    0.000    0.000    0.000    0.000 
#
# Total GULP energy -396780.805090 kJ/mol
# GULP energy per Si atom -12399.400159 kJ/mol
# Density = 1.896249 g / cm^3
# Si number density = 19.005749 Si / 1000 Ang^3
#
#
#
# Elastic Constant Matrix: (Units=GPa)
#
#
# Indices 1 2 3 4 5 6 
#
# 1 149.2475 45.1278 55.4931 0.0000 0.0000 0.0000
# 2 45.1278 56.7595 32.7402 0.0000 0.0000 0.0000
# 3 55.4931 32.7402 90.4513 0.0000 0.0000 0.0000
# 4 0.0000 0.0000 0.0000 19.4017 0.0000 0.0000
# 5 0.0000 0.0000 0.0000 0.0000 40.5968 0.0000
# 6 0.0000 0.0000 0.0000 0.0000 0.0000 27.6597
#
#
#
# Elastic Compliance Matrix: (Units=1/GPa)
#
#
# Indices 1 2 3 4 5 6 
#
# 1 0.009878 -0.005508 -0.004066 0.000000 0.000000 0.000000
# 2 -0.005508 0.025339 -0.005793 0.000000 0.000000 0.000000
# 3 -0.004066 -0.005793 0.015647 0.000000 0.000000 0.000000
# 4 0.000000 0.000000 0.000000 0.051542 0.000000 0.000000
# 5 0.000000 0.000000 0.000000 0.000000 0.024632 0.000000
# 6 0.000000 0.000000 0.000000 0.000000 0.000000 0.036154
#
#
# Mechanical properties :
#
#
# Convention : Reuss Voigt Hill
#
# Bulk Modulus (GPa) = 49.67760 62.57563 56.12661
# Shear Modulus (GPa) = 24.92086 28.40478 26.66282
#
# Velocity S-wave (km/s) = 3.62502 3.87012 3.74957
# Velocity P-wave (km/s) = 6.61180 7.27781 6.95278
#
# Compressibility (1/GPa) = 0.02012980
#
# Stress axis : x y z
#
# Youngs Moduli (GPa) = 101.23863 39.46551 63.90916
#
# Poissons Ratio (x) = 0.21737 0.25988
# Poissons Ratio (y) = 0.55760 0.37020
# Poissons Ratio (z) = 0.41168 0.22861
#
# Static dielectric constant tensor:
#      x y z
#    x 3.629820 0.000000 0.000000 
#    y 0.000000 3.217760 0.000000 
#    z 0.000000 0.000000 3.517130 
# 
# 
# High freq. dielectric constant tensor:
#      x y z
#    x 1.751830 0.000000 0.000000 
#    y 0.000000 1.709250 0.000000 
#    z 0.000000 0.000000 1.744690 
# 
# From -- ./inp_files/13160.got.cif
#   From: 2010.03.12/outbox.cif.g09.slc.cpg/sg39_7_cif.got.tgz:13160.got - 2010.04.14 02:53:20.
