data_PCOD8181125
_publ_section_title
;
Structure prediction by ZEFSAII (Michael W. Deem and Ramdas Pophale) SiO2 
 PCOD8181125
Probable space group: A B M 2
;
_chemical_formula_sum "Si O2"
_cell_formula_units_Z 64
_cell_length_a 19.260148
_cell_length_b 9.453749
_cell_length_c 20.191327
_cell_angle_alpha 90.000000
_cell_angle_beta 90.000000
_cell_angle_gamma 90.000000
_cell_volume 3676.449034
_symmetry_space_group_name_H-M "A B M 2"
_symmetry_group_IT_number 39
_symmetry_cell_setting 'orthorhombic'
loop_
_space_group_symop_operation_xyz
x,y,z
-x,-y,z
-x,1/2+y,z
x,1/2-y,z
x,1/2+y,1/2+z
-x,1/2-y,1/2+z
-x,y,1/2+z
x,-y,1/2+z
loop_
_atom_site_type_symbol
_atom_site_label
_atom_site_fract_x
_atom_site_fract_y
_atom_site_fract_z
Si Si1 0.287950 0.583633 0.074840
Si Si2 0.561815 0.093654 0.926176
Si Si3 0.068863 0.912856 0.263527
Si Si4 0.437350 0.407799 0.584243
Si Si5 0.142544 0.086557 0.627736
Si Si6 0.068514 0.584046 0.515350
Si Si7 0.158451 0.586767 0.386668
Si Si8 0.284132 0.582649 0.926414
O O1 0.299473 0.750000 0.067506
O O2 0.361605 0.525763 0.103962
O O3 0.223788 0.543999 0.122180
O O4 0.272594 0.525469 0.001261
O O5 0.548801 0.250000 0.898619
O O6 0.638026 0.041209 0.902813
O O7 0.500000 0.000000 0.895708
O O8 0.559472 0.093610 0.005181
O O9 0.047008 0.750000 0.270390
O O10 0.121883 0.936304 0.203361
O O11 0.105824 0.967076 0.330172
O O12 0.000000 0.000000 0.249814
O O13 0.500000 0.500000 0.614528
O O14 0.446660 0.250000 0.612777
O O15 0.131476 0.250000 0.605158
O O16 0.096623 0.983559 0.582925
O O17 0.052085 0.750000 0.526719
O O18 0.124277 0.561629 0.457872
O O19 0.000000 0.500000 0.493667
O O20 0.177135 0.750000 0.374642
O O21 0.228934 0.497136 0.380259
O O22 0.271619 0.750000 0.921202
#
# Coordination Sequence:
#
# PCOD8181125 Si02
#       8
#     8   8   8   8   8   8   8   8
#     4   8  14  26  45  68  94 123 156 193 234 281
#     4   8  14  23  37  61  93 127 159 192 231 280
#     4  10  22  38  54  72  95 125 162 201 244 293
#     4   8  13  22  36  58  90 124 154 185 224 273
#     4  10  19  34  55  74  95 126 161 200 242 288
#     4  11  22  34  50  72  97 123 154 195 242 293
#     4  10  21  35  49  71  99 125 158 201 245 288
#     4   9  16  28  47  70  96 127 164 199 238 288
#
# _framework density 17.408102
#
# number of rings (size 3 to 8) (size 9 to 14) (size 15 to 20)
#    0.000    2.750    1.250    2.625    0.000    3.000 
#    0.000    2.500    0.000    0.000    0.000    0.875 
#    0.000    4.000    0.000    0.000    0.000    0.000 
#
# Total GULP energy -396664.350036 kJ/mol
# GULP energy per Si atom -12395.760939 kJ/mol
# Density = 1.736848 g / cm^3
# Si number density = 17.408102 Si / 1000 Ang^3
#
#
#
# Elastic Constant Matrix: (Units=GPa)
#
#
# Indices 1 2 3 4 5 6 
#
# 1 147.2893 59.6946 21.5636 0.0000 0.0000 0.0000
# 2 59.6946 68.6371 19.2318 0.0000 0.0000 0.0000
# 3 21.5636 19.2318 45.1929 0.0000 0.0000 0.0000
# 4 0.0000 0.0000 0.0000 16.0188 0.0000 0.0000
# 5 0.0000 0.0000 0.0000 0.0000 19.4742 0.0000
# 6 0.0000 0.0000 0.0000 0.0000 0.0000 35.3280
#
#
#
# Elastic Compliance Matrix: (Units=1/GPa)
#
#
# Indices 1 2 3 4 5 6 
#
# 1 0.010550 -0.008816 -0.001282 0.000000 0.000000 0.000000
# 2 -0.008816 0.023909 -0.005968 0.000000 0.000000 0.000000
# 3 -0.001282 -0.005968 0.025279 0.000000 0.000000 0.000000
# 4 0.000000 0.000000 0.000000 0.062427 0.000000 0.000000
# 5 0.000000 0.000000 0.000000 0.000000 0.051350 0.000000
# 6 0.000000 0.000000 0.000000 0.000000 0.000000 0.028306
#
#
# Mechanical properties :
#
#
# Convention : Reuss Voigt Hill
#
# Bulk Modulus (GPa) = 36.22483 51.34436 43.78460
# Shear Modulus (GPa) = 20.56295 24.87285 22.71790
#
# Velocity S-wave (km/s) = 3.44063 3.78406 3.61642
# Velocity P-wave (km/s) = 6.05295 6.97500 6.53027
#
# Compressibility (1/GPa) = 0.02760537
#
# Stress axis : x y z
#
# Youngs Moduli (GPa) = 94.78433 41.82466 39.55885
#
# Poissons Ratio (x) = 0.36874 0.05072
# Poissons Ratio (y) = 0.83566 0.23608
# Poissons Ratio (z) = 0.12153 0.24961
#
# Static dielectric constant tensor:
#      x y z
#    x 3.545770 0.000000 0.000000 
#    y 0.000000 3.201110 0.000000 
#    z 0.000000 0.000000 2.831770 
# 
# 
# High freq. dielectric constant tensor:
#      x y z
#    x 1.690750 0.000000 0.000000 
#    y 0.000000 1.658640 0.000000 
#    z 0.000000 0.000000 1.623760 
# 
# From -- ./inp_files/13124.got.cif
#   From: 2010.03.12/outbox.cif.g09.slc.cpg/sg39_7_cif.got.tgz:13124.got - 2010.04.14 02:53:20.
