data_PCOD8181843
_publ_section_title
;
Structure prediction by ZEFSAII (Michael W. Deem and Ramdas Pophale) SiO2 
 PCOD8181843
Probable space group: A B M 2
;
_chemical_formula_sum "Si O2"
_cell_formula_units_Z 64
_cell_length_a 11.607862
_cell_length_b 25.487744
_cell_length_c 11.031882
_cell_angle_alpha 90.000000
_cell_angle_beta 90.000000
_cell_angle_gamma 90.000000
_cell_volume 3263.872917
_symmetry_space_group_name_H-M "A B M 2"
_symmetry_group_IT_number 39
_symmetry_cell_setting 'orthorhombic'
loop_
_space_group_symop_operation_xyz
x,y,z
-x,-y,z
-x,1/2+y,z
x,1/2-y,z
x,1/2+y,1/2+z
-x,1/2-y,1/2+z
-x,y,1/2+z
x,-y,1/2+z
loop_
_atom_site_type_symbol
_atom_site_label
_atom_site_fract_x
_atom_site_fract_y
_atom_site_fract_z
Si Si1 0.882682 0.891879 0.241430
Si Si2 0.732740 0.626709 0.009939
Si Si3 0.367025 0.514392 0.511318
Si Si4 0.690901 0.809154 0.629799
Si Si5 0.758092 0.998422 0.267067
Si Si6 0.438513 0.189418 0.151114
Si Si7 0.263946 0.691787 0.853798
Si Si8 0.848680 0.614796 0.767246
O O1 0.829122 0.876998 0.112818
O O2 0.834435 0.852058 0.342776
O O3 0.017256 0.881218 0.241397
O O4 0.853425 0.952495 0.267784
O O5 0.636765 0.670401 0.036785
O O6 0.654852 0.575493 0.993246
O O7 0.805755 0.641513 0.891523
O O8 0.500000 0.500000 0.517472
O O9 0.315441 0.486859 0.389863
O O10 0.313387 0.498819 0.641663
O O11 0.712912 0.750000 0.683720
O O12 0.566899 0.834221 0.665521
O O13 0.688822 0.804992 0.486898
O O14 0.787225 0.851484 0.663751
O O15 0.821636 0.053518 0.273503
O O16 0.457692 0.250000 0.129327
O O17 0.371951 0.173885 0.272674
O O18 0.219718 0.750000 0.812226
#
# Coordination Sequence:
#
# PCOD8181843 Si02
#       8
#     8   8   8   8   8   8   8   8
#     4  10  22  41  63  81 121 162 202 249 296 350
#     4   9  22  39  56  90 117 149 199 243 293 361
#     4  10  21  38  58  86 124 153 198 247 299 359
#     4  10  23  38  59  92 119 150 201 249 301 362
#     4  10  23  39  58  91 119 164 205 242 304 365
#     4   9  19  38  62  85 118 155 189 243 306 364
#     4   9  20  39  61  88 115 153 202 241 300 363
#     4  11  24  38  61  89 120 156 206 249 295 353
#
# _framework density 19.608608
#
# number of rings (size 3 to 8) (size 9 to 14) (size 15 to 20)
#    0.000    2.250    0.000    0.750    7.000    1.000 
#    4.500    3.750    0.000    0.000    0.000    0.000 
#    0.000    0.000    0.000    0.000    0.000    0.000 
#
# Total GULP energy -396588.678250 kJ/mol
# GULP energy per Si atom -12393.396195 kJ/mol
# Density = 1.956398 g / cm^3
# Si number density = 19.608608 Si / 1000 Ang^3
#
#
#
# Elastic Constant Matrix: (Units=GPa)
#
#
# Indices 1 2 3 4 5 6 
#
# 1 172.5291 54.9618 40.5382 0.0000 0.0000 0.0000
# 2 54.9618 68.7214 16.7614 0.0000 0.0000 0.0000
# 3 40.5382 16.7614 94.2196 0.0000 0.0000 0.0000
# 4 0.0000 0.0000 0.0000 28.3089 0.0000 0.0000
# 5 0.0000 0.0000 0.0000 0.0000 17.9475 0.0000
# 6 0.0000 0.0000 0.0000 0.0000 0.0000 26.1856
#
#
#
# Elastic Compliance Matrix: (Units=1/GPa)
#
#
# Indices 1 2 3 4 5 6 
#
# 1 0.008305 -0.006033 -0.002500 0.000000 0.000000 0.000000
# 2 -0.006033 0.019593 -0.000890 0.000000 0.000000 0.000000
# 3 -0.002500 -0.000890 0.011848 0.000000 0.000000 0.000000
# 4 0.000000 0.000000 0.000000 0.035325 0.000000 0.000000
# 5 0.000000 0.000000 0.000000 0.000000 0.055718 0.000000
# 6 0.000000 0.000000 0.000000 0.000000 0.000000 0.038189
#
#
# Mechanical properties :
#
#
# Convention : Reuss Voigt Hill
#
# Bulk Modulus (GPa) = 47.84578 62.22144 55.03361
# Shear Modulus (GPa) = 25.66863 29.36899 27.51881
#
# Velocity S-wave (km/s) = 3.62200 3.87429 3.75027
# Velocity P-wave (km/s) = 6.47651 7.19820 6.84687
#
# Compressibility (1/GPa) = 0.02090048
#
# Stress axis : x y z
#
# Youngs Moduli (GPa) = 120.40401 51.03774 84.40550
#
# Poissons Ratio (x) = 0.30789 0.21103
# Poissons Ratio (y) = 0.72635 0.07513
# Poissons Ratio (z) = 0.30104 0.04543
#
# Static dielectric constant tensor:
#      x y z
#    x 3.515280 0.000000 0.000000 
#    y 0.000000 3.733980 0.000000 
#    z 0.000000 0.000000 3.763760 
# 
# 
# High freq. dielectric constant tensor:
#      x y z
#    x 1.761110 0.000000 0.000000 
#    y 0.000000 1.767540 0.000000 
#    z 0.000000 0.000000 1.771130 
# 
# From -- ./inp_files/6096.got.cif
#   From: 2010.03.12/outbox.cif.g09.slc.cpg/sg39_4_cif.got.tgz:6096.got - 2010.04.14 02:53:20.
