data_PCOD8181340
_publ_section_title
;
Structure prediction by ZEFSAII (Michael W. Deem and Ramdas Pophale) SiO2 
 PCOD8181340
Probable space group: A B M 2
;
_chemical_formula_sum "Si O2"
_cell_formula_units_Z 64
_cell_length_a 20.874189
_cell_length_b 9.026870
_cell_length_c 18.738194
_cell_angle_alpha 90.000000
_cell_angle_beta 90.000000
_cell_angle_gamma 90.000000
_cell_volume 3530.811483
_symmetry_space_group_name_H-M "A B M 2"
_symmetry_group_IT_number 39
_symmetry_cell_setting 'orthorhombic'
loop_
_space_group_symop_operation_xyz
x,y,z
-x,-y,z
-x,1/2+y,z
x,1/2-y,z
x,1/2+y,1/2+z
-x,1/2-y,1/2+z
-x,y,1/2+z
x,-y,1/2+z
loop_
_atom_site_type_symbol
_atom_site_label
_atom_site_fract_x
_atom_site_fract_y
_atom_site_fract_z
Si Si1 0.064772 0.923477 0.059480
Si Si2 0.440384 0.077210 0.218008
Si Si3 0.934294 0.424369 0.223776
Si Si4 0.815310 0.926054 0.469519
Si Si5 0.559367 0.923024 0.565255
Si Si6 0.299559 0.577266 0.064036
Si Si7 0.820370 0.925205 0.307650
Si Si8 0.299685 0.921525 0.714570
O O1 0.055659 0.750000 0.049001
O O2 0.079709 0.963562 0.141425
O O3 0.122615 0.985825 0.011555
O O4 0.000000 0.000000 0.032682
O O5 0.455411 0.250000 0.211838
O O6 0.369677 0.048328 0.251118
O O7 0.500000 0.000000 0.261131
O O8 0.438171 0.002521 0.141039
O O9 0.939842 0.250000 0.236457
O O10 0.877378 0.489550 0.269947
O O11 0.000000 0.500000 0.249184
O O12 0.813826 0.750000 0.470913
O O13 0.751751 0.988977 0.508376
O O14 0.816969 0.983091 0.388666
O O15 0.545014 0.750000 0.573768
O O16 0.629364 0.950525 0.530494
O O17 0.500000 0.000000 0.521643
O O18 0.287608 0.750000 0.075907
O O19 0.289514 0.507021 0.141203
O O20 0.832874 0.750000 0.303059
O O21 0.753562 0.971007 0.271130
O O22 0.293275 0.750000 0.695023
#
# Coordination Sequence:
#
# PCOD8181340 Si02
#       8
#     8   8   8   8   8   8   8   8
#     4   9  18  33  53  74  95 121 152 189 230 271
#     4   9  15  24  39  62  91 119 151 192 238 284
#     4  10  20  35  55  77 100 125 156 194 234 279
#     4   9  18  33  51  70  94 125 160 195 230 272
#     4   9  15  23  39  64  91 117 148 190 238 283
#     4   9  17  30  49  70  91 122 163 200 235 280
#     4  10  20  34  51  71  98 130 161 195 236 282
#     4   9  18  30  46  70  97 125 157 197 244 287
#
# _framework density 18.126145000000001
#
# number of rings (size 3 to 8) (size 9 to 14) (size 15 to 20)
#    0.000    2.750    0.000    2.625    0.000    3.500 
#    0.000    3.125    0.000    0.750    0.000    0.000 
#    0.000    0.000    0.000    0.000    0.000    6.750 
#
# Total GULP energy -396572.737908 kJ/mol
# GULP energy per Si atom -12392.898060 kJ/mol
# Density = 1.808489 g / cm^3
# Si number density = 18.126145 Si / 1000 Ang^3
#
#
#
# Elastic Constant Matrix: (Units=GPa)
#
#
# Indices 1 2 3 4 5 6 
#
# 1 206.5254 60.9560 83.8259 0.0000 0.0000 0.0000
# 2 60.9560 64.1363 33.0847 0.0000 0.0000 0.0000
# 3 83.8259 33.0847 88.3779 0.0000 0.0000 0.0000
# 4 0.0000 0.0000 0.0000 15.1103 0.0000 0.0000
# 5 0.0000 0.0000 0.0000 0.0000 2.7434 0.0000
# 6 0.0000 0.0000 0.0000 0.0000 0.0000 26.4873
#
#
#
# Elastic Compliance Matrix: (Units=1/GPa)
#
#
# Indices 1 2 3 4 5 6 
#
# 1 0.009081 -0.005190 -0.006671 0.000000 0.000000 0.000000
# 2 -0.005190 0.022289 -0.003421 0.000000 0.000000 0.000000
# 3 -0.006671 -0.003421 0.018923 0.000000 0.000000 0.000000
# 4 0.000000 0.000000 0.000000 0.066180 0.000000 0.000000
# 5 0.000000 0.000000 0.000000 0.000000 0.364508 0.000000
# 6 0.000000 0.000000 0.000000 0.000000 0.000000 0.037754
#
#
# Mechanical properties :
#
#
# Convention : Reuss Voigt Hill
#
# Bulk Modulus (GPa) = 50.68572 79.41918 65.05245
# Shear Modulus (GPa) = 8.99480 20.94640 14.97060
#
# Velocity S-wave (km/s) = 2.23005 3.40309 2.87699
# Velocity P-wave (km/s) = 5.88679 7.70397 6.85585
#
# Compressibility (1/GPa) = 0.01972942
#
# Stress axis : x y z
#
# Youngs Moduli (GPa) = 110.11488 44.86437 52.84545
#
# Poissons Ratio (x) = 0.23285 0.35252
# Poissons Ratio (y) = 0.57149 0.18081
# Poissons Ratio (z) = 0.73455 0.15350
#
# Static dielectric constant tensor:
#      x y z
#    x 4.383820 0.000000 0.000000 
#    y 0.000000 3.268540 0.000000 
#    z 0.000000 0.000000 3.085000 
# 
# 
# High freq. dielectric constant tensor:
#      x y z
#    x 1.731660 0.000000 0.000000 
#    y 0.000000 1.692450 0.000000 
#    z 0.000000 0.000000 1.657210 
# 
# From -- ./inp_files/13136.got.cif
#   From: 2010.03.12/outbox.cif.g09.slc.cpg/sg39_7_cif.got.tgz:13136.got - 2010.04.14 02:53:20.
