data_PCOD8181155
_publ_section_title
;
Structure prediction by ZEFSAII (Michael W. Deem and Ramdas Pophale) SiO2 
 PCOD8181155
Probable space group: A B M 2
;
_chemical_formula_sum "Si O2"
_cell_formula_units_Z 64
_cell_length_a 19.754309
_cell_length_b 8.791247
_cell_length_c 20.036574
_cell_angle_alpha 90.000000
_cell_angle_beta 90.000000
_cell_angle_gamma 90.000000
_cell_volume 3479.651819
_symmetry_space_group_name_H-M "A B M 2"
_symmetry_group_IT_number 39
_symmetry_cell_setting 'orthorhombic'
loop_
_space_group_symop_operation_xyz
x,y,z
-x,-y,z
-x,1/2+y,z
x,1/2-y,z
x,1/2+y,1/2+z
-x,1/2-y,1/2+z
-x,y,1/2+z
x,-y,1/2+z
loop_
_atom_site_type_symbol
_atom_site_label
_atom_site_fract_x
_atom_site_fract_y
_atom_site_fract_z
Si Si1 0.168509 0.572205 0.797310
Si Si2 0.429358 0.570321 0.576734
Si Si3 0.174834 0.573151 0.509111
Si Si4 0.650785 0.929619 0.691766
Si Si5 0.073068 0.070639 0.410391
Si Si6 0.681772 0.070109 0.826405
Si Si7 0.675813 0.572146 0.962936
Si Si8 0.209202 0.426887 0.155981
O O1 0.167818 0.750000 0.810350
O O2 0.108602 0.502815 0.842980
O O3 0.240906 0.509196 0.821755
O O4 0.159509 0.534179 0.718535
O O5 0.500000 0.500000 0.552908
O O6 0.435512 0.750000 0.584245
O O7 0.409051 0.498768 0.647435
O O8 0.373621 0.523610 0.522216
O O9 0.161005 0.750000 0.494700
O O10 0.118002 0.472630 0.474120
O O11 0.248491 0.523732 0.483240
O O12 0.169636 0.537099 0.588065
O O13 0.644432 0.750000 0.692838
O O14 0.640199 0.993710 0.766362
O O15 0.722820 0.976118 0.660636
O O16 0.064926 0.250000 0.407537
O O17 0.000000 0.000000 0.417908
O O18 0.676866 0.250000 0.818463
O O19 0.651975 0.017789 0.897147
O O20 0.671297 0.750000 0.948058
O O21 0.231720 0.250000 0.158485
#
# Coordination Sequence:
#
# PCOD8181155 Si02
#       8
#     8   8   8   8   8   8   8   8
#     4   8  16  31  53  78 105 139 181 227 276 333
#     4  11  23  41  60  84 118 157 194 236 289 348
#     4  10  19  34  57  84 114 149 184 233 289 341
#     4  11  21  34  55  85 116 149 190 236 283 338
#     4  11  22  37  54  79 111 150 193 237 287 349
#     4  10  19  34  57  84 113 146 188 239 290 335
#     4  10  20  35  57  86 118 149 188 236 290 346
#     4   9  17  34  57  82 111 145 184 230 288 338
#
# _framework density 18.392645000000002
#
# number of rings (size 3 to 8) (size 9 to 14) (size 15 to 20)
#    0.000    2.000    2.500    3.000    0.000    1.500 
#    0.000    1.875    0.000    3.000    0.000    0.000 
#    0.000    0.000    0.000    0.000    0.000    0.000 
#
# Total GULP energy -396812.065555 kJ/mol
# GULP energy per Si atom -12400.377049 kJ/mol
# Density = 1.835078 g / cm^3
# Si number density = 18.392645 Si / 1000 Ang^3
#
#
#
# Elastic Constant Matrix: (Units=GPa)
#
#
# Indices 1 2 3 4 5 6 
#
# 1 88.0595 36.6469 47.0701 0.0000 0.0000 0.0000
# 2 36.6469 79.0543 48.4820 0.0000 0.0000 0.0000
# 3 47.0701 48.4820 143.7683 0.0000 0.0000 0.0000
# 4 0.0000 0.0000 0.0000 29.8323 0.0000 0.0000
# 5 0.0000 0.0000 0.0000 0.0000 24.3270 0.0000
# 6 0.0000 0.0000 0.0000 0.0000 0.0000 24.9875
#
#
#
# Elastic Compliance Matrix: (Units=1/GPa)
#
#
# Indices 1 2 3 4 5 6 
#
# 1 0.015205 -0.005037 -0.003280 0.000000 0.000000 0.000000
# 2 -0.005037 0.017617 -0.004291 0.000000 0.000000 0.000000
# 3 -0.003280 -0.004291 0.009477 0.000000 0.000000 0.000000
# 4 0.000000 0.000000 0.000000 0.033521 0.000000 0.000000
# 5 0.000000 0.000000 0.000000 0.000000 0.041107 0.000000
# 6 0.000000 0.000000 0.000000 0.000000 0.000000 0.040020
#
#
# Mechanical properties :
#
#
# Convention : Reuss Voigt Hill
#
# Bulk Modulus (GPa) = 58.54245 63.92001 61.23123
# Shear Modulus (GPa) = 26.61607 27.74156 27.17882
#
# Velocity S-wave (km/s) = 3.80821 3.88789 3.84826
# Velocity P-wave (km/s) = 7.15786 7.41504 7.28758
#
# Compressibility (1/GPa) = 0.01708162
#
# Stress axis : x y z
#
# Youngs Moduli (GPa) = 65.76639 56.76477 105.52380
#
# Poissons Ratio (x) = 0.28595 0.34607
# Poissons Ratio (y) = 0.33129 0.45285
# Poissons Ratio (z) = 0.21568 0.24360
#
# Static dielectric constant tensor:
#      x y z
#    x 3.237430 0.000000 0.000000 
#    y 0.000000 3.240890 0.000000 
#    z 0.000000 0.000000 3.676220 
# 
# 
# High freq. dielectric constant tensor:
#      x y z
#    x 1.683780 0.000000 0.000000 
#    y 0.000000 1.705880 0.000000 
#    z 0.000000 0.000000 1.730260 
# 
# From -- ./inp_files/13236.got.cif
#   From: 2010.03.12/outbox.cif.g09.slc.cpg/sg39_7_cif.got.tgz:13236.got - 2010.04.14 02:53:20.
