data_PCOD8181249
_publ_section_title
;
Structure prediction by ZEFSAII (Michael W. Deem and Ramdas Pophale) SiO2 
 PCOD8181249
Probable space group: A B M 2
;
_chemical_formula_sum "Si O2"
_cell_formula_units_Z 64
_cell_length_a 12.331786
_cell_length_b 17.374790
_cell_length_c 14.551273
_cell_angle_alpha 90.000000
_cell_angle_beta 90.000000
_cell_angle_gamma 90.000000
_cell_volume 3117.787650
_symmetry_space_group_name_H-M "A B M 2"
_symmetry_group_IT_number 39
_symmetry_cell_setting 'orthorhombic'
loop_
_space_group_symop_operation_xyz
x,y,z
-x,-y,z
-x,1/2+y,z
x,1/2-y,z
x,1/2+y,1/2+z
-x,1/2-y,1/2+z
-x,y,1/2+z
x,-y,1/2+z
loop_
_atom_site_type_symbol
_atom_site_label
_atom_site_fract_x
_atom_site_fract_y
_atom_site_fract_z
Si Si1 0.385349 0.663949 0.184590
Si Si2 0.367172 0.840100 0.985979
Si Si3 0.934298 0.340882 0.559357
Si Si4 0.043353 0.086091 0.240476
Si Si5 0.136286 0.090961 0.443485
Si Si6 0.834440 0.666086 0.766655
Si Si7 0.453854 0.416783 0.869088
Si Si8 0.219743 0.922685 0.436864
O O1 0.434553 0.750000 0.194204
O O2 0.254702 0.667052 0.187103
O O3 0.428693 0.613496 0.267825
O O4 0.407690 0.625780 0.084775
O O5 0.365693 0.750000 0.998173
O O6 0.247266 0.863922 0.956820
O O7 0.454373 0.862652 0.910320
O O8 0.952232 0.250000 0.576546
O O9 0.891886 0.389585 0.648845
O O10 0.829077 0.352541 0.495241
O O11 0.040882 0.377747 0.509347
O O12 0.104353 0.100800 0.336197
O O13 0.949681 0.149508 0.222760
O O14 0.000000 0.000000 0.234810
O O15 0.162436 0.002050 0.466916
O O16 0.834726 0.750000 0.816662
O O17 0.812929 0.593986 0.832517
O O18 0.500000 0.500000 0.854186
O O19 0.350902 0.422006 0.938419
#
# Coordination Sequence:
#
# PCOD8181249 Si02
#       8
#     8   8   8   8   8   8   8   8
#     4   9  21  41  67  95 125 169 219 264 319 389
#     4  11  24  43  68  99 133 172 221 273 332 390
#     4  12  26  41  64 100 135 175 221 268 332 400
#     4  12  23  39  65  96 135 175 215 268 331 395
#     4  12  23  44  67  96 135 174 217 273 331 394
#     4  10  19  36  64  93 126 169 214 258 316 391
#     4  11  23  44  69  96 127 170 221 275 329 390
#     4  11  22  43  65  90 130 170 219 272 325 387
#
# _framework density 20.527377000000001
#
# number of rings (size 3 to 8) (size 9 to 14) (size 15 to 20)
#    0.000    1.000    3.750    3.375    0.000    4.500 
#    2.250    0.000    0.000    0.000    0.000    0.000 
#    0.000    0.000    0.000    0.000    0.000    0.000 
#
# Total GULP energy -396522.097988 kJ/mol
# GULP energy per Si atom -12391.315562 kJ/mol
# Density = 2.048066 g / cm^3
# Si number density = 20.527377 Si / 1000 Ang^3
#
#
#
# Elastic Constant Matrix: (Units=GPa)
#
#
# Indices 1 2 3 4 5 6 
#
# 1 102.6579 39.3811 41.4666 0.0000 0.0000 0.0000
# 2 39.3811 102.2249 35.9553 0.0000 0.0000 0.0000
# 3 41.4666 35.9553 108.6086 0.0000 0.0000 0.0000
# 4 0.0000 0.0000 0.0000 39.0566 0.0000 0.0000
# 5 0.0000 0.0000 0.0000 0.0000 21.6829 0.0000
# 6 0.0000 0.0000 0.0000 0.0000 0.0000 26.7997
#
#
#
# Elastic Compliance Matrix: (Units=1/GPa)
#
#
# Indices 1 2 3 4 5 6 
#
# 1 0.012572 -0.003571 -0.003618 0.000000 0.000000 0.000000
# 2 -0.003571 0.012086 -0.002638 0.000000 0.000000 0.000000
# 3 -0.003618 -0.002638 0.011462 0.000000 0.000000 0.000000
# 4 0.000000 0.000000 0.000000 0.025604 0.000000 0.000000
# 5 0.000000 0.000000 0.000000 0.000000 0.046119 0.000000
# 6 0.000000 0.000000 0.000000 0.000000 0.000000 0.037314
#
#
# Mechanical properties :
#
#
# Convention : Reuss Voigt Hill
#
# Bulk Modulus (GPa) = 60.72744 60.78860 60.75802
# Shear Modulus (GPa) = 29.36011 30.62038 29.99024
#
# Velocity S-wave (km/s) = 3.78602 3.86642 3.82643
# Velocity P-wave (km/s) = 6.98282 7.04344 7.01320
#
# Compressibility (1/GPa) = 0.01646702
#
# Stress axis : x y z
#
# Youngs Moduli (GPa) = 79.53982 82.74222 87.24535
#
# Poissons Ratio (x) = 0.29546 0.31565
# Poissons Ratio (y) = 0.28402 0.23013
# Poissons Ratio (z) = 0.28777 0.21825
#
# Static dielectric constant tensor:
#      x y z
#    x 3.822410 0.000000 0.000000 
#    y 0.000000 3.594290 0.000000 
#    z 0.000000 0.000000 3.810910 
# 
# 
# High freq. dielectric constant tensor:
#      x y z
#    x 1.794740 0.000000 0.000000 
#    y 0.000000 1.812700 0.000000 
#    z 0.000000 0.000000 1.808990 
# 
# From -- ./inp_files/9483.got.cif
#   From: 2010.03.12/outbox.cif.g09.slc.cpg/sg39_5_cif.got.tgz:9483.got - 2010.04.14 02:53:20.
