data_PCOD8181518
_publ_section_title
;
Structure prediction by ZEFSAII (Michael W. Deem and Ramdas Pophale) SiO2 
 PCOD8181518
Probable space group: A B M 2
;
_chemical_formula_sum "Si O2"
_cell_formula_units_Z 40
_cell_length_a 9.850534
_cell_length_b 8.548708
_cell_length_c 25.777075
_cell_angle_alpha 90.000000
_cell_angle_beta 90.000000
_cell_angle_gamma 90.000000
_cell_volume 2170.670442
_symmetry_space_group_name_H-M "A B M 2"
_symmetry_group_IT_number 39
_symmetry_cell_setting 'orthorhombic'
loop_
_space_group_symop_operation_xyz
x,y,z
-x,-y,z
-x,1/2+y,z
x,1/2-y,z
x,1/2+y,1/2+z
-x,1/2-y,1/2+z
-x,y,1/2+z
x,-y,1/2+z
loop_
_atom_site_type_symbol
_atom_site_label
_atom_site_fract_x
_atom_site_fract_y
_atom_site_fract_z
Si Si1 0.648960 0.066993 0.013960
Si Si2 0.853777 0.565269 0.211506
Si Si3 0.350954 0.066611 0.400339
Si Si4 0.853854 0.064092 0.100107
Si Si5 0.652354 0.934312 0.795735
O O1 0.633967 0.250000 0.021139
O O2 0.748565 0.998013 0.057586
O O3 0.500000 0.000000 0.021863
O O4 0.714656 0.030867 0.956843
O O5 0.864316 0.750000 0.207812
O O6 0.808539 0.498122 0.156066
O O7 0.740627 0.516126 0.252106
O O8 0.000000 0.500000 0.228756
O O9 0.353607 0.250000 0.387607
O O10 0.500000 0.000000 0.405128
O O11 0.280447 0.977806 0.351877
O O12 0.858276 0.250000 0.101387
O O13 0.000000 0.000000 0.084168
O O14 0.652628 0.750000 0.787189
O O15 0.500000 0.000000 0.792605
#
# Coordination Sequence:
#
# PCOD8181518 Si02
#       5
#     8   8   8   8   8
#     4   9  19  33  53  78 106 136 172 214 258 306
#     4  11  22  38  57  78 104 139 176 217 265 317
#     4   9  16  30  50  75 105 138 171 211 259 309
#     4  10  20  36  54  76 104 138 175 214 258 311
#     4  11  21  35  55  81 108 139 176 218 262 311
#
# _framework density 18.427485000000001
#
# number of rings (size 3 to 8) (size 9 to 14) (size 15 to 20)
#    0.000    2.000    0.000    7.200    0.000    3.200 
#    0.000    3.000    0.000    2.400    0.000    0.000 
#    0.000    0.000    0.000    0.000    0.000    0.000 
#
# Total GULP energy -247903.101871 kJ/mol
# GULP energy per Si atom -12395.155094 kJ/mol
# Density = 1.838554 g / cm^3
# Si number density = 18.427485 Si / 1000 Ang^3
#
#
#
# Elastic Constant Matrix: (Units=GPa)
#
#
# Indices 1 2 3 4 5 6 
#
# 1 77.2307 21.0371 77.5841 0.0000 0.0000 0.0000
# 2 21.0371 83.3896 32.6568 0.0000 0.0000 0.0000
# 3 77.5841 32.6568 152.2811 0.0000 0.0000 0.0000
# 4 0.0000 0.0000 0.0000 29.9308 0.0000 0.0000
# 5 0.0000 0.0000 0.0000 0.0000 2.6797 0.0000
# 6 0.0000 0.0000 0.0000 0.0000 0.0000 28.0949
#
#
#
# Elastic Compliance Matrix: (Units=1/GPa)
#
#
# Indices 1 2 3 4 5 6 
#
# 1 0.026702 -0.001538 -0.013275 0.000000 0.000000 0.000000
# 2 -0.001538 0.013180 -0.002043 0.000000 0.000000 0.000000
# 3 -0.013275 -0.002043 0.013768 0.000000 0.000000 0.000000
# 4 0.000000 0.000000 0.000000 0.033410 0.000000 0.000000
# 5 0.000000 0.000000 0.000000 0.000000 0.373181 0.000000
# 6 0.000000 0.000000 0.000000 0.000000 0.000000 0.035594
#
#
# Mechanical properties :
#
#
# Convention : Reuss Voigt Hill
#
# Bulk Modulus (GPa) = 50.15118 63.93971 57.04544
# Shear Modulus (GPa) = 9.32501 24.24929 16.78715
#
# Velocity S-wave (km/s) = 2.25197 3.63151 3.02153
# Velocity P-wave (km/s) = 5.83407 7.23583 6.57242
#
# Compressibility (1/GPa) = 0.01993971
#
# Stress axis : x y z
#
# Youngs Moduli (GPa) = 37.44985 75.87300 72.63217
#
# Poissons Ratio (x) = 0.11668 0.96416
# Poissons Ratio (y) = 0.05759 0.14838
# Poissons Ratio (z) = 0.49713 0.15500
#
# Static dielectric constant tensor:
#      x y z
#    x 3.195260 0.000000 0.000000 
#    y 0.000000 3.537670 0.000000 
#    z 0.000000 0.000000 4.189260 
# 
# 
# High freq. dielectric constant tensor:
#      x y z
#    x 1.683670 0.000000 0.000000 
#    y 0.000000 1.730390 0.000000 
#    z 0.000000 0.000000 1.736250 
# 
# From -- ./inp_files/14361.got.cif
#   From: 2010.03.12/outbox.cif.g09.slc.cpg/sg39_8_cif.got.tgz:14361.got - 2010.04.14 02:53:20.
