data_PCOD8181233
_publ_section_title
;
Structure prediction by ZEFSAII (Michael W. Deem and Ramdas Pophale) SiO2 
 PCOD8181233
Probable space group: A B M 2
;
_chemical_formula_sum "Si O2"
_cell_formula_units_Z 64
_cell_length_a 18.152048
_cell_length_b 9.835834
_cell_length_c 18.425829
_cell_angle_alpha 90.000000
_cell_angle_beta 90.000000
_cell_angle_gamma 90.000000
_cell_volume 3289.757292
_symmetry_space_group_name_H-M "A B M 2"
_symmetry_group_IT_number 39
_symmetry_cell_setting 'orthorhombic'
loop_
_space_group_symop_operation_xyz
x,y,z
-x,-y,z
-x,1/2+y,z
x,1/2-y,z
x,1/2+y,1/2+z
-x,1/2-y,1/2+z
-x,y,1/2+z
x,-y,1/2+z
loop_
_atom_site_type_symbol
_atom_site_label
_atom_site_fract_x
_atom_site_fract_y
_atom_site_fract_z
Si Si1 0.189233 0.491578 0.327860
Si Si2 0.743327 0.406789 0.588465
Si Si3 0.876916 0.596023 0.584742
Si Si4 0.325237 0.599006 0.739042
Si Si5 0.935609 0.597913 0.429713
Si Si6 0.695340 0.904002 0.936363
Si Si7 0.574314 0.415229 0.327750
Si Si8 0.938796 0.398710 0.236900
O O1 0.247139 0.403781 0.281409
O O2 0.134122 0.399951 0.375592
O O3 0.234443 0.585535 0.383549
O O4 0.141522 0.580409 0.272069
O O5 0.767802 0.250000 0.577154
O O6 0.813558 0.494391 0.609358
O O7 0.685061 0.419473 0.653154
O O8 0.709253 0.473077 0.514639
O O9 0.846433 0.750000 0.575365
O O10 0.912435 0.545475 0.509552
O O11 0.935686 0.589948 0.649758
O O12 0.358945 0.750000 0.754341
O O13 0.380229 0.476554 0.759949
O O14 0.967472 0.750000 0.434843
O O15 0.000000 0.500000 0.400129
O O16 0.679521 0.750000 0.954208
O O17 0.621277 0.959601 0.898529
O O18 0.500000 0.500000 0.334089
O O19 0.564390 0.250000 0.319617
O O20 0.966877 0.250000 0.259519
O O21 0.000000 0.500000 0.268147
#
# Coordination Sequence:
#
# PCOD8181233 Si02
#       8
#     8   8   8   8   8   8   8   8
#     4  11  20  35  58  80 113 143 190 236 293 341
#     4  10  19  36  60  86 113 147 188 232 279 332
#     4  10  21  39  56  76 106 143 190 241 291 343
#     4  10  21  36  60  90 118 150 188 231 278 334
#     4  11  24  38  54  76 107 146 190 243 295 348
#     4   9  19  35  59  88 115 147 186 228 275 329
#     4  10  21  39  63  91 124 157 187 223 268 323
#     4  11  24  38  55  77 107 147 192 244 298 352
#
# _framework density 19.454322000000001
#
# number of rings (size 3 to 8) (size 9 to 14) (size 15 to 20)
#    0.000    1.750    2.500    1.875    0.000    5.000 
#    0.000    1.250    0.000    1.500    0.000    0.000 
#    0.000    0.000    0.000    0.000    0.000    0.000 
#
# Total GULP energy -396638.078984 kJ/mol
# GULP energy per Si atom -12394.939968 kJ/mol
# Density = 1.941004 g / cm^3
# Si number density = 19.454322 Si / 1000 Ang^3
#
#
#
# Elastic Constant Matrix: (Units=GPa)
#
#
# Indices 1 2 3 4 5 6 
#
# 1 106.5759 50.0284 32.5730 0.0000 0.0000 0.0000
# 2 50.0284 106.9513 23.8310 0.0000 0.0000 0.0000
# 3 32.5730 23.8310 110.2350 0.0000 0.0000 0.0000
# 4 0.0000 0.0000 0.0000 18.9700 0.0000 0.0000
# 5 0.0000 0.0000 0.0000 0.0000 17.4922 0.0000
# 6 0.0000 0.0000 0.0000 0.0000 0.0000 32.9194
#
#
#
# Elastic Compliance Matrix: (Units=1/GPa)
#
#
# Indices 1 2 3 4 5 6 
#
# 1 0.012690 -0.005359 -0.002591 0.000000 0.000000 0.000000
# 2 -0.005359 0.012086 -0.001029 0.000000 0.000000 0.000000
# 3 -0.002591 -0.001029 0.010060 0.000000 0.000000 0.000000
# 4 0.000000 0.000000 0.000000 0.052715 0.000000 0.000000
# 5 0.000000 0.000000 0.000000 0.000000 0.057168 0.000000
# 6 0.000000 0.000000 0.000000 0.000000 0.000000 0.030377
#
#
# Mechanical properties :
#
#
# Convention : Reuss Voigt Hill
#
# Bulk Modulus (GPa) = 59.25125 59.62520 59.43822
# Shear Modulus (GPa) = 25.16590 28.36498 26.76544
#
# Velocity S-wave (km/s) = 3.60055 3.82256 3.71321
# Velocity P-wave (km/s) = 6.91433 7.08505 7.00021
#
# Compressibility (1/GPa) = 0.01687728
#
# Stress axis : x y z
#
# Youngs Moduli (GPa) = 78.79911 82.73979 99.40579
#
# Poissons Ratio (x) = 0.44339 0.25760
# Poissons Ratio (y) = 0.42227 0.10232
# Poissons Ratio (z) = 0.20420 0.08517
#
# Static dielectric constant tensor:
#      x y z
#    x 3.318010 0.000000 0.000000 
#    y 0.000000 3.502820 0.000000 
#    z 0.000000 0.000000 3.858020 
# 
# 
# High freq. dielectric constant tensor:
#      x y z
#    x 1.732750 0.000000 0.000000 
#    y 0.000000 1.753060 0.000000 
#    z 0.000000 0.000000 1.775840 
# 
# From -- ./inp_files/12802.got.cif
#   From: 2010.03.12/outbox.cif.g09.slc.cpg/sg39_7_cif.got.tgz:12802.got - 2010.04.14 02:53:20.
