data_PCOD8181683
_publ_section_title
;
Structure prediction by ZEFSAII (Michael W. Deem and Ramdas Pophale) SiO2 
 PCOD8181683
Probable space group: A B M 2
;
_chemical_formula_sum "Si O2"
_cell_formula_units_Z 56
_cell_length_a 9.533681
_cell_length_b 20.111081
_cell_length_c 14.108828
_cell_angle_alpha 90.000000
_cell_angle_beta 90.000000
_cell_angle_gamma 90.000000
_cell_volume 2705.122710
_symmetry_space_group_name_H-M "A B M 2"
_symmetry_group_IT_number 39
_symmetry_cell_setting 'orthorhombic'
loop_
_space_group_symop_operation_xyz
x,y,z
-x,-y,z
-x,1/2+y,z
x,1/2-y,z
x,1/2+y,1/2+z
-x,1/2-y,1/2+z
-x,y,1/2+z
x,-y,1/2+z
loop_
_atom_site_type_symbol
_atom_site_label
_atom_site_fract_x
_atom_site_fract_y
_atom_site_fract_z
Si Si1 0.004420 0.674923 0.739900
Si Si2 0.653275 0.480503 0.626970
Si Si3 0.455198 0.923952 0.444395
Si Si4 0.865642 0.954411 0.292859
Si Si5 0.760347 0.674426 0.873351
Si Si6 0.246739 0.079878 0.479671
Si Si7 0.001625 0.673600 0.522869
O O1 0.058369 0.750000 0.759750
O O2 0.841776 0.669375 0.773082
O O3 0.027091 0.654003 0.631563
O O4 0.092165 0.623030 0.801606
O O5 0.500000 0.500000 0.667510
O O6 0.627252 0.425087 0.545087
O O7 0.746960 0.456926 0.713261
O O8 0.737583 0.540933 0.578278
O O9 0.363026 0.880981 0.370307
O O10 0.603801 0.886056 0.454356
O O11 0.500000 0.000000 0.414815
O O12 0.800110 0.972334 0.395615
O O13 0.000000 0.000000 0.268606
O O14 0.701988 0.750000 0.886667
O O15 0.863470 0.655851 0.960149
O O16 0.133236 0.136201 0.486598
O O17 0.963382 0.750000 0.513026
#
# Coordination Sequence:
#
# PCOD8181683 Si02
#       7
#     8   8   8   8   8   8   8
#     4  10  22  38  60  90 124 158 200 248 307 362
#     4   9  22  42  57  82 126 161 205 256 311 369
#     4   9  21  39  59  82 123 163 197 254 298 364
#     4  12  24  36  64  95 117 163 204 262 310 368
#     4  10  20  38  62  88 120 160 205 249 301 368
#     4  10  22  39  56  90 119 157 201 255 313 359
#     4  10  20  38  64  87 120 162 200 256 308 365
#
# _framework density 20.701464000000001
#
# number of rings (size 3 to 8) (size 9 to 14) (size 15 to 20)
#    0.000    2.286    1.429    1.714    4.000    4.571 
#    5.143    0.000    0.000    0.857    0.000    0.000 
#    0.000    0.000    0.000    0.000    0.000    0.000 
#
# Total GULP energy -346936.132884 kJ/mol
# GULP energy per Si atom -12390.576174 kJ/mol
# Density = 2.065435 g / cm^3
# Si number density = 20.701464 Si / 1000 Ang^3
#
#
#
# Elastic Constant Matrix: (Units=GPa)
#
#
# Indices 1 2 3 4 5 6 
#
# 1 87.2430 53.7428 18.0547 0.0000 0.0000 0.0000
# 2 53.7428 90.1705 25.1894 0.0000 0.0000 0.0000
# 3 18.0547 25.1894 63.6452 0.0000 0.0000 0.0000
# 4 0.0000 0.0000 0.0000 21.0808 0.0000 0.0000
# 5 0.0000 0.0000 0.0000 0.0000 16.2249 0.0000
# 6 0.0000 0.0000 0.0000 0.0000 0.0000 40.0052
#
#
#
# Elastic Compliance Matrix: (Units=1/GPa)
#
#
# Indices 1 2 3 4 5 6 
#
# 1 0.018166 -0.010554 -0.000976 0.000000 0.000000 0.000000
# 2 -0.010554 0.018601 -0.004368 0.000000 0.000000 0.000000
# 3 -0.000976 -0.004368 0.017718 0.000000 0.000000 0.000000
# 4 0.000000 0.000000 0.000000 0.047436 0.000000 0.000000
# 5 0.000000 0.000000 0.000000 0.000000 0.061633 0.000000
# 6 0.000000 0.000000 0.000000 0.000000 0.000000 0.024997
#
#
# Mechanical properties :
#
#
# Convention : Reuss Voigt Hill
#
# Bulk Modulus (GPa) = 44.07634 48.33694 46.20664
# Shear Modulus (GPa) = 21.93847 25.06698 23.50273
#
# Velocity S-wave (km/s) = 3.25892 3.48354 3.37310
# Velocity P-wave (km/s) = 5.95805 6.29129 6.12694
#
# Compressibility (1/GPa) = 0.02268791
#
# Stress axis : x y z
#
# Youngs Moduli (GPa) = 55.04820 53.76104 56.44096
#
# Poissons Ratio (x) = 0.56742 0.05509
# Poissons Ratio (y) = 0.58100 0.24652
# Poissons Ratio (z) = 0.05373 0.23481
#
# Static dielectric constant tensor:
#      x y z
#    x 3.880640 0.000000 0.000000 
#    y 0.000000 3.646140 0.000000 
#    z 0.000000 0.000000 3.892510 
# 
# 
# High freq. dielectric constant tensor:
#      x y z
#    x 1.809770 0.000000 0.000000 
#    y 0.000000 1.794660 0.000000 
#    z 0.000000 0.000000 1.814670 
# 
# From -- ./inp_files/8606.got.cif
#   From: 2010.03.12/outbox.cif.g09.slc.cpg/sg39_5_cif.got.tgz:8606.got - 2010.04.14 02:53:20.
