data_PCOD8181885
_publ_section_title
;
Structure prediction by ZEFSAII (Michael W. Deem and Ramdas Pophale) SiO2 
 PCOD8181885
Probable space group: A B M 2
;
_chemical_formula_sum "Si O2"
_cell_formula_units_Z 52
_cell_length_a 14.185765
_cell_length_b 20.056382
_cell_length_c 8.906639
_cell_angle_alpha 90.000000
_cell_angle_beta 90.000000
_cell_angle_gamma 90.000000
_cell_volume 2534.073480
_symmetry_space_group_name_H-M "A B M 2"
_symmetry_group_IT_number 39
_symmetry_cell_setting 'orthorhombic'
loop_
_space_group_symop_operation_xyz
x,y,z
-x,-y,z
-x,1/2+y,z
x,1/2-y,z
x,1/2+y,1/2+z
-x,1/2-y,1/2+z
-x,y,1/2+z
x,-y,1/2+z
loop_
_atom_site_type_symbol
_atom_site_label
_atom_site_fract_x
_atom_site_fract_y
_atom_site_fract_z
Si Si1 0.566313 0.328517 0.195630
Si Si2 0.880428 0.750000 0.818972
Si Si3 0.130050 0.476658 0.746302
Si Si4 0.618980 0.170922 0.862027
Si Si5 0.200912 0.375718 0.200963
Si Si6 0.075593 0.750000 0.661528
Si Si7 0.253391 0.629946 0.356349
Si Si8 0.000000 0.000000 0.497575
O O1 0.573999 0.250000 0.204178
O O2 0.462074 0.351145 0.244952
O O3 0.638510 0.357202 0.317948
O O4 0.589077 0.353378 0.028001
O O5 0.814689 0.813579 0.790072
O O6 0.966196 0.750000 0.703544
O O7 0.923483 0.750000 0.983377
O O8 0.147612 0.555706 0.737582
O O9 0.226962 0.437318 0.765064
O O10 0.068332 0.454366 0.601621
O O11 0.067412 0.455696 0.891755
O O12 0.636009 0.250000 0.855374
O O13 0.714342 0.133137 0.818445
O O14 0.127399 0.315746 0.224124
O O15 0.244631 0.376419 0.034695
#
# Coordination Sequence:
#
# PCOD8181885 Si02
#       8
#     8   4   8   8   8   4   8   4
#     4  10  21  38  64  94 125 163 204 252 309 374
#     4  10  24  38  57  86 123 158 199 254 312 360
#     4  11  24  40  63  88 122 168 217 256 307 366
#     4  10  21  38  64  94 125 163 204 252 309 374
#     4  11  23  41  61  91 125 165 205 259 310 371
#     4  10  24  38  57  86 123 158 199 254 312 360
#     4  11  23  41  61  91 125 165 205 259 310 371
#     4  10  24  42  60  84 122 174 216 256 296 378
#
# _framework density 20.520320999999999
#
# number of rings (size 3 to 8) (size 9 to 14) (size 15 to 20)
#    0.000    1.538    3.077    0.923    6.462    2.462 
#    0.000    0.769    0.000    3.692    0.000    0.000 
#    0.000    0.000    0.000    0.000    0.000    0.000 
#
# Total GULP energy -322390.059475 kJ/mol
# GULP energy per Si atom -12399.617672 kJ/mol
# Density = 2.047362 g / cm^3
# Si number density = 20.520321 Si / 1000 Ang^3
#
#
#
# Elastic Constant Matrix: (Units=GPa)
#
#
# Indices 1 2 3 4 5 6 
#
# 1 87.1675 21.2693 22.2016 0.0000 0.0000 0.0000
# 2 21.2693 83.4618 15.3550 0.0000 0.0000 0.0000
# 3 22.2016 15.3550 90.1294 0.0000 0.0000 0.0000
# 4 0.0000 0.0000 0.0000 18.3867 0.0000 0.0000
# 5 0.0000 0.0000 0.0000 0.0000 39.0145 0.0000
# 6 0.0000 0.0000 0.0000 0.0000 0.0000 20.3177
#
#
#
# Elastic Compliance Matrix: (Units=1/GPa)
#
#
# Indices 1 2 3 4 5 6 
#
# 1 0.012834 -0.002776 -0.002689 0.000000 0.000000 0.000000
# 2 -0.002776 0.012970 -0.001526 0.000000 0.000000 0.000000
# 3 -0.002689 -0.001526 0.012017 0.000000 0.000000 0.000000
# 4 0.000000 0.000000 0.000000 0.054387 0.000000 0.000000
# 5 0.000000 0.000000 0.000000 0.000000 0.025631 0.000000
# 6 0.000000 0.000000 0.000000 0.000000 0.000000 0.049218
#
#
# Mechanical properties :
#
#
# Convention : Reuss Voigt Hill
#
# Bulk Modulus (GPa) = 41.94518 42.04562 41.99540
# Shear Modulus (GPa) = 26.45701 29.00597 27.73149
#
# Velocity S-wave (km/s) = 3.59459 3.76376 3.68015
# Velocity P-wave (km/s) = 6.14111 6.27870 6.21029
#
# Compressibility (1/GPa) = 0.02384064
#
# Stress axis : x y z
#
# Youngs Moduli (GPa) = 77.91619 77.10284 83.21298
#
# Poissons Ratio (x) = 0.21404 0.22372
# Poissons Ratio (y) = 0.21630 0.12696
# Poissons Ratio (z) = 0.20948 0.11764
#
# Static dielectric constant tensor:
#      x y z
#    x 3.751190 0.000000 0.000000 
#    y 0.000000 3.473770 0.000000 
#    z 0.000000 0.000000 3.900210 
# 
# 
# High freq. dielectric constant tensor:
#      x y z
#    x 1.812590 0.000000 0.000000 
#    y 0.000000 1.771770 0.000000 
#    z 0.000000 0.000000 1.814470 
# 
# From -- ./inp_files/3362.got.cif
#   From: 2010.03.12/outbox.cif.g09.slc.cpg/sg39_2_cif.got.tgz:3362.got - 2010.04.14 02:53:20.
