data_PCOD8181203
_publ_section_title
;
Structure prediction by ZEFSAII (Michael W. Deem and Ramdas Pophale) SiO2 
 PCOD8181203
Probable space group: A B M 2
;
_chemical_formula_sum "Si O2"
_cell_formula_units_Z 40
_cell_length_a 14.379673
_cell_length_b 8.746722
_cell_length_c 15.613853
_cell_angle_alpha 90.000000
_cell_angle_beta 90.000000
_cell_angle_gamma 90.000000
_cell_volume 1963.832395
_symmetry_space_group_name_H-M "A B M 2"
_symmetry_group_IT_number 39
_symmetry_cell_setting 'orthorhombic'
loop_
_space_group_symop_operation_xyz
x,y,z
-x,-y,z
-x,1/2+y,z
x,1/2-y,z
x,1/2+y,1/2+z
-x,1/2-y,1/2+z
-x,y,1/2+z
x,-y,1/2+z
loop_
_atom_site_type_symbol
_atom_site_label
_atom_site_fract_x
_atom_site_fract_y
_atom_site_fract_z
Si Si1 0.593510 0.572032 0.414970
Si Si2 0.898675 0.069193 0.005078
Si Si3 0.211240 0.927162 0.838089
Si Si4 0.403706 0.069181 0.098820
Si Si5 0.777147 0.070155 0.165005
O O1 0.500000 0.500000 0.373804
O O2 0.577429 0.750000 0.434690
O O3 0.678695 0.546463 0.350923
O O4 0.617180 0.489606 0.503638
O O5 0.905816 0.250000 0.005641
O O6 0.844223 0.011980 0.920841
O O7 0.844230 0.011811 0.089240
O O8 0.000000 0.000000 0.005572
O O9 0.188932 0.750000 0.821809
O O10 0.177602 0.024209 0.756089
O O11 0.410640 0.250000 0.099845
O O12 0.500000 0.000000 0.134041
O O13 0.321187 0.015334 0.160174
O O14 0.761059 0.250000 0.158649
#
# Coordination Sequence:
#
# PCOD8181203 Si02
#       5
#     8   8   8   8   8
#     4  10  19  35  58  86 124 162 202 247 297 353
#     4  10  23  44  66  88 121 158 199 254 311 365
#     4  10  22  41  62  88 125 162 200 250 303 359
#     4  11  21  35  59  89 123 164 207 248 298 357
#     4  11  23  41  63  91 125 161 203 252 304 361
#
# _framework density 20.368337
#
# number of rings (size 3 to 8) (size 9 to 14) (size 15 to 20)
#    0.000    1.600    2.000    4.200    0.000    5.600 
#    0.000    6.000    0.000    0.000    0.000    0.000 
#    0.000    0.000    0.000    0.000    0.000    0.000 
#
# Total GULP energy -248069.216785 kJ/mol
# GULP energy per Si atom -12403.460839 kJ/mol
# Density = 2.032198 g / cm^3
# Si number density = 20.368337 Si / 1000 Ang^3
#
#
#
# Elastic Constant Matrix: (Units=GPa)
#
#
# Indices 1 2 3 4 5 6 
#
# 1 130.0539 47.1816 67.9806 0.0000 0.0000 0.0000
# 2 47.1816 104.8654 47.4631 0.0000 0.0000 0.0000
# 3 67.9806 47.4631 147.3987 0.0000 0.0000 0.0000
# 4 0.0000 0.0000 0.0000 33.0004 0.0000 0.0000
# 5 0.0000 0.0000 0.0000 0.0000 -73.4548 0.0000
# 6 0.0000 0.0000 0.0000 0.0000 0.0000 35.7616
#
#
#
# Elastic Compliance Matrix: (Units=1/GPa)
#
#
# Indices 1 2 3 4 5 6 
#
# 1 0.010922 -0.003084 -0.004044 0.000000 0.000000 0.000000
# 2 -0.003084 0.012034 -0.002453 0.000000 0.000000 0.000000
# 3 -0.004044 -0.002453 0.009439 0.000000 0.000000 0.000000
# 4 0.000000 0.000000 0.000000 0.030303 0.000000 0.000000
# 5 0.000000 0.000000 0.000000 0.000000 -0.013614 0.000000
# 6 0.000000 0.000000 0.000000 0.000000 0.000000 0.027963
#
#
# Mechanical properties :
#
#
# Convention : Reuss Voigt Hill
#
# Bulk Modulus (GPa) = 75.56502 78.61875 77.09188
# Shear Modulus (GPa) = 49.69267 13.70763 31.70015
#
# Velocity S-wave (km/s) = 4.94469 2.59701 3.94933
# Velocity P-wave (km/s) = 8.35343 6.90470 7.66338
#
# Compressibility (1/GPa) = 0.01323364
#
# Stress axis : x y z
#
# Youngs Moduli (GPa) = 91.56059 83.10132 105.93996
#
# Poissons Ratio (x) = 0.25624 0.42844
# Poissons Ratio (y) = 0.28233 0.25984
# Poissons Ratio (z) = 0.37029 0.20382
#
# Static dielectric constant tensor:
#      x y z
#    x 5.889860 0.000000 0.000000 
#    y 0.000000 3.610550 0.000000 
#    z 0.000000 0.000000 3.704900 
# 
# 
# High freq. dielectric constant tensor:
#      x y z
#    x 1.794730 0.000000 0.000000 
#    y 0.000000 1.795620 0.000000 
#    z 0.000000 0.000000 1.797200 
# 
# From -- ./inp_files/9631.got.cif
#   From: 2010.03.12/outbox.cif.g09.slc.cpg/sg39_5_cif.got.tgz:9631.got - 2010.04.14 02:53:20.
