data_PCOD8181751
_publ_section_title
;
Structure prediction by ZEFSAII (Michael W. Deem and Ramdas Pophale) SiO2 
 PCOD8181751
Probable space group: A B M 2
;
_chemical_formula_sum "Si O2"
_cell_formula_units_Z 64
_cell_length_a 19.125492
_cell_length_b 9.330271
_cell_length_c 19.925633
_cell_angle_alpha 90.000000
_cell_angle_beta 90.000000
_cell_angle_gamma 90.000000
_cell_volume 3555.649972
_symmetry_space_group_name_H-M "A B M 2"
_symmetry_group_IT_number 39
_symmetry_cell_setting 'orthorhombic'
loop_
_space_group_symop_operation_xyz
x,y,z
-x,-y,z
-x,1/2+y,z
x,1/2-y,z
x,1/2+y,1/2+z
-x,1/2-y,1/2+z
-x,y,1/2+z
x,-y,1/2+z
loop_
_atom_site_type_symbol
_atom_site_label
_atom_site_fract_x
_atom_site_fract_y
_atom_site_fract_z
Si Si1 0.282466 0.581029 0.148680
Si Si2 0.067695 0.411977 0.079501
Si Si3 0.070728 0.081520 0.335284
Si Si4 0.563098 0.592156 0.491705
Si Si5 0.718843 0.080557 0.993810
Si Si6 0.436905 0.091729 0.651152
Si Si7 0.153552 0.915085 0.446633
Si Si8 0.156901 0.415527 0.202581
O O1 0.276009 0.750000 0.159250
O O2 0.267038 0.541594 0.071422
O O3 0.360480 0.528464 0.169316
O O4 0.228834 0.502321 0.197802
O O5 0.042774 0.250000 0.091100
O O6 0.101864 0.474132 0.147558
O O7 0.000000 0.500000 0.058866
O O8 0.124537 0.422850 0.021468
O O9 0.055881 0.250000 0.349183
O O10 0.125942 0.061039 0.275924
O O11 0.101681 0.006038 0.400611
O O12 0.000000 0.000000 0.314989
O O13 0.500000 0.500000 0.460124
O O14 0.554506 0.750000 0.461211
O O15 0.640180 0.533083 0.473036
O O16 0.556506 0.598311 0.571403
O O17 0.729942 0.250000 0.981884
O O18 0.770476 0.989582 0.946649
O O19 0.444475 0.250000 0.681604
O O20 0.500000 0.000000 0.682823
O O21 0.159170 0.750000 0.421855
O O22 0.173318 0.250000 0.187489
#
# Coordination Sequence:
#
# PCOD8181751 Si02
#       8
#     8   8   8   8   8   8   8   8
#     4   9  17  29  48  74 104 137 173 214 256 303
#     4  10  21  35  52  76 101 127 163 206 253 305
#     4  11  24  41  59  77 103 136 172 215 261 314
#     4   8  14  24  39  63  98 136 172 208 249 300
#     4   9  17  30  48  73 105 139 174 214 260 306
#     4   8  14  24  38  63  98 135 172 206 247 296
#     4  11  22  36  55  78 105 136 173 216 259 310
#     4  10  21  37  54  76 104 134 170 213 259 308
#
# _framework density 17.999523
#
# number of rings (size 3 to 8) (size 9 to 14) (size 15 to 20)
#    0.000    2.500    1.250    3.000    0.000    4.500 
#    0.000    2.500    0.000    0.000    0.000    0.875 
#    0.000    6.000    0.000    0.000    0.000    0.000 
#
# Total GULP energy -396723.678512 kJ/mol
# GULP energy per Si atom -12397.614954 kJ/mol
# Density = 1.795856 g / cm^3
# Si number density = 17.999523 Si / 1000 Ang^3
#
#
#
# Elastic Constant Matrix: (Units=GPa)
#
#
# Indices 1 2 3 4 5 6 
#
# 1 131.9525 62.9991 11.3028 0.0000 0.0000 0.0000
# 2 62.9991 85.8060 20.3185 0.0000 0.0000 0.0000
# 3 11.3028 20.3185 36.8026 0.0000 0.0000 0.0000
# 4 0.0000 0.0000 0.0000 20.4710 0.0000 0.0000
# 5 0.0000 0.0000 0.0000 0.0000 19.2188 0.0000
# 6 0.0000 0.0000 0.0000 0.0000 0.0000 38.4046
#
#
#
# Elastic Compliance Matrix: (Units=1/GPa)
#
#
# Indices 1 2 3 4 5 6 
#
# 1 0.011725 -0.008922 0.001325 0.000000 0.000000 0.000000
# 2 -0.008922 0.020196 -0.008410 0.000000 0.000000 0.000000
# 3 0.001325 -0.008410 0.031408 0.000000 0.000000 0.000000
# 4 0.000000 0.000000 0.000000 0.048850 0.000000 0.000000
# 5 0.000000 0.000000 0.000000 0.000000 0.052032 0.000000
# 6 0.000000 0.000000 0.000000 0.000000 0.000000 0.026039
#
#
# Mechanical properties :
#
#
# Convention : Reuss Voigt Hill
#
# Bulk Modulus (GPa) = 31.93378 49.31129 40.62254
# Shear Modulus (GPa) = 21.48666 26.28159 23.88413
#
# Velocity S-wave (km/s) = 3.45880 3.82531 3.64666
# Velocity P-wave (km/s) = 5.80784 6.85317 6.35205
#
# Compressibility (1/GPa) = 0.03131480
#
# Stress axis : x y z
#
# Youngs Moduli (GPa) = 85.28981 49.51401 31.83874
#
# Poissons Ratio (x) = 0.44177 -0.04218
# Poissons Ratio (y) = 0.76096 0.26777
# Poissons Ratio (z) = -0.11300 0.41642
#
# Static dielectric constant tensor:
#      x y z
#    x 3.483790 0.000000 0.000000 
#    y 0.000000 3.471440 0.000000 
#    z 0.000000 0.000000 2.884590 
# 
# 
# High freq. dielectric constant tensor:
#      x y z
#    x 1.710490 0.000000 0.000000 
#    y 0.000000 1.697060 0.000000 
#    z 0.000000 0.000000 1.649350 
# 
# From -- ./inp_files/16367.got.cif
#   From: 2010.03.12/outbox.cif.g09.slc.cpg/sg39_9_cif.got.tgz:16367.got - 2010.04.14 02:53:20.
