data_PCOD8181103
_publ_section_title
;
Structure prediction by ZEFSAII (Michael W. Deem and Ramdas Pophale) SiO2 
 PCOD8181103
Probable space group: A B M 2
;
_chemical_formula_sum "Si O2"
_cell_formula_units_Z 64
_cell_length_a 9.476128
_cell_length_b 18.359979
_cell_length_c 19.081914
_cell_angle_alpha 90.000000
_cell_angle_beta 90.000000
_cell_angle_gamma 90.000000
_cell_volume 3319.900232
_symmetry_space_group_name_H-M "A B M 2"
_symmetry_group_IT_number 39
_symmetry_cell_setting 'orthorhombic'
loop_
_space_group_symop_operation_xyz
x,y,z
-x,-y,z
-x,1/2+y,z
x,1/2-y,z
x,1/2+y,1/2+z
-x,1/2-y,1/2+z
-x,y,1/2+z
x,-y,1/2+z
loop_
_atom_site_type_symbol
_atom_site_label
_atom_site_fract_x
_atom_site_fract_y
_atom_site_fract_z
Si Si1 0.364988 0.168177 0.524410
Si Si2 0.600613 0.068111 0.486801
Si Si3 0.890264 0.665062 0.614148
Si Si4 0.002950 0.085181 0.367955
Si Si5 0.546660 0.918917 0.826603
Si Si6 0.921659 0.927709 0.024899
Si Si7 0.718884 0.833011 0.364918
Si Si8 0.205089 0.664018 0.268002
O O1 0.391533 0.250000 0.548695
O O2 0.520145 0.133105 0.526263
O O3 0.249691 0.131887 0.576267
O O4 0.301150 0.161585 0.447501
O O5 0.619865 0.079890 0.403457
O O6 0.753458 0.059383 0.522035
O O7 0.500000 0.000000 0.500011
O O8 0.898629 0.750000 0.597627
O O9 0.878092 0.648761 0.696316
O O10 0.034971 0.631534 0.583327
O O11 0.981076 0.097295 0.450191
O O12 0.886603 0.133974 0.331224
O O13 0.151864 0.116384 0.343147
O O14 0.000000 0.000000 0.347193
O O15 0.414596 0.865162 0.825141
O O16 0.651523 0.883333 0.769824
O O17 0.500000 0.000000 0.803626
O O18 0.000000 0.000000 0.049732
O O19 0.744636 0.750000 0.340793
O O20 0.237061 0.750000 0.278171
#
# Coordination Sequence:
#
# PCOD8181103 Si02
#       8
#     8   8   8   8   8   8   8   8
#     4   9  18  34  54  80 110 148 188 237 292 352
#     4  10  20  34  58  88 118 146 190 253 305 358
#     4  10  22  40  60  83 124 167 201 244 305 371
#     4  11  22  36  59  88 118 155 201 256 309 361
#     4  10  20  36  59  87 119 156 198 255 306 361
#     4  11  22  37  61  89 118 157 198 252 314 365
#     4  10  19  33  56  84 115 148 193 247 304 360
#     4  11  23  40  59  87 124 165 205 250 305 366
#
# _framework density 19.277688999999999
#
# number of rings (size 3 to 8) (size 9 to 14) (size 15 to 20)
#    0.000    1.750    2.500    2.250    7.000    2.000 
#    0.000    3.125    0.000    3.000    0.000    0.000 
#    0.000    0.000    0.000    0.000    0.000    0.000 
#
# Total GULP energy -396764.339751 kJ/mol
# GULP energy per Si atom -12398.885617 kJ/mol
# Density = 1.923381 g / cm^3
# Si number density = 19.277689 Si / 1000 Ang^3
#
#
#
# Elastic Constant Matrix: (Units=GPa)
#
#
# Indices 1 2 3 4 5 6 
#
# 1 139.3007 66.0161 25.0229 0.0000 0.0000 0.0000
# 2 66.0161 120.2758 42.7736 0.0000 0.0000 0.0000
# 3 25.0229 42.7736 47.2818 0.0000 0.0000 0.0000
# 4 0.0000 0.0000 0.0000 13.5813 0.0000 0.0000
# 5 0.0000 0.0000 0.0000 0.0000 23.3398 0.0000
# 6 0.0000 0.0000 0.0000 0.0000 0.0000 37.9187
#
#
#
# Elastic Compliance Matrix: (Units=1/GPa)
#
#
# Indices 1 2 3 4 5 6 
#
# 1 0.009710 -0.005163 -0.000468 0.000000 0.000000 0.000000
# 2 -0.005163 0.015003 -0.010840 0.000000 0.000000 0.000000
# 3 -0.000468 -0.010840 0.031204 0.000000 0.000000 0.000000
# 4 0.000000 0.000000 0.000000 0.073631 0.000000 0.000000
# 5 0.000000 0.000000 0.000000 0.000000 0.042845 0.000000
# 6 0.000000 0.000000 0.000000 0.000000 0.000000 0.026372
#
#
# Mechanical properties :
#
#
# Convention : Reuss Voigt Hill
#
# Bulk Modulus (GPa) = 43.52642 63.83151 53.67897
# Shear Modulus (GPa) = 20.88860 26.50436 23.69648
#
# Velocity S-wave (km/s) = 3.29532 3.71195 3.50982
# Velocity P-wave (km/s) = 6.09151 7.18017 6.65813
#
# Compressibility (1/GPa) = 0.02297455
#
# Stress axis : x y z
#
# Youngs Moduli (GPa) = 102.99182 66.65294 32.04707
#
# Poissons Ratio (x) = 0.34412 0.01500
# Poissons Ratio (y) = 0.53173 0.34740
# Poissons Ratio (z) = 0.04820 0.72253
#
# Static dielectric constant tensor:
#      x y z
#    x 3.730240 0.000000 0.000000 
#    y 0.000000 3.805710 0.000000 
#    z 0.000000 0.000000 3.226150 
# 
# 
# High freq. dielectric constant tensor:
#      x y z
#    x 1.758500 0.000000 0.000000 
#    y 0.000000 1.759900 0.000000 
#    z 0.000000 0.000000 1.715470 
# 
# From -- ./inp_files/14239.got.cif
#   From: 2010.03.12/outbox.cif.g09.slc.cpg/sg39_8_cif.got.tgz:14239.got - 2010.04.14 02:53:20.
