data_PCOD8181121
_publ_section_title
;
Structure prediction by ZEFSAII (Michael W. Deem and Ramdas Pophale) SiO2 
 PCOD8181121
Probable space group: A B M 2
;
_chemical_formula_sum "Si O2"
_cell_formula_units_Z 48
_cell_length_a 19.134004
_cell_length_b 8.696661
_cell_length_c 15.209843
_cell_angle_alpha 90.000000
_cell_angle_beta 90.000000
_cell_angle_gamma 90.000000
_cell_volume 2530.947479
_symmetry_space_group_name_H-M "A B M 2"
_symmetry_group_IT_number 39
_symmetry_cell_setting 'orthorhombic'
loop_
_space_group_symop_operation_xyz
x,y,z
-x,-y,z
-x,1/2+y,z
x,1/2-y,z
x,1/2+y,1/2+z
-x,1/2-y,1/2+z
-x,y,1/2+z
x,-y,1/2+z
loop_
_atom_site_type_symbol
_atom_site_label
_atom_site_fract_x
_atom_site_fract_y
_atom_site_fract_z
Si Si1 0.074854 0.066941 0.792040
Si Si2 0.427149 0.569126 0.286413
Si Si3 0.925251 0.432900 0.977965
Si Si4 0.171635 0.432114 0.635302
Si Si5 0.328911 0.932700 0.130880
Si Si6 0.426090 0.931771 0.485617
O O1 0.069420 0.250000 0.796779
O O2 0.131289 0.008561 0.721457
O O3 0.099491 0.000810 0.885237
O O4 0.000000 0.000000 0.764432
O O5 0.500000 0.500000 0.253327
O O6 0.434977 0.750000 0.282997
O O7 0.366923 0.512112 0.220256
O O8 0.409599 0.514959 0.385595
O O9 0.931082 0.250000 0.972143
O O10 0.000000 0.500000 0.006042
O O11 0.868633 0.489280 0.048701
O O12 0.173662 0.250000 0.636985
O O13 0.250137 0.497757 0.635023
O O14 0.330748 0.750000 0.121852
O O15 0.364675 0.004024 0.045574
O O16 0.429811 0.750000 0.494234
O O17 0.500000 0.000000 0.517167
#
# Coordination Sequence:
#
# PCOD8181121 Si02
#       6
#     8   8   8   8   8   8
#     4  10  19  34  55  78 102 134 173 215 257 304
#     4   9  19  34  54  75 100 131 167 207 250 297
#     4  10  19  34  54  77 102 133 172 215 257 304
#     4   9  20  35  52  74 105 140 171 204 256 312
#     4  10  20  36  54  75 104 139 171 208 255 306
#     4  10  20  35  54  79 104 133 171 213 255 301
#
# _framework density 18.965229000000001
#
# number of rings (size 3 to 8) (size 9 to 14) (size 15 to 20)
#    0.000    2.333    0.000    3.500    0.000    4.000 
#    0.000    7.500    0.000    0.000    0.000    0.000 
#    0.000    0.000    0.000    0.000    0.000    0.000 
#
# Total GULP energy -297632.059127 kJ/mol
# GULP energy per Si atom -12401.335797 kJ/mol
# Density = 1.892206 g / cm^3
# Si number density = 18.965229 Si / 1000 Ang^3
#
#
#
# Elastic Constant Matrix: (Units=GPa)
#
#
# Indices 1 2 3 4 5 6 
#
# 1 181.7925 36.1559 117.9871 0.0000 0.0000 0.0000
# 2 36.1559 51.4214 36.3569 0.0000 0.0000 0.0000
# 3 117.9871 36.3569 151.2642 0.0000 0.0000 0.0000
# 4 0.0000 0.0000 0.0000 16.5954 0.0000 0.0000
# 5 0.0000 0.0000 0.0000 0.0000 24.8474 0.0000
# 6 0.0000 0.0000 0.0000 0.0000 0.0000 24.4196
#
#
#
# Elastic Compliance Matrix: (Units=1/GPa)
#
#
# Indices 1 2 3 4 5 6 
#
# 1 0.011320 -0.002068 -0.008333 0.000000 0.000000 0.000000
# 2 -0.002068 0.023806 -0.004109 0.000000 0.000000 0.000000
# 3 -0.008333 -0.004109 0.014098 0.000000 0.000000 0.000000
# 4 0.000000 0.000000 0.000000 0.060258 0.000000 0.000000
# 5 0.000000 0.000000 0.000000 0.000000 0.040246 0.000000
# 6 0.000000 0.000000 0.000000 0.000000 0.000000 0.040951
#
#
# Mechanical properties :
#
#
# Convention : Reuss Voigt Hill
#
# Bulk Modulus (GPa) = 49.49174 85.05311 67.27242
# Shear Modulus (GPa) = 22.08154 26.10435 24.09294
#
# Velocity S-wave (km/s) = 3.41591 3.71405 3.56810
# Velocity P-wave (km/s) = 6.45838 7.95842 7.24731
#
# Compressibility (1/GPa) = 0.02020539
#
# Stress axis : x y z
#
# Youngs Moduli (GPa) = 88.33731 42.00556 70.93103
#
# Poissons Ratio (x) = 0.08687 0.59106
# Poissons Ratio (y) = 0.18268 0.29145
# Poissons Ratio (z) = 0.73610 0.17260
#
# Static dielectric constant tensor:
#      x y z
#    x 3.639490 0.000000 0.000000 
#    y 0.000000 3.314900 0.000000 
#    z 0.000000 0.000000 3.737520 
# 
# 
# High freq. dielectric constant tensor:
#      x y z
#    x 1.734680 0.000000 0.000000 
#    y 0.000000 1.724960 0.000000 
#    z 0.000000 0.000000 1.751360 
# 
# From -- ./inp_files/10045.got.cif
#   From: 2010.03.12/outbox.cif.g09.slc.cpg/sg39_6_cif.got.tgz:10045.got - 2010.04.14 02:53:20.
