data_PCOD8181004
_publ_section_title
;
Structure prediction by ZEFSAII (Michael W. Deem and Ramdas Pophale) SiO2 
 PCOD8181004
Probable space group: A B M 2
;
_chemical_formula_sum "Si O2"
_cell_formula_units_Z 56
_cell_length_a 15.466230
_cell_length_b 8.722524
_cell_length_c 20.268714
_cell_angle_alpha 90.000000
_cell_angle_beta 90.000000
_cell_angle_gamma 90.000000
_cell_volume 2734.341992
_symmetry_space_group_name_H-M "A B M 2"
_symmetry_group_IT_number 39
_symmetry_cell_setting 'orthorhombic'
loop_
_space_group_symop_operation_xyz
x,y,z
-x,-y,z
-x,1/2+y,z
x,1/2-y,z
x,1/2+y,1/2+z
-x,1/2-y,1/2+z
-x,y,1/2+z
x,-y,1/2+z
loop_
_atom_site_type_symbol
_atom_site_label
_atom_site_fract_x
_atom_site_fract_y
_atom_site_fract_z
Si Si1 0.086076 0.929673 0.688540
Si Si2 0.590771 0.572894 0.411670
Si Si3 0.736016 0.927972 0.509956
Si Si4 0.266896 0.427526 0.657258
Si Si5 0.130496 0.429043 0.819336
Si Si6 0.307114 0.571945 0.786265
Si Si7 0.088543 0.929199 0.467127
O O1 0.091137 0.750000 0.674778
O O2 0.169053 0.012084 0.658353
O O3 0.080963 0.965332 0.766680
O O4 0.000000 0.000000 0.654790
O O5 0.500000 0.500000 0.430374
O O6 0.583226 0.750000 0.428821
O O7 0.667035 0.502903 0.457733
O O8 0.610783 0.545741 0.334007
O O9 0.752612 0.750000 0.495101
O O10 0.697070 0.953445 0.583499
O O11 0.828129 0.010245 0.505697
O O12 0.267172 0.250000 0.676929
O O13 0.326052 0.517827 0.710966
O O14 0.116926 0.250000 0.803014
O O15 0.231665 0.468685 0.816659
O O16 0.095053 0.474472 0.890545
O O17 0.279160 0.750000 0.785634
O O18 0.085127 0.750000 0.478568
O O19 0.000000 0.000000 0.496020
#
# Coordination Sequence:
#
# PCOD8181004 Si02
#       7
#     8   8   8   8   8   8   8
#     4  11  21  33  51  76 110 151 198 248 294 345
#     4  10  22  40  65  94 120 153 194 240 298 354
#     4  10  22  42  62  84 120 160 198 245 296 350
#     4  10  21  37  59  83 113 154 195 238 293 351
#     4  10  19  32  52  81 113 149 193 241 296 346
#     4  10  19  35  60  87 117 150 187 238 292 346
#     4  11  23  35  54  83 117 159 203 248 295 348
#
# _framework density 20.480246999999999
#
# number of rings (size 3 to 8) (size 9 to 14) (size 15 to 20)
#    0.000    1.714    1.429    5.143    0.000    6.286 
#    0.000    0.714    0.000    3.429    0.000    0.000 
#    0.000    0.000    0.000    0.000    0.000    0.000 
#
# Total GULP energy -347168.953417 kJ/mol
# GULP energy per Si atom -12398.891193 kJ/mol
# Density = 2.043363 g / cm^3
# Si number density = 20.480247 Si / 1000 Ang^3
#
#
#
# Elastic Constant Matrix: (Units=GPa)
#
#
# Indices 1 2 3 4 5 6 
#
# 1 93.7549 19.2664 38.4183 0.0000 0.0000 0.0000
# 2 19.2664 64.2121 37.3430 0.0000 0.0000 0.0000
# 3 38.4183 37.3430 110.5210 0.0000 0.0000 0.0000
# 4 0.0000 0.0000 0.0000 25.9060 0.0000 0.0000
# 5 0.0000 0.0000 0.0000 0.0000 6.2091 0.0000
# 6 0.0000 0.0000 0.0000 0.0000 0.0000 31.8608
#
#
#
# Elastic Compliance Matrix: (Units=1/GPa)
#
#
# Indices 1 2 3 4 5 6 
#
# 1 0.012557 -0.001530 -0.003848 0.000000 0.000000 0.000000
# 2 -0.001530 0.019568 -0.006080 0.000000 0.000000 0.000000
# 3 -0.003848 -0.006080 0.012440 0.000000 0.000000 0.000000
# 4 0.000000 0.000000 0.000000 0.038601 0.000000 0.000000
# 5 0.000000 0.000000 0.000000 0.000000 0.161054 0.000000
# 6 0.000000 0.000000 0.000000 0.000000 0.000000 0.031387
#
#
# Mechanical properties :
#
#
# Convention : Reuss Voigt Hill
#
# Bulk Modulus (GPa) = 46.18999 50.94928 48.56963
# Shear Modulus (GPa) = 16.35379 24.35918 20.35648
#
# Velocity S-wave (km/s) = 2.82887 3.45251 3.15613
# Velocity P-wave (km/s) = 5.76822 6.38939 6.08674
#
# Compressibility (1/GPa) = 0.02164971
#
# Stress axis : x y z
#
# Youngs Moduli (GPa) = 79.63446 51.10315 80.38558
#
# Poissons Ratio (x) = 0.07818 0.30934
# Poissons Ratio (y) = 0.12183 0.48874
# Poissons Ratio (z) = 0.30645 0.31071
#
# Static dielectric constant tensor:
#      x y z
#    x 3.500320 0.000000 0.000000 
#    y 0.000000 3.686250 0.000000 
#    z 0.000000 0.000000 3.891470 
# 
# 
# High freq. dielectric constant tensor:
#      x y z
#    x 1.774650 0.000000 0.000000 
#    y 0.000000 1.802840 0.000000 
#    z 0.000000 0.000000 1.805630 
# 
# From -- ./inp_files/14738.got.cif
#   From: 2010.03.12/outbox.cif.g09.slc.cpg/sg39_8_cif.got.tgz:14738.got - 2010.04.14 02:53:20.
