data_PCOD8181127
_publ_section_title
;
Structure prediction by ZEFSAII (Michael W. Deem and Ramdas Pophale) SiO2 
 PCOD8181127
Probable space group: A B M 2
;
_chemical_formula_sum "Si O2"
_cell_formula_units_Z 56
_cell_length_a 19.574952
_cell_length_b 9.178067
_cell_length_c 15.872283
_cell_angle_alpha 90.000000
_cell_angle_beta 90.000000
_cell_angle_gamma 90.000000
_cell_volume 2851.617871
_symmetry_space_group_name_H-M "A B M 2"
_symmetry_group_IT_number 39
_symmetry_cell_setting 'orthorhombic'
loop_
_space_group_symop_operation_xyz
x,y,z
-x,-y,z
-x,1/2+y,z
x,1/2-y,z
x,1/2+y,1/2+z
-x,1/2-y,1/2+z
-x,y,1/2+z
x,-y,1/2+z
loop_
_atom_site_type_symbol
_atom_site_label
_atom_site_fract_x
_atom_site_fract_y
_atom_site_fract_z
Si Si1 0.653572 0.422392 0.068450
Si Si2 0.791078 0.923093 0.491882
Si Si3 0.572504 0.075534 0.904082
Si Si4 0.935005 0.916356 0.553613
Si Si5 0.792690 0.416425 0.324604
Si Si6 0.064914 0.584346 0.252248
Si Si7 0.649025 0.417415 0.255057
O O1 0.653498 0.250000 0.065963
O O2 0.731411 0.477422 0.054647
O O3 0.627443 0.472888 0.161019
O O4 0.605662 0.479091 0.992337
O O5 0.793751 0.750000 0.489392
O O6 0.864723 0.986219 0.519199
O O7 0.770902 0.982391 0.401169
O O8 0.566177 0.250000 0.900116
O O9 0.500000 0.000000 0.897022
O O10 0.616658 0.022319 0.824591
O O11 0.941829 0.750000 0.525414
O O12 0.933575 0.934079 0.652926
O O13 0.000000 0.000000 0.514522
O O14 0.802301 0.250000 0.354686
O O15 0.863330 0.477974 0.286113
O O16 0.731553 0.426125 0.257151
O O17 0.055834 0.750000 0.279629
O O18 0.000000 0.500000 0.291374
O O19 0.625184 0.250000 0.270515
#
# Coordination Sequence:
#
# PCOD8181127 Si02
#       7
#     8   8   8   8   8   8   8
#     4   9  19  37  62  87 115 152 193 233 280 338
#     4  10  19  34  55  78 107 145 188 232 282 338
#     4  11  23  41  63  90 122 153 187 231 279 337
#     4   9  18  32  51  72 100 140 185 233 282 335
#     4  10  20  33  53  80 111 143 184 237 287 334
#     4   9  18  33  50  72 102 141 187 234 284 336
#     4  10  20  38  63  89 117 153 193 236 286 339
#
# _framework density 19.637975000000001
#
# number of rings (size 3 to 8) (size 9 to 14) (size 15 to 20)
#    0.000    2.286    1.429    1.286    0.000    5.714 
#    0.000    6.429    0.000    3.429    0.000    0.000 
#    0.000    0.000    0.000    0.000    0.000    0.000 
#
# Total GULP energy -347088.917417 kJ/mol
# GULP energy per Si atom -12396.032765 kJ/mol
# Density = 1.959328 g / cm^3
# Si number density = 19.637975 Si / 1000 Ang^3
#
#
#
# Elastic Constant Matrix: (Units=GPa)
#
#
# Indices 1 2 3 4 5 6 
#
# 1 126.7008 34.6058 53.5565 0.0000 0.0000 0.0000
# 2 34.6058 43.4657 33.9475 0.0000 0.0000 0.0000
# 3 53.5565 33.9475 92.9625 0.0000 0.0000 0.0000
# 4 0.0000 0.0000 0.0000 26.7721 0.0000 0.0000
# 5 0.0000 0.0000 0.0000 0.0000 28.1127 0.0000
# 6 0.0000 0.0000 0.0000 0.0000 0.0000 26.6147
#
#
#
# Elastic Compliance Matrix: (Units=1/GPa)
#
#
# Indices 1 2 3 4 5 6 
#
# 1 0.011292 -0.005469 -0.004508 0.000000 0.000000 0.000000
# 2 -0.005469 0.034836 -0.009570 0.000000 0.000000 0.000000
# 3 -0.004508 -0.009570 0.016849 0.000000 0.000000 0.000000
# 4 0.000000 0.000000 0.000000 0.037352 0.000000 0.000000
# 5 0.000000 0.000000 0.000000 0.000000 0.035571 0.000000
# 6 0.000000 0.000000 0.000000 0.000000 0.000000 0.037573
#
#
# Mechanical properties :
#
#
# Convention : Reuss Voigt Hill
#
# Bulk Modulus (GPa) = 41.87376 56.37209 49.12292
# Shear Modulus (GPa) = 22.67275 25.70119 24.18697
#
# Velocity S-wave (km/s) = 3.40153 3.62159 3.51328
# Velocity P-wave (km/s) = 6.06600 6.80117 6.44408
#
# Compressibility (1/GPa) = 0.02388131
#
# Stress axis : x y z
#
# Youngs Moduli (GPa) = 88.55765 28.70628 59.35073
#
# Poissons Ratio (x) = 0.15701 0.26756
# Poissons Ratio (y) = 0.48435 0.56799
# Poissons Ratio (z) = 0.39923 0.27472
#
# Static dielectric constant tensor:
#      x y z
#    x 3.850650 0.000000 0.000000 
#    y 0.000000 3.376760 0.000000 
#    z 0.000000 0.000000 3.607440 
# 
# 
# High freq. dielectric constant tensor:
#      x y z
#    x 1.776830 0.000000 0.000000 
#    y 0.000000 1.737490 0.000000 
#    z 0.000000 0.000000 1.764020 
# 
# From -- ./inp_files/10328.got.cif
#   From: 2010.03.12/outbox.cif.g09.slc.cpg/sg39_6_cif.got.tgz:10328.got - 2010.04.14 02:53:20.
