data_PCOD8181602
_publ_section_title
;
Structure prediction by ZEFSAII (Michael W. Deem and Ramdas Pophale) SiO2 
 PCOD8181602
Probable space group: A B M 2
;
_chemical_formula_sum "Si O2"
_cell_formula_units_Z 64
_cell_length_a 14.187206
_cell_length_b 24.446579
_cell_length_c 9.491378
_cell_angle_alpha 90.000000
_cell_angle_beta 90.000000
_cell_angle_gamma 90.000000
_cell_volume 3291.881840
_symmetry_space_group_name_H-M "A B M 2"
_symmetry_group_IT_number 39
_symmetry_cell_setting 'orthorhombic'
loop_
_space_group_symop_operation_xyz
x,y,z
-x,-y,z
-x,1/2+y,z
x,1/2-y,z
x,1/2+y,1/2+z
-x,1/2-y,1/2+z
-x,y,1/2+z
x,-y,1/2+z
loop_
_atom_site_type_symbol
_atom_site_label
_atom_site_fract_x
_atom_site_fract_y
_atom_site_fract_z
Si Si1 0.528360 0.644091 0.369250
Si Si2 0.703498 0.999143 0.066009
Si Si3 0.059913 0.186998 0.188848
Si Si4 0.225259 0.615316 0.622703
Si Si5 0.883762 0.187646 0.004361
Si Si6 0.608652 0.188843 0.584327
Si Si7 0.583871 0.462024 0.319316
Si Si8 0.726888 0.109713 0.943226
O O1 0.475100 0.685374 0.471999
O O2 0.568659 0.677455 0.239061
O O3 0.454043 0.599495 0.312128
O O4 0.613908 0.617094 0.460646
O O5 0.670573 0.025169 0.214422
O O6 0.777328 0.948952 0.082927
O O7 0.755597 0.047884 0.983337
O O8 0.614443 0.976443 0.978437
O O9 0.089463 0.250000 0.158807
O O10 0.126449 0.146081 0.098103
O O11 0.064796 0.173986 0.355574
O O12 0.954749 0.176076 0.133024
O O13 0.308609 0.646730 0.539537
O O14 0.248960 0.622147 0.784445
O O15 0.849289 0.250000 0.004554
O O16 0.790518 0.151470 0.034006
O O17 0.650281 0.250000 0.583334
O O18 0.500000 0.500000 0.268309
#
# Coordination Sequence:
#
# PCOD8181602 Si02
#       8
#     8   8   8   8   8   8   8   8
#     4  11  22  36  53  80 112 152 193 234 283 335
#     4  12  21  37  55  84 115 150 194 240 279 334
#     4   9  18  37  63  86 109 142 186 235 287 348
#     4  10  20  37  57  82 111 149 188 232 285 347
#     4   9  19  38  63  87 111 141 186 237 289 348
#     4  11  22  36  53  77 112 152 191 232 283 342
#     4  12  22  34  57  80 112 153 199 240 274 326
#     4  10  21  36  57  83 112 149 188 232 285 343
#
# _framework density 19.441766999999999
#
# number of rings (size 3 to 8) (size 9 to 14) (size 15 to 20)
#    0.000    1.500    3.750    2.625    0.000    3.500 
#    2.250    0.625    0.000    6.000    0.000    0.000 
#    0.000    0.000    0.000    0.000    0.000    0.000 
#
# Total GULP energy -396735.049202 kJ/mol
# GULP energy per Si atom -12397.970288 kJ/mol
# Density = 1.939752 g / cm^3
# Si number density = 19.441767 Si / 1000 Ang^3
#
#
#
# Elastic Constant Matrix: (Units=GPa)
#
#
# Indices 1 2 3 4 5 6 
#
# 1 53.0438 38.1905 8.9318 0.0000 0.0000 0.0000
# 2 38.1905 120.3039 7.5165 0.0000 0.0000 0.0000
# 3 8.9318 7.5165 36.7738 0.0000 0.0000 0.0000
# 4 0.0000 0.0000 0.0000 17.8949 0.0000 0.0000
# 5 0.0000 0.0000 0.0000 0.0000 24.6478 0.0000
# 6 0.0000 0.0000 0.0000 0.0000 0.0000 32.2859
#
#
#
# Elastic Compliance Matrix: (Units=1/GPa)
#
#
# Indices 1 2 3 4 5 6 
#
# 1 0.025164 -0.007705 -0.004537 0.000000 0.000000 0.000000
# 2 -0.007705 0.010779 -0.000332 0.000000 0.000000 0.000000
# 3 -0.004537 -0.000332 0.028363 0.000000 0.000000 0.000000
# 4 0.000000 0.000000 0.000000 0.055882 0.000000 0.000000
# 5 0.000000 0.000000 0.000000 0.000000 0.040572 0.000000
# 6 0.000000 0.000000 0.000000 0.000000 0.000000 0.030973
#
#
# Mechanical properties :
#
#
# Convention : Reuss Voigt Hill
#
# Bulk Modulus (GPa) = 25.53728 35.48878 30.51303
# Shear Modulus (GPa) = 21.74558 25.33125 23.53841
#
# Velocity S-wave (km/s) = 3.34802 3.61353 3.48331
# Velocity P-wave (km/s) = 5.30184 5.97525 5.64859
#
# Compressibility (1/GPa) = 0.03915844
#
# Stress axis : x y z
#
# Youngs Moduli (GPa) = 39.74007 92.77409 35.25710
#
# Poissons Ratio (x) = 0.71480 0.15996
# Poissons Ratio (y) = 0.30619 0.01170
# Poissons Ratio (z) = 0.18030 0.03079
#
# Static dielectric constant tensor:
#      x y z
#    x 3.522270 0.000000 0.000000 
#    y 0.000000 3.644720 0.000000 
#    z 0.000000 0.000000 3.418990 
# 
# 
# High freq. dielectric constant tensor:
#      x y z
#    x 1.729830 0.000000 0.000000 
#    y 0.000000 1.763940 0.000000 
#    z 0.000000 0.000000 1.748340 
# 
# From -- ./inp_files/3503.got.cif
#   From: 2010.03.12/outbox.cif.g09.slc.cpg/sg39_2_cif.got.tgz:3503.got - 2010.04.14 02:53:20.
