data_PCOD8181913
_publ_section_title
;
Structure prediction by ZEFSAII (Michael W. Deem and Ramdas Pophale) SiO2 
 PCOD8181913
Probable space group: A B M 2
;
_chemical_formula_sum "Si O2"
_cell_formula_units_Z 64
_cell_length_a 14.485923
_cell_length_b 9.212805
_cell_length_c 24.985203
_cell_angle_alpha 90.000000
_cell_angle_beta 90.000000
_cell_angle_gamma 90.000000
_cell_volume 3334.424848
_symmetry_space_group_name_H-M "A B M 2"
_symmetry_group_IT_number 39
_symmetry_cell_setting 'orthorhombic'
loop_
_space_group_symop_operation_xyz
x,y,z
-x,-y,z
-x,1/2+y,z
x,1/2-y,z
x,1/2+y,1/2+z
-x,1/2-y,1/2+z
-x,y,1/2+z
x,-y,1/2+z
loop_
_atom_site_type_symbol
_atom_site_label
_atom_site_fract_x
_atom_site_fract_y
_atom_site_fract_z
Si Si1 0.865835 0.412075 0.971540
Si Si2 0.912299 0.418025 0.365810
Si Si3 0.587704 0.077743 0.900088
Si Si4 0.709676 0.076307 0.119101
Si Si5 0.284324 0.916392 0.325141
Si Si6 0.597412 0.579650 0.721639
Si Si7 0.910984 0.079585 0.091251
Si Si8 0.659450 0.912175 0.506831
O O1 0.900419 0.250000 0.956433
O O2 0.895706 0.523414 0.925794
O O3 0.906823 0.461727 0.028560
O O4 0.756600 0.410822 0.976920
O O5 0.935878 0.250000 0.371262
O O6 0.825917 0.442050 0.325576
O O7 0.000000 0.500000 0.339940
O O8 0.579312 0.250000 0.895301
O O9 0.500000 0.000000 0.872770
O O10 0.677770 0.025691 0.869264
O O11 0.591436 0.021007 0.962037
O O12 0.710119 0.250000 0.115805
O O13 0.648781 0.020192 0.168528
O O14 0.817052 0.026209 0.121429
O O15 0.663625 0.008579 0.064647
O O16 0.307027 0.750000 0.340788
O O17 0.330186 0.955616 0.268509
O O18 0.500000 0.500000 0.730406
O O19 0.576586 0.750000 0.717478
O O20 0.923277 0.250000 0.099319
O O21 0.000000 0.000000 0.116846
O O22 0.625826 0.750000 0.518584
#
# Coordination Sequence:
#
# PCOD8181913 Si02
#       8
#     8   8   8   8   8   8   8   8
#     4   9  16  30  50  74 105 142 182 216 255 309
#     4  11  22  34  51  76 108 142 179 220 264 315
#     4  11  21  33  53  79 109 143 176 216 268 327
#     4   8  16  33  55  77 104 140 176 214 264 319
#     4  10  22  39  56  78 107 139 180 226 267 317
#     4  10  21  39  62  82 102 133 178 226 272 318
#     4   9  17  29  49  76 108 143 178 214 255 310
#     4   8  15  29  50  76 106 141 176 211 259 319
#
# _framework density 19.193715999999998
#
# number of rings (size 3 to 8) (size 9 to 14) (size 15 to 20)
#    0.000    2.500    1.250    3.000    0.000    4.000 
#    0.000    1.250    0.000    1.500    0.000    0.000 
#    0.000    0.000    0.000    0.000    0.000    0.000 
#
# Total GULP energy -396511.757933 kJ/mol
# GULP energy per Si atom -12390.992435 kJ/mol
# Density = 1.915003 g / cm^3
# Si number density = 19.193716 Si / 1000 Ang^3
#
#
#
# Elastic Constant Matrix: (Units=GPa)
#
#
# Indices 1 2 3 4 5 6 
#
# 1 122.4914 49.9293 58.2347 0.0000 0.0000 0.0000
# 2 49.9293 66.9004 42.1158 0.0000 0.0000 0.0000
# 3 58.2347 42.1158 102.3646 0.0000 0.0000 0.0000
# 4 0.0000 0.0000 0.0000 18.2250 0.0000 0.0000
# 5 0.0000 0.0000 0.0000 0.0000 22.5940 0.0000
# 6 0.0000 0.0000 0.0000 0.0000 0.0000 30.3501
#
#
#
# Elastic Compliance Matrix: (Units=1/GPa)
#
#
# Indices 1 2 3 4 5 6 
#
# 1 0.013200 -0.006915 -0.004664 0.000000 0.000000 0.000000
# 2 -0.006915 0.023795 -0.005856 0.000000 0.000000 0.000000
# 3 -0.004664 -0.005856 0.014832 0.000000 0.000000 0.000000
# 4 0.000000 0.000000 0.000000 0.054870 0.000000 0.000000
# 5 0.000000 0.000000 0.000000 0.000000 0.044259 0.000000
# 6 0.000000 0.000000 0.000000 0.000000 0.000000 0.032949
#
#
# Mechanical properties :
#
#
# Convention : Reuss Voigt Hill
#
# Bulk Modulus (GPa) = 58.97624 65.81288 62.39456
# Shear Modulus (GPa) = 22.27886 23.66560 22.97223
#
# Velocity S-wave (km/s) = 3.41066 3.51520 3.46332
# Velocity P-wave (km/s) = 6.80468 7.13013 6.96930
#
# Compressibility (1/GPa) = 0.01695598
#
# Stress axis : x y z
#
# Youngs Moduli (GPa) = 75.75707 42.02547 67.42244
#
# Poissons Ratio (x) = 0.29061 0.31448
# Poissons Ratio (y) = 0.52387 0.39483
# Poissons Ratio (z) = 0.35336 0.24610
#
# Static dielectric constant tensor:
#      x y z
#    x 3.705860 0.000000 0.000000 
#    y 0.000000 3.219530 0.000000 
#    z 0.000000 0.000000 3.524530 
# 
# 
# High freq. dielectric constant tensor:
#      x y z
#    x 1.757690 0.000000 0.000000 
#    y 0.000000 1.716640 0.000000 
#    z 0.000000 0.000000 1.729870 
# 
# From -- ./inp_files/16206.got.cif
#   From: 2010.03.12/outbox.cif.g09.slc.cpg/sg39_9_cif.got.tgz:16206.got - 2010.04.14 02:53:20.
