data_PCOD8181743
_publ_section_title
;
Structure prediction by ZEFSAII (Michael W. Deem and Ramdas Pophale) SiO2 
 PCOD8181743
Probable space group: A B M 2
;
_chemical_formula_sum "Si O2"
_cell_formula_units_Z 48
_cell_length_a 5.136728
_cell_length_b 13.998513
_cell_length_c 29.262916
_cell_angle_alpha 90.000000
_cell_angle_beta 90.000000
_cell_angle_gamma 90.000000
_cell_volume 2104.195440
_symmetry_space_group_name_H-M "A B M 2"
_symmetry_group_IT_number 39
_symmetry_cell_setting 'orthorhombic'
loop_
_space_group_symop_operation_xyz
x,y,z
-x,-y,z
-x,1/2+y,z
x,1/2-y,z
x,1/2+y,1/2+z
-x,1/2-y,1/2+z
-x,y,1/2+z
x,-y,1/2+z
loop_
_atom_site_type_symbol
_atom_site_label
_atom_site_fract_x
_atom_site_fract_y
_atom_site_fract_z
Si Si1 0.542902 0.112964 0.433780
Si Si2 0.861466 0.750000 0.573459
Si Si3 0.627482 0.250000 0.512759
Si Si4 0.863633 0.863156 0.283760
Si Si5 0.041001 0.605180 0.887357
Si Si6 0.361878 0.863768 0.229550
Si Si7 0.260544 0.561168 0.130821
O O1 0.638281 0.154278 0.482187
O O2 0.269318 0.157520 0.416160
O O3 0.757729 0.150840 0.396652
O O4 0.500000 0.000000 0.437290
O O5 0.657334 0.750000 0.533389
O O6 0.816773 0.844878 0.602903
O O7 0.150659 0.750000 0.551581
O O8 0.864869 0.750000 0.285792
O O9 0.875437 0.901724 0.334902
O O10 0.610290 0.901695 0.257634
O O11 0.110987 0.902107 0.256292
O O12 0.000000 0.500000 0.907576
O O13 0.362780 0.750000 0.225324
O O14 0.371332 0.907829 0.179614
O O15 0.500000 0.500000 0.108003
O O16 0.000000 0.500000 0.135333
#
# Coordination Sequence:
#
# PCOD8181743 Si02
#       7
#     8   4   4   8   8   8   8
#     4  10  23  41  63  95 130 170 222 271 330 402
#     4  12  28  50  70 107 140 163 228 296 340 428
#     4  12  26  44  76  95 128 183 210 284 362 404
#     4  10  21  33  60  93 130 179 224 271 321 378
#     4  10  21  38  58  89 135 175 215 278 321 377
#     4  10  21  41  60  93 138 176 222 280 322 386
#     4  12  26  46  75 103 136 185 223 275 354 415
#
# _framework density 22.811568000000001
#
# number of rings (size 3 to 8) (size 9 to 14) (size 15 to 20)
#    0.000    1.333    0.833    4.000    2.333    4.000 
#    0.000    0.000    0.000    0.000    0.000    0.000 
#    0.000    0.000    0.000    0.000    0.000    0.000 
#
# Total GULP energy -297494.542384 kJ/mol
# GULP energy per Si atom -12395.605933 kJ/mol
# Density = 2.275965 g / cm^3
# Si number density = 22.811568 Si / 1000 Ang^3
#
#
#
# Elastic Constant Matrix: (Units=GPa)
#
#
# Indices 1 2 3 4 5 6 
#
# 1 188.9421 50.8013 51.0416 0.0000 0.0000 0.0000
# 2 50.8013 79.2786 44.1782 0.0000 0.0000 0.0000
# 3 51.0416 44.1782 117.9267 0.0000 0.0000 0.0000
# 4 0.0000 0.0000 0.0000 35.9647 0.0000 0.0000
# 5 0.0000 0.0000 0.0000 0.0000 44.6950 0.0000
# 6 0.0000 0.0000 0.0000 0.0000 0.0000 21.2009
#
#
#
# Elastic Compliance Matrix: (Units=1/GPa)
#
#
# Indices 1 2 3 4 5 6 
#
# 1 0.006629 -0.003348 -0.001615 0.000000 0.000000 0.000000
# 2 -0.003348 0.017633 -0.005157 0.000000 0.000000 0.000000
# 3 -0.001615 -0.005157 0.011111 0.000000 0.000000 0.000000
# 4 0.000000 0.000000 0.000000 0.027805 0.000000 0.000000
# 5 0.000000 0.000000 0.000000 0.000000 0.022374 0.000000
# 6 0.000000 0.000000 0.000000 0.000000 0.000000 0.047168
#
#
# Mechanical properties :
#
#
# Convention : Reuss Voigt Hill
#
# Bulk Modulus (GPa) = 66.07919 75.35438 70.71679
# Shear Modulus (GPa) = 31.64511 36.38054 34.01283
#
# Velocity S-wave (km/s) = 3.72861 3.99786 3.86558
# Velocity P-wave (km/s) = 6.89688 7.37670 7.14082
#
# Compressibility (1/GPa) = 0.01513336
#
# Stress axis : x y z
#
# Youngs Moduli (GPa) = 150.85067 56.71331 90.00395
#
# Poissons Ratio (x) = 0.18987 0.14536
# Poissons Ratio (y) = 0.50503 0.46411
# Poissons Ratio (z) = 0.24363 0.29244
#
# Static dielectric constant tensor:
#      x y z
#    x 6.598810 0.000000 0.000000 
#    y 0.000000 4.349090 0.000000 
#    z 0.000000 0.000000 3.924300 
# 
# 
# High freq. dielectric constant tensor:
#      x y z
#    x 1.925720 0.000000 0.000000 
#    y 0.000000 1.914700 0.000000 
#    z 0.000000 0.000000 1.888580 
# 
# From -- ./inp_files/16511.got.cif
#   From: 2010.03.12/outbox.cif.g09.slc.cpg/sg39_9_cif.got.tgz:16511.got - 2010.04.14 02:53:20.
