data_PCOD8181437
_publ_section_title
;
Structure prediction by ZEFSAII (Michael W. Deem and Ramdas Pophale) SiO2 
 PCOD8181437
Probable space group: A B M 2
;
_chemical_formula_sum "Si O2"
_cell_formula_units_Z 64
_cell_length_a 20.477110
_cell_length_b 8.729564
_cell_length_c 18.391731
_cell_angle_alpha 90.000000
_cell_angle_beta 90.000000
_cell_angle_gamma 90.000000
_cell_volume 3287.636723
_symmetry_space_group_name_H-M "A B M 2"
_symmetry_group_IT_number 39
_symmetry_cell_setting 'orthorhombic'
loop_
_space_group_symop_operation_xyz
x,y,z
-x,-y,z
-x,1/2+y,z
x,1/2-y,z
x,1/2+y,1/2+z
-x,1/2-y,1/2+z
-x,y,1/2+z
x,-y,1/2+z
loop_
_atom_site_type_symbol
_atom_site_label
_atom_site_fract_x
_atom_site_fract_y
_atom_site_fract_z
Si Si1 0.813390 0.929357 0.721580
Si Si2 0.191801 0.931748 0.386308
Si Si3 0.568910 0.929917 0.730398
Si Si4 0.067368 0.568658 0.472665
Si Si5 0.932826 0.930076 0.137986
Si Si6 0.682513 0.430143 0.473111
Si Si7 0.312167 0.072410 0.627096
Si Si8 0.430263 0.068853 0.383199
O O1 0.828664 0.750000 0.719774
O O2 0.804909 0.989492 0.803689
O O3 0.747405 0.969812 0.679571
O O4 0.873422 0.017129 0.686939
O O5 0.191005 0.750000 0.390435
O O6 0.126625 0.997370 0.424446
O O7 0.254996 0.992816 0.429053
O O8 0.561020 0.750000 0.743684
O O9 0.620881 0.966844 0.668203
O O10 0.500000 0.000000 0.705321
O O11 0.593463 0.004124 0.805590
O O12 0.063268 0.750000 0.467540
O O13 0.079103 0.513604 0.555409
O O14 0.000000 0.500000 0.441863
O O15 0.938922 0.750000 0.141836
O O16 0.000000 0.000000 0.168772
O O17 0.672152 0.250000 0.461370
O O18 0.693306 0.464726 0.557534
O O19 0.619545 0.520785 0.445745
O O20 0.309997 0.250000 0.603898
O O21 0.435838 0.250000 0.378786
O O22 0.500000 0.000000 0.404582
#
# Coordination Sequence:
#
# PCOD8181437 Si02
#       8
#     8   8   8   8   8   8   8   8
#     4  10  20  36  57  79 108 145 183 227 279 332
#     4   9  19  36  57  80 108 144 182 223 275 331
#     4  10  20  37  60  85 115 150 187 228 277 332
#     4   9  18  34  55  78 106 140 179 221 266 320
#     4  10  20  35  55  80 109 142 181 225 274 330
#     4  11  22  38  60  83 111 149 191 234 282 335
#     4  10  22  38  56  81 115 152 190 234 283 335
#     4  11  22  38  60  86 116 148 186 230 278 335
#
# _framework density 19.466871999999999
#
# number of rings (size 3 to 8) (size 9 to 14) (size 15 to 20)
#    0.000    2.000    0.000    4.500    0.000    6.000 
#    0.000    6.875    0.000    0.000    0.000    0.000 
#    0.000    0.000    0.000    0.000    0.000    0.000 
#
# Total GULP energy -396933.618412 kJ/mol
# GULP energy per Si atom -12404.175575 kJ/mol
# Density = 1.942256 g / cm^3
# Si number density = 19.466872 Si / 1000 Ang^3
#
#
#
# Elastic Constant Matrix: (Units=GPa)
#
#
# Indices 1 2 3 4 5 6 
#
# 1 144.2390 46.4365 77.2408 0.0000 0.0000 0.0000
# 2 46.4365 75.1642 39.5268 0.0000 0.0000 0.0000
# 3 77.2408 39.5268 123.7787 0.0000 0.0000 0.0000
# 4 0.0000 0.0000 0.0000 25.3279 0.0000 0.0000
# 5 0.0000 0.0000 0.0000 0.0000 47.8038 0.0000
# 6 0.0000 0.0000 0.0000 0.0000 0.0000 30.0558
#
#
#
# Elastic Compliance Matrix: (Units=1/GPa)
#
#
# Indices 1 2 3 4 5 6 
#
# 1 0.011304 -0.003935 -0.005798 0.000000 0.000000 0.000000
# 2 -0.003935 0.017359 -0.003088 0.000000 0.000000 0.000000
# 3 -0.005798 -0.003088 0.012683 0.000000 0.000000 0.000000
# 4 0.000000 0.000000 0.000000 0.039482 0.000000 0.000000
# 5 0.000000 0.000000 0.000000 0.000000 0.020919 0.000000
# 6 0.000000 0.000000 0.000000 0.000000 0.000000 0.033271
#
#
# Mechanical properties :
#
#
# Convention : Reuss Voigt Hill
#
# Bulk Modulus (GPa) = 63.67241 74.39887 69.03564
# Shear Modulus (GPa) = 30.13956 32.63603 31.38780
#
# Velocity S-wave (km/s) = 3.93905 4.09894 4.01979
# Velocity P-wave (km/s) = 7.31213 7.79121 7.55547
#
# Compressibility (1/GPa) = 0.01570539
#
# Stress axis : x y z
#
# Youngs Moduli (GPa) = 88.46057 57.60678 78.84677
#
# Poissons Ratio (x) = 0.22669 0.45713
# Poissons Ratio (y) = 0.34810 0.24346
# Poissons Ratio (z) = 0.51286 0.17788
#
# Static dielectric constant tensor:
#      x y z
#    x 3.522340 0.000000 0.000000 
#    y 0.000000 3.390350 0.000000 
#    z 0.000000 0.000000 3.592980 
# 
# 
# High freq. dielectric constant tensor:
#      x y z
#    x 1.773620 0.000000 0.000000 
#    y 0.000000 1.747720 0.000000 
#    z 0.000000 0.000000 1.758660 
# 
# From -- ./inp_files/13182.got.cif
#   From: 2010.03.12/outbox.cif.g09.slc.cpg/sg39_7_cif.got.tgz:13182.got - 2010.04.14 02:53:20.
