data_PCOD8181067
_publ_section_title
;
Structure prediction by ZEFSAII (Michael W. Deem and Ramdas Pophale) SiO2 
 PCOD8181067
Probable space group: A B M 2
;
_chemical_formula_sum "Si O2"
_cell_formula_units_Z 64
_cell_length_a 18.971640
_cell_length_b 18.564441
_cell_length_c 9.164779
_cell_angle_alpha 90.000000
_cell_angle_beta 90.000000
_cell_angle_gamma 90.000000
_cell_volume 3227.815839
_symmetry_space_group_name_H-M "A B M 2"
_symmetry_group_IT_number 39
_symmetry_cell_setting 'orthorhombic'
loop_
_space_group_symop_operation_xyz
x,y,z
-x,-y,z
-x,1/2+y,z
x,1/2-y,z
x,1/2+y,1/2+z
-x,1/2-y,1/2+z
-x,y,1/2+z
x,-y,1/2+z
loop_
_atom_site_type_symbol
_atom_site_label
_atom_site_fract_x
_atom_site_fract_y
_atom_site_fract_z
Si Si1 0.570916 0.933288 0.628040
Si Si2 0.553980 0.583872 0.292496
Si Si3 0.295610 0.593023 0.755183
Si Si4 0.719547 0.038610 0.065257
Si Si5 0.842579 0.668352 0.205441
Si Si6 0.048390 0.834118 0.963347
Si Si7 0.090321 0.071551 0.977414
Si Si8 0.125420 0.565416 0.152156
O O1 0.542660 0.932228 0.462341
O O2 0.518530 0.881270 0.724671
O O3 0.654341 0.913418 0.631684
O O4 0.565887 0.011829 0.698882
O O5 0.626041 0.629742 0.263193
O O6 0.284738 0.545003 0.610975
O O7 0.235956 0.654269 0.766057
O O8 0.287251 0.538256 0.890776
O O9 0.793116 0.072821 0.111267
O O10 0.848745 0.750000 0.156216
O O11 0.901880 0.650216 0.325203
O O12 0.854299 0.620564 0.063169
O O13 0.027884 0.750000 0.977808
O O14 0.980582 0.884315 0.948760
O O15 0.089300 0.858450 0.109956
O O16 0.122270 0.049490 0.822679
O O17 0.082328 0.997274 0.066912
#
# Coordination Sequence:
#
# PCOD8181067 Si02
#       8
#     8   8   8   8   8   8   8   8
#     4   9  16  26  43  74 111 147 179 220 276 339
#     4   9  16  26  44  73 111 147 184 221 276 341
#     4  10  19  34  54  81 114 154 188 235 289 344
#     4  10  19  33  54  81 119 147 186 229 288 344
#     4  11  23  41  61  83 115 154 201 245 294 354
#     4  11  25  44  63  83 115 154 194 241 293 351
#     4  12  25  40  61  89 116 149 194 243 297 344
#     4  12  23  40  62  89 119 151 191 240 291 352
#
# _framework density 19.827649000000001
#
# number of rings (size 3 to 8) (size 9 to 14) (size 15 to 20)
#    0.000    1.500    2.500    4.500    0.000    4.000 
#    0.000    0.000    0.000    0.000    0.000    4.375 
#    0.000    0.000    0.000    0.000    0.000    0.000 
#
# Total GULP energy -396487.099797 kJ/mol
# GULP energy per Si atom -12390.221869 kJ/mol
# Density = 1.978252 g / cm^3
# Si number density = 19.827649 Si / 1000 Ang^3
#
#
#
# Elastic Constant Matrix: (Units=GPa)
#
#
# Indices 1 2 3 4 5 6 
#
# 1 159.6359 38.4789 28.9285 0.0000 0.0000 0.0000
# 2 38.4789 56.5509 34.6030 0.0000 0.0000 0.0000
# 3 28.9285 34.6030 116.1701 0.0000 0.0000 0.0000
# 4 0.0000 0.0000 0.0000 19.7837 0.0000 0.0000
# 5 0.0000 0.0000 0.0000 0.0000 29.7012 0.0000
# 6 0.0000 0.0000 0.0000 0.0000 0.0000 10.0961
#
#
#
# Elastic Compliance Matrix: (Units=1/GPa)
#
#
# Indices 1 2 3 4 5 6 
#
# 1 0.007510 -0.004850 -0.000426 0.000000 0.000000 0.000000
# 2 -0.004850 0.024756 -0.006166 0.000000 0.000000 0.000000
# 3 -0.000426 -0.006166 0.010551 0.000000 0.000000 0.000000
# 4 0.000000 0.000000 0.000000 0.050547 0.000000 0.000000
# 5 0.000000 0.000000 0.000000 0.000000 0.033669 0.000000
# 6 0.000000 0.000000 0.000000 0.000000 0.000000 0.099048
#
#
# Mechanical properties :
#
#
# Convention : Reuss Voigt Hill
#
# Bulk Modulus (GPa) = 50.16592 59.59753 54.88173
# Shear Modulus (GPa) = 19.56111 27.27263 23.41687
#
# Velocity S-wave (km/s) = 3.14436 3.71278 3.44033
# Velocity P-wave (km/s) = 6.20794 6.96438 6.59702
#
# Compressibility (1/GPa) = 0.01993385
#
# Stress axis : x y z
#
# Youngs Moduli (GPa) = 133.14858 40.39375 94.77962
#
# Poissons Ratio (x) = 0.19590 0.04034
# Poissons Ratio (y) = 0.64575 0.58444
# Poissons Ratio (z) = 0.05667 0.24908
#
# Static dielectric constant tensor:
#      x y z
#    x 4.728210 0.000000 0.000000 
#    y 0.000000 3.157260 0.000000 
#    z 0.000000 0.000000 3.741330 
# 
# 
# High freq. dielectric constant tensor:
#      x y z
#    x 1.805350 0.000000 0.000000 
#    y 0.000000 1.707380 0.000000 
#    z 0.000000 0.000000 1.784120 
# 
# From -- ./inp_files/4033.got.cif
#   From: 2010.03.12/outbox.cif.g09.slc.cpg/sg39_3_cif.got.tgz:4033.got - 2010.04.14 02:53:20.
