data_PCOD8181754
_publ_section_title
;
Structure prediction by ZEFSAII (Michael W. Deem and Ramdas Pophale) SiO2 
 PCOD8181754
Probable space group: A B M 2
;
_chemical_formula_sum "Si O2"
_cell_formula_units_Z 48
_cell_length_a 30.639910
_cell_length_b 14.035759
_cell_length_c 5.112300
_cell_angle_alpha 90.000000
_cell_angle_beta 90.000000
_cell_angle_gamma 90.000000
_cell_volume 2198.567071
_symmetry_space_group_name_H-M "A B M 2"
_symmetry_group_IT_number 39
_symmetry_cell_setting 'orthorhombic'
loop_
_space_group_symop_operation_xyz
x,y,z
-x,-y,z
-x,1/2+y,z
x,1/2-y,z
x,1/2+y,1/2+z
-x,1/2-y,1/2+z
-x,y,1/2+z
x,-y,1/2+z
loop_
_atom_site_type_symbol
_atom_site_label
_atom_site_fract_x
_atom_site_fract_y
_atom_site_fract_z
Si Si1 0.527859 0.639543 0.071160
Si Si2 0.324271 0.750000 0.624004
Si Si3 0.732426 0.250000 0.124059
Si Si4 0.977686 0.140589 0.150066
Si Si5 0.790184 0.064179 0.109524
Si Si6 0.112042 0.941034 0.053878
Si Si7 0.621884 0.940332 0.116834
O O1 0.541224 0.750000 0.090497
O O2 0.492457 0.613944 0.291243
O O3 0.570240 0.575975 0.110889
O O4 0.284437 0.750000 0.420747
O O5 0.353480 0.657990 0.573041
O O6 0.307361 0.750000 0.920573
O O7 0.760227 0.155577 0.074265
O O8 0.991228 0.250000 0.163971
O O9 0.925498 0.134262 0.121103
O O10 0.995951 0.090547 0.412322
O O11 0.839963 0.102927 0.098610
O O12 0.780483 0.012319 0.383043
O O13 0.106731 0.030113 0.251018
O O14 0.635915 0.986620 0.390396
#
# Coordination Sequence:
#
# PCOD8181754 Si02
#       7
#     8   4   4   8   8   8   8
#     4  10  21  39  65  95 133 174 218 272 313 363
#     4  12  28  48  64 103 132 161 228 260 316 406
#     4  12  26  44  76  93 124 177 202 262 342 382
#     4  10  21  35  52  80 116 156 199 240 284 351
#     4  10  23  43  66  99 129 155 211 266 315 388
#     4  10  21  37  58  85 117 153 193 248 301 356
#     4  12  26  44  69  97 135 180 216 267 324 373
#
# _framework density 21.832401999999998
#
# number of rings (size 3 to 8) (size 9 to 14) (size 15 to 20)
#    0.000    1.333    0.833    4.000    1.167    8.000 
#    0.000    0.000    0.000    0.000    0.000    0.000 
#    0.000    0.000    0.000    0.000    0.000    0.000 
#
# Total GULP energy -297681.936265 kJ/mol
# GULP energy per Si atom -12403.414011 kJ/mol
# Density = 2.178271 g / cm^3
# Si number density = 21.832402 Si / 1000 Ang^3
#
#
#
# Elastic Constant Matrix: (Units=GPa)
#
#
# Indices 1 2 3 4 5 6 
#
# 1 88.3028 40.9448 16.0567 0.0000 0.0000 0.0000
# 2 40.9448 80.7005 13.2588 0.0000 0.0000 0.0000
# 3 16.0567 13.2588 116.9691 0.0000 0.0000 0.0000
# 4 0.0000 0.0000 0.0000 21.7053 0.0000 0.0000
# 5 0.0000 0.0000 0.0000 0.0000 22.8579 0.0000
# 6 0.0000 0.0000 0.0000 0.0000 0.0000 23.0356
#
#
#
# Elastic Compliance Matrix: (Units=1/GPa)
#
#
# Indices 1 2 3 4 5 6 
#
# 1 0.014977 -0.007399 -0.001217 0.000000 0.000000 0.000000
# 2 -0.007399 0.016282 -0.000830 0.000000 0.000000 0.000000
# 3 -0.001217 -0.000830 0.008810 0.000000 0.000000 0.000000
# 4 0.000000 0.000000 0.000000 0.046072 0.000000 0.000000
# 5 0.000000 0.000000 0.000000 0.000000 0.043748 0.000000
# 6 0.000000 0.000000 0.000000 0.000000 0.000000 0.043411
#
#
# Mechanical properties :
#
#
# Convention : Reuss Voigt Hill
#
# Bulk Modulus (GPa) = 47.22082 47.38811 47.30447
# Shear Modulus (GPa) = 25.09401 27.90059 26.49730
#
# Velocity S-wave (km/s) = 3.39395 3.57871 3.48755
# Velocity P-wave (km/s) = 6.08558 6.23127 6.15886
#
# Compressibility (1/GPa) = 0.02117710
#
# Stress axis : x y z
#
# Youngs Moduli (GPa) = 66.77044 61.41858 113.50182
#
# Poissons Ratio (x) = 0.45442 0.13816
# Poissons Ratio (y) = 0.49401 0.09420
# Poissons Ratio (z) = 0.08127 0.05097
#
# Static dielectric constant tensor:
#      x y z
#    x 3.946560 0.000000 0.000000 
#    y 0.000000 3.722410 0.000000 
#    z 0.000000 0.000000 4.278710 
# 
# 
# High freq. dielectric constant tensor:
#      x y z
#    x 1.862530 0.000000 0.000000 
#    y 0.000000 1.852110 0.000000 
#    z 0.000000 0.000000 1.878060 
# 
# From -- ./inp_files/1395.got.cif
#   From: 2010.03.12/outbox.cif.g09.slc.cpg/sg39_1_cif.got.tgz:1395.got - 2010.04.14 02:53:20.
