data_PCOD8181149
_publ_section_title
;
Structure prediction by ZEFSAII (Michael W. Deem and Ramdas Pophale) SiO2 
 PCOD8181149
Probable space group: A B M 2
;
_chemical_formula_sum "Si O2"
_cell_formula_units_Z 64
_cell_length_a 24.202480
_cell_length_b 9.045257
_cell_length_c 15.210019
_cell_angle_alpha 90.000000
_cell_angle_beta 90.000000
_cell_angle_gamma 90.000000
_cell_volume 3329.741641
_symmetry_space_group_name_H-M "A B M 2"
_symmetry_group_IT_number 39
_symmetry_cell_setting 'orthorhombic'
loop_
_space_group_symop_operation_xyz
x,y,z
-x,-y,z
-x,1/2+y,z
x,1/2-y,z
x,1/2+y,1/2+z
-x,1/2-y,1/2+z
-x,y,1/2+z
x,-y,1/2+z
loop_
_atom_site_type_symbol
_atom_site_label
_atom_site_fract_x
_atom_site_fract_y
_atom_site_fract_z
Si Si1 0.169873 0.421777 0.806480
Si Si2 0.631977 0.076542 0.461343
Si Si3 0.557330 0.075326 0.820791
Si Si4 0.444238 0.578172 0.620795
Si Si5 0.832811 0.922544 0.609971
Si Si6 0.945085 0.919225 0.068904
Si Si7 0.241168 0.575185 0.466394
Si Si8 0.946413 0.417046 0.360362
O O1 0.162421 0.250000 0.827963
O O2 0.191110 0.448592 0.707981
O O3 0.214740 0.484554 0.875240
O O4 0.109136 0.493323 0.821662
O O5 0.625564 0.250000 0.441419
O O6 0.604377 0.032535 0.554275
O O7 0.695308 0.027619 0.467526
O O8 0.605681 0.986334 0.381542
O O9 0.551598 0.250000 0.833773
O O10 0.572282 0.032512 0.720091
O O11 0.500000 0.000000 0.849192
O O12 0.500000 0.500000 0.589419
O O13 0.456830 0.750000 0.616029
O O14 0.838786 0.750000 0.587409
O O15 0.892606 0.996125 0.606905
O O16 0.789268 0.997459 0.546397
O O17 0.944872 0.750000 0.101431
O O18 0.942528 0.927754 0.964567
O O19 0.000000 0.000000 0.104548
O O20 0.234399 0.750000 0.478194
O O21 0.952326 0.250000 0.327439
O O22 0.000000 0.500000 0.323249
#
# Coordination Sequence:
#
# PCOD8181149 Si02
#       8
#     8   8   8   8   8   8   8   8
#     4   9  19  37  57  77 106 145 182 224 278 334
#     4  10  21  36  58  83 109 147 192 231 275 328
#     4  10  20  35  56  82 117 149 180 224 273 325
#     4   9  19  35  54  82 115 148 181 222 273 326
#     4  11  22  36  57  83 110 141 184 233 278 328
#     4  10  19  34  57  82 111 145 179 220 276 337
#     4  10  21  41  60  76 108 151 190 230 277 330
#     4   9  17  32  54  77 104 138 174 214 266 328
#
# _framework density 19.220708999999999
#
# number of rings (size 3 to 8) (size 9 to 14) (size 15 to 20)
#    0.000    2.250    1.250    1.500    0.000    4.500 
#    0.000    3.750    0.000    0.000    0.000    0.000 
#    0.000    0.000    0.000    0.000    0.000    0.000 
#
# Total GULP energy -396823.409595 kJ/mol
# GULP energy per Si atom -12400.731550 kJ/mol
# Density = 1.917696 g / cm^3
# Si number density = 19.220709 Si / 1000 Ang^3
#
#
#
# Elastic Constant Matrix: (Units=GPa)
#
#
# Indices 1 2 3 4 5 6 
#
# 1 174.3914 59.8191 87.5611 0.0000 0.0000 0.0000
# 2 59.8191 68.7193 44.8828 0.0000 0.0000 0.0000
# 3 87.5611 44.8828 109.9169 0.0000 0.0000 0.0000
# 4 0.0000 0.0000 0.0000 23.7227 0.0000 0.0000
# 5 0.0000 0.0000 0.0000 0.0000 7.1946 0.0000
# 6 0.0000 0.0000 0.0000 0.0000 0.0000 30.4727
#
#
#
# Elastic Compliance Matrix: (Units=1/GPa)
#
#
# Indices 1 2 3 4 5 6 
#
# 1 0.010736 -0.005127 -0.006459 0.000000 0.000000 0.000000
# 2 -0.005127 0.022293 -0.005019 0.000000 0.000000 0.000000
# 3 -0.006459 -0.005019 0.016292 0.000000 0.000000 0.000000
# 4 0.000000 0.000000 0.000000 0.042154 0.000000 0.000000
# 5 0.000000 0.000000 0.000000 0.000000 0.138992 0.000000
# 6 0.000000 0.000000 0.000000 0.000000 0.000000 0.032816
#
#
# Mechanical properties :
#
#
# Convention : Reuss Voigt Hill
#
# Bulk Modulus (GPa) = 62.06570 81.95041 72.00806
# Shear Modulus (GPa) = 16.56385 22.99565 19.77975
#
# Velocity S-wave (km/s) = 2.93878 3.46265 3.21142
# Velocity P-wave (km/s) = 6.62392 7.66262 7.16213
#
# Compressibility (1/GPa) = 0.01611196
#
# Stress axis : x y z
#
# Youngs Moduli (GPa) = 93.14694 44.85760 61.37910
#
# Poissons Ratio (x) = 0.22998 0.39643
# Poissons Ratio (y) = 0.47755 0.30805
# Poissons Ratio (z) = 0.60161 0.22513
#
# Static dielectric constant tensor:
#      x y z
#    x 3.608840 0.000000 0.000000 
#    y 0.000000 3.436570 0.000000 
#    z 0.000000 0.000000 3.579260 
# 
# 
# High freq. dielectric constant tensor:
#      x y z
#    x 1.747540 0.000000 0.000000 
#    y 0.000000 1.734760 0.000000 
#    z 0.000000 0.000000 1.753830 
# 
# From -- ./inp_files/10557.got.cif
#   From: 2010.03.12/outbox.cif.g09.slc.cpg/sg39_6_cif.got.tgz:10557.got - 2010.04.14 02:53:20.
