data_PCOD8181235
_publ_section_title
;
Structure prediction by ZEFSAII (Michael W. Deem and Ramdas Pophale) SiO2 
 PCOD8181235
Probable space group: A B M 2
;
_chemical_formula_sum "Si O2"
_cell_formula_units_Z 60
_cell_length_a 18.771279
_cell_length_b 18.814597
_cell_length_c 9.089289
_cell_angle_alpha 90.000000
_cell_angle_beta 90.000000
_cell_angle_gamma 90.000000
_cell_volume 3210.101004
_symmetry_space_group_name_H-M "A B M 2"
_symmetry_group_IT_number 39
_symmetry_cell_setting 'orthorhombic'
loop_
_space_group_symop_operation_xyz
x,y,z
-x,-y,z
-x,1/2+y,z
x,1/2-y,z
x,1/2+y,1/2+z
-x,1/2-y,1/2+z
-x,y,1/2+z
x,-y,1/2+z
loop_
_atom_site_type_symbol
_atom_site_label
_atom_site_fract_x
_atom_site_fract_y
_atom_site_fract_z
Si Si1 0.208689 0.583652 0.332350
Si Si2 0.736128 0.457893 0.645829
Si Si3 0.931147 0.833479 0.409327
Si Si4 0.776316 0.830668 0.334406
Si Si5 0.402966 0.450144 0.598693
Si Si6 0.698512 0.329265 0.134083
Si Si7 0.500000 0.000000 0.845182
Si Si8 0.928607 0.664747 0.742085
O O1 0.223597 0.559853 0.496883
O O2 0.214189 0.514677 0.228565
O O3 0.268602 0.640015 0.283648
O O4 0.132844 0.622142 0.326508
O O5 0.728617 0.385715 0.741510
O O6 0.657113 0.488542 0.615587
O O7 0.935750 0.750000 0.424203
O O8 0.858961 0.854277 0.322805
O O9 0.931512 0.863399 0.574982
O O10 0.998272 0.860980 0.317346
O O11 0.764208 0.750000 0.275056
O O12 0.757705 0.833913 0.506758
O O13 0.370252 0.372541 0.585334
O O14 0.455036 0.448380 0.739173
O O15 0.445552 0.457455 0.447280
O O16 0.672804 0.250000 0.164246
O O17 0.915913 0.750000 0.754971
#
# Coordination Sequence:
#
# PCOD8181235 Si02
#       8
#     8   8   8   8   8   8   4   8
#     4  11  22  36  58  81 113 153 196 247 287 340
#     4  11  23  38  59  85 115 149 190 241 291 336
#     4   9  19  34  55  81 111 148 191 238 286 341
#     4  10  20  36  59  84 114 150 192 242 292 341
#     4  10  20  37  59  87 112 149 187 227 274 338
#     4  10  19  36  60  86 117 151 187 233 286 334
#     4  10  20  36  62  84 112 146 190 224 268 340
#     4  10  20  36  58  82 110 151 198 241 289 346
#
# _framework density 18.690999999999999
#
# number of rings (size 3 to 8) (size 9 to 14) (size 15 to 20)
#    0.000    1.867    1.333    4.400    1.867    1.067 
#    0.000    1.333    0.000    3.200    0.000    0.000 
#    0.000    0.000    0.000    0.000    0.000    0.000 
#
# Total GULP energy -371984.355482 kJ/mol
# GULP energy per Si atom -12399.478516 kJ/mol
# Density = 1.864846 g / cm^3
# Si number density = 18.691000 Si / 1000 Ang^3
#
#
#
# Elastic Constant Matrix: (Units=GPa)
#
#
# Indices 1 2 3 4 5 6 
#
# 1 86.5518 45.1443 18.9818 0.0000 0.0000 0.0000
# 2 45.1443 112.4818 40.8080 0.0000 0.0000 0.0000
# 3 18.9818 40.8080 92.8820 0.0000 0.0000 0.0000
# 4 0.0000 0.0000 0.0000 22.9309 0.0000 0.0000
# 5 0.0000 0.0000 0.0000 0.0000 19.2085 0.0000
# 6 0.0000 0.0000 0.0000 0.0000 0.0000 21.7789
#
#
#
# Elastic Compliance Matrix: (Units=1/GPa)
#
#
# Indices 1 2 3 4 5 6 
#
# 1 0.014631 -0.005695 -0.000488 0.000000 0.000000 0.000000
# 2 -0.005695 0.012793 -0.004457 0.000000 0.000000 0.000000
# 3 -0.000488 -0.004457 0.012824 0.000000 0.000000 0.000000
# 4 0.000000 0.000000 0.000000 0.043609 0.000000 0.000000
# 5 0.000000 0.000000 0.000000 0.000000 0.052060 0.000000
# 6 0.000000 0.000000 0.000000 0.000000 0.000000 0.045916
#
#
# Mechanical properties :
#
#
# Convention : Reuss Voigt Hill
#
# Bulk Modulus (GPa) = 52.71842 55.75376 54.23609
# Shear Modulus (GPa) = 23.87356 25.24909 24.56133
#
# Velocity S-wave (km/s) = 3.57778 3.67940 3.62895
# Velocity P-wave (km/s) = 6.73304 6.92421 6.82929
#
# Compressibility (1/GPa) = 0.01896870
#
# Stress axis : x y z
#
# Youngs Moduli (GPa) = 68.34644 78.16782 77.97796
#
# Poissons Ratio (x) = 0.44518 0.03805
# Poissons Ratio (y) = 0.38925 0.34753
# Poissons Ratio (z) = 0.03335 0.34837
#
# Static dielectric constant tensor:
#      x y z
#    x 3.563680 0.000000 0.000000 
#    y 0.000000 3.397640 0.000000 
#    z 0.000000 0.000000 3.522940 
# 
# 
# High freq. dielectric constant tensor:
#      x y z
#    x 1.725250 0.000000 0.000000 
#    y 0.000000 1.710080 0.000000 
#    z 0.000000 0.000000 1.732640 
# 
# From -- ./inp_files/3807.got.cif
#   From: 2010.03.12/outbox.cif.g09.slc.cpg/sg39_2_cif.got.tgz:3807.got - 2010.04.14 02:53:20.
