data_PCOD8181810
_publ_section_title
;
Structure prediction by ZEFSAII (Michael W. Deem and Ramdas Pophale) SiO2 
 PCOD8181810
Probable space group: A B M 2
;
_chemical_formula_sum "Si O2"
_cell_formula_units_Z 64
_cell_length_a 35.215531
_cell_length_b 9.185833
_cell_length_c 10.071536
_cell_angle_alpha 90.000000
_cell_angle_beta 90.000000
_cell_angle_gamma 90.000000
_cell_volume 3257.980618
_symmetry_space_group_name_H-M "A B M 2"
_symmetry_group_IT_number 39
_symmetry_cell_setting 'orthorhombic'
loop_
_space_group_symop_operation_xyz
x,y,z
-x,-y,z
-x,1/2+y,z
x,1/2-y,z
x,1/2+y,1/2+z
-x,1/2-y,1/2+z
-x,y,1/2+z
x,-y,1/2+z
loop_
_atom_site_type_symbol
_atom_site_label
_atom_site_fract_x
_atom_site_fract_y
_atom_site_fract_z
Si Si1 0.538523 0.419329 0.853850
Si Si2 0.206942 0.421394 0.402706
Si Si3 0.833306 0.080133 0.169457
Si Si4 0.919767 0.582193 0.623479
Si Si5 0.706942 0.578606 0.402706
Si Si6 0.666694 0.080133 0.169458
Si Si7 0.419767 0.582193 0.123481
Si Si8 0.961477 0.419329 0.853849
O O1 0.500000 0.500000 0.893249
O O2 0.529788 0.250000 0.831563
O O3 0.555040 0.482662 0.718117
O O4 0.568401 0.445029 0.971716
O O5 0.203239 0.250000 0.383353
O O6 0.179063 0.495620 0.299535
O O7 0.193926 0.467463 0.549375
O O8 0.250000 0.475374 0.381723
O O9 0.829621 0.250000 0.198943
O O10 0.876098 0.035582 0.134305
O O11 0.925974 0.750000 0.664197
O O12 0.944960 0.482662 0.718115
O O13 0.931599 0.554970 0.471715
O O14 0.703240 0.750000 0.383354
O O15 0.679063 0.504379 0.299536
O O16 0.693926 0.532537 0.549375
O O17 0.670379 0.250000 0.198944
O O18 0.623902 0.035581 0.134306
O O19 0.425974 0.750000 0.164199
O O20 0.970212 0.250000 0.831562
O O21 0.000000 0.500000 0.893247
#
# Coordination Sequence:
#
# PCOD8181810 Si02
#       8
#     8   8   8   8   8   8   8   8
#     4  11  23  39  60  85 114 148 186 229 278 332
#     4  10  21  37  57  83 115 149 187 232 280 331
#     4  10  21  38  59  83 113 148 187 232 280 331
#     4  10  22  39  59  85 114 146 187 232 279 332
#     4  10  21  37  57  83 115 149 187 232 280 331
#     4  10  21  38  59  83 113 148 187 232 280 331
#     4  10  22  39  59  85 114 146 187 232 279 332
#     4  11  23  39  60  85 114 148 186 229 278 332
#
# _framework density 19.644071
#
# number of rings (size 3 to 8) (size 9 to 14) (size 15 to 20)
#    0.000    1.750    0.000    3.750    0.000    9.500 
#    0.000    0.000    0.000    0.000    0.000    0.000 
#    0.000    0.000    0.000    0.000    0.000    0.000 
#
# Total GULP energy -397003.790539 kJ/mol
# GULP energy per Si atom -12406.368454 kJ/mol
# Density = 1.959936 g / cm^3
# Si number density = 19.644071 Si / 1000 Ang^3
#
#
#
# Elastic Constant Matrix: (Units=GPa)
#
#
# Indices 1 2 3 4 5 6 
#
# 1 94.3238 31.8613 9.3299 0.0000 0.0000 0.0000
# 2 31.8613 62.8540 32.5397 0.0000 0.0000 0.0000
# 3 9.3299 32.5397 71.6901 0.0000 0.0000 0.0000
# 4 0.0000 0.0000 0.0000 33.7367 0.0000 0.0000
# 5 0.0000 0.0000 0.0000 0.0000 43.0108 0.0000
# 6 0.0000 0.0000 0.0000 0.0000 0.0000 30.0357
#
#
#
# Elastic Compliance Matrix: (Units=1/GPa)
#
#
# Indices 1 2 3 4 5 6 
#
# 1 0.012947 -0.007439 0.001691 0.000000 0.000000 0.000000
# 2 -0.007439 0.025071 -0.010411 0.000000 0.000000 0.000000
# 3 0.001691 -0.010411 0.018454 0.000000 0.000000 0.000000
# 4 0.000000 0.000000 0.000000 0.029641 0.000000 0.000000
# 5 0.000000 0.000000 0.000000 0.000000 0.023250 0.000000
# 6 0.000000 0.000000 0.000000 0.000000 0.000000 0.033294
#
#
# Mechanical properties :
#
#
# Convention : Reuss Voigt Hill
#
# Bulk Modulus (GPa) = 41.39926 41.81441 41.60684
# Shear Modulus (GPa) = 27.31852 31.69911 29.50881
#
# Velocity S-wave (km/s) = 3.73322 4.02141 3.87999
# Velocity P-wave (km/s) = 6.30103 6.54940 6.42641
#
# Compressibility (1/GPa) = 0.02415502
#
# Stress axis : x y z
#
# Youngs Moduli (GPa) = 77.23702 39.88738 54.18753
#
# Poissons Ratio (x) = 0.29671 -0.09165
# Poissons Ratio (y) = 0.57454 0.56416
# Poissons Ratio (z) = -0.13064 0.41528
#
# Static dielectric constant tensor:
#      x y z
#    x 3.825170 0.000000 0.000000 
#    y 0.000000 3.523330 0.000000 
#    z 0.000000 0.000000 3.515900 
# 
# 
# High freq. dielectric constant tensor:
#      x y z
#    x 1.782800 0.000000 0.000000 
#    y 0.000000 1.760540 0.000000 
#    z 0.000000 0.000000 1.774930 
# 
# From -- ./inp_files/7084.got.cif
#   From: 2010.03.12/outbox.cif.g09.slc.cpg/sg39_4_cif.got.tgz:7084.got - 2010.04.14 02:53:20.
