data_PCOD8181007
_publ_section_title
;
Structure prediction by ZEFSAII (Michael W. Deem and Ramdas Pophale) SiO2 
 PCOD8181007
Probable space group: A B M 2
;
_chemical_formula_sum "Si O2"
_cell_formula_units_Z 64
_cell_length_a 17.202707
_cell_length_b 9.526353
_cell_length_c 22.401139
_cell_angle_alpha 90.000000
_cell_angle_beta 90.000000
_cell_angle_gamma 90.000000
_cell_volume 3671.077590
_symmetry_space_group_name_H-M "A B M 2"
_symmetry_group_IT_number 39
_symmetry_cell_setting 'orthorhombic'
loop_
_space_group_symop_operation_xyz
x,y,z
-x,-y,z
-x,1/2+y,z
x,1/2-y,z
x,1/2+y,1/2+z
-x,1/2-y,1/2+z
-x,y,1/2+z
x,-y,1/2+z
loop_
_atom_site_type_symbol
_atom_site_label
_atom_site_fract_x
_atom_site_fract_y
_atom_site_fract_z
Si Si1 0.325403 0.995752 0.807150
Si Si2 0.717672 0.585913 0.488352
Si Si3 0.079587 0.582994 0.299640
Si Si4 0.279788 0.914463 0.125999
Si Si5 0.796750 0.904256 0.896392
Si Si6 0.424666 0.405940 0.412061
Si Si7 0.195594 0.410334 0.221726
Si Si8 0.424873 0.594200 0.201804
O O1 0.380358 0.900630 0.848576
O O2 0.268203 0.900454 0.767258
O O3 0.273866 0.096019 0.848901
O O4 0.379510 0.088535 0.764488
O O5 0.728241 0.750000 0.477572
O O6 0.725302 0.544118 0.556961
O O7 0.785786 0.512506 0.450490
O O8 0.633405 0.537655 0.463612
O O9 0.069007 0.750000 0.285734
O O10 0.123541 0.560579 0.362322
O O11 0.126795 0.507151 0.246886
O O12 0.000000 0.500000 0.306123
O O13 0.259895 0.750000 0.137339
O O14 0.366969 0.947576 0.148202
O O15 0.219604 0.014395 0.160148
O O16 0.800483 0.750000 0.924862
O O17 0.500000 0.500000 0.409175
O O18 0.452960 0.250000 0.427463
O O19 0.167600 0.250000 0.209716
O O20 0.500000 0.500000 0.200418
O O21 0.456355 0.750000 0.192667
#
# Coordination Sequence:
#
# PCOD8181007 Si02
#       8
#     8   8   8   8   8   8   8   8
#     4   9  18  31  48  67  95 128 162 200 250 306
#     4   9  19  35  52  68  92 129 170 209 251 296
#     4  10  20  34  54  82 114 141 160 187 232 286
#     4   9  19  36  52  67  93 131 170 209 254 301
#     4   9  18  32  52  77 101 126 161 202 242 285
#     4  10  20  31  44  65  92 124 162 206 255 304
#     4  10  19  32  53  79 102 128 165 207 245 289
#     4  10  20  31  45  65  92 125 163 208 258 307
#
# _framework density 17.433572999999999
#
# number of rings (size 3 to 8) (size 9 to 14) (size 15 to 20)
#    0.000    2.500    0.000    1.875    0.000   13.500 
#    0.000    0.000    0.000    0.750    0.000    1.750 
#    0.000    0.000    0.000    0.000    0.000    0.000 
#
# Total GULP energy -396696.432414 kJ/mol
# GULP energy per Si atom -12396.763513 kJ/mol
# Density = 1.739389 g / cm^3
# Si number density = 17.433573 Si / 1000 Ang^3
#
#
#
# Elastic Constant Matrix: (Units=GPa)
#
#
# Indices 1 2 3 4 5 6 
#
# 1 108.6369 65.8353 52.5615 0.0000 0.0000 0.0000
# 2 65.8353 99.1800 51.9944 0.0000 0.0000 0.0000
# 3 52.5615 51.9944 125.8589 0.0000 0.0000 0.0000
# 4 0.0000 0.0000 0.0000 24.6235 0.0000 0.0000
# 5 0.0000 0.0000 0.0000 0.0000 12.9620 0.0000
# 6 0.0000 0.0000 0.0000 0.0000 0.0000 15.7640
#
#
#
# Elastic Compliance Matrix: (Units=1/GPa)
#
#
# Indices 1 2 3 4 5 6 
#
# 1 0.016225 -0.009213 -0.002970 0.000000 0.000000 0.000000
# 2 -0.009213 0.018102 -0.003630 0.000000 0.000000 0.000000
# 3 -0.002970 -0.003630 0.010685 0.000000 0.000000 0.000000
# 4 0.000000 0.000000 0.000000 0.040612 0.000000 0.000000
# 5 0.000000 0.000000 0.000000 0.000000 0.077149 0.000000
# 6 0.000000 0.000000 0.000000 0.000000 0.000000 0.063436
#
#
# Mechanical properties :
#
#
# Convention : Reuss Voigt Hill
#
# Bulk Modulus (GPa) = 74.70934 74.93979 74.82457
# Shear Modulus (GPa) = 19.06235 21.55555 20.30895
#
# Velocity S-wave (km/s) = 3.31029 3.52012 3.41681
# Velocity P-wave (km/s) = 7.58666 7.72016 7.65370
#
# Compressibility (1/GPa) = 0.01338521
#
# Stress axis : x y z
#
# Youngs Moduli (GPa) = 61.63222 55.24353 93.58516
#
# Poissons Ratio (x) = 0.50898 0.27793
# Poissons Ratio (y) = 0.56784 0.33975
# Poissons Ratio (z) = 0.18304 0.20056
#
# Static dielectric constant tensor:
#      x y z
#    x 3.114500 0.000000 0.000000 
#    y 0.000000 3.218120 0.000000 
#    z 0.000000 0.000000 3.244070 
# 
# 
# High freq. dielectric constant tensor:
#      x y z
#    x 1.656630 0.000000 0.000000 
#    y 0.000000 1.678020 0.000000 
#    z 0.000000 0.000000 1.663940 
# 
# From -- ./inp_files/16365.got.cif
#   From: 2010.03.12/outbox.cif.g09.slc.cpg/sg39_9_cif.got.tgz:16365.got - 2010.04.14 02:53:20.
