data_PCOD8181984
_publ_section_title
;
Structure prediction by ZEFSAII (Michael W. Deem and Ramdas Pophale) SiO2 
 PCOD8181984
Probable space group: A B M 2
;
_chemical_formula_sum "Si O2"
_cell_formula_units_Z 64
_cell_length_a 21.827287
_cell_length_b 15.245235
_cell_length_c 9.850773
_cell_angle_alpha 90.000000
_cell_angle_beta 90.000000
_cell_angle_gamma 90.000000
_cell_volume 3277.964104
_symmetry_space_group_name_H-M "A B M 2"
_symmetry_group_IT_number 39
_symmetry_cell_setting 'orthorhombic'
loop_
_space_group_symop_operation_xyz
x,y,z
-x,-y,z
-x,1/2+y,z
x,1/2-y,z
x,1/2+y,1/2+z
-x,1/2-y,1/2+z
-x,y,1/2+z
x,-y,1/2+z
loop_
_atom_site_type_symbol
_atom_site_label
_atom_site_fract_x
_atom_site_fract_y
_atom_site_fract_z
Si Si1 0.559504 0.853696 0.544770
Si Si2 0.944273 0.652701 0.357383
Si Si3 0.849958 0.010047 0.760508
Si Si4 0.460208 0.146143 0.841049
Si Si5 0.324502 0.649571 0.395319
Si Si6 0.696942 0.850575 0.578437
Si Si7 0.768463 0.981586 0.010192
Si Si8 0.038008 0.914342 0.148331
O O1 0.550293 0.750000 0.551166
O O2 0.538712 0.894121 0.689550
O O3 0.516377 0.894762 0.427536
O O4 0.630595 0.874307 0.515275
O O5 0.921383 0.750000 0.326296
O O6 0.889791 0.589976 0.314404
O O7 0.959993 0.645928 0.516076
O O8 0.005834 0.634330 0.273070
O O9 0.802068 0.044304 0.649200
O O10 0.893018 0.936185 0.694094
O O11 0.814749 0.967275 0.886271
O O12 0.466978 0.250000 0.830053
O O13 0.395742 0.124191 0.913369
O O14 0.312735 0.750000 0.439763
O O15 0.304334 0.636393 0.239889
O O16 0.287559 0.585601 0.494586
O O17 0.715311 0.750000 0.542760
O O18 0.745763 0.917267 0.513612
O O19 0.000000 0.000000 0.106100
#
# Coordination Sequence:
#
# PCOD8181984 Si02
#       8
#     8   8   8   8   8   8   8   8
#     4   8  14  28  51  78 106 141 186 238 294 351
#     4  11  23  40  64  95 123 147 189 242 285 332
#     4  11  24  40  63  85 117 163 193 230 289 344
#     4   8  14  28  51  77 106 140 185 238 295 351
#     4   9  19  37  59  82 112 155 198 241 295 355
#     4   9  19  37  60  82 112 156 199 239 295 358
#     4  12  22  41  61  85 118 158 202 241 284 340
#     4  10  21  41  64  88 120 156 189 227 286 346
#
# _framework density 19.524314
#
# number of rings (size 3 to 8) (size 9 to 14) (size 15 to 20)
#    0.000    2.250    2.500    3.000    1.750    1.000 
#    2.250    1.875    0.000    3.000    0.000    0.000 
#    0.000    0.000    0.000    0.000    0.000    0.000 
#
# Total GULP energy -396795.414329 kJ/mol
# GULP energy per Si atom -12399.856698 kJ/mol
# Density = 1.947988 g / cm^3
# Si number density = 19.524314 Si / 1000 Ang^3
#
#
#
# Elastic Constant Matrix: (Units=GPa)
#
#
# Indices 1 2 3 4 5 6 
#
# 1 85.1841 19.5991 34.6041 0.0000 0.0000 0.0000
# 2 19.5991 51.9078 17.1259 0.0000 0.0000 0.0000
# 3 34.6041 17.1259 84.5247 0.0000 0.0000 0.0000
# 4 0.0000 0.0000 0.0000 17.9035 0.0000 0.0000
# 5 0.0000 0.0000 0.0000 0.0000 39.4353 0.0000
# 6 0.0000 0.0000 0.0000 0.0000 0.0000 17.8749
#
#
#
# Elastic Compliance Matrix: (Units=1/GPa)
#
#
# Indices 1 2 3 4 5 6 
#
# 1 0.014761 -0.003836 -0.005266 0.000000 0.000000 0.000000
# 2 -0.003836 0.021642 -0.002814 0.000000 0.000000 0.000000
# 3 -0.005266 -0.002814 0.014557 0.000000 0.000000 0.000000
# 4 0.000000 0.000000 0.000000 0.055855 0.000000 0.000000
# 5 0.000000 0.000000 0.000000 0.000000 0.025358 0.000000
# 6 0.000000 0.000000 0.000000 0.000000 0.000000 0.055944
#
#
# Mechanical properties :
#
#
# Convention : Reuss Voigt Hill
#
# Bulk Modulus (GPa) = 36.86358 40.47499 38.66929
# Shear Modulus (GPa) = 22.62522 25.06190 23.84356
#
# Velocity S-wave (km/s) = 3.40784 3.58666 3.49839
# Velocity P-wave (km/s) = 5.86569 6.15855 6.01390
#
# Compressibility (1/GPa) = 0.02712705
#
# Stress axis : x y z
#
# Youngs Moduli (GPa) = 67.74599 46.20669 68.69571
#
# Poissons Ratio (x) = 0.17725 0.36174
# Poissons Ratio (y) = 0.25988 0.19334
# Poissons Ratio (z) = 0.35674 0.13005
#
# Static dielectric constant tensor:
#      x y z
#    x 3.712560 0.000000 0.000000 
#    y 0.000000 3.277680 0.000000 
#    z 0.000000 0.000000 3.712090 
# 
# 
# High freq. dielectric constant tensor:
#      x y z
#    x 1.766420 0.000000 0.000000 
#    y 0.000000 1.736760 0.000000 
#    z 0.000000 0.000000 1.758970 
# 
# From -- ./inp_files/4104.got.cif
#   From: 2010.03.12/outbox.cif.g09.slc.cpg/sg39_3_cif.got.tgz:4104.got - 2010.04.14 02:53:20.
