data_PCOD8181040
_publ_section_title
;
Structure prediction by ZEFSAII (Michael W. Deem and Ramdas Pophale) SiO2 
 PCOD8181040
Probable space group: A B M 2
;
_chemical_formula_sum "Si O2"
_cell_formula_units_Z 64
_cell_length_a 19.389348
_cell_length_b 8.844340
_cell_length_c 20.665155
_cell_angle_alpha 90.000000
_cell_angle_beta 90.000000
_cell_angle_gamma 90.000000
_cell_volume 3543.784483
_symmetry_space_group_name_H-M "A B M 2"
_symmetry_group_IT_number 39
_symmetry_cell_setting 'orthorhombic'
loop_
_space_group_symop_operation_xyz
x,y,z
-x,-y,z
-x,1/2+y,z
x,1/2-y,z
x,1/2+y,1/2+z
-x,1/2-y,1/2+z
-x,y,1/2+z
x,-y,1/2+z
loop_
_atom_site_type_symbol
_atom_site_label
_atom_site_fract_x
_atom_site_fract_y
_atom_site_fract_z
Si Si1 0.784521 0.929746 0.483140
Si Si2 0.571057 0.071654 0.655746
Si Si3 0.429513 0.927055 0.805522
Si Si4 0.284513 0.429738 0.353429
Si Si5 0.071067 0.428348 0.680853
Si Si6 0.793643 0.570373 0.225500
Si Si7 0.293660 0.570372 0.111041
Si Si8 0.929513 0.927040 0.531063
O O1 0.785779 0.750000 0.480324
O O2 0.750014 0.997729 0.418279
O O3 0.739294 0.983643 0.543694
O O4 0.863528 0.988151 0.490769
O O5 0.571056 0.250000 0.644173
O O6 0.583421 0.030337 0.730768
O O7 0.500000 0.000000 0.631230
O O8 0.629426 0.993925 0.612655
O O9 0.438095 0.750000 0.813815
O O10 0.363523 0.988133 0.845816
O O11 0.500000 0.000000 0.832198
O O12 0.285768 0.250000 0.356273
O O13 0.239298 0.483587 0.292860
O O14 0.071110 0.250000 0.692481
O O15 0.129404 0.506283 0.723924
O O16 0.083432 0.469556 0.605822
O O17 0.000000 0.500000 0.705343
O O18 0.793321 0.750000 0.218409
O O19 0.750032 0.499822 0.168284
O O20 0.293480 0.750000 0.118043
O O21 0.938101 0.750000 0.522726
O O22 0.000000 0.000000 0.504404
#
# Coordination Sequence:
#
# PCOD8181040 Si02
#       8
#     8   8   8   8   8   8   8   8
#     4   9  18  34  54  76 105 141 180 217 262 319
#     4  10  19  33  52  80 109 138 177 222 270 319
#     4   9  17  31  51  76 101 132 173 215 259 311
#     4   9  18  34  54  76 105 141 180 217 262 319
#     4  10  19  33  52  80 109 138 177 222 270 319
#     4  11  20  33  54  80 107 140 177 220 268 315
#     4  11  20  33  54  80 107 140 177 220 268 315
#     4   9  17  31  51  76 101 132 173 215 259 311
#
# _framework density 18.059788999999999
#
# number of rings (size 3 to 8) (size 9 to 14) (size 15 to 20)
#    0.000    2.250    2.500    1.500    0.000    1.000 
#    0.000    1.250    0.000    9.750    0.000    0.000 
#    0.000    0.000    0.000    0.000    0.000    0.000 
#
# Total GULP energy -396791.203835 kJ/mol
# GULP energy per Si atom -12399.725120 kJ/mol
# Density = 1.801868 g / cm^3
# Si number density = 18.059789 Si / 1000 Ang^3
#
#
#
# Elastic Constant Matrix: (Units=GPa)
#
#
# Indices 1 2 3 4 5 6 
#
# 1 201.6087 43.1342 85.3766 0.0000 0.0000 0.0000
# 2 43.1342 49.8104 31.8184 0.0000 0.0000 0.0000
# 3 85.3766 31.8184 114.9874 0.0000 0.0000 0.0000
# 4 0.0000 0.0000 0.0000 15.0679 0.0000 0.0000
# 5 0.0000 0.0000 0.0000 0.0000 30.6225 0.0000
# 6 0.0000 0.0000 0.0000 0.0000 0.0000 36.2523
#
#
#
# Elastic Compliance Matrix: (Units=1/GPa)
#
#
# Indices 1 2 3 4 5 6 
#
# 1 0.007756 -0.003690 -0.004738 0.000000 0.000000 0.000000
# 2 -0.003690 0.026142 -0.004494 0.000000 0.000000 0.000000
# 3 -0.004738 -0.004494 0.013458 0.000000 0.000000 0.000000
# 4 0.000000 0.000000 0.000000 0.066366 0.000000 0.000000
# 5 0.000000 0.000000 0.000000 0.000000 0.032656 0.000000
# 6 0.000000 0.000000 0.000000 0.000000 0.000000 0.027584
#
#
# Mechanical properties :
#
#
# Convention : Reuss Voigt Hill
#
# Bulk Modulus (GPa) = 46.48435 76.34054 61.41244
# Shear Modulus (GPa) = 24.15733 30.12702 27.14217
#
# Velocity S-wave (km/s) = 3.66133 4.08877 3.88094
# Velocity P-wave (km/s) = 6.60824 8.04074 7.35943
#
# Compressibility (1/GPa) = 0.02151262
#
# Stress axis : x y z
#
# Youngs Moduli (GPa) = 128.93569 38.25206 74.30682
#
# Poissons Ratio (x) = 0.14115 0.35203
# Poissons Ratio (y) = 0.47577 0.33394
# Poissons Ratio (z) = 0.61083 0.17191
#
# Static dielectric constant tensor:
#      x y z
#    x 3.741900 0.000000 0.000000 
#    y 0.000000 3.174430 0.000000 
#    z 0.000000 0.000000 3.319120 
# 
# 
# High freq. dielectric constant tensor:
#      x y z
#    x 1.721330 0.000000 0.000000 
#    y 0.000000 1.682250 0.000000 
#    z 0.000000 0.000000 1.670160 
# 
# From -- ./inp_files/13127.got.cif
#   From: 2010.03.12/outbox.cif.g09.slc.cpg/sg39_7_cif.got.tgz:13127.got - 2010.04.14 02:53:20.
