data_PCOD8181122
_publ_section_title
;
Structure prediction by ZEFSAII (Michael W. Deem and Ramdas Pophale) SiO2 
 PCOD8181122
Probable space group: A B M 2
;
_chemical_formula_sum "Si O2"
_cell_formula_units_Z 56
_cell_length_a 14.443089
_cell_length_b 8.802594
_cell_length_c 24.945340
_cell_angle_alpha 90.000000
_cell_angle_beta 90.000000
_cell_angle_gamma 90.000000
_cell_volume 3171.466925
_symmetry_space_group_name_H-M "A B M 2"
_symmetry_group_IT_number 39
_symmetry_cell_setting 'orthorhombic'
loop_
_space_group_symop_operation_xyz
x,y,z
-x,-y,z
-x,1/2+y,z
x,1/2-y,z
x,1/2+y,1/2+z
-x,1/2-y,1/2+z
-x,y,1/2+z
x,-y,1/2+z
loop_
_atom_site_type_symbol
_atom_site_label
_atom_site_fract_x
_atom_site_fract_y
_atom_site_fract_z
Si Si1 0.209505 0.430095 0.530010
Si Si2 0.096706 0.073460 0.815626
Si Si3 0.777857 0.070805 0.729596
Si Si4 0.406608 0.072049 0.570246
Si Si5 0.100159 0.570177 0.627971
Si Si6 0.097019 0.926662 0.440361
Si Si7 0.594436 0.429572 0.192756
O O1 0.198949 0.250000 0.534422
O O2 0.316309 0.480716 0.537393
O O3 0.144763 0.505545 0.574296
O O4 0.178981 0.489625 0.471982
O O5 0.093511 0.250000 0.800633
O O6 0.116829 0.046597 0.878029
O O7 0.177220 0.990066 0.783846
O O8 0.000000 0.000000 0.798304
O O9 0.767545 0.250000 0.732638
O O10 0.837732 0.020075 0.678333
O O11 0.677502 0.995957 0.727354
O O12 0.419857 0.250000 0.567509
O O13 0.392492 0.017348 0.631298
O O14 0.500000 0.000000 0.545387
O O15 0.091653 0.750000 0.622946
O O16 0.000000 0.500000 0.637079
O O17 0.094179 0.750000 0.455393
O O18 0.000000 0.000000 0.457824
O O19 0.500000 0.500000 0.215967
O O20 0.592003 0.250000 0.198526
#
# Coordination Sequence:
#
# PCOD8181122 Si02
#       7
#     8   8   8   8   8   8   8
#     4  11  21  35  54  78 107 140 176 217 266 316
#     4  10  21  37  57  79 106 140 181 225 269 318
#     4  11  22  35  54  80 108 142 180 219 269 320
#     4   9  19  33  52  77 105 139 175 215 260 312
#     4  11  23  35  49  73 107 143 175 212 260 317
#     4  10  21  37  56  79 105 140 181 223 267 314
#     4  10  19  34  54  78 109 142 179 221 265 319
#
# _framework density 17.657444999999999
#
# number of rings (size 3 to 8) (size 9 to 14) (size 15 to 20)
#    0.000    1.714    1.429    3.429    0.000    6.286 
#    0.000    0.000    0.000    0.857    0.000    2.000 
#    0.000    0.000    0.000    0.000    0.000    0.000 
#
# Total GULP energy -347338.314726 kJ/mol
# GULP energy per Si atom -12404.939812 kJ/mol
# Density = 1.761726 g / cm^3
# Si number density = 17.657445 Si / 1000 Ang^3
#
#
#
# Elastic Constant Matrix: (Units=GPa)
#
#
# Indices 1 2 3 4 5 6 
#
# 1 162.8603 57.7525 56.1552 0.0000 0.0000 0.0000
# 2 57.7525 81.7215 33.4859 0.0000 0.0000 0.0000
# 3 56.1552 33.4859 64.6323 0.0000 0.0000 0.0000
# 4 0.0000 0.0000 0.0000 27.9746 0.0000 0.0000
# 5 0.0000 0.0000 0.0000 0.0000 32.1600 0.0000
# 6 0.0000 0.0000 0.0000 0.0000 0.0000 36.2705
#
#
#
# Elastic Compliance Matrix: (Units=1/GPa)
#
#
# Indices 1 2 3 4 5 6 
#
# 1 0.009871 -0.004394 -0.006299 0.000000 0.000000 0.000000
# 2 -0.004394 0.017491 -0.005244 0.000000 0.000000 0.000000
# 3 -0.006299 -0.005244 0.023662 0.000000 0.000000 0.000000
# 4 0.000000 0.000000 0.000000 0.035747 0.000000 0.000000
# 5 0.000000 0.000000 0.000000 0.000000 0.031095 0.000000
# 6 0.000000 0.000000 0.000000 0.000000 0.000000 0.027571
#
#
# Mechanical properties :
#
#
# Convention : Reuss Voigt Hill
#
# Bulk Modulus (GPa) = 52.22380 67.11124 59.66752
# Shear Modulus (GPa) = 27.21926 30.06905 28.64415
#
# Velocity S-wave (km/s) = 3.93048 4.13111 4.03204
# Velocity P-wave (km/s) = 7.08791 7.80030 7.45262
#
# Compressibility (1/GPa) = 0.01914836
#
# Stress axis : x y z
#
# Youngs Moduli (GPa) = 101.31160 57.17246 42.26170
#
# Poissons Ratio (x) = 0.25124 0.26622
# Poissons Ratio (y) = 0.44520 0.22162
# Poissons Ratio (z) = 0.63818 0.29981
#
# Static dielectric constant tensor:
#      x y z
#    x 3.401710 0.000000 0.000000 
#    y 0.000000 3.377400 0.000000 
#    z 0.000000 0.000000 3.145640 
# 
# 
# High freq. dielectric constant tensor:
#      x y z
#    x 1.688680 0.000000 0.000000 
#    y 0.000000 1.698980 0.000000 
#    z 0.000000 0.000000 1.662730 
# 
# From -- ./inp_files/14726.got.cif
#   From: 2010.03.12/outbox.cif.g09.slc.cpg/sg39_8_cif.got.tgz:14726.got - 2010.04.14 02:53:20.
