data_PCOD8181345
_publ_section_title
;
Structure prediction by ZEFSAII (Michael W. Deem and Ramdas Pophale) SiO2 
 PCOD8181345
Probable space group: A B M 2
;
_chemical_formula_sum "Si O2"
_cell_formula_units_Z 64
_cell_length_a 17.928786
_cell_length_b 9.093286
_cell_length_c 22.657637
_cell_angle_alpha 90.000000
_cell_angle_beta 90.000000
_cell_angle_gamma 90.000000
_cell_volume 3693.910330
_symmetry_space_group_name_H-M "A B M 2"
_symmetry_group_IT_number 39
_symmetry_cell_setting 'orthorhombic'
loop_
_space_group_symop_operation_xyz
x,y,z
-x,-y,z
-x,1/2+y,z
x,1/2-y,z
x,1/2+y,1/2+z
-x,1/2-y,1/2+z
-x,y,1/2+z
x,-y,1/2+z
loop_
_atom_site_type_symbol
_atom_site_label
_atom_site_fract_x
_atom_site_fract_y
_atom_site_fract_z
Si Si1 0.637558 0.089696 0.482130
Si Si2 0.143176 0.086667 0.517626
Si Si3 0.772706 0.575868 0.697462
Si Si4 0.721651 0.925546 0.314613
Si Si5 0.301420 0.589215 0.079479
Si Si6 0.575986 0.572849 0.861332
Si Si7 0.074190 0.577490 0.136686
Si Si8 0.794538 0.086519 0.418779
O O1 0.607319 0.250000 0.498645
O O2 0.586303 0.023228 0.429867
O O3 0.720586 0.099704 0.457197
O O4 0.635865 0.000320 0.543356
O O5 0.116379 0.250000 0.499187
O O6 0.226748 0.098322 0.541570
O O7 0.091697 0.021505 0.569983
O O8 0.140383 0.981914 0.460111
O O9 0.763254 0.750000 0.711003
O O10 0.752940 0.472819 0.751691
O O11 0.717824 0.525466 0.644147
O O12 0.857845 0.539808 0.680179
O O13 0.712674 0.750000 0.318986
O O14 0.642394 0.005424 0.322679
O O15 0.781028 0.980690 0.363126
O O16 0.336068 0.750000 0.087590
O O17 0.500000 0.500000 0.837797
O O18 0.576177 0.750000 0.854728
O O19 0.060869 0.750000 0.134932
O O20 0.000000 0.500000 0.160898
O O21 0.818852 0.250000 0.397494
#
# Coordination Sequence:
#
# PCOD8181345 Si02
#       8
#     8   8   8   8   8   8   8   8
#     4   8  15  26  42  66  94 118 144 182 230 279
#     4   8  14  26  43  66  93 120 150 187 232 284
#     4   9  18  33  49  69  98 132 169 210 250 292
#     4  11  21  32  49  73  98 130 170 211 250 294
#     4   8  14  25  44  66  89 118 151 187 230 275
#     4  10  20  34  51  73 100 130 162 202 250 300
#     4   9  18  31  49  72 100 131 163 203 253 303
#     4   9  16  27  44  67  93 121 151 190 236 281
#
# _framework density 17.325813
#
# number of rings (size 3 to 8) (size 9 to 14) (size 15 to 20)
#    0.000    3.000    0.000    4.125    0.000    5.000 
#    0.000    2.500    0.000    1.500    0.000    7.000 
#    0.000    0.000    0.000    0.000    0.000    0.000 
#
# Total GULP energy -396533.572386 kJ/mol
# GULP energy per Si atom -12391.674137 kJ/mol
# Density = 1.728638 g / cm^3
# Si number density = 17.325813 Si / 1000 Ang^3
#
#
#
# Elastic Constant Matrix: (Units=GPa)
#
#
# Indices 1 2 3 4 5 6 
#
# 1 61.9334 36.6081 38.2702 0.0000 0.0000 0.0000
# 2 36.6081 98.2512 55.4748 0.0000 0.0000 0.0000
# 3 38.2702 55.4748 104.0422 0.0000 0.0000 0.0000
# 4 0.0000 0.0000 0.0000 30.3965 0.0000 0.0000
# 5 0.0000 0.0000 0.0000 0.0000 15.2046 0.0000
# 6 0.0000 0.0000 0.0000 0.0000 0.0000 22.6507
#
#
#
# Elastic Compliance Matrix: (Units=1/GPa)
#
#
# Indices 1 2 3 4 5 6 
#
# 1 0.022710 -0.005358 -0.005497 0.000000 0.000000 0.000000
# 2 -0.005358 0.015826 -0.006467 0.000000 0.000000 0.000000
# 3 -0.005497 -0.006467 0.015082 0.000000 0.000000 0.000000
# 4 0.000000 0.000000 0.000000 0.032899 0.000000 0.000000
# 5 0.000000 0.000000 0.000000 0.000000 0.065769 0.000000
# 6 0.000000 0.000000 0.000000 0.000000 0.000000 0.044149
#
#
# Mechanical properties :
#
#
# Convention : Reuss Voigt Hill
#
# Bulk Modulus (GPa) = 52.70534 58.32587 55.51560
# Shear Modulus (GPa) = 21.06118 22.57527 21.81823
#
# Velocity S-wave (km/s) = 3.49032 3.61360 3.55250
# Velocity P-wave (km/s) = 6.83588 7.15179 6.99562
#
# Compressibility (1/GPa) = 0.01897341
#
# Stress axis : x y z
#
# Youngs Moduli (GPa) = 44.03344 63.18668 66.30544
#
# Poissons Ratio (x) = 0.33857 0.36445
# Poissons Ratio (y) = 0.23594 0.42883
# Poissons Ratio (z) = 0.24203 0.40866
#
# Static dielectric constant tensor:
#      x y z
#    x 2.978330 0.000000 0.000000 
#    y 0.000000 3.422770 0.000000 
#    z 0.000000 0.000000 3.208000 
# 
# 
# High freq. dielectric constant tensor:
#      x y z
#    x 1.628040 0.000000 0.000000 
#    y 0.000000 1.671600 0.000000 
#    z 0.000000 0.000000 1.657910 
# 
# From -- ./inp_files/16352.got.cif
#   From: 2010.03.12/outbox.cif.g09.slc.cpg/sg39_9_cif.got.tgz:16352.got - 2010.04.14 02:53:20.
