data_PCOD8181179
_publ_section_title
;
Structure prediction by ZEFSAII (Michael W. Deem and Ramdas Pophale) SiO2 
 PCOD8181179
Probable space group: A B M 2
;
_chemical_formula_sum "Si O2"
_cell_formula_units_Z 56
_cell_length_a 10.419315
_cell_length_b 13.897305
_cell_length_c 18.388126
_cell_angle_alpha 90.000000
_cell_angle_beta 90.000000
_cell_angle_gamma 90.000000
_cell_volume 2662.607971
_symmetry_space_group_name_H-M "A B M 2"
_symmetry_group_IT_number 39
_symmetry_cell_setting 'orthorhombic'
loop_
_space_group_symop_operation_xyz
x,y,z
-x,-y,z
-x,1/2+y,z
x,1/2-y,z
x,1/2+y,1/2+z
-x,1/2-y,1/2+z
-x,y,1/2+z
x,-y,1/2+z
loop_
_atom_site_type_symbol
_atom_site_label
_atom_site_fract_x
_atom_site_fract_y
_atom_site_fract_z
Si Si1 0.467357 0.857355 0.544000
Si Si2 0.307106 0.497965 0.147189
Si Si3 0.260253 0.856337 0.765078
Si Si4 0.140663 0.537131 0.902624
Si Si5 0.456697 0.901957 0.273990
Si Si6 0.229593 0.139349 0.542027
Si Si7 0.696148 0.353474 0.407152
O O1 0.441478 0.750000 0.576127
O O2 0.396098 0.936214 0.592751
O O3 0.617906 0.877117 0.535680
O O4 0.423023 0.864174 0.460907
O O5 0.225572 0.424468 0.197058
O O6 0.396453 0.569973 0.195414
O O7 0.199047 0.564186 0.107281
O O8 0.197735 0.750000 0.757859
O O9 0.206322 0.908234 0.836168
O O10 0.414437 0.839966 0.765165
O O11 0.209244 0.438986 0.924095
O O12 0.000000 0.500000 0.882418
O O13 0.149292 0.609470 0.970895
O O14 0.352860 0.850144 0.323911
O O15 0.500000 0.000000 0.314538
O O16 0.195113 0.250000 0.560800
O O17 0.765670 0.250000 0.420042
#
# Coordination Sequence:
#
# PCOD8181179 Si02
#       7
#     8   8   8   8   8   8   8
#     4  10  20  34  60  98 130 161 197 245 319 390
#     4  11  21  35  63 100 138 166 190 243 313 395
#     4  11  22  39  65  95 127 163 203 253 314 376
#     4  12  26  45  65  83 115 166 227 269 301 352
#     4  10  19  34  59  97 130 162 194 244 320 386
#     4  11  23  39  64  94 128 164 202 254 314 377
#     4  11  22  37  61  87 120 158 202 262 318 367
#
# _framework density 21.032012000000002
#
# number of rings (size 3 to 8) (size 9 to 14) (size 15 to 20)
#    0.000    1.143    4.286    5.143    0.000    4.571 
#    0.000    0.714    0.000    1.714    0.000    0.000 
#    0.000    0.000    0.000    0.000    0.000    0.000 
#
# Total GULP energy -346936.481376 kJ/mol
# GULP energy per Si atom -12390.588621 kJ/mol
# Density = 2.098414 g / cm^3
# Si number density = 21.032012 Si / 1000 Ang^3
#
#
#
# Elastic Constant Matrix: (Units=GPa)
#
#
# Indices 1 2 3 4 5 6 
#
# 1 30.1817 12.7417 11.8740 0.0000 0.0000 0.0000
# 2 12.7417 153.0110 44.4437 0.0000 0.0000 0.0000
# 3 11.8740 44.4437 105.1356 0.0000 0.0000 0.0000
# 4 0.0000 0.0000 0.0000 10.7223 0.0000 0.0000
# 5 0.0000 0.0000 0.0000 0.0000 8.5520 0.0000
# 6 0.0000 0.0000 0.0000 0.0000 0.0000 10.4300
#
#
#
# Elastic Compliance Matrix: (Units=1/GPa)
#
#
# Indices 1 2 3 4 5 6 
#
# 1 0.035216 -0.002026 -0.003121 0.000000 0.000000 0.000000
# 2 -0.002026 0.007567 -0.002970 0.000000 0.000000 0.000000
# 3 -0.003121 -0.002970 0.011119 0.000000 0.000000 0.000000
# 4 0.000000 0.000000 0.000000 0.093263 0.000000 0.000000
# 5 0.000000 0.000000 0.000000 0.000000 0.116932 0.000000
# 6 0.000000 0.000000 0.000000 0.000000 0.000000 0.095877
#
#
# Mechanical properties :
#
#
# Convention : Reuss Voigt Hill
#
# Bulk Modulus (GPa) = 26.54734 47.38300 36.96517
# Shear Modulus (GPa) = 12.86127 20.55879 16.71003
#
# Velocity S-wave (km/s) = 2.47555 3.12989 2.82175
# Velocity P-wave (km/s) = 4.56299 5.96988 5.31321
#
# Compressibility (1/GPa) = 0.03766855
#
# Stress axis : x y z
#
# Youngs Moduli (GPa) = 28.39637 132.15575 89.93255
#
# Poissons Ratio (x) = 0.26775 0.28066
# Poissons Ratio (y) = 0.05753 0.26709
# Poissons Ratio (z) = 0.08862 0.39249
#
# Static dielectric constant tensor:
#      x y z
#    x 3.344260 0.000000 0.000000 
#    y 0.000000 4.282720 0.000000 
#    z 0.000000 0.000000 3.952640 
# 
# 
# High freq. dielectric constant tensor:
#      x y z
#    x 1.760950 0.000000 0.000000 
#    y 0.000000 1.854840 0.000000 
#    z 0.000000 0.000000 1.830850 
# 
# From -- ./inp_files/14085.got.cif
#   From: 2010.03.12/outbox.cif.g09.slc.cpg/sg39_8_cif.got.tgz:14085.got - 2010.04.14 02:53:20.
