data_PCOD8181609
_publ_section_title
;
Structure prediction by ZEFSAII (Michael W. Deem and Ramdas Pophale) SiO2 
 PCOD8181609
Probable space group: A B M 2
;
_chemical_formula_sum "Si O2"
_cell_formula_units_Z 32
_cell_length_a 9.592297
_cell_length_b 16.468262
_cell_length_c 9.919099
_cell_angle_alpha 90.000000
_cell_angle_beta 90.000000
_cell_angle_gamma 90.000000
_cell_volume 1566.904795
_symmetry_space_group_name_H-M "A B M 2"
_symmetry_group_IT_number 39
_symmetry_cell_setting 'orthorhombic'
loop_
_space_group_symop_operation_xyz
x,y,z
-x,-y,z
-x,1/2+y,z
x,1/2-y,z
x,1/2+y,1/2+z
-x,1/2-y,1/2+z
-x,y,1/2+z
x,-y,1/2+z
loop_
_atom_site_type_symbol
_atom_site_label
_atom_site_fract_x
_atom_site_fract_y
_atom_site_fract_z
Si Si1 0.552707 0.589921 0.590480
Si Si2 0.071304 0.343692 0.358125
Si Si3 0.150166 0.655026 0.152773
Si Si4 0.624236 0.656659 0.315809
O O1 0.500000 0.500000 0.620298
O O2 0.710069 0.602139 0.642818
O O3 0.538448 0.609971 0.432448
O O4 0.451718 0.649460 0.673440
O O5 0.067462 0.250000 0.317151
O O6 0.056412 0.357016 0.518231
O O7 0.219194 0.379957 0.307342
O O8 0.940038 0.381696 0.277200
O O9 0.191326 0.750000 0.169729
O O10 0.634312 0.750000 0.361812
#
# Coordination Sequence:
#
# PCOD8181609 Si02
#       4
#     8   8   8   8
#     4  11  22  36  55  83 118 151 184 231 284 335
#     4   8  16  30  52  79 107 138 185 236 275 321
#     4   9  17  33  55  82 111 144 185 233 280 332
#     4  10  20  37  58  82 110 149 194 234 275 334
#
# _framework density 20.422428
#
# number of rings (size 3 to 8) (size 9 to 14) (size 15 to 20)
#    0.000    2.500    0.000    4.500    0.000    2.000 
#    0.000    6.250    0.000    6.000    0.000    0.000 
#    0.000    0.000    0.000    0.000    0.000    0.000 
#
# Total GULP energy -198354.028552 kJ/mol
# GULP energy per Si atom -12397.126785 kJ/mol
# Density = 2.037595 g / cm^3
# Si number density = 20.422428 Si / 1000 Ang^3
#
#
#
# Elastic Constant Matrix: (Units=GPa)
#
#
# Indices 1 2 3 4 5 6 
#
# 1 95.1123 45.4464 46.8553 0.0000 0.0000 0.0000
# 2 45.4464 56.3442 31.9705 0.0000 0.0000 0.0000
# 3 46.8553 31.9705 64.6048 0.0000 0.0000 0.0000
# 4 0.0000 0.0000 0.0000 20.4019 0.0000 0.0000
# 5 0.0000 0.0000 0.0000 0.0000 49.8430 0.0000
# 6 0.0000 0.0000 0.0000 0.0000 0.0000 25.1888
#
#
#
# Elastic Compliance Matrix: (Units=1/GPa)
#
#
# Indices 1 2 3 4 5 6 
#
# 1 0.020449 -0.011232 -0.009272 0.000000 0.000000 0.000000
# 2 -0.011232 0.030847 -0.007119 0.000000 0.000000 0.000000
# 3 -0.009272 -0.007119 0.025726 0.000000 0.000000 0.000000
# 4 0.000000 0.000000 0.000000 0.049015 0.000000 0.000000
# 5 0.000000 0.000000 0.000000 0.000000 0.020063 0.000000
# 6 0.000000 0.000000 0.000000 0.000000 0.000000 0.039700
#
#
# Mechanical properties :
#
#
# Convention : Reuss Voigt Hill
#
# Bulk Modulus (GPa) = 45.92295 51.62285 48.77290
# Shear Modulus (GPa) = 20.13649 25.20601 22.67125
#
# Velocity S-wave (km/s) = 3.14347 3.51698 3.33545
# Velocity P-wave (km/s) = 5.97583 6.46719 6.22636
#
# Compressibility (1/GPa) = 0.02177560
#
# Stress axis : x y z
#
# Youngs Moduli (GPa) = 48.90287 32.41778 38.87092
#
# Poissons Ratio (x) = 0.36413 0.36041
# Poissons Ratio (y) = 0.54930 0.27671
# Poissons Ratio (z) = 0.45343 0.23077
#
# Static dielectric constant tensor:
#      x y z
#    x 3.779350 0.000000 0.000000 
#    y 0.000000 3.270280 0.000000 
#    z 0.000000 0.000000 3.698470 
# 
# 
# High freq. dielectric constant tensor:
#      x y z
#    x 1.800160 0.000000 0.000000 
#    y 0.000000 1.761710 0.000000 
#    z 0.000000 0.000000 1.802020 
# 
# From -- ./inp_files/1979.got.cif
#   From: 2010.03.12/outbox.cif.g09.slc.cpg/sg39_1_cif.got.tgz:1979.got - 2010.04.14 02:53:20.
