data_PCOD8181403
_publ_section_title
;
Structure prediction by ZEFSAII (Michael W. Deem and Ramdas Pophale) SiO2 
 PCOD8181403
Probable space group: A B M 2
;
_chemical_formula_sum "Si O2"
_cell_formula_units_Z 48
_cell_length_a 9.072002
_cell_length_b 8.690075
_cell_length_c 31.179202
_cell_angle_alpha 90.000000
_cell_angle_beta 90.000000
_cell_angle_gamma 90.000000
_cell_volume 2458.055348
_symmetry_space_group_name_H-M "A B M 2"
_symmetry_group_IT_number 39
_symmetry_cell_setting 'orthorhombic'
loop_
_space_group_symop_operation_xyz
x,y,z
-x,-y,z
-x,1/2+y,z
x,1/2-y,z
x,1/2+y,1/2+z
-x,1/2-y,1/2+z
-x,y,1/2+z
x,-y,1/2+z
loop_
_atom_site_type_symbol
_atom_site_label
_atom_site_fract_x
_atom_site_fract_y
_atom_site_fract_z
Si Si1 0.661084 0.432514 0.609100
Si Si2 0.839923 0.430461 0.690652
Si Si3 0.160553 0.929596 0.368963
Si Si4 0.660526 0.931695 0.953434
Si Si5 0.839178 0.432616 0.031338
Si Si6 0.838686 0.930925 0.284666
O O1 0.500000 0.500000 0.601713
O O2 0.653932 0.250000 0.604409
O O3 0.721687 0.485693 0.655553
O O4 0.772820 0.499791 0.574687
O O5 0.864161 0.250000 0.687794
O O6 0.773931 0.476057 0.737736
O O7 0.000000 0.500000 0.681574
O O8 0.141913 0.750000 0.363238
O O9 0.258595 0.973209 0.409459
O O10 0.243210 0.995512 0.325978
O O11 0.000000 0.000000 0.376295
O O12 0.657429 0.750000 0.962671
O O13 0.500000 0.000000 0.949446
O O14 0.739446 0.018422 0.991843
O O15 0.847075 0.250000 0.034649
O O16 0.000000 0.500000 0.023876
O O17 0.842901 0.750000 0.290846
O O18 0.000000 0.000000 0.286498
#
# Coordination Sequence:
#
# PCOD8181403 Si02
#       6
#     8   8   8   8   8   8
#     4  11  23  40  59  83 116 152 190 231 281 336
#     4   9  19  34  55  82 111 145 187 233 279 331
#     4  10  20  34  55  83 112 145 187 232 279 331
#     4  11  24  41  60  84 115 151 189 230 281 337
#     4  12  25  42  64  89 115 145 185 231 279 332
#     4   9  16  29  51  79 110 144 184 231 280 327
#
# _framework density 19.527633000000002
#
# number of rings (size 3 to 8) (size 9 to 14) (size 15 to 20)
#    0.000    1.667    0.000    6.000    0.000    7.333 
#    0.000    0.833    0.000    4.000    0.000    0.000 
#    0.000    0.000    0.000    0.000    0.000    0.000 
#
# Total GULP energy -297539.595034 kJ/mol
# GULP energy per Si atom -12397.483126 kJ/mol
# Density = 1.948319 g / cm^3
# Si number density = 19.527633 Si / 1000 Ang^3
#
#
#
# Elastic Constant Matrix: (Units=GPa)
#
#
# Indices 1 2 3 4 5 6 
#
# 1 79.8908 32.1956 40.9583 0.0000 0.0000 0.0000
# 2 32.1956 96.9662 60.9983 0.0000 0.0000 0.0000
# 3 40.9583 60.9983 152.1996 0.0000 0.0000 0.0000
# 4 0.0000 0.0000 0.0000 25.3933 0.0000 0.0000
# 5 0.0000 0.0000 0.0000 0.0000 46.5322 0.0000
# 6 0.0000 0.0000 0.0000 0.0000 0.0000 27.9764
#
#
#
# Elastic Compliance Matrix: (Units=1/GPa)
#
#
# Indices 1 2 3 4 5 6 
#
# 1 0.015282 -0.003325 -0.002780 0.000000 0.000000 0.000000
# 2 -0.003325 0.014513 -0.004922 0.000000 0.000000 0.000000
# 3 -0.002780 -0.004922 0.009291 0.000000 0.000000 0.000000
# 4 0.000000 0.000000 0.000000 0.039380 0.000000 0.000000
# 5 0.000000 0.000000 0.000000 0.000000 0.021491 0.000000
# 6 0.000000 0.000000 0.000000 0.000000 0.000000 0.035744
#
#
# Mechanical properties :
#
#
# Convention : Reuss Voigt Hill
#
# Bulk Modulus (GPa) = 58.71143 66.37344 62.54243
# Shear Modulus (GPa) = 30.59356 32.97400 31.78378
#
# Velocity S-wave (km/s) = 3.96243 4.11369 4.03877
# Velocity P-wave (km/s) = 7.14601 7.52506 7.33799
#
# Compressibility (1/GPa) = 0.01703246
#
# Stress axis : x y z
#
# Youngs Moduli (GPa) = 65.43471 68.90348 107.63254
#
# Poissons Ratio (x) = 0.22914 0.29920
# Poissons Ratio (y) = 0.21760 0.52972
# Poissons Ratio (z) = 0.18190 0.33912
#
# Static dielectric constant tensor:
#      x y z
#    x 3.337960 0.000000 0.000000 
#    y 0.000000 3.744830 0.000000 
#    z 0.000000 0.000000 4.501680 
# 
# 
# High freq. dielectric constant tensor:
#      x y z
#    x 1.737220 0.000000 0.000000 
#    y 0.000000 1.774710 0.000000 
#    z 0.000000 0.000000 1.791030 
# 
# From -- ./inp_files/17620.got.cif
#   From: 2010.03.12/outbox.cif.g09.slc.cpg/sg39_9_cif.got.tgz:17620.got - 2010.04.14 02:53:20.
