data_PCOD8181703
_publ_section_title
;
Structure prediction by ZEFSAII (Michael W. Deem and Ramdas Pophale) SiO2 
 PCOD8181703
Probable space group: A B M 2
;
_chemical_formula_sum "Si O2"
_cell_formula_units_Z 44
_cell_length_a 19.037367
_cell_length_b 12.642090
_cell_length_c 9.256135
_cell_angle_alpha 90.000000
_cell_angle_beta 90.000000
_cell_angle_gamma 90.000000
_cell_volume 2227.693513
_symmetry_space_group_name_H-M "A B M 2"
_symmetry_group_IT_number 39
_symmetry_cell_setting 'orthorhombic'
loop_
_space_group_symop_operation_xyz
x,y,z
-x,-y,z
-x,1/2+y,z
x,1/2-y,z
x,1/2+y,1/2+z
-x,1/2-y,1/2+z
-x,y,1/2+z
x,-y,1/2+z
loop_
_atom_site_type_symbol
_atom_site_label
_atom_site_fract_x
_atom_site_fract_y
_atom_site_fract_z
Si Si1 0.000000 0.000000 0.226740
Si Si2 0.312682 0.490691 0.236157
Si Si3 0.926206 0.871605 0.976826
Si Si4 0.551839 0.368067 0.825689
Si Si5 0.572928 0.366923 0.144486
Si Si6 0.239784 0.872342 0.484032
O O1 0.953528 0.074313 0.329983
O O2 0.047898 0.072136 0.123242
O O3 0.372959 0.420818 0.307421
O O4 0.353404 0.572335 0.132928
O O5 0.270751 0.555349 0.357117
O O6 0.261602 0.418302 0.140328
O O7 0.951961 0.750000 0.979101
O O8 0.843121 0.879149 0.973413
O O9 0.558461 0.250000 0.760447
O O10 0.483167 0.421917 0.752633
O O11 0.533237 0.366278 0.993086
O O12 0.592217 0.250000 0.198648
O O13 0.265075 0.750000 0.469945
#
# Coordination Sequence:
#
# PCOD8181703 Si02
#       6
#     4   8   8   8   8   8
#     4  10  20  38  68  94 124 162 204 242 292 350
#     4  12  22  40  60  82 116 164 198 246 310 358
#     4  10  21  39  62  94 128 160 200 247 293 347
#     4  10  22  38  57  82 110 145 199 257 307 361
#     4  10  22  38  57  82 110 145 199 257 307 361
#     4  11  25  41  61  91 126 161 202 245 296 364
#
# _framework density 19.751370999999999
#
# number of rings (size 3 to 8) (size 9 to 14) (size 15 to 20)
#    0.000    1.455    1.818    3.273    2.545    1.455 
#    0.000    0.000    0.000    8.727    0.000    0.000 
#    0.000    0.000    0.000    0.000    0.000    0.000 
#
# Total GULP energy -272694.328534 kJ/mol
# GULP energy per Si atom -12395.196752 kJ/mol
# Density = 1.970642 g / cm^3
# Si number density = 19.751371 Si / 1000 Ang^3
#
#
#
# Elastic Constant Matrix: (Units=GPa)
#
#
# Indices 1 2 3 4 5 6 
#
# 1 91.4590 40.0824 35.6456 0.0000 0.0000 0.0000
# 2 40.0824 103.6583 32.1739 0.0000 0.0000 0.0000
# 3 35.6456 32.1739 103.4836 0.0000 0.0000 0.0000
# 4 0.0000 0.0000 0.0000 44.2640 0.0000 0.0000
# 5 0.0000 0.0000 0.0000 0.0000 33.7590 0.0000
# 6 0.0000 0.0000 0.0000 0.0000 0.0000 33.3043
#
#
#
# Elastic Compliance Matrix: (Units=1/GPa)
#
#
# Indices 1 2 3 4 5 6 
#
# 1 0.014245 -0.004411 -0.003535 0.000000 0.000000 0.000000
# 2 -0.004411 0.012043 -0.002225 0.000000 0.000000 0.000000
# 3 -0.003535 -0.002225 0.011573 0.000000 0.000000 0.000000
# 4 0.000000 0.000000 0.000000 0.022592 0.000000 0.000000
# 5 0.000000 0.000000 0.000000 0.000000 0.029622 0.000000
# 6 0.000000 0.000000 0.000000 0.000000 0.000000 0.030026
#
#
# Mechanical properties :
#
#
# Convention : Reuss Voigt Hill
#
# Bulk Modulus (GPa) = 57.08220 57.15607 57.11913
# Shear Modulus (GPa) = 34.18042 34.97872 34.57957
#
# Velocity S-wave (km/s) = 4.16448 4.21283 4.18873
# Velocity P-wave (km/s) = 7.21713 7.25703 7.23711
#
# Compressibility (1/GPa) = 0.01751860
#
# Stress axis : x y z
#
# Youngs Moduli (GPa) = 70.20092 83.03395 86.40862
#
# Poissons Ratio (x) = 0.36625 0.30549
# Poissons Ratio (y) = 0.30965 0.19226
# Poissons Ratio (z) = 0.24819 0.18475
#
# Static dielectric constant tensor:
#      x y z
#    x 3.490060 0.000000 0.000000 
#    y 0.000000 3.487190 0.000000 
#    z 0.000000 0.000000 3.580880 
# 
# 
# High freq. dielectric constant tensor:
#      x y z
#    x 1.764670 0.000000 0.000000 
#    y 0.000000 1.796330 0.000000 
#    z 0.000000 0.000000 1.776490 
# 
# From -- ./inp_files/3682.got.cif
#   From: 2010.03.12/outbox.cif.g09.slc.cpg/sg39_2_cif.got.tgz:3682.got - 2010.04.14 02:53:20.
