data_PCOD8181960
_publ_section_title
;
Structure prediction by ZEFSAII (Michael W. Deem and Ramdas Pophale) SiO2 
 PCOD8181960
Probable space group: A B M 2
;
_chemical_formula_sum "Si O2"
_cell_formula_units_Z 48
_cell_length_a 14.706788
_cell_length_b 17.917859
_cell_length_c 8.859906
_cell_angle_alpha 90.000000
_cell_angle_beta 90.000000
_cell_angle_gamma 90.000000
_cell_volume 2334.710632
_symmetry_space_group_name_H-M "A B M 2"
_symmetry_group_IT_number 39
_symmetry_cell_setting 'orthorhombic'
loop_
_space_group_symop_operation_xyz
x,y,z
-x,-y,z
-x,1/2+y,z
x,1/2-y,z
x,1/2+y,1/2+z
-x,1/2-y,1/2+z
-x,y,1/2+z
x,-y,1/2+z
loop_
_atom_site_type_symbol
_atom_site_label
_atom_site_fract_x
_atom_site_fract_y
_atom_site_fract_z
Si Si1 0.384241 0.336885 0.478670
Si Si2 0.037045 0.583416 0.210132
Si Si3 0.763010 0.566232 0.632214
Si Si4 0.909611 0.664468 0.002434
Si Si5 0.271383 0.589145 0.479751
Si Si6 0.433427 0.662859 0.639992
O O1 0.360762 0.250000 0.483308
O O2 0.293129 0.379796 0.522881
O O3 0.463103 0.357412 0.597607
O O4 0.415463 0.361490 0.311750
O O5 0.131545 0.589940 0.118392
O O6 0.054118 0.605049 0.382065
O O7 0.000000 0.500000 0.203185
O O8 0.963953 0.643589 0.153050
O O9 0.753430 0.482488 0.577062
O O10 0.727193 0.571485 0.802718
O O11 0.927841 0.750000 0.956975
O O12 0.801713 0.652997 0.022504
O O13 0.370102 0.617999 0.525352
O O14 0.415710 0.750000 0.614415
#
# Coordination Sequence:
#
# PCOD8181960 Si02
#       6
#     8   8   8   8   8   8
#     4  10  22  40  64  95 128 168 216 264 325 391
#     4  11  23  42  65  89 129 172 213 266 330 391
#     4  11  24  39  64  90 124 169 213 267 321 391
#     4  11  24  40  64  95 126 166 219 272 322 386
#     4  11  23  40  61  90 127 164 216 263 329 386
#     4  10  21  40  65  92 130 170 209 267 328 385
#
# _framework density 20.559293
#
# number of rings (size 3 to 8) (size 9 to 14) (size 15 to 20)
#    0.000    1.333    1.667    3.500    2.333    7.333 
#    0.000    5.000    0.000    0.000    0.000    0.000 
#    0.000    0.000    0.000    0.000    0.000    0.000 
#
# Total GULP energy -297710.358899 kJ/mol
# GULP energy per Si atom -12404.598287 kJ/mol
# Density = 2.051250 g / cm^3
# Si number density = 20.559293 Si / 1000 Ang^3
#
#
#
# Elastic Constant Matrix: (Units=GPa)
#
#
# Indices 1 2 3 4 5 6 
#
# 1 71.5054 38.4248 26.6641 0.0000 0.0000 0.0000
# 2 38.4248 90.8353 36.2579 0.0000 0.0000 0.0000
# 3 26.6641 36.2579 79.4241 0.0000 0.0000 0.0000
# 4 0.0000 0.0000 0.0000 29.9656 0.0000 0.0000
# 5 0.0000 0.0000 0.0000 0.0000 36.4416 0.0000
# 6 0.0000 0.0000 0.0000 0.0000 0.0000 41.5151
#
#
#
# Elastic Compliance Matrix: (Units=1/GPa)
#
#
# Indices 1 2 3 4 5 6 
#
# 1 0.018770 -0.006634 -0.003273 0.000000 0.000000 0.000000
# 2 -0.006634 0.015806 -0.004989 0.000000 0.000000 0.000000
# 3 -0.003273 -0.004989 0.015967 0.000000 0.000000 0.000000
# 4 0.000000 0.000000 0.000000 0.033372 0.000000 0.000000
# 5 0.000000 0.000000 0.000000 0.000000 0.027441 0.000000
# 6 0.000000 0.000000 0.000000 0.000000 0.000000 0.024088
#
#
# Mechanical properties :
#
#
# Convention : Reuss Voigt Hill
#
# Bulk Modulus (GPa) = 48.18711 49.38427 48.78569
# Shear Modulus (GPa) = 29.04405 30.94568 29.99487
#
# Velocity S-wave (km/s) = 3.76266 3.88389 3.82376
# Velocity P-wave (km/s) = 6.50891 6.64721 6.57842
#
# Compressibility (1/GPa) = 0.02075244
#
# Stress axis : x y z
#
# Youngs Moduli (GPa) = 53.27600 63.26565 62.62948
#
# Poissons Ratio (x) = 0.41968 0.20500
# Poissons Ratio (y) = 0.35341 0.31244
# Poissons Ratio (z) = 0.17438 0.31562
#
# Static dielectric constant tensor:
#      x y z
#    x 3.927480 0.000000 0.000000 
#    y 0.000000 3.590220 0.000000 
#    z 0.000000 0.000000 3.753190 
# 
# 
# High freq. dielectric constant tensor:
#      x y z
#    x 1.815780 0.000000 0.000000 
#    y 0.000000 1.802430 0.000000 
#    z 0.000000 0.000000 1.810430 
# 
# From -- ./inp_files/3214.got.cif
#   From: 2010.03.12/outbox.cif.g09.slc.cpg/sg39_2_cif.got.tgz:3214.got - 2010.04.14 02:53:20.
