data_PCOD8181034
_publ_section_title
;
Structure prediction by ZEFSAII (Michael W. Deem and Ramdas Pophale) SiO2 
 PCOD8181034
Probable space group: A B M 2
;
_chemical_formula_sum "Si O2"
_cell_formula_units_Z 64
_cell_length_a 14.284849
_cell_length_b 8.778564
_cell_length_c 31.125384
_cell_angle_alpha 90.000000
_cell_angle_beta 90.000000
_cell_angle_gamma 90.000000
_cell_volume 3903.137508
_symmetry_space_group_name_H-M "A B M 2"
_symmetry_group_IT_number 39
_symmetry_cell_setting 'orthorhombic'
loop_
_space_group_symop_operation_xyz
x,y,z
-x,-y,z
-x,1/2+y,z
x,1/2-y,z
x,1/2+y,1/2+z
-x,1/2-y,1/2+z
-x,y,1/2+z
x,-y,1/2+z
loop_
_atom_site_type_symbol
_atom_site_label
_atom_site_fract_x
_atom_site_fract_y
_atom_site_fract_z
Si Si1 0.594977 0.571108 0.868480
Si Si2 0.896471 0.930540 0.254762
Si Si3 0.222888 0.071852 0.497133
Si Si4 0.100381 0.929341 0.914140
Si Si5 0.793733 0.569390 0.834226
Si Si6 0.101123 0.928084 0.169606
Si Si7 0.898981 0.927296 0.575451
Si Si8 0.595018 0.570631 0.965969
O O1 0.500000 0.500000 0.848622
O O2 0.582105 0.750000 0.868175
O O3 0.685289 0.522073 0.840881
O O4 0.610313 0.511689 0.917132
O O5 0.904151 0.750000 0.256179
O O6 0.827417 0.988239 0.291321
O O7 0.849540 0.985983 0.209560
O O8 0.000000 0.000000 0.261010
O O9 0.243210 0.250000 0.500926
O O10 0.162673 0.033019 0.455321
O O11 0.170179 0.007543 0.539239
O O12 0.320588 0.984779 0.495487
O O13 0.092395 0.750000 0.905131
O O14 0.144142 0.011820 0.873367
O O15 0.000000 0.000000 0.923538
O O16 0.805688 0.750000 0.830371
O O17 0.094574 0.750000 0.180630
O O18 0.147792 0.956424 0.122736
O O19 0.000000 0.000000 0.165707
O O20 0.914880 0.750000 0.567702
O O21 0.000000 0.000000 0.570282
O O22 0.500000 0.500000 0.984889
O O23 0.588089 0.750000 0.967880
#
# Coordination Sequence:
#
# PCOD8181034 Si02
#       8
#     8   8   8   8   8   8   8   8
#     4   9  19  33  51  71  93 121 156 199 242 283
#     4  11  21  33  49  71  97 128 163 201 242 287
#     4  10  20  33  48  70  98 130 164 200 239 285
#     4  11  22  33  46  65  95 133 167 198 233 275
#     4  11  21  35  50  69  96 127 163 199 238 286
#     4   9  16  29  48  69  94 125 159 200 243 285
#     4   9  18  31  48  71  99 130 165 200 240 284
#     4  10  19  33  51  72  94 124 161 203 247 287
#
# _framework density 16.397065000000001
#
# number of rings (size 3 to 8) (size 9 to 14) (size 15 to 20)
#    0.000    2.000    1.250    4.125    0.000    3.000 
#    0.000    0.000    0.000    0.000    0.000    0.875 
#    0.000    4.000    0.000    0.000    0.000    0.000 
#
# Total GULP energy -396731.290362 kJ/mol
# GULP energy per Si atom -12397.852824 kJ/mol
# Density = 1.635974 g / cm^3
# Si number density = 16.397065 Si / 1000 Ang^3
#
#
#
# Elastic Constant Matrix: (Units=GPa)
#
#
# Indices 1 2 3 4 5 6 
#
# 1 111.6331 43.9930 55.1206 0.0000 0.0000 0.0000
# 2 43.9930 76.2061 43.1873 0.0000 0.0000 0.0000
# 3 55.1206 43.1873 121.1730 0.0000 0.0000 0.0000
# 4 0.0000 0.0000 0.0000 23.8440 0.0000 0.0000
# 5 0.0000 0.0000 0.0000 0.0000 0.8435 0.0000
# 6 0.0000 0.0000 0.0000 0.0000 0.0000 28.2631
#
#
#
# Elastic Compliance Matrix: (Units=1/GPa)
#
#
# Indices 1 2 3 4 5 6 
#
# 1 0.013019 -0.005212 -0.004064 0.000000 0.000000 0.000000
# 2 -0.005212 0.018530 -0.004233 0.000000 0.000000 0.000000
# 3 -0.004064 -0.004233 0.011610 0.000000 0.000000 0.000000
# 4 0.000000 0.000000 0.000000 0.041939 0.000000 0.000000
# 5 0.000000 0.000000 0.000000 0.000000 1.185593 0.000000
# 6 0.000000 0.000000 0.000000 0.000000 0.000000 0.035382
#
#
# Mechanical properties :
#
#
# Convention : Reuss Voigt Hill
#
# Bulk Modulus (GPa) = 61.96016 65.95710 63.95863
# Shear Modulus (GPa) = 3.73560 21.70418 12.71989
#
# Velocity S-wave (km/s) = 1.51101 3.64216 2.78824
# Velocity P-wave (km/s) = 6.39637 7.61573 7.03253
#
# Compressibility (1/GPa) = 0.01613940
#
# Stress axis : x y z
#
# Youngs Moduli (GPa) = 76.81140 53.96520 86.12957
#
# Poissons Ratio (x) = 0.28128 0.35007
# Poissons Ratio (y) = 0.40036 0.36462
# Poissons Ratio (z) = 0.31220 0.22846
#
# Static dielectric constant tensor:
#      x y z
#    x 3.010630 0.000000 0.000000 
#    y 0.000000 3.176420 0.000000 
#    z 0.000000 0.000000 3.567420 
# 
# 
# High freq. dielectric constant tensor:
#      x y z
#    x 1.609420 0.000000 0.000000 
#    y 0.000000 1.643180 0.000000 
#    z 0.000000 0.000000 1.625640 
# 
# From -- ./inp_files/17981.got.cif
#   From: 2010.03.12/outbox.cif.g09.slc.cpg/sg39_9_cif.got.tgz:17981.got - 2010.04.14 02:53:20.
