data_PCOD8181940
_publ_section_title
;
Structure prediction by ZEFSAII (Michael W. Deem and Ramdas Pophale) SiO2 
 PCOD8181940
Probable space group: A B M 2
;
_chemical_formula_sum "Si O2"
_cell_formula_units_Z 64
_cell_length_a 18.489319
_cell_length_b 18.996685
_cell_length_c 9.058290
_cell_angle_alpha 90.000000
_cell_angle_beta 90.000000
_cell_angle_gamma 90.000000
_cell_volume 3181.595453
_symmetry_space_group_name_H-M "A B M 2"
_symmetry_group_IT_number 39
_symmetry_cell_setting 'orthorhombic'
loop_
_space_group_symop_operation_xyz
x,y,z
-x,-y,z
-x,1/2+y,z
x,1/2-y,z
x,1/2+y,1/2+z
-x,1/2-y,1/2+z
-x,y,1/2+z
x,-y,1/2+z
loop_
_atom_site_type_symbol
_atom_site_label
_atom_site_fract_x
_atom_site_fract_y
_atom_site_fract_z
Si Si1 0.424647 0.830009 0.470590
Si Si2 0.050311 0.088142 0.037793
Si Si3 0.186447 0.331552 0.090652
Si Si4 0.753233 0.437543 0.109426
Si Si5 0.440774 0.671802 0.802547
Si Si6 0.287486 0.924463 0.426039
Si Si7 0.918306 0.444788 0.194281
Si Si8 0.282393 0.333736 0.366508
O O1 0.401469 0.750000 0.418366
O O2 0.457563 0.824719 0.631595
O O3 0.489163 0.865241 0.374650
O O4 0.358904 0.884327 0.478140
O O5 0.060165 0.068010 0.865967
O O6 0.100796 0.153057 0.088169
O O7 0.966696 0.105035 0.083519
O O8 0.069281 0.025322 0.149896
O O9 0.200791 0.250000 0.068275
O O10 0.226670 0.358844 0.239011
O O11 0.219925 0.372663 0.952086
O O12 0.702770 0.440022 0.253249
O O13 0.834732 0.432562 0.165673
O O14 0.730410 0.503470 0.010342
O O15 0.741616 0.365594 0.021113
O O16 0.437677 0.750000 0.871966
O O17 0.362861 0.635970 0.832482
O O18 0.281640 0.250000 0.376962
#
# Coordination Sequence:
#
# PCOD8181940 Si02
#       8
#     8   8   8   8   8   8   8   8
#     4  10  21  39  66  95 127 168 213 263 319 381
#     4  11  23  39  64  95 120 166 209 263 311 375
#     4  11  22  41  65  92 128 167 210 264 325 376
#     4  12  25  41  65  95 125 167 212 268 314 385
#     4   9  19  37  62  92 122 163 211 256 309 377
#     4  12  24  41  65  92 127 167 214 266 319 380
#     4  11  22  39  63  92 122 159 212 255 311 374
#     4  10  23  41  66  93 125 166 213 266 319 376
#
# _framework density 20.115694000000001
#
# number of rings (size 3 to 8) (size 9 to 14) (size 15 to 20)
#    0.000    1.250    3.750    2.625    5.250    1.000 
#    0.000    1.875    0.000    0.000    0.000    0.000 
#    0.000    0.000    0.000    0.000    0.000    0.000 
#
# Total GULP energy -396566.957601 kJ/mol
# GULP energy per Si atom -12392.717425 kJ/mol
# Density = 2.006991 g / cm^3
# Si number density = 20.115694 Si / 1000 Ang^3
#
#
#
# Elastic Constant Matrix: (Units=GPa)
#
#
# Indices 1 2 3 4 5 6 
#
# 1 93.4965 27.5352 36.9547 0.0000 0.0000 0.0000
# 2 27.5352 53.5458 37.3032 0.0000 0.0000 0.0000
# 3 36.9547 37.3032 130.2707 0.0000 0.0000 0.0000
# 4 0.0000 0.0000 0.0000 22.6455 0.0000 0.0000
# 5 0.0000 0.0000 0.0000 0.0000 37.4105 0.0000
# 6 0.0000 0.0000 0.0000 0.0000 0.0000 27.1984
#
#
#
# Elastic Compliance Matrix: (Units=1/GPa)
#
#
# Indices 1 2 3 4 5 6 
#
# 1 0.013105 -0.005183 -0.002233 0.000000 0.000000 0.000000
# 2 -0.005183 0.025380 -0.005797 0.000000 0.000000 0.000000
# 3 -0.002233 -0.005797 0.009970 0.000000 0.000000 0.000000
# 4 0.000000 0.000000 0.000000 0.044159 0.000000 0.000000
# 5 0.000000 0.000000 0.000000 0.000000 0.026730 0.000000
# 6 0.000000 0.000000 0.000000 0.000000 0.000000 0.036767
#
#
# Mechanical properties :
#
#
# Convention : Reuss Voigt Hill
#
# Bulk Modulus (GPa) = 45.39866 53.43324 49.41595
# Shear Modulus (GPa) = 26.33243 29.15220 27.74231
#
# Velocity S-wave (km/s) = 3.62200 3.81100 3.71770
# Velocity P-wave (km/s) = 6.33322 6.78127 6.56107
#
# Compressibility (1/GPa) = 0.02202708
#
# Stress axis : x y z
#
# Youngs Moduli (GPa) = 76.30819 39.40182 100.30209
#
# Poissons Ratio (x) = 0.20422 0.22401
# Poissons Ratio (y) = 0.39551 0.58147
# Poissons Ratio (z) = 0.17042 0.22842
#
# Static dielectric constant tensor:
#      x y z
#    x 4.222010 0.000000 0.000000 
#    y 0.000000 3.399480 0.000000 
#    z 0.000000 0.000000 3.795250 
# 
# 
# High freq. dielectric constant tensor:
#      x y z
#    x 1.798320 0.000000 0.000000 
#    y 0.000000 1.754230 0.000000 
#    z 0.000000 0.000000 1.794810 
# 
# From -- ./inp_files/3858.got.cif
#   From: 2010.03.12/outbox.cif.g09.slc.cpg/sg39_2_cif.got.tgz:3858.got - 2010.04.14 02:53:20.
