data_PCOD8181083
_publ_section_title
;
Structure prediction by ZEFSAII (Michael W. Deem and Ramdas Pophale) SiO2 
 PCOD8181083
Probable space group: A B M 2
;
_chemical_formula_sum "Si O2"
_cell_formula_units_Z 64
_cell_length_a 19.194441
_cell_length_b 8.740885
_cell_length_c 20.472327
_cell_angle_alpha 90.000000
_cell_angle_beta 90.000000
_cell_angle_gamma 90.000000
_cell_volume 3434.773353
_symmetry_space_group_name_H-M "A B M 2"
_symmetry_group_IT_number 39
_symmetry_cell_setting 'orthorhombic'
loop_
_space_group_symop_operation_xyz
x,y,z
-x,-y,z
-x,1/2+y,z
x,1/2-y,z
x,1/2+y,1/2+z
-x,1/2-y,1/2+z
-x,y,1/2+z
x,-y,1/2+z
loop_
_atom_site_type_symbol
_atom_site_label
_atom_site_fract_x
_atom_site_fract_y
_atom_site_fract_z
Si Si1 0.430376 0.427361 0.585650
Si Si2 0.710671 0.930379 0.896039
Si Si3 0.927785 0.069254 0.072125
Si Si4 0.203310 0.428674 0.021464
Si Si5 0.794011 0.071841 0.268857
Si Si6 0.427949 0.430764 0.437761
Si Si7 0.283762 0.573061 0.137033
Si Si8 0.926850 0.931349 0.213029
O O1 0.500000 0.500000 0.616195
O O2 0.444645 0.250000 0.581133
O O3 0.416040 0.489462 0.512259
O O4 0.365696 0.466181 0.632639
O O5 0.698876 0.750000 0.895700
O O6 0.751690 0.985499 0.960281
O O7 0.755291 0.984020 0.833884
O O8 0.635484 0.009732 0.893569
O O9 0.933873 0.250000 0.078580
O O10 0.907823 0.000974 0.142614
O O11 0.000000 0.000000 0.046501
O O12 0.868987 0.021875 0.020349
O O13 0.186462 0.250000 0.016981
O O14 0.243709 0.463283 0.087894
O O15 0.813691 0.250000 0.272190
O O16 0.741453 0.037250 0.209665
O O17 0.865488 0.976916 0.262634
O O18 0.500000 0.500000 0.410282
O O19 0.431305 0.250000 0.432859
O O20 0.269700 0.750000 0.117455
O O21 0.933568 0.750000 0.207319
O O22 0.000000 0.000000 0.238556
#
# Coordination Sequence:
#
# PCOD8181083 Si02
#       8
#     8   8   8   8   8   8   8   8
#     4   9  18  31  50  79 108 139 180 229 281 333
#     4  10  22  38  56  82 116 153 190 231 280 335
#     4  11  21  35  56  83 114 146 184 230 283 335
#     4  11  21  34  55  83 113 143 184 232 279 329
#     4  10  21  38  58  81 114 153 189 228 280 335
#     4  10  19  33  55  81 110 144 188 233 281 338
#     4  10  19  34  56  80 108 143 185 229 280 333
#     4  11  21  35  57  85 113 145 187 230 278 332
#
# _framework density 18.632963
#
# number of rings (size 3 to 8) (size 9 to 14) (size 15 to 20)
#    0.000    1.750    2.500    3.750    0.000    2.000 
#    0.000    1.250    0.000    1.500    0.000    0.000 
#    0.000    0.000    0.000    0.000    0.000    0.000 
#
# Total GULP energy -396903.673035 kJ/mol
# GULP energy per Si atom -12403.239782 kJ/mol
# Density = 1.859055 g / cm^3
# Si number density = 18.632963 Si / 1000 Ang^3
#
#
#
# Elastic Constant Matrix: (Units=GPa)
#
#
# Indices 1 2 3 4 5 6 
#
# 1 165.1640 57.8837 54.2963 0.0000 0.0000 0.0000
# 2 57.8837 91.4819 31.3156 0.0000 0.0000 0.0000
# 3 54.2963 31.3156 74.6518 0.0000 0.0000 0.0000
# 4 0.0000 0.0000 0.0000 18.5990 0.0000 0.0000
# 5 0.0000 0.0000 0.0000 0.0000 26.6608 0.0000
# 6 0.0000 0.0000 0.0000 0.0000 0.0000 37.6491
#
#
#
# Elastic Compliance Matrix: (Units=1/GPa)
#
#
# Indices 1 2 3 4 5 6 
#
# 1 0.009096 -0.004076 -0.004906 0.000000 0.000000 0.000000
# 2 -0.004076 0.014590 -0.003156 0.000000 0.000000 0.000000
# 3 -0.004906 -0.003156 0.018288 0.000000 0.000000 0.000000
# 4 0.000000 0.000000 0.000000 0.053766 0.000000 0.000000
# 5 0.000000 0.000000 0.000000 0.000000 0.037508 0.000000
# 6 0.000000 0.000000 0.000000 0.000000 0.000000 0.026561
#
#
# Mechanical properties :
#
#
# Convention : Reuss Voigt Hill
#
# Bulk Modulus (GPa) = 56.50248 68.69876 62.60062
# Shear Modulus (GPa) = 26.31798 29.10193 27.70995
#
# Velocity S-wave (km/s) = 3.76232 3.95631 3.86054
# Velocity P-wave (km/s) = 7.01878 7.60391 7.31719
#
# Compressibility (1/GPa) = 0.01769834
#
# Stress axis : x y z
#
# Youngs Moduli (GPa) = 109.94114 68.53813 54.68197
#
# Poissons Ratio (x) = 0.27935 0.26826
# Poissons Ratio (y) = 0.44811 0.17258
# Poissons Ratio (z) = 0.53935 0.21631
#
# Static dielectric constant tensor:
#      x y z
#    x 3.660010 0.000000 0.000000 
#    y 0.000000 3.362320 0.000000 
#    z 0.000000 0.000000 3.225410 
# 
# 
# High freq. dielectric constant tensor:
#      x y z
#    x 1.741620 0.000000 0.000000 
#    y 0.000000 1.725120 0.000000 
#    z 0.000000 0.000000 1.687510 
# 
# From -- ./inp_files/13115.got.cif
#   From: 2010.03.12/outbox.cif.g09.slc.cpg/sg39_7_cif.got.tgz:13115.got - 2010.04.14 02:53:20.
