data_PCOD8181206
_publ_section_title
;
Structure prediction by ZEFSAII (Michael W. Deem and Ramdas Pophale) SiO2 
 PCOD8181206
Probable space group: A B M 2
;
_chemical_formula_sum "Si O2"
_cell_formula_units_Z 64
_cell_length_a 19.834340
_cell_length_b 8.816057
_cell_length_c 20.007820
_cell_angle_alpha 90.000000
_cell_angle_beta 90.000000
_cell_angle_gamma 90.000000
_cell_volume 3498.580850
_symmetry_space_group_name_H-M "A B M 2"
_symmetry_group_IT_number 39
_symmetry_cell_setting 'orthorhombic'
loop_
_space_group_symop_operation_xyz
x,y,z
-x,-y,z
-x,1/2+y,z
x,1/2-y,z
x,1/2+y,1/2+z
-x,1/2-y,1/2+z
-x,y,1/2+z
x,-y,1/2+z
loop_
_atom_site_type_symbol
_atom_site_label
_atom_site_fract_x
_atom_site_fract_y
_atom_site_fract_z
Si Si1 0.820815 0.928275 0.283360
Si Si2 0.205896 0.426159 0.429173
Si Si3 0.675769 0.428861 0.737521
Si Si4 0.160555 0.924280 0.071791
Si Si5 0.686260 0.572117 0.600548
Si Si6 0.655625 0.570967 0.964755
Si Si7 0.428987 0.928994 0.852270
Si Si8 0.927467 0.928768 0.178137
O O1 0.819969 0.750000 0.272663
O O2 0.833765 0.969288 0.361258
O O3 0.748464 0.992677 0.260730
O O4 0.880239 0.996457 0.237434
O O5 0.229196 0.250000 0.428396
O O6 0.157086 0.456626 0.492135
O O7 0.272949 0.525073 0.433153
O O8 0.677490 0.250000 0.724766
O O9 0.654699 0.512033 0.669282
O O10 0.622447 0.474043 0.793713
O O11 0.143777 0.750000 0.087617
O O12 0.234421 0.968594 0.098522
O O13 0.104769 0.027974 0.106868
O O14 0.674550 0.750000 0.592772
O O15 0.648233 0.489574 0.540076
O O16 0.648287 0.750000 0.964437
O O17 0.595566 0.499195 0.921921
O O18 0.435320 0.750000 0.860533
O O19 0.500000 0.000000 0.832090
O O20 0.934792 0.750000 0.182270
O O21 0.000000 0.000000 0.187028
#
# Coordination Sequence:
#
# PCOD8181206 Si02
#       8
#     8   8   8   8   8   8   8   8
#     4   9  17  33  57  82 109 146 184 227 281 334
#     4   9  17  34  57  82 111 143 182 229 284 332
#     4  10  19  35  59  85 114 149 189 233 282 340
#     4   9  18  32  53  80 109 141 179 226 277 333
#     4  10  20  34  56  85 116 145 183 238 288 331
#     4  11  21  34  55  84 115 148 190 233 279 335
#     4  11  23  40  60  83 117 154 190 233 286 345
#     4  11  22  36  55  77 109 148 187 229 281 342
#
# _framework density 18.293130999999999
#
# number of rings (size 3 to 8) (size 9 to 14) (size 15 to 20)
#    0.000    2.000    2.500    3.000    0.000    3.000 
#    0.000    2.500    0.000    3.000    0.000    0.000 
#    0.000    0.000    0.000    0.000    0.000    0.000 
#
# Total GULP energy -396854.552125 kJ/mol
# GULP energy per Si atom -12401.704754 kJ/mol
# Density = 1.825149 g / cm^3
# Si number density = 18.293131 Si / 1000 Ang^3
#
#
#
# Elastic Constant Matrix: (Units=GPa)
#
#
# Indices 1 2 3 4 5 6 
#
# 1 111.7035 46.8801 65.3042 0.0000 0.0000 0.0000
# 2 46.8801 79.9320 49.5902 0.0000 0.0000 0.0000
# 3 65.3042 49.5902 151.5527 0.0000 0.0000 0.0000
# 4 0.0000 0.0000 0.0000 28.8830 0.0000 0.0000
# 5 0.0000 0.0000 0.0000 0.0000 25.0501 0.0000
# 6 0.0000 0.0000 0.0000 0.0000 0.0000 26.4859
#
#
#
# Elastic Compliance Matrix: (Units=1/GPa)
#
#
# Indices 1 2 3 4 5 6 
#
# 1 0.013634 -0.005460 -0.004088 0.000000 0.000000 0.000000
# 2 -0.005460 0.017884 -0.003499 0.000000 0.000000 0.000000
# 3 -0.004088 -0.003499 0.009505 0.000000 0.000000 0.000000
# 4 0.000000 0.000000 0.000000 0.034622 0.000000 0.000000
# 5 0.000000 0.000000 0.000000 0.000000 0.039920 0.000000
# 6 0.000000 0.000000 0.000000 0.000000 0.000000 0.037756
#
#
# Mechanical properties :
#
#
# Convention : Reuss Voigt Hill
#
# Bulk Modulus (GPa) = 66.98841 74.08190 70.53515
# Shear Modulus (GPa) = 27.11625 28.17806 27.64715
#
# Velocity S-wave (km/s) = 3.85427 3.92900 3.89181
# Velocity P-wave (km/s) = 7.51705 7.82098 7.67052
#
# Compressibility (1/GPa) = 0.01492796
#
# Stress axis : x y z
#
# Youngs Moduli (GPa) = 73.34744 55.91678 105.20801
#
# Poissons Ratio (x) = 0.30529 0.43012
# Poissons Ratio (y) = 0.40046 0.36814
# Poissons Ratio (z) = 0.29986 0.19566
#
# Static dielectric constant tensor:
#      x y z
#    x 3.204050 0.000000 0.000000 
#    y 0.000000 3.229490 0.000000 
#    z 0.000000 0.000000 3.603000 
# 
# 
# High freq. dielectric constant tensor:
#      x y z
#    x 1.680510 0.000000 0.000000 
#    y 0.000000 1.701890 0.000000 
#    z 0.000000 0.000000 1.725210 
# 
# From -- ./inp_files/15036.got.cif
#   From: 2010.03.12/outbox.cif.g09.slc.cpg/sg39_8_cif.got.tgz:15036.got - 2010.04.14 02:53:20.
