data_PCOD8181271
_publ_section_title
;
Structure prediction by ZEFSAII (Michael W. Deem and Ramdas Pophale) SiO2 
 PCOD8181271
Probable space group: A B M 2
;
_chemical_formula_sum "Si O2"
_cell_formula_units_Z 64
_cell_length_a 9.391262
_cell_length_b 17.282295
_cell_length_c 18.997664
_cell_angle_alpha 90.000000
_cell_angle_beta 90.000000
_cell_angle_gamma 90.000000
_cell_volume 3083.369507
_symmetry_space_group_name_H-M "A B M 2"
_symmetry_group_IT_number 39
_symmetry_cell_setting 'orthorhombic'
loop_
_space_group_symop_operation_xyz
x,y,z
-x,-y,z
-x,1/2+y,z
x,1/2-y,z
x,1/2+y,1/2+z
-x,1/2-y,1/2+z
-x,y,1/2+z
x,-y,1/2+z
loop_
_atom_site_type_symbol
_atom_site_label
_atom_site_fract_x
_atom_site_fract_y
_atom_site_fract_z
Si Si1 0.645133 0.527982 0.522310
Si Si2 0.148816 0.043346 0.396281
Si Si3 0.984227 0.836130 0.819001
Si Si4 0.724575 0.057430 0.659841
Si Si5 0.283895 0.334222 0.609464
Si Si6 0.026156 0.163433 0.157992
Si Si7 0.720280 0.443583 0.287087
Si Si8 0.498552 0.162741 0.734609
O O1 0.500000 0.500000 0.482596
O O2 0.783650 0.531407 0.472892
O O3 0.653517 0.469532 0.587831
O O4 0.634087 0.614097 0.552957
O O5 0.104332 0.130280 0.372868
O O6 0.269974 0.014019 0.342078
O O7 0.000000 0.000000 0.391723
O O8 0.946452 0.750000 0.845660
O O9 0.840637 0.884903 0.813329
O O10 0.048822 0.834395 0.741509
O O11 0.868444 0.096964 0.631776
O O12 0.634154 0.124016 0.698502
O O13 0.745689 0.982023 0.709666
O O14 0.271916 0.250000 0.574346
O O15 0.369252 0.328312 0.681294
O O16 0.128046 0.364815 0.631647
O O17 0.059271 0.250000 0.128388
O O18 0.568147 0.397998 0.291797
O O19 0.536172 0.250000 0.763472
#
# Coordination Sequence:
#
# PCOD8181271 Si02
#       8
#     8   8   8   8   8   8   8   8
#     4  12  24  42  61  89 126 170 211 260 321 383
#     4  10  25  41  61  88 125 165 215 265 313 378
#     4  10  19  38  64  91 122 164 206 256 313 370
#     4  12  22  36  63  96 129 163 210 266 326 381
#     4  10  21  38  62  90 119 160 208 254 316 383
#     4  10  20  35  61  96 125 153 202 262 321 377
#     4  11  20  38  64  94 122 162 209 266 317 386
#     4  11  21  37  62  93 128 164 205 263 322 386
#
# _framework density 20.756513999999999
#
# number of rings (size 3 to 8) (size 9 to 14) (size 15 to 20)
#    0.000    1.250    5.000    1.125    1.750    2.500 
#    0.000    0.000    0.000    6.000    0.000    0.000 
#    0.000    0.000    0.000    0.000    0.000    0.000 
#
# Total GULP energy -396456.623577 kJ/mol
# GULP energy per Si atom -12389.269487 kJ/mol
# Density = 2.070927 g / cm^3
# Si number density = 20.756514 Si / 1000 Ang^3
#
#
#
# Elastic Constant Matrix: (Units=GPa)
#
#
# Indices 1 2 3 4 5 6 
#
# 1 93.1261 41.9675 15.4429 0.0000 0.0000 0.0000
# 2 41.9675 116.3499 12.6580 0.0000 0.0000 0.0000
# 3 15.4429 12.6580 55.6044 0.0000 0.0000 0.0000
# 4 0.0000 0.0000 0.0000 14.0146 0.0000 0.0000
# 5 0.0000 0.0000 0.0000 0.0000 32.7332 0.0000
# 6 0.0000 0.0000 0.0000 0.0000 0.0000 36.6429
#
#
#
# Elastic Compliance Matrix: (Units=1/GPa)
#
#
# Indices 1 2 3 4 5 6 
#
# 1 0.013191 -0.004470 -0.002646 0.000000 0.000000 0.000000
# 2 -0.004470 0.010328 -0.001110 0.000000 0.000000 0.000000
# 3 -0.002646 -0.001110 0.018972 0.000000 0.000000 0.000000
# 4 0.000000 0.000000 0.000000 0.071354 0.000000 0.000000
# 5 0.000000 0.000000 0.000000 0.000000 0.030550 0.000000
# 6 0.000000 0.000000 0.000000 0.000000 0.000000 0.027290
#
#
# Mechanical properties :
#
#
# Convention : Reuss Voigt Hill
#
# Bulk Modulus (GPa) = 38.40349 45.02412 41.71380
# Shear Modulus (GPa) = 25.40430 29.67894 27.54162
#
# Velocity S-wave (km/s) = 3.50225 3.78545 3.64660
# Velocity P-wave (km/s) = 5.90732 6.39100 6.15391
#
# Compressibility (1/GPa) = 0.02603930
#
# Stress axis : x y z
#
# Youngs Moduli (GPa) = 75.80665 96.82496 52.71023
#
# Poissons Ratio (x) = 0.43284 0.13947
# Poissons Ratio (y) = 0.33888 0.05849
# Poissons Ratio (z) = 0.20058 0.10743
#
# Static dielectric constant tensor:
#      x y z
#    x 3.690170 0.000000 0.000000 
#    y 0.000000 4.324100 0.000000 
#    z 0.000000 0.000000 3.476350 
# 
# 
# High freq. dielectric constant tensor:
#      x y z
#    x 1.815030 0.000000 0.000000 
#    y 0.000000 1.831230 0.000000 
#    z 0.000000 0.000000 1.765900 
# 
# From -- ./inp_files/14221.got.cif
#   From: 2010.03.12/outbox.cif.g09.slc.cpg/sg39_8_cif.got.tgz:14221.got - 2010.04.14 02:53:20.
