data_PCOD8181638
_publ_section_title
;
Structure prediction by ZEFSAII (Michael W. Deem and Ramdas Pophale) SiO2 
 PCOD8181638
Probable space group: A B M 2
;
_chemical_formula_sum "Si O2"
_cell_formula_units_Z 64
_cell_length_a 23.864785
_cell_length_b 9.177633
_cell_length_c 15.242379
_cell_angle_alpha 90.000000
_cell_angle_beta 90.000000
_cell_angle_gamma 90.000000
_cell_volume 3338.419966
_symmetry_space_group_name_H-M "A B M 2"
_symmetry_group_IT_number 39
_symmetry_cell_setting 'orthorhombic'
loop_
_space_group_symop_operation_xyz
x,y,z
-x,-y,z
-x,1/2+y,z
x,1/2-y,z
x,1/2+y,1/2+z
-x,1/2-y,1/2+z
-x,y,1/2+z
x,-y,1/2+z
loop_
_atom_site_type_symbol
_atom_site_label
_atom_site_fract_x
_atom_site_fract_y
_atom_site_fract_z
Si Si1 0.673842 0.420893 0.952560
Si Si2 0.445891 0.919572 0.015014
Si Si3 0.058165 0.922681 0.971221
Si Si4 0.554025 0.080509 0.219205
Si Si5 0.134055 0.077820 0.111114
Si Si6 0.673637 0.420505 0.282003
Si Si7 0.055919 0.581896 0.770850
Si Si8 0.749841 0.079978 0.117096
O O1 0.673581 0.250000 0.936886
O O2 0.698279 0.498939 0.866784
O O3 0.610730 0.477703 0.969903
O O4 0.713758 0.461922 0.032585
O O5 0.454127 0.750000 0.998352
O O6 0.440055 0.956078 0.117117
O O7 0.500000 0.000000 0.974267
O O8 0.053088 0.750000 0.988372
O O9 0.106033 0.991305 0.031184
O O10 0.074402 0.957316 0.870140
O O11 0.000000 0.000000 0.996020
O O12 0.545623 0.250000 0.235644
O O13 0.610523 0.022820 0.264722
O O14 0.500000 0.000000 0.260023
O O15 0.131981 0.250000 0.091879
O O16 0.104683 0.038356 0.203447
O O17 0.197032 0.023907 0.119185
O O18 0.673398 0.250000 0.299606
O O19 0.712844 0.459571 0.200901
O O20 0.040789 0.750000 0.763833
O O21 0.000000 0.500000 0.742141
O O22 0.767365 0.250000 0.116285
#
# Coordination Sequence:
#
# PCOD8181638 Si02
#       8
#     8   8   8   8   8   8   8   8
#     4  10  21  38  59  80 107 144 185 228 281 339
#     4   9  17  32  54  79 107 141 177 220 274 336
#     4  10  20  37  60  88 121 157 190 227 277 330
#     4   9  17  32  54  79 108 141 177 221 274 336
#     4  11  23  38  58  86 116 149 192 239 279 328
#     4  10  21  38  59  81 108 143 185 231 281 336
#     4   9  20  37  58  85 119 152 184 224 272 324
#     4  10  22  42  60  76 107 151 190 230 282 335
#
# _framework density 19.170745
#
# number of rings (size 3 to 8) (size 9 to 14) (size 15 to 20)
#    0.000    2.250    1.250    1.125    0.000    6.000 
#    0.000    6.250    0.000    0.000    0.000    0.000 
#    0.000    0.000    0.000    0.000    0.000    0.000 
#
# Total GULP energy -396856.687754 kJ/mol
# GULP energy per Si atom -12401.771492 kJ/mol
# Density = 1.912711 g / cm^3
# Si number density = 19.170745 Si / 1000 Ang^3
#
#
#
# Elastic Constant Matrix: (Units=GPa)
#
#
# Indices 1 2 3 4 5 6 
#
# 1 135.7487 60.2179 72.3742 0.0000 0.0000 0.0000
# 2 60.2179 65.4324 56.7700 0.0000 0.0000 0.0000
# 3 72.3742 56.7700 122.5129 0.0000 0.0000 0.0000
# 4 0.0000 0.0000 0.0000 31.0169 0.0000 0.0000
# 5 0.0000 0.0000 0.0000 0.0000 -39.4264 0.0000
# 6 0.0000 0.0000 0.0000 0.0000 0.0000 38.0173
#
#
#
# Elastic Compliance Matrix: (Units=1/GPa)
#
#
# Indices 1 2 3 4 5 6 
#
# 1 0.013369 -0.009117 -0.003673 0.000000 0.000000 0.000000
# 2 -0.009117 0.031775 -0.009338 0.000000 0.000000 0.000000
# 3 -0.003673 -0.009338 0.014660 0.000000 0.000000 0.000000
# 4 0.000000 0.000000 0.000000 0.032240 0.000000 0.000000
# 5 0.000000 0.000000 0.000000 0.000000 -0.025364 0.000000
# 6 0.000000 0.000000 0.000000 0.000000 0.000000 0.026304
#
#
# Mechanical properties :
#
#
# Convention : Reuss Voigt Hill
#
# Bulk Modulus (GPa) = 64.31999 78.04647 71.18323
# Shear Modulus (GPa) = 35.10664 14.87703 24.99183
#
# Velocity S-wave (km/s) = 4.28397 2.78875 3.61452
# Velocity P-wave (km/s) = 7.62193 7.15326 7.39131
#
# Compressibility (1/GPa) = 0.01554727
#
# Stress axis : x y z
#
# Youngs Moduli (GPa) = 74.79940 31.47119 68.21488
#
# Poissons Ratio (x) = 0.28691 0.25057
# Poissons Ratio (y) = 0.68192 0.63701
# Poissons Ratio (z) = 0.27476 0.29389
#
# Static dielectric constant tensor:
#      x y z
#    x 3.584750 0.000000 0.000000 
#    y 0.000000 3.415080 0.000000 
#    z 0.000000 0.000000 3.614130 
# 
# 
# High freq. dielectric constant tensor:
#      x y z
#    x 1.744710 0.000000 0.000000 
#    y 0.000000 1.739770 0.000000 
#    z 0.000000 0.000000 1.753070 
# 
# From -- ./inp_files/10555.got.cif
#   From: 2010.03.12/outbox.cif.g09.slc.cpg/sg39_6_cif.got.tgz:10555.got - 2010.04.14 02:53:20.
