data_PCOD8181621
_publ_section_title
;
Structure prediction by ZEFSAII (Michael W. Deem and Ramdas Pophale) SiO2 
 PCOD8181621
Probable space group: A B M 2
;
_chemical_formula_sum "Si O2"
_cell_formula_units_Z 48
_cell_length_a 18.660990
_cell_length_b 8.312337
_cell_length_c 15.186607
_cell_angle_alpha 90.000000
_cell_angle_beta 90.000000
_cell_angle_gamma 90.000000
_cell_volume 2355.692378
_symmetry_space_group_name_H-M "A B M 2"
_symmetry_group_IT_number 39
_symmetry_cell_setting 'orthorhombic'
loop_
_space_group_symop_operation_xyz
x,y,z
-x,-y,z
-x,1/2+y,z
x,1/2-y,z
x,1/2+y,1/2+z
-x,1/2-y,1/2+z
-x,y,1/2+z
x,-y,1/2+z
loop_
_atom_site_type_symbol
_atom_site_label
_atom_site_fract_x
_atom_site_fract_y
_atom_site_fract_z
Si Si1 0.579454 0.939855 0.311010
Si Si2 0.333153 0.937950 0.645350
Si Si3 0.179662 0.437146 0.664306
Si Si4 0.920366 0.563080 0.313535
Si Si5 0.314468 0.937238 0.960103
Si Si6 0.841532 0.562984 0.976936
O O1 0.580431 0.750000 0.314843
O O2 0.609752 0.999863 0.217317
O O3 0.630081 0.006848 0.388667
O O4 0.500000 0.000000 0.326541
O O5 0.342046 0.750000 0.625611
O O6 0.253490 0.968925 0.682105
O O7 0.348387 0.036679 0.556516
O O8 0.197076 0.250000 0.652150
O O9 0.128395 0.463269 0.746582
O O10 0.142480 0.502530 0.575576
O O11 0.916425 0.750000 0.289647
O O12 0.893395 0.534815 0.412519
O O13 0.000000 0.500000 0.303227
O O14 0.297855 0.750000 0.944723
O O15 0.241054 0.035360 0.951030
O O16 0.860021 0.750000 0.969253
#
# Coordination Sequence:
#
# PCOD8181621 Si02
#       6
#     8   8   8   8   8   8
#     4  10  23  38  55  79 113 151 189 232 287 344
#     4  10  20  37  59  85 113 148 190 238 287 339
#     4  11  22  39  63  91 118 153 195 240 290 344
#     4  12  25  42  61  87 121 157 195 240 289 346
#     4  10  20  37  59  85 113 148 190 238 287 339
#     4  11  22  39  63  91 118 153 195 240 290 344
#
# _framework density 20.376175
#
# number of rings (size 3 to 8) (size 9 to 14) (size 15 to 20)
#    0.000    1.333    0.000    8.500    0.000    5.333 
#    0.000    6.667    0.000    0.000    0.000    0.000 
#    0.000    0.000    0.000    0.000    0.000    0.000 
#
# Total GULP energy -297736.935599 kJ/mol
# GULP energy per Si atom -12405.705650 kJ/mol
# Density = 2.032980 g / cm^3
# Si number density = 20.376175 Si / 1000 Ang^3
#
#
#
# Elastic Constant Matrix: (Units=GPa)
#
#
# Indices 1 2 3 4 5 6 
#
# 1 38.9307 4.6975 9.0986 0.0000 0.0000 0.0000
# 2 4.6975 64.1727 16.0780 0.0000 0.0000 0.0000
# 3 9.0986 16.0780 59.4594 0.0000 0.0000 0.0000
# 4 0.0000 0.0000 0.0000 34.9894 0.0000 0.0000
# 5 0.0000 0.0000 0.0000 0.0000 17.3271 0.0000
# 6 0.0000 0.0000 0.0000 0.0000 0.0000 25.8455
#
#
#
# Elastic Compliance Matrix: (Units=1/GPa)
#
#
# Indices 1 2 3 4 5 6 
#
# 1 0.026699 -0.000998 -0.003816 0.000000 0.000000 0.000000
# 2 -0.000998 0.016753 -0.004377 0.000000 0.000000 0.000000
# 3 -0.003816 -0.004377 0.018586 0.000000 0.000000 0.000000
# 4 0.000000 0.000000 0.000000 0.028580 0.000000 0.000000
# 5 0.000000 0.000000 0.000000 0.000000 0.057713 0.000000
# 6 0.000000 0.000000 0.000000 0.000000 0.000000 0.038691
#
#
# Mechanical properties :
#
#
# Convention : Reuss Voigt Hill
#
# Bulk Modulus (GPa) = 22.90695 24.70125 23.80410
# Shear Modulus (GPa) = 22.73183 24.47831 23.60507
#
# Velocity S-wave (km/s) = 3.34370 3.46977 3.40731
# Velocity P-wave (km/s) = 5.11600 5.31049 5.21415
#
# Compressibility (1/GPa) = 0.04365487
#
# Stress axis : x y z
#
# Youngs Moduli (GPa) = 37.45479 59.69182 53.80488
#
# Poissons Ratio (x) = 0.05960 0.20529
# Poissons Ratio (y) = 0.03740 0.23552
# Poissons Ratio (z) = 0.14291 0.26128
#
# Static dielectric constant tensor:
#      x y z
#    x 2.935480 0.000000 0.000000 
#    y 0.000000 3.672360 0.000000 
#    z 0.000000 0.000000 3.949740 
# 
# 
# High freq. dielectric constant tensor:
#      x y z
#    x 1.786350 0.000000 0.000000 
#    y 0.000000 1.804200 0.000000 
#    z 0.000000 0.000000 1.810680 
# 
# From -- ./inp_files/10234.got.cif
#   From: 2010.03.12/outbox.cif.g09.slc.cpg/sg39_6_cif.got.tgz:10234.got - 2010.04.14 02:53:20.
