data_PCOD8181444
_publ_section_title
;
Structure prediction by ZEFSAII (Michael W. Deem and Ramdas Pophale) SiO2 
 PCOD8181444
Probable space group: A B M 2
;
_chemical_formula_sum "Si O2"
_cell_formula_units_Z 64
_cell_length_a 17.629478
_cell_length_b 11.159943
_cell_length_c 15.124309
_cell_angle_alpha 90.000000
_cell_angle_beta 90.000000
_cell_angle_gamma 90.000000
_cell_volume 2975.616590
_symmetry_space_group_name_H-M "A B M 2"
_symmetry_group_IT_number 39
_symmetry_cell_setting 'orthorhombic'
loop_
_space_group_symop_operation_xyz
x,y,z
-x,-y,z
-x,1/2+y,z
x,1/2-y,z
x,1/2+y,1/2+z
-x,1/2-y,1/2+z
-x,y,1/2+z
x,-y,1/2+z
loop_
_atom_site_type_symbol
_atom_site_label
_atom_site_fract_x
_atom_site_fract_y
_atom_site_fract_z
Si Si1 0.860536 0.617008 0.206760
Si Si2 0.299112 0.453537 0.268992
Si Si3 0.170447 0.478243 0.541179
Si Si4 0.716259 0.881145 0.929557
Si Si5 0.686185 0.120024 0.111441
Si Si6 0.422297 0.451824 0.025341
Si Si7 0.060149 0.607066 0.890231
Si Si8 0.454015 0.119006 0.222765
O O1 0.885817 0.750000 0.179539
O O2 0.770902 0.619431 0.228441
O O3 0.879364 0.530268 0.123607
O O4 0.905554 0.577021 0.294310
O O5 0.273321 0.512734 0.359951
O O6 0.325973 0.557375 0.204183
O O7 0.374397 0.372675 0.276819
O O8 0.223001 0.587892 0.506348
O O9 0.226477 0.378041 0.580445
O O10 0.120794 0.412473 0.467688
O O11 0.738412 0.750000 0.891417
O O12 0.628605 0.867660 0.962417
O O13 0.654865 0.250000 0.127875
O O14 0.632705 0.065173 0.036914
O O15 0.500000 0.500000 0.979806
O O16 0.440979 0.386717 0.117289
O O17 0.032984 0.750000 0.894479
O O18 0.000000 0.500000 0.906803
O O19 0.493636 0.250000 0.241193
O O20 0.500000 0.000000 0.254329
#
# Coordination Sequence:
#
# PCOD8181444 Si02
#       8
#     8   8   8   8   8   8   8   8
#     4  10  21  41  68  94 129 171 218 265 316 383
#     4  10  20  35  55  86 118 158 209 260 322 380
#     4  10  21  40  65  95 126 166 217 261 321 379
#     4  11  21  34  56  87 123 161 212 270 322 378
#     4   9  18  33  55  82 113 155 209 263 315 374
#     4   9  20  34  51  76 113 159 211 261 322 383
#     4  11  25  46  70 101 138 175 214 260 317 385
#     4  10  21  37  58  81 112 158 209 263 321 383
#
# _framework density 21.508149
#
# number of rings (size 3 to 8) (size 9 to 14) (size 15 to 20)
#    0.000    2.000    1.250    2.625    0.000    7.500 
#    0.000    3.125    0.000    0.000    0.000    0.000 
#    0.000    0.000    0.000    0.000    0.000    0.000 
#
# Total GULP energy -396423.237648 kJ/mol
# GULP energy per Si atom -12388.226176 kJ/mol
# Density = 2.145920 g / cm^3
# Si number density = 21.508149 Si / 1000 Ang^3
#
#
#
# Elastic Constant Matrix: (Units=GPa)
#
#
# Indices 1 2 3 4 5 6 
#
# 1 64.0235 25.6592 11.4271 0.0000 0.0000 0.0000
# 2 25.6592 133.1008 20.5159 0.0000 0.0000 0.0000
# 3 11.4271 20.5159 84.2389 0.0000 0.0000 0.0000
# 4 0.0000 0.0000 0.0000 13.9816 0.0000 0.0000
# 5 0.0000 0.0000 0.0000 0.0000 31.7833 0.0000
# 6 0.0000 0.0000 0.0000 0.0000 0.0000 15.5461
#
#
#
# Elastic Compliance Matrix: (Units=1/GPa)
#
#
# Indices 1 2 3 4 5 6 
#
# 1 0.017127 -0.003058 -0.001578 0.000000 0.000000 0.000000
# 2 -0.003058 0.008352 -0.001619 0.000000 0.000000 0.000000
# 3 -0.001578 -0.001619 0.012479 0.000000 0.000000 0.000000
# 4 0.000000 0.000000 0.000000 0.071523 0.000000 0.000000
# 5 0.000000 0.000000 0.000000 0.000000 0.031463 0.000000
# 6 0.000000 0.000000 0.000000 0.000000 0.000000 0.064325
#
#
# Mechanical properties :
#
#
# Convention : Reuss Voigt Hill
#
# Bulk Modulus (GPa) = 39.29841 44.06308 41.68074
# Shear Modulus (GPa) = 22.09817 27.17960 24.63888
#
# Velocity S-wave (km/s) = 3.20884 3.55870 3.38828
# Velocity P-wave (km/s) = 5.66038 6.11694 5.89308
#
# Compressibility (1/GPa) = 0.02544633
#
# Stress axis : x y z
#
# Youngs Moduli (GPa) = 58.38829 119.72761 80.13154
#
# Poissons Ratio (x) = 0.36617 0.12648
# Poissons Ratio (y) = 0.17857 0.12976
# Poissons Ratio (z) = 0.09216 0.19387
#
# Static dielectric constant tensor:
#      x y z
#    x 3.842580 0.000000 0.000000 
#    y 0.000000 3.856740 0.000000 
#    z 0.000000 0.000000 3.801870 
# 
# 
# High freq. dielectric constant tensor:
#      x y z
#    x 1.825860 0.000000 0.000000 
#    y 0.000000 1.844060 0.000000 
#    z 0.000000 0.000000 1.834070 
# 
# From -- ./inp_files/10205.got.cif
#   From: 2010.03.12/outbox.cif.g09.slc.cpg/sg39_6_cif.got.tgz:10205.got - 2010.04.14 02:53:20.
