data_PCOD8181773
_publ_section_title
;
Structure prediction by ZEFSAII (Michael W. Deem and Ramdas Pophale) SiO2 
 PCOD8181773
Probable space group: A B M 2
;
_chemical_formula_sum "Si O2"
_cell_formula_units_Z 64
_cell_length_a 31.796350
_cell_length_b 18.892935
_cell_length_c 5.198245
_cell_angle_alpha 90.000000
_cell_angle_beta 90.000000
_cell_angle_gamma 90.000000
_cell_volume 3122.722869
_symmetry_space_group_name_H-M "A B M 2"
_symmetry_group_IT_number 39
_symmetry_cell_setting 'orthorhombic'
loop_
_space_group_symop_operation_xyz
x,y,z
-x,-y,z
-x,1/2+y,z
x,1/2-y,z
x,1/2+y,1/2+z
-x,1/2-y,1/2+z
-x,y,1/2+z
x,-y,1/2+z
loop_
_atom_site_type_symbol
_atom_site_label
_atom_site_fract_x
_atom_site_fract_y
_atom_site_fract_z
Si Si1 0.527097 0.328813 0.934280
Si Si2 0.695591 0.829265 0.945483
Si Si3 0.811487 0.456190 0.918366
Si Si4 0.659387 0.529404 0.845981
Si Si5 0.972991 0.831147 0.444121
Si Si6 0.433693 0.469083 0.337113
Si Si7 0.089965 0.955904 0.915074
Si Si8 0.250412 0.170068 0.444115
O O1 0.546451 0.250000 0.909211
O O2 0.491576 0.340310 0.718042
O O3 0.564584 0.385015 0.889762
O O4 0.676414 0.750000 0.928115
O O5 0.658321 0.886298 0.898008
O O6 0.730497 0.841096 0.727172
O O7 0.714734 0.844040 0.225490
O O8 0.797800 0.497641 0.173762
O O9 0.860744 0.439866 0.916017
O O10 0.788842 0.380957 0.906444
O O11 0.683467 0.511248 0.578662
O O12 0.613546 0.496564 0.790088
O O13 0.957458 0.750000 0.430185
O O14 0.932404 0.880239 0.417125
O O15 0.005184 0.847680 0.214989
O O16 0.456812 0.511273 0.569022
O O17 0.076226 0.998753 0.662192
O O18 0.233360 0.250000 0.415016
#
# Coordination Sequence:
#
# PCOD8181773 Si02
#       8
#     8   8   8   8   8   8   8   8
#     4  10  21  37  58  84 113 146 183 224 272 322
#     4  10  21  37  56  80 110 141 178 224 268 316
#     4  10  21  36  54  80 111 142 177 219 271 326
#     4  10  21  37  55  80 110 142 183 221 264 319
#     4  10  21  36  54  78 106 138 181 228 272 319
#     4  10  21  37  55  82 113 143 181 223 266 317
#     4  10  21  36  54  78 108 141 179 221 268 327
#     4  10  21  36  56  82 109 141 180 221 269 324
#
# _framework density 20.494934000000001
#
# number of rings (size 3 to 8) (size 9 to 14) (size 15 to 20)
#    0.000    2.000    0.000    3.000    0.000    6.500 
#    0.000    5.000    0.000    9.000    0.000    0.000 
#    0.000    0.000    0.000    0.000    0.000    0.000 
#
# Total GULP energy -396710.908079 kJ/mol
# GULP energy per Si atom -12397.215877 kJ/mol
# Density = 2.044829 g / cm^3
# Si number density = 20.494934 Si / 1000 Ang^3
#
#
#
# Elastic Constant Matrix: (Units=GPa)
#
#
# Indices 1 2 3 4 5 6 
#
# 1 42.4232 45.5907 -0.2457 0.0000 0.0000 0.0000
# 2 45.5907 136.3129 15.5018 0.0000 0.0000 0.0000
# 3 -0.2457 15.5018 133.8315 0.0000 0.0000 0.0000
# 4 0.0000 0.0000 0.0000 30.3960 0.0000 0.0000
# 5 0.0000 0.0000 0.0000 0.0000 5.5686 0.0000
# 6 0.0000 0.0000 0.0000 0.0000 0.0000 45.6739
#
#
#
# Elastic Compliance Matrix: (Units=1/GPa)
#
#
# Indices 1 2 3 4 5 6 
#
# 1 0.037103 -0.012583 0.001526 0.000000 0.000000 0.000000
# 2 -0.012583 0.011701 -0.001378 0.000000 0.000000 0.000000
# 3 0.001526 -0.001378 0.007635 0.000000 0.000000 0.000000
# 4 0.000000 0.000000 0.000000 0.032899 0.000000 0.000000
# 5 0.000000 0.000000 0.000000 0.000000 0.179577 0.000000
# 6 0.000000 0.000000 0.000000 0.000000 0.000000 0.021894
#
#
# Mechanical properties :
#
#
# Convention : Reuss Voigt Hill
#
# Bulk Modulus (GPa) = 31.67812 48.25124 39.96468
# Shear Modulus (GPa) = 15.32786 33.10910 24.21848
#
# Velocity S-wave (km/s) = 2.73772 4.02366 3.44129
# Velocity P-wave (km/s) = 5.04812 6.72165 5.94408
#
# Compressibility (1/GPa) = 0.03156753
#
# Stress axis : x y z
#
# Youngs Moduli (GPa) = 26.95179 85.46087 130.98347
#
# Poissons Ratio (x) = 1.07535 -0.19983
# Poissons Ratio (y) = 0.33913 0.18056
# Poissons Ratio (z) = -0.04112 0.11780
#
# Static dielectric constant tensor:
#      x y z
#    x 3.257160 0.000000 0.000000 
#    y 0.000000 3.909820 0.000000 
#    z 0.000000 0.000000 4.600190 
# 
# 
# High freq. dielectric constant tensor:
#      x y z
#    x 1.759000 0.000000 0.000000 
#    y 0.000000 1.813370 0.000000 
#    z 0.000000 0.000000 1.839140 
# 
# From -- ./inp_files/1524.got.cif
#   From: 2010.03.12/outbox.cif.g09.slc.cpg/sg39_1_cif.got.tgz:1524.got - 2010.04.14 02:53:20.
