data_PCOD8181304
_publ_section_title
;
Structure prediction by ZEFSAII (Michael W. Deem and Ramdas Pophale) SiO2 
 PCOD8181304
Probable space group: A B M 2
;
_chemical_formula_sum "Si O2"
_cell_formula_units_Z 56
_cell_length_a 19.668421
_cell_length_b 9.360122
_cell_length_c 15.355904
_cell_angle_alpha 90.000000
_cell_angle_beta 90.000000
_cell_angle_gamma 90.000000
_cell_volume 2827.003808
_symmetry_space_group_name_H-M "A B M 2"
_symmetry_group_IT_number 39
_symmetry_cell_setting 'orthorhombic'
loop_
_space_group_symop_operation_xyz
x,y,z
-x,-y,z
-x,1/2+y,z
x,1/2-y,z
x,1/2+y,1/2+z
-x,1/2-y,1/2+z
-x,y,1/2+z
x,-y,1/2+z
loop_
_atom_site_type_symbol
_atom_site_label
_atom_site_fract_x
_atom_site_fract_y
_atom_site_fract_z
Si Si1 0.069516 0.583843 0.634620
Si Si2 0.833731 0.081651 0.474212
Si Si3 0.701777 0.589341 0.494665
Si Si4 0.440728 0.593806 0.052526
Si Si5 0.559937 0.406749 0.252696
Si Si6 0.686605 0.592310 0.291350
Si Si7 0.838527 0.581906 0.296849
O O1 0.053020 0.750000 0.641439
O O2 0.109346 0.549539 0.546000
O O3 0.111317 0.534879 0.719852
O O4 0.000000 0.500000 0.632560
O O5 0.823935 0.250000 0.458222
O O6 0.763986 0.016925 0.512456
O O7 0.856058 0.006735 0.384020
O O8 0.719718 0.750000 0.528240
O O9 0.634640 0.526147 0.542178
O O10 0.683822 0.594723 0.394283
O O11 0.500000 0.500000 0.007014
O O12 0.440258 0.750000 0.007014
O O13 0.459658 0.611930 0.152713
O O14 0.500000 0.500000 0.298353
O O15 0.562890 0.250000 0.297282
O O16 0.633443 0.478574 0.256522
O O17 0.668656 0.750000 0.254297
O O18 0.762577 0.546790 0.262510
O O19 0.843962 0.750000 0.320032
#
# Coordination Sequence:
#
# PCOD8181304 Si02
#       7
#     8   8   8   8   8   8   8
#     4  10  23  41  61  89 120 153 192 230 278 340
#     4  10  21  37  59  89 119 148 191 239 281 333
#     4   9  19  36  55  77 107 143 181 223 279 336
#     4   9  19  34  50  72 102 138 181 225 273 327
#     4  10  20  33  49  72 103 138 179 226 273 326
#     4   9  18  33  54  76 102 138 177 221 274 329
#     4   9  20  40  61  83 117 156 190 230 285 341
#
# _framework density 19.808958000000001
#
# number of rings (size 3 to 8) (size 9 to 14) (size 15 to 20)
#    0.000    2.571    0.000    1.714    2.000    6.286 
#    0.000    4.286    0.000    0.000    0.000    0.000 
#    0.000    0.000    0.000    0.000    0.000    0.000 
#
# Total GULP energy -347103.452133 kJ/mol
# GULP energy per Si atom -12396.551862 kJ/mol
# Density = 1.976387 g / cm^3
# Si number density = 19.808958 Si / 1000 Ang^3
#
#
#
# Elastic Constant Matrix: (Units=GPa)
#
#
# Indices 1 2 3 4 5 6 
#
# 1 163.0705 92.4454 59.0032 0.0000 0.0000 0.0000
# 2 92.4454 122.8617 49.7507 0.0000 0.0000 0.0000
# 3 59.0032 49.7507 57.5464 0.0000 0.0000 0.0000
# 4 0.0000 0.0000 0.0000 23.2845 0.0000 0.0000
# 5 0.0000 0.0000 0.0000 0.0000 -1.5151 0.0000
# 6 0.0000 0.0000 0.0000 0.0000 0.0000 38.5383
#
#
#
# Elastic Compliance Matrix: (Units=1/GPa)
#
#
# Indices 1 2 3 4 5 6 
#
# 1 0.012335 -0.006401 -0.007113 0.000000 0.000000 0.000000
# 2 -0.006401 0.015845 -0.007136 0.000000 0.000000 0.000000
# 3 -0.007113 -0.007136 0.030840 0.000000 0.000000 0.000000
# 4 0.000000 0.000000 0.000000 0.042947 0.000000 0.000000
# 5 0.000000 0.000000 0.000000 0.000000 -0.660026 0.000000
# 6 0.000000 0.000000 0.000000 0.000000 0.000000 0.025948
#
#
# Mechanical properties :
#
#
# Convention : Reuss Voigt Hill
#
# Bulk Modulus (GPa) = 56.43387 82.87524 69.65455
# Shear Modulus (GPa) = -10.31128 21.54683 5.61777
#
# Velocity S-wave (km/s) = -2.28400 3.30166 1.68586
# Velocity P-wave (km/s) = 4.64708 7.51416 6.24732
#
# Compressibility (1/GPa) = 0.01771985
#
# Stress axis : x y z
#
# Youngs Moduli (GPa) = 81.07256 63.11263 32.42574
#
# Poissons Ratio (x) = 0.40396 0.23066
# Poissons Ratio (y) = 0.51891 0.23138
# Poissons Ratio (z) = 0.57670 0.45035
#
# Static dielectric constant tensor:
#      x y z
#    x 3.699010 0.000000 0.000000 
#    y 0.000000 3.889720 0.000000 
#    z 0.000000 0.000000 3.391800 
# 
# 
# High freq. dielectric constant tensor:
#      x y z
#    x 1.774310 0.000000 0.000000 
#    y 0.000000 1.772830 0.000000 
#    z 0.000000 0.000000 1.758000 
# 
# From -- ./inp_files/10407.got.cif
#   From: 2010.03.12/outbox.cif.g09.slc.cpg/sg39_6_cif.got.tgz:10407.got - 2010.04.14 02:53:20.
