data_PCOD8181890
_publ_section_title
;
Structure prediction by ZEFSAII (Michael W. Deem and Ramdas Pophale) SiO2 
 PCOD8181890
Probable space group: A B M 2
;
_chemical_formula_sum "Si O2"
_cell_formula_units_Z 64
_cell_length_a 15.331516
_cell_length_b 17.419210
_cell_length_c 11.660803
_cell_angle_alpha 90.000000
_cell_angle_beta 90.000000
_cell_angle_gamma 90.000000
_cell_volume 3114.167828
_symmetry_space_group_name_H-M "A B M 2"
_symmetry_group_IT_number 39
_symmetry_cell_setting 'orthorhombic'
loop_
_space_group_symop_operation_xyz
x,y,z
-x,-y,z
-x,1/2+y,z
x,1/2-y,z
x,1/2+y,1/2+z
-x,1/2-y,1/2+z
-x,y,1/2+z
x,-y,1/2+z
loop_
_atom_site_type_symbol
_atom_site_label
_atom_site_fract_x
_atom_site_fract_y
_atom_site_fract_z
Si Si1 0.252047 0.662925 0.504380
Si Si2 0.087149 0.411607 0.886800
Si Si3 0.759478 0.416291 0.739253
Si Si4 0.899856 0.587082 0.425244
Si Si5 0.609634 0.421265 0.920625
Si Si6 0.181257 0.084709 0.667672
Si Si7 0.416844 0.598937 0.381328
Si Si8 0.650216 0.340013 0.154997
O O1 0.227140 0.750000 0.490093
O O2 0.174296 0.618356 0.444356
O O3 0.253941 0.642636 0.637360
O O4 0.347134 0.650037 0.449019
O O5 0.081163 0.497878 0.927751
O O6 0.097401 0.406860 0.749305
O O7 0.995071 0.370496 0.919495
O O8 0.842243 0.390030 0.815213
O O9 0.672704 0.405881 0.814220
O O10 0.773146 0.501592 0.687261
O O11 0.848584 0.605794 0.540432
O O12 0.600073 0.512693 0.922847
O O13 0.516406 0.379106 0.909774
O O14 0.649909 0.387565 0.036711
O O15 0.251347 0.150136 0.702262
O O16 0.411862 0.616314 0.245337
O O17 0.626065 0.250000 0.141127
#
# Coordination Sequence:
#
# PCOD8181890 Si02
#       8
#     8   8   8   8   8   8   8   8
#     4  12  25  43  63  92 137 180 217 272 341 417
#     4  10  22  36  65  99 121 168 222 271 335 393
#     4  11  22  41  66  96 127 172 224 276 337 402
#     4  10  21  38  66  98 128 160 224 289 325 388
#     4  11  25  43  72  99 131 170 228 286 339 405
#     4  11  20  40  68  91 131 171 219 279 332 400
#     4  11  25  44  70  99 129 175 230 280 342 414
#     4  12  25  43  67  96 135 179 224 279 343 412
#
# _framework density 20.551237
#
# number of rings (size 3 to 8) (size 9 to 14) (size 15 to 20)
#    0.000    1.000    5.000    1.875    3.500    3.500 
#    0.000    1.250    0.000    0.000    0.000    0.000 
#    0.000    0.000    0.000    0.000    0.000    0.000 
#
# Total GULP energy -396616.756479 kJ/mol
# GULP energy per Si atom -12394.273640 kJ/mol
# Density = 2.050446 g / cm^3
# Si number density = 20.551237 Si / 1000 Ang^3
#
#
#
# Elastic Constant Matrix: (Units=GPa)
#
#
# Indices 1 2 3 4 5 6 
#
# 1 139.6873 12.9720 28.9550 0.0000 0.0000 0.0000
# 2 12.9720 52.4979 21.0098 0.0000 0.0000 0.0000
# 3 28.9550 21.0098 93.2220 0.0000 0.0000 0.0000
# 4 0.0000 0.0000 0.0000 28.9157 0.0000 0.0000
# 5 0.0000 0.0000 0.0000 0.0000 238.6243 0.0000
# 6 0.0000 0.0000 0.0000 0.0000 0.0000 4.0281
#
#
#
# Elastic Compliance Matrix: (Units=1/GPa)
#
#
# Indices 1 2 3 4 5 6 
#
# 1 0.007703 -0.001040 -0.002158 0.000000 0.000000 0.000000
# 2 -0.001040 0.021077 -0.004427 0.000000 0.000000 0.000000
# 3 -0.002158 -0.004427 0.012395 0.000000 0.000000 0.000000
# 4 0.000000 0.000000 0.000000 0.034583 0.000000 0.000000
# 5 0.000000 0.000000 0.000000 0.000000 0.004191 0.000000
# 6 0.000000 0.000000 0.000000 0.000000 0.000000 0.248255
#
#
# Mechanical properties :
#
#
# Convention : Reuss Voigt Hill
#
# Bulk Modulus (GPa) = 38.57306 45.69788 42.13547
# Shear Modulus (GPa) = 14.20069 69.14498 41.67284
#
# Velocity S-wave (km/s) = 2.63152 5.80674 4.50794
# Velocity P-wave (km/s) = 5.29558 8.20012 6.90236
#
# Compressibility (1/GPa) = 0.02592483
#
# Stress axis : x y z
#
# Youngs Moduli (GPa) = 129.82380 47.44485 80.67618
#
# Poissons Ratio (x) = 0.04932 0.17412
# Poissons Ratio (y) = 0.13496 0.35718
# Poissons Ratio (z) = 0.28019 0.21005
#
# Static dielectric constant tensor:
#      x y z
#    x -2.212880 0.000000 0.000000 
#    y 0.000000 3.408710 0.000000 
#    z 0.000000 0.000000 3.847910 
# 
# 
# High freq. dielectric constant tensor:
#      x y z
#    x 1.821840 0.000000 0.000000 
#    y 0.000000 1.768600 0.000000 
#    z 0.000000 0.000000 1.817840 
# 
# From -- ./inp_files/6670.got.cif
#   From: 2010.03.12/outbox.cif.g09.slc.cpg/sg39_4_cif.got.tgz:6670.got - 2010.04.14 02:53:20.
