data_PCOD8181935
_publ_section_title
;
Structure prediction by ZEFSAII (Michael W. Deem and Ramdas Pophale) SiO2 
 PCOD8181935
Probable space group: A B M 2
;
_chemical_formula_sum "Si O2"
_cell_formula_units_Z 64
_cell_length_a 21.083540
_cell_length_b 15.894197
_cell_length_c 9.322326
_cell_angle_alpha 90.000000
_cell_angle_beta 90.000000
_cell_angle_gamma 90.000000
_cell_volume 3123.966801
_symmetry_space_group_name_H-M "A B M 2"
_symmetry_group_IT_number 39
_symmetry_cell_setting 'orthorhombic'
loop_
_space_group_symop_operation_xyz
x,y,z
-x,-y,z
-x,1/2+y,z
x,1/2-y,z
x,1/2+y,1/2+z
-x,1/2-y,1/2+z
-x,y,1/2+z
x,-y,1/2+z
loop_
_atom_site_type_symbol
_atom_site_label
_atom_site_fract_x
_atom_site_fract_y
_atom_site_fract_z
Si Si1 0.547706 0.346204 0.133540
Si Si2 0.640271 0.065542 0.325511
Si Si3 0.971492 0.588108 0.616704
Si Si4 0.922554 0.153864 0.413324
Si Si5 0.147745 0.488039 0.484598
Si Si6 0.566968 0.603172 0.314190
Si Si7 0.234715 0.472993 0.233425
Si Si8 0.327026 0.656054 0.611989
O O1 0.535728 0.250000 0.175360
O O2 0.615636 0.375432 0.196554
O O3 0.492398 0.400825 0.206693
O O4 0.546175 0.354914 0.962798
O O5 0.640188 0.113523 0.475549
O O6 0.591126 0.990060 0.346211
O O7 0.710508 0.035670 0.286248
O O8 0.948419 0.640551 0.752877
O O9 0.915390 0.566639 0.504772
O O10 0.000000 0.500000 0.674517
O O11 0.021966 0.642952 0.529860
O O12 0.896718 0.250000 0.424996
O O13 0.867266 0.086011 0.446735
O O14 0.189838 0.444152 0.362706
O O15 0.189313 0.478107 0.626064
O O16 0.623299 0.656729 0.242575
O O17 0.263277 0.391299 0.157381
O O18 0.307221 0.750000 0.571766
#
# Coordination Sequence:
#
# PCOD8181935 Si02
#       8
#     8   8   8   8   8   8   8   8
#     4  12  24  40  62  91 124 157 201 256 315 366
#     4  11  24  42  65  90 120 164 208 255 306 376
#     4  10  21  39  65  92 124 170 207 252 311 379
#     4  11  23  39  63  97 130 159 206 266 319 361
#     4  11  22  42  67  89 122 172 214 250 302 379
#     4  11  24  42  63  90 123 164 205 254 310 384
#     4  11  23  42  65  90 123 166 217 252 298 379
#     4  11  23  42  66  93 125 160 206 267 323 363
#
# _framework density 20.486774
#
# number of rings (size 3 to 8) (size 9 to 14) (size 15 to 20)
#    0.000    1.000    2.500    5.625    3.500    1.500 
#    0.000    1.250    0.000    0.000    0.000    0.000 
#    0.000    0.000    0.000    0.000    0.000    0.000 
#
# Total GULP energy -396927.066047 kJ/mol
# GULP energy per Si atom -12403.970814 kJ/mol
# Density = 2.044014 g / cm^3
# Si number density = 20.486774 Si / 1000 Ang^3
#
#
#
# Elastic Constant Matrix: (Units=GPa)
#
#
# Indices 1 2 3 4 5 6 
#
# 1 74.9825 4.9705 20.5052 0.0000 0.0000 0.0000
# 2 4.9705 89.9420 20.4864 0.0000 0.0000 0.0000
# 3 20.5052 20.4864 109.9373 0.0000 0.0000 0.0000
# 4 0.0000 0.0000 0.0000 23.3335 0.0000 0.0000
# 5 0.0000 0.0000 0.0000 0.0000 45.9121 0.0000
# 6 0.0000 0.0000 0.0000 0.0000 0.0000 14.7393
#
#
#
# Elastic Compliance Matrix: (Units=1/GPa)
#
#
# Indices 1 2 3 4 5 6 
#
# 1 0.014056 -0.000188 -0.002587 0.000000 0.000000 0.000000
# 2 -0.000188 0.011614 -0.002129 0.000000 0.000000 0.000000
# 3 -0.002587 -0.002129 0.009975 0.000000 0.000000 0.000000
# 4 0.000000 0.000000 0.000000 0.042857 0.000000 0.000000
# 5 0.000000 0.000000 0.000000 0.000000 0.021781 0.000000
# 6 0.000000 0.000000 0.000000 0.000000 0.000000 0.067846
#
#
# Mechanical properties :
#
#
# Convention : Reuss Voigt Hill
#
# Bulk Modulus (GPa) = 38.70246 40.75398 39.72822
# Shear Modulus (GPa) = 26.80270 32.05697 29.42984
#
# Velocity S-wave (km/s) = 3.62096 3.96000 3.79427
# Velocity P-wave (km/s) = 6.03442 6.39100 6.21527
#
# Compressibility (1/GPa) = 0.02583815
#
# Stress axis : x y z
#
# Youngs Moduli (GPa) = 71.14265 86.10585 100.24727
#
# Poissons Ratio (x) = 0.01615 0.25932
# Poissons Ratio (y) = 0.01335 0.21344
# Poissons Ratio (z) = 0.18403 0.18333
#
# Static dielectric constant tensor:
#      x y z
#    x 3.779800 0.000000 0.000000 
#    y 0.000000 3.596300 0.000000 
#    z 0.000000 0.000000 3.766520 
# 
# 
# High freq. dielectric constant tensor:
#      x y z
#    x 1.805930 0.000000 0.000000 
#    y 0.000000 1.787310 0.000000 
#    z 0.000000 0.000000 1.817360 
# 
# From -- ./inp_files/4008.got.cif
#   From: 2010.03.12/outbox.cif.g09.slc.cpg/sg39_3_cif.got.tgz:4008.got - 2010.04.14 02:53:20.
