data_PCOD8181759
_publ_section_title
;
Structure prediction by ZEFSAII (Michael W. Deem and Ramdas Pophale) SiO2 
 PCOD8181759
Probable space group: A B M 2
;
_chemical_formula_sum "Si O2"
_cell_formula_units_Z 56
_cell_length_a 15.156822
_cell_length_b 17.390463
_cell_length_c 9.633869
_cell_angle_alpha 90.000000
_cell_angle_beta 90.000000
_cell_angle_gamma 90.000000
_cell_volume 2539.335193
_symmetry_space_group_name_H-M "A B M 2"
_symmetry_group_IT_number 39
_symmetry_cell_setting 'orthorhombic'
loop_
_space_group_symop_operation_xyz
x,y,z
-x,-y,z
-x,1/2+y,z
x,1/2-y,z
x,1/2+y,1/2+z
-x,1/2-y,1/2+z
-x,y,1/2+z
x,-y,1/2+z
loop_
_atom_site_type_symbol
_atom_site_label
_atom_site_fract_x
_atom_site_fract_y
_atom_site_fract_z
Si Si1 0.626127 0.910430 0.163440
Si Si2 0.097436 0.158802 0.573085
Si Si3 0.063671 0.158312 0.261314
Si Si4 0.746587 0.341099 0.259391
Si Si5 0.438090 0.840678 0.139504
Si Si6 0.789134 0.162290 0.558005
Si Si7 0.592901 0.031907 0.934913
O O1 0.529929 0.874815 0.195697
O O2 0.655025 0.957669 0.300711
O O3 0.693731 0.842399 0.131289
O O4 0.633877 0.972217 0.041647
O O5 0.094668 0.250000 0.561114
O O6 0.075330 0.125061 0.418907
O O7 0.193650 0.130190 0.628740
O O8 0.027867 0.131664 0.690929
O O9 0.070663 0.250000 0.268485
O O10 0.139125 0.123159 0.159439
O O11 0.755076 0.250000 0.268047
O O12 0.642696 0.361694 0.243568
O O13 0.783742 0.376132 0.404479
O O14 0.445795 0.750000 0.112530
O O15 0.417856 0.882228 0.995408
O O16 0.816785 0.250000 0.539696
O O17 0.500000 0.000000 0.881442
#
# Coordination Sequence:
#
# PCOD8181759 Si02
#       7
#     8   8   8   8   8   8   8
#     4  11  24  40  60  82 118 157 203 240 295 342
#     4   9  16  29  50  76 117 159 188 230 290 351
#     4   9  17  29  49  79 115 155 192 233 289 347
#     4   9  19  33  51  80 117 154 190 234 291 348
#     4  10  22  37  60  88 118 152 194 243 299 347
#     4  10  21  35  54  85 121 153 197 248 292 345
#     4  10  23  41  59  80 111 154 200 246 283 352
#
# _framework density 22.053014999999998
#
# number of rings (size 3 to 8) (size 9 to 14) (size 15 to 20)
#    0.000    2.286    0.000    2.571    8.000    4.571 
#    0.000    0.000    0.000    0.000    0.000    1.000 
#    0.000    0.000    0.000    0.000    0.000    0.000 
#
# Total GULP energy -346946.600357 kJ/mol
# GULP energy per Si atom -12390.950013 kJ/mol
# Density = 2.200282 g / cm^3
# Si number density = 22.053015 Si / 1000 Ang^3
#
#
#
# Elastic Constant Matrix: (Units=GPa)
#
#
# Indices 1 2 3 4 5 6 
#
# 1 121.2524 11.5218 57.8863 0.0000 0.0000 0.0000
# 2 11.5218 39.7179 7.2251 0.0000 0.0000 0.0000
# 3 57.8863 7.2251 140.3141 0.0000 0.0000 0.0000
# 4 0.0000 0.0000 0.0000 15.6536 0.0000 0.0000
# 5 0.0000 0.0000 0.0000 0.0000 25.5173 0.0000
# 6 0.0000 0.0000 0.0000 0.0000 0.0000 5.6564
#
#
#
# Elastic Compliance Matrix: (Units=1/GPa)
#
#
# Indices 1 2 3 4 5 6 
#
# 1 0.010469 -0.002273 -0.004202 0.000000 0.000000 0.000000
# 2 -0.002273 0.025909 -0.000397 0.000000 0.000000 0.000000
# 3 -0.004202 -0.000397 0.008881 0.000000 0.000000 0.000000
# 4 0.000000 0.000000 0.000000 0.063883 0.000000 0.000000
# 5 0.000000 0.000000 0.000000 0.000000 0.039189 0.000000
# 6 0.000000 0.000000 0.000000 0.000000 0.000000 0.176791
#
#
# Mechanical properties :
#
#
# Convention : Reuss Voigt Hill
#
# Bulk Modulus (GPa) = 31.72928 50.50564 41.11746
# Shear Modulus (GPa) = 14.31145 24.34220 19.32682
#
# Velocity S-wave (km/s) = 2.55023 3.32596 2.96358
# Velocity P-wave (km/s) = 4.80526 6.14011 5.51323
#
# Compressibility (1/GPa) = 0.03151663
#
# Stress axis : x y z
#
# Youngs Moduli (GPa) = 95.51743 38.59662 112.60198
#
# Poissons Ratio (x) = 0.08772 0.47316
# Poissons Ratio (y) = 0.21708 0.04465
# Poissons Ratio (z) = 0.40137 0.01531
#
# Static dielectric constant tensor:
#      x y z
#    x 4.064330 0.000000 0.000000 
#    y 0.000000 3.488620 0.000000 
#    z 0.000000 0.000000 4.290440 
# 
# 
# High freq. dielectric constant tensor:
#      x y z
#    x 1.860430 0.000000 0.000000 
#    y 0.000000 1.813680 0.000000 
#    z 0.000000 0.000000 1.884780 
# 
# From -- ./inp_files/3389.got.cif
#   From: 2010.03.12/outbox.cif.g09.slc.cpg/sg39_2_cif.got.tgz:3389.got - 2010.04.14 02:53:20.
