data_PCOD8181309
_publ_section_title
;
Structure prediction by ZEFSAII (Michael W. Deem and Ramdas Pophale) SiO2 
 PCOD8181309
Probable space group: A B M 2
;
_chemical_formula_sum "Si O2"
_cell_formula_units_Z 64
_cell_length_a 14.363985
_cell_length_b 8.669197
_cell_length_c 30.923822
_cell_angle_alpha 90.000000
_cell_angle_beta 90.000000
_cell_angle_gamma 90.000000
_cell_volume 3850.764680
_symmetry_space_group_name_H-M "A B M 2"
_symmetry_group_IT_number 39
_symmetry_cell_setting 'orthorhombic'
loop_
_space_group_symop_operation_xyz
x,y,z
-x,-y,z
-x,1/2+y,z
x,1/2-y,z
x,1/2+y,1/2+z
-x,1/2-y,1/2+z
-x,y,1/2+z
x,-y,1/2+z
loop_
_atom_site_type_symbol
_atom_site_label
_atom_site_fract_x
_atom_site_fract_y
_atom_site_fract_z
Si Si1 0.899657 0.571870 0.073800
Si Si2 0.896820 0.431463 0.987969
Si Si3 0.208435 0.932425 0.407938
Si Si4 0.897334 0.429931 0.669386
Si Si5 0.792195 0.931127 0.747146
Si Si6 0.898110 0.567915 0.326771
Si Si7 0.406538 0.569861 0.277639
Si Si8 0.594583 0.431725 0.375133
O O1 0.907451 0.750000 0.061038
O O2 0.853366 0.549866 0.121055
O O3 0.000000 0.500000 0.078686
O O4 0.850096 0.484258 0.033777
O O5 0.904915 0.250000 0.985971
O O6 0.829407 0.488431 0.950655
O O7 0.000000 0.500000 0.982174
O O8 0.197381 0.750000 0.411729
O O9 0.316199 0.983115 0.403077
O O10 0.151871 0.987557 0.366620
O O11 0.902695 0.250000 0.681996
O O12 0.827792 0.522160 0.700089
O O13 0.000000 0.500000 0.673768
O O14 0.808632 0.750000 0.756068
O O15 0.682913 0.973775 0.748978
O O16 0.845240 0.030608 0.782682
O O17 0.902023 0.750000 0.334351
O O18 0.000000 0.500000 0.322557
O O19 0.500000 0.500000 0.256336
O O20 0.420641 0.750000 0.279875
O O21 0.392407 0.504067 0.326280
O O22 0.500000 0.500000 0.395919
O O23 0.586379 0.250000 0.374716
#
# Coordination Sequence:
#
# PCOD8181309 Si02
#       8
#     8   8   8   8   8   8   8   8
#     4   9  17  31  50  71  97 128 163 205 249 291
#     4  11  21  33  50  74 101 132 169 205 245 293
#     4  11  21  36  52  71 100 132 166 203 245 292
#     4  10  20  33  50  74 101 132 169 205 246 292
#     4  11  21  35  51  71 100 132 167 203 245 293
#     4  12  24  36  49  67  96 134 171 205 241 285
#     4   9  18  33  51  72  95 125 162 204 249 290
#     4   9  18  33  52  72  96 125 161 204 248 290
#
# _framework density 16.620075
#
# number of rings (size 3 to 8) (size 9 to 14) (size 15 to 20)
#    0.000    1.750    1.250    5.250    0.000    3.500 
#    0.000    0.000    0.000    0.000    0.000    0.875 
#    0.000    6.000    0.000    0.000    0.000    0.000 
#
# Total GULP energy -396723.612068 kJ/mol
# GULP energy per Si atom -12397.612877 kJ/mol
# Density = 1.658225 g / cm^3
# Si number density = 16.620075 Si / 1000 Ang^3
#
#
#
# Elastic Constant Matrix: (Units=GPa)
#
#
# Indices 1 2 3 4 5 6 
#
# 1 164.5791 76.4075 78.6064 0.0000 0.0000 0.0000
# 2 76.4075 110.0589 51.6524 0.0000 0.0000 0.0000
# 3 78.6064 51.6524 120.5110 0.0000 0.0000 0.0000
# 4 0.0000 0.0000 0.0000 26.6638 0.0000 0.0000
# 5 0.0000 0.0000 0.0000 0.0000 -26.0596 0.0000
# 6 0.0000 0.0000 0.0000 0.0000 0.0000 24.6875
#
#
#
# Elastic Compliance Matrix: (Units=1/GPa)
#
#
# Indices 1 2 3 4 5 6 
#
# 1 0.010805 -0.005249 -0.004798 0.000000 0.000000 0.000000
# 2 -0.005249 0.013924 -0.002544 0.000000 0.000000 0.000000
# 3 -0.004798 -0.002544 0.012518 0.000000 0.000000 0.000000
# 4 0.000000 0.000000 0.000000 0.037504 0.000000 0.000000
# 5 0.000000 0.000000 0.000000 0.000000 -0.038374 0.000000
# 6 0.000000 0.000000 0.000000 0.000000 0.000000 0.040506
#
#
# Mechanical properties :
#
#
# Convention : Reuss Voigt Hill
#
# Bulk Modulus (GPa) = 82.88751 89.83128 86.35940
# Shear Modulus (GPa) = 47.13089 17.62385 32.37737
#
# Velocity S-wave (km/s) = 5.33098 3.25990 4.41850
# Velocity P-wave (km/s) = 9.37404 8.26659 8.83768
#
# Compressibility (1/GPa) = 0.01206454
#
# Stress axis : x y z
#
# Youngs Moduli (GPa) = 92.55253 71.81642 79.88608
#
# Poissons Ratio (x) = 0.37700 0.38327
# Poissons Ratio (y) = 0.48585 0.20324
# Poissons Ratio (z) = 0.44404 0.18271
#
# Static dielectric constant tensor:
#      x y z
#    x 3.119190 0.000000 0.000000 
#    y 0.000000 3.272120 0.000000 
#    z 0.000000 0.000000 -2.685550 
# 
# 
# High freq. dielectric constant tensor:
#      x y z
#    x 1.619610 0.000000 0.000000 
#    y 0.000000 1.656350 0.000000 
#    z 0.000000 0.000000 1.631860 
# 
# From -- ./inp_files/17984.got.cif
#   From: 2010.03.12/outbox.cif.g09.slc.cpg/sg39_9_cif.got.tgz:17984.got - 2010.04.14 02:53:20.
