data_PCOD8181997
_publ_section_title
;
Structure prediction by ZEFSAII (Michael W. Deem and Ramdas Pophale) SiO2 
 PCOD8181997
Probable space group: A B M 2
;
_chemical_formula_sum "Si O2"
_cell_formula_units_Z 32
_cell_length_a 7.137935
_cell_length_b 38.664127
_cell_length_c 5.195896
_cell_angle_alpha 90.000000
_cell_angle_beta 90.000000
_cell_angle_gamma 90.000000
_cell_volume 1433.973902
_symmetry_space_group_name_H-M "A B M 2"
_symmetry_group_IT_number 39
_symmetry_cell_setting 'orthorhombic'
loop_
_space_group_symop_operation_xyz
x,y,z
-x,-y,z
-x,1/2+y,z
x,1/2-y,z
x,1/2+y,1/2+z
-x,1/2-y,1/2+z
-x,y,1/2+z
x,-y,1/2+z
loop_
_atom_site_type_symbol
_atom_site_label
_atom_site_fract_x
_atom_site_fract_y
_atom_site_fract_z
Si Si1 0.208885 0.014928 0.926260
Si Si2 0.380667 0.789753 0.495253
Si Si3 0.379161 0.585046 0.507517
Si Si4 0.119075 0.351433 0.947682
O O1 0.313340 0.004845 0.660383
O O2 0.216671 0.056187 0.969075
O O3 0.000000 0.000000 0.884610
O O4 0.316284 0.750000 0.481477
O O5 0.523117 0.798609 0.265929
O O6 0.194197 0.812396 0.469002
O O7 0.462115 0.580485 0.792119
O O8 0.291563 0.622776 0.482506
O O9 0.033956 0.357991 0.667002
#
# Coordination Sequence:
#
# PCOD8181997 Si02
#       4
#     8   8   8   8
#     4  10  23  40  66  91 124 164 200 267 320 391
#     4  10  21  41  68  96 133 175 216 265 319 375
#     4  12  26  44  68  95 128 167 217 267 316 387
#     4  12  26  41  67  96 133 175 214 266 320 380
#
# _framework density 22.315608000000001
#
# number of rings (size 3 to 8) (size 9 to 14) (size 15 to 20)
#    0.000    1.000    0.000    6.000    7.000    4.000 
#    0.000    0.000    0.000    0.000    0.000    0.000 
#    0.000    0.000    0.000    0.000    0.000    0.000 
#
# Total GULP energy -198446.655256 kJ/mol
# GULP energy per Si atom -12402.915953 kJ/mol
# Density = 2.226482 g / cm^3
# Si number density = 22.315608 Si / 1000 Ang^3
#
#
#
# Elastic Constant Matrix: (Units=GPa)
#
#
# Indices 1 2 3 4 5 6 
#
# 1 59.9654 30.3268 -3.5014 0.0000 0.0000 0.0000
# 2 30.3268 107.8306 12.6296 0.0000 0.0000 0.0000
# 3 -3.5014 12.6296 126.1285 0.0000 0.0000 0.0000
# 4 0.0000 0.0000 0.0000 30.7558 0.0000 0.0000
# 5 0.0000 0.0000 0.0000 0.0000 18.3262 0.0000
# 6 0.0000 0.0000 0.0000 0.0000 0.0000 57.8033
#
#
#
# Elastic Compliance Matrix: (Units=1/GPa)
#
#
# Indices 1 2 3 4 5 6 
#
# 1 0.019594 -0.005640 0.001109 0.000000 0.000000 0.000000
# 2 -0.005640 0.011008 -0.001259 0.000000 0.000000 0.000000
# 3 0.001109 -0.001259 0.008085 0.000000 0.000000 0.000000
# 4 0.000000 0.000000 0.000000 0.032514 0.000000 0.000000
# 5 0.000000 0.000000 0.000000 0.000000 0.054567 0.000000
# 6 0.000000 0.000000 0.000000 0.000000 0.000000 0.017300
#
#
# Mechanical properties :
#
#
# Convention : Reuss Voigt Hill
#
# Bulk Modulus (GPa) = 36.89303 41.42605 39.15954
# Shear Modulus (GPa) = 30.54674 38.34169 34.44422
#
# Velocity S-wave (km/s) = 3.70381 4.14956 3.93301
# Velocity P-wave (km/s) = 5.90417 6.44690 6.18149
#
# Compressibility (1/GPa) = 0.02710539
#
# Stress axis : x y z
#
# Youngs Moduli (GPa) = 51.03701 90.84644 123.68200
#
# Poissons Ratio (x) = 0.51242 -0.13713
# Poissons Ratio (y) = 0.28787 0.15569
# Poissons Ratio (z) = -0.05659 0.11436
#
# Static dielectric constant tensor:
#      x y z
#    x 3.728460 0.000000 0.000000 
#    y 0.000000 4.179130 0.000000 
#    z 0.000000 0.000000 4.956030 
# 
# 
# High freq. dielectric constant tensor:
#      x y z
#    x 1.859000 0.000000 0.000000 
#    y 0.000000 1.889700 0.000000 
#    z 0.000000 0.000000 1.913130 
# 
# From -- ./inp_files/136.got.cif
#   From: 2010.03.12/outbox.cif.g09.slc.cpg/sg39_1_cif.got.tgz:136.got - 2010.04.14 02:53:20.
