data_PCOD8181946
_publ_section_title
;
Structure prediction by ZEFSAII (Michael W. Deem and Ramdas Pophale) SiO2 
 PCOD8181946
Probable space group: A B M 2
;
_chemical_formula_sum "Si O2"
_cell_formula_units_Z 48
_cell_length_a 9.520902
_cell_length_b 16.446013
_cell_length_c 13.882618
_cell_angle_alpha 90.000000
_cell_angle_beta 90.000000
_cell_angle_gamma 90.000000
_cell_volume 2173.752516
_symmetry_space_group_name_H-M "A B M 2"
_symmetry_group_IT_number 39
_symmetry_cell_setting 'orthorhombic'
loop_
_space_group_symop_operation_xyz
x,y,z
-x,-y,z
-x,1/2+y,z
x,1/2-y,z
x,1/2+y,1/2+z
-x,1/2-y,1/2+z
-x,y,1/2+z
x,-y,1/2+z
loop_
_atom_site_type_symbol
_atom_site_label
_atom_site_fract_x
_atom_site_fract_y
_atom_site_fract_z
Si Si1 0.685856 0.911824 0.645990
Si Si2 0.924752 0.657282 0.754666
Si Si3 0.182773 0.088640 0.152423
Si Si4 0.786542 0.845883 0.954153
Si Si5 0.461732 0.343728 0.465176
Si Si6 0.562449 0.658559 0.251596
O O1 0.803864 0.845798 0.673156
O O2 0.626264 0.898605 0.538833
O O3 0.556939 0.904704 0.720227
O O4 0.757074 0.998704 0.658406
O O5 0.978432 0.750000 0.762633
O O6 0.860681 0.624889 0.855682
O O7 0.052017 0.598392 0.724419
O O8 0.303764 0.151632 0.182792
O O9 0.135401 0.110805 0.043724
O O10 0.802700 0.750000 0.963291
O O11 0.623273 0.872144 0.956937
O O12 0.453176 0.250000 0.498739
O O13 0.390951 0.357902 0.361299
O O14 0.500871 0.750000 0.242315
#
# Coordination Sequence:
#
# PCOD8181946 Si02
#       6
#     8   8   8   8   8   8
#     4  12  24  42  66 102 141 177 229 285 355 412
#     4  11  24  45  71  97 135 189 235 282 342 420
#     4  12  26  42  65 104 144 178 224 291 360 416
#     4  10  21  41  69  97 130 182 236 281 338 408
#     4  10  21  39  69 101 131 177 236 287 332 406
#     4  11  22  41  68 100 135 182 236 284 337 412
#
# _framework density 22.081629
#
# number of rings (size 3 to 8) (size 9 to 14) (size 15 to 20)
#    0.000    1.000    3.333    4.000    0.000    2.667 
#    3.000    3.333    0.000    0.000    0.000    0.000 
#    0.000    0.000    0.000    0.000    0.000    0.000 
#
# Total GULP energy -297664.345234 kJ/mol
# GULP energy per Si atom -12402.681051 kJ/mol
# Density = 2.203137 g / cm^3
# Si number density = 22.081629 Si / 1000 Ang^3
#
#
#
# Elastic Constant Matrix: (Units=GPa)
#
#
# Indices 1 2 3 4 5 6 
#
# 1 133.9567 50.8707 70.9222 0.0000 0.0000 0.0000
# 2 50.8707 74.9341 73.3428 0.0000 0.0000 0.0000
# 3 70.9222 73.3428 164.4005 0.0000 0.0000 0.0000
# 4 0.0000 0.0000 0.0000 20.2257 0.0000 0.0000
# 5 0.0000 0.0000 0.0000 0.0000 45.4555 0.0000
# 6 0.0000 0.0000 0.0000 0.0000 0.0000 40.4725
#
#
#
# Elastic Compliance Matrix: (Units=1/GPa)
#
#
# Indices 1 2 3 4 5 6 
#
# 1 0.010571 -0.004816 -0.002412 0.000000 0.000000 0.000000
# 2 -0.004816 0.025882 -0.009469 0.000000 0.000000 0.000000
# 3 -0.002412 -0.009469 0.011348 0.000000 0.000000 0.000000
# 4 0.000000 0.000000 0.000000 0.049442 0.000000 0.000000
# 5 0.000000 0.000000 0.000000 0.000000 0.022000 0.000000
# 6 0.000000 0.000000 0.000000 0.000000 0.000000 0.024708
#
#
# Mechanical properties :
#
#
# Convention : Reuss Voigt Hill
#
# Bulk Modulus (GPa) = 69.40896 84.84031 77.12463
# Shear Modulus (GPa) = 27.45042 33.10778 30.27910
#
# Velocity S-wave (km/s) = 3.52964 3.87633 3.70704
# Velocity P-wave (km/s) = 6.93630 7.65109 7.30245
#
# Compressibility (1/GPa) = 0.01440736
#
# Stress axis : x y z
#
# Youngs Moduli (GPa) = 94.60043 38.63631 88.12383
#
# Poissons Ratio (x) = 0.18605 0.21255
# Poissons Ratio (y) = 0.45555 0.83447
# Poissons Ratio (z) = 0.22817 0.36586
#
# Static dielectric constant tensor:
#      x y z
#    x 4.011690 0.000000 0.000000 
#    y 0.000000 3.724320 0.000000 
#    z 0.000000 0.000000 4.201490 
# 
# 
# High freq. dielectric constant tensor:
#      x y z
#    x 1.861430 0.000000 0.000000 
#    y 0.000000 1.857340 0.000000 
#    z 0.000000 0.000000 1.882010 
# 
# From -- ./inp_files/8353.got.cif
#   From: 2010.03.12/outbox.cif.g09.slc.cpg/sg39_5_cif.got.tgz:8353.got - 2010.04.14 02:53:20.
