data_PCOD8181294
_publ_section_title
;
Structure prediction by ZEFSAII (Michael W. Deem and Ramdas Pophale) SiO2 
 PCOD8181294
Probable space group: A B M 2
;
_chemical_formula_sum "Si O2"
_cell_formula_units_Z 48
_cell_length_a 12.359009
_cell_length_b 21.703506
_cell_length_c 9.092051
_cell_angle_alpha 90.000000
_cell_angle_beta 90.000000
_cell_angle_gamma 90.000000
_cell_volume 2438.795626
_symmetry_space_group_name_H-M "A B M 2"
_symmetry_group_IT_number 39
_symmetry_cell_setting 'orthorhombic'
loop_
_space_group_symop_operation_xyz
x,y,z
-x,-y,z
-x,1/2+y,z
x,1/2-y,z
x,1/2+y,1/2+z
-x,1/2-y,1/2+z
-x,y,1/2+z
x,-y,1/2+z
loop_
_atom_site_type_symbol
_atom_site_label
_atom_site_fract_x
_atom_site_fract_y
_atom_site_fract_z
Si Si1 0.054364 0.877119 0.000000
Si Si2 0.965583 0.250000 0.155609
Si Si3 0.847073 0.750000 0.954105
Si Si4 0.189465 0.879150 0.450825
Si Si5 0.646817 0.033824 0.328530
Si Si6 0.500000 0.500000 0.579114
Si Si7 0.000000 0.000000 0.675929
Si Si8 0.804721 0.431353 0.774360
O O1 0.155078 0.878346 0.885459
O O2 0.938712 0.873711 0.914902
O O3 0.080641 0.815241 0.092534
O O4 0.046827 0.941275 0.087981
O O5 0.942278 0.250000 0.329126
O O6 0.092977 0.250000 0.113792
O O7 0.768171 0.691172 0.943474
O O8 0.255446 0.917185 0.328673
O O9 0.211657 0.907345 0.610274
O O10 0.574480 0.042576 0.474710
O O11 0.574124 0.043616 0.182987
O O12 0.694952 0.964208 0.328206
O O13 0.901198 0.018729 0.779965
#
# Coordination Sequence:
#
# PCOD8181294 Si02
#       8
#     8   4   4   8   8   4   4   8
#     4  10  22  34  54  86 127 164 204 230 294 346
#     4  10  24  36  56  78 126 175 207 243 272 355
#     4  10  24  38  56  82 118 171 211 235 288 343
#     4  10  22  35  59  84 123 160 201 243 286 355
#     4  11  21  41  59  91 113 151 189 254 312 367
#     4  10  24  38  62  86 120 140 190 252 330 364
#     4  10  20  32  52  88 122 162 192 250 282 356
#     4  11  20  33  57  88 122 156 192 247 297 353
#
# _framework density 19.681847000000001
#
# number of rings (size 3 to 8) (size 9 to 14) (size 15 to 20)
#    0.000    1.667    1.667    3.500   16.333    0.000 
#    0.000    0.000    0.000    1.000    0.000    0.000 
#    0.000    0.000    0.000    0.000    0.000    0.000 
#
# Total GULP energy -297355.027486 kJ/mol
# GULP energy per Si atom -12389.792812 kJ/mol
# Density = 1.963705 g / cm^3
# Si number density = 19.681847 Si / 1000 Ang^3
#
#
#
# Elastic Constant Matrix: (Units=GPa)
#
#
# Indices 1 2 3 4 5 6 
#
# 1 69.2828 23.1784 31.2176 0.0000 0.0000 0.0000
# 2 23.1784 110.3426 19.3604 0.0000 0.0000 0.0000
# 3 31.2176 19.3604 70.0456 0.0000 0.0000 0.0000
# 4 0.0000 0.0000 0.0000 22.8372 0.0000 0.0000
# 5 0.0000 0.0000 0.0000 0.0000 33.6049 0.0000
# 6 0.0000 0.0000 0.0000 0.0000 0.0000 14.4228
#
#
#
# Elastic Compliance Matrix: (Units=1/GPa)
#
#
# Indices 1 2 3 4 5 6 
#
# 1 0.018743 -0.002597 -0.007635 0.000000 0.000000 0.000000
# 2 -0.002597 0.009885 -0.001574 0.000000 0.000000 0.000000
# 3 -0.007635 -0.001574 0.018114 0.000000 0.000000 0.000000
# 4 0.000000 0.000000 0.000000 0.043788 0.000000 0.000000
# 5 0.000000 0.000000 0.000000 0.000000 0.029758 0.000000
# 6 0.000000 0.000000 0.000000 0.000000 0.000000 0.069335
#
#
# Mechanical properties :
#
#
# Convention : Reuss Voigt Hill
#
# Bulk Modulus (GPa) = 43.23858 44.13154 43.68506
# Shear Modulus (GPa) = 22.62995 25.90060 24.26527
#
# Velocity S-wave (km/s) = 3.39453 3.63156 3.51504
# Velocity P-wave (km/s) = 6.11394 6.32893 6.22236
#
# Compressibility (1/GPa) = 0.02312749
#
# Stress axis : x y z
#
# Youngs Moduli (GPa) = 53.35346 101.16806 55.20446
#
# Poissons Ratio (x) = 0.26278 0.42150
# Poissons Ratio (y) = 0.13858 0.08692
# Poissons Ratio (z) = 0.40737 0.15928
#
# Static dielectric constant tensor:
#      x y z
#    x 3.504390 0.000000 0.000000 
#    y 0.000000 3.936240 0.000000 
#    z 0.000000 0.000000 3.570490 
# 
# 
# High freq. dielectric constant tensor:
#      x y z
#    x 1.728360 0.000000 0.000000 
#    y 0.000000 1.760200 0.000000 
#    z 0.000000 0.000000 1.775930 
# 
# From -- ./inp_files/2748.got.cif
#   From: 2010.03.12/outbox.cif.g09.slc.cpg/sg39_2_cif.got.tgz:2748.got - 2010.04.14 02:53:20.
