data_PCOD8181562
_publ_section_title
;
Structure prediction by ZEFSAII (Michael W. Deem and Ramdas Pophale) SiO2 
 PCOD8181562
Probable space group: A B M 2
;
_chemical_formula_sum "Si O2"
_cell_formula_units_Z 64
_cell_length_a 15.459637
_cell_length_b 8.919878
_cell_length_c 23.873832
_cell_angle_alpha 90.000000
_cell_angle_beta 90.000000
_cell_angle_gamma 90.000000
_cell_volume 3292.155499
_symmetry_space_group_name_H-M "A B M 2"
_symmetry_group_IT_number 39
_symmetry_cell_setting 'orthorhombic'
loop_
_space_group_symop_operation_xyz
x,y,z
-x,-y,z
-x,1/2+y,z
x,1/2-y,z
x,1/2+y,1/2+z
-x,1/2-y,1/2+z
-x,y,1/2+z
x,-y,1/2+z
loop_
_atom_site_type_symbol
_atom_site_label
_atom_site_fract_x
_atom_site_fract_y
_atom_site_fract_z
Si Si1 0.588189 0.072164 0.867360
Si Si2 0.833483 0.422727 0.751518
Si Si3 0.090112 0.075301 0.131969
Si Si4 0.411841 0.925069 0.134805
Si Si5 0.246005 0.071901 0.566686
Si Si6 0.652135 0.425294 0.256794
Si Si7 0.911292 0.425038 0.869415
Si Si8 0.250500 0.072215 0.439040
O O1 0.580147 0.250000 0.868605
O O2 0.664777 0.011740 0.907086
O O3 0.500000 0.000000 0.890186
O O4 0.605045 0.020916 0.804080
O O5 0.801539 0.250000 0.754189
O O6 0.890379 0.455233 0.697023
O O7 0.751940 0.531424 0.751179
O O8 0.892272 0.462382 0.804743
O O9 0.084383 0.250000 0.118587
O O10 0.163434 0.003926 0.093874
O O11 0.000000 0.000000 0.115699
O O12 0.421527 0.750000 0.125331
O O13 0.331990 0.985990 0.097976
O O14 0.395570 0.966131 0.199261
O O15 0.500000 0.000000 0.113532
O O16 0.235966 0.250000 0.571906
O O17 0.252080 0.016983 0.502746
O O18 0.645292 0.250000 0.270888
O O19 0.921018 0.250000 0.879644
O O20 0.834320 0.491490 0.907810
O O21 0.000000 0.500000 0.888600
O O22 0.250251 0.250000 0.435296
#
# Coordination Sequence:
#
# PCOD8181562 Si02
#       8
#     8   8   8   8   8   8   8   8
#     4  11  22  39  60  87 119 154 193 237 289 349
#     4  10  20  36  59  85 117 152 188 233 291 348
#     4  11  23  38  60  89 119 155 192 238 293 348
#     4  10  22  37  57  85 116 149 189 234 288 344
#     4  10  21  41  62  83 113 154 199 246 290 339
#     4  11  21  35  58  89 117 151 191 236 291 346
#     4  10  20  37  58  85 113 148 187 229 284 341
#     4   9  20  39  62  81 112 155 194 237 292 339
#
# _framework density 19.440151
#
# number of rings (size 3 to 8) (size 9 to 14) (size 15 to 20)
#    0.000    1.750    2.500    1.875    0.000    4.500 
#    0.000    3.125    0.000    0.000    0.000    0.000 
#    0.000    0.000    0.000    0.000    0.000    0.000 
#
# Total GULP energy -396934.927163 kJ/mol
# GULP energy per Si atom -12404.216474 kJ/mol
# Density = 1.939590 g / cm^3
# Si number density = 19.440151 Si / 1000 Ang^3
#
#
#
# Elastic Constant Matrix: (Units=GPa)
#
#
# Indices 1 2 3 4 5 6 
#
# 1 194.1386 52.3097 79.3690 0.0000 0.0000 0.0000
# 2 52.3097 53.4539 41.1906 0.0000 0.0000 0.0000
# 3 79.3690 41.1906 137.2384 0.0000 0.0000 0.0000
# 4 0.0000 0.0000 0.0000 21.4518 0.0000 0.0000
# 5 0.0000 0.0000 0.0000 0.0000 9.0839 0.0000
# 6 0.0000 0.0000 0.0000 0.0000 0.0000 39.9434
#
#
#
# Elastic Compliance Matrix: (Units=1/GPa)
#
#
# Indices 1 2 3 4 5 6 
#
# 1 0.007783 -0.005396 -0.002882 0.000000 0.000000 0.000000
# 2 -0.005396 0.028077 -0.005306 0.000000 0.000000 0.000000
# 3 -0.002882 -0.005306 0.010546 0.000000 0.000000 0.000000
# 4 0.000000 0.000000 0.000000 0.046616 0.000000 0.000000
# 5 0.000000 0.000000 0.000000 0.000000 0.110085 0.000000
# 6 0.000000 0.000000 0.000000 0.000000 0.000000 0.025035
#
#
# Mechanical properties :
#
#
# Convention : Reuss Voigt Hill
#
# Bulk Modulus (GPa) = 51.98041 81.17439 66.57740
# Shear Modulus (GPa) = 19.10419 28.22660 23.66540
#
# Velocity S-wave (km/s) = 3.13823 3.81461 3.49283
# Velocity P-wave (km/s) = 6.31887 7.82613 7.11254
#
# Compressibility (1/GPa) = 0.01923802
#
# Stress axis : x y z
#
# Youngs Moduli (GPa) = 128.48684 35.61623 94.82464
#
# Poissons Ratio (x) = 0.19218 0.27325
# Poissons Ratio (y) = 0.69329 0.50319
# Poissons Ratio (z) = 0.37025 0.18900
#
# Static dielectric constant tensor:
#      x y z
#    x 3.676090 0.000000 0.000000 
#    y 0.000000 3.364580 0.000000 
#    z 0.000000 0.000000 3.698590 
# 
# 
# High freq. dielectric constant tensor:
#      x y z
#    x 1.771240 0.000000 0.000000 
#    y 0.000000 1.741620 0.000000 
#    z 0.000000 0.000000 1.757820 
# 
# From -- ./inp_files/16136.got.cif
#   From: 2010.03.12/outbox.cif.g09.slc.cpg/sg39_9_cif.got.tgz:16136.got - 2010.04.14 02:53:20.
