data_PCOD8181026
_publ_section_title
;
Structure prediction by ZEFSAII (Michael W. Deem and Ramdas Pophale) SiO2 
 PCOD8181026
Probable space group: A B M 2
;
_chemical_formula_sum "Si O2"
_cell_formula_units_Z 64
_cell_length_a 14.647654
_cell_length_b 8.709560
_cell_length_c 24.659974
_cell_angle_alpha 90.000000
_cell_angle_beta 90.000000
_cell_angle_gamma 90.000000
_cell_volume 3145.986846
_symmetry_space_group_name_H-M "A B M 2"
_symmetry_group_IT_number 39
_symmetry_cell_setting 'orthorhombic'
loop_
_space_group_symop_operation_xyz
x,y,z
-x,-y,z
-x,1/2+y,z
x,1/2-y,z
x,1/2+y,1/2+z
-x,1/2-y,1/2+z
-x,y,1/2+z
x,-y,1/2+z
loop_
_atom_site_type_symbol
_atom_site_label
_atom_site_fract_x
_atom_site_fract_y
_atom_site_fract_z
Si Si1 0.783591 0.571291 0.816490
Si Si2 0.593254 0.566690 0.347468
Si Si3 0.899078 0.430987 0.720949
Si Si4 0.812901 0.921525 0.936804
Si Si5 0.092501 0.924711 0.540987
Si Si6 0.784554 0.430147 0.124462
Si Si7 0.363434 0.572291 0.965681
Si Si8 0.408396 0.068661 0.582951
O O1 0.775441 0.750000 0.801335
O O2 0.681574 0.500369 0.816423
O O3 0.849379 0.487978 0.774778
O O4 0.834251 0.543875 0.874108
O O5 0.500000 0.500000 0.320827
O O6 0.596239 0.750000 0.343036
O O7 0.592583 0.506340 0.410135
O O8 0.909775 0.250000 0.723313
O O9 0.835050 0.476122 0.670962
O O10 0.000000 0.500000 0.714924
O O11 0.769923 0.750000 0.941185
O O12 0.744017 0.044750 0.961291
O O13 0.901959 0.932505 0.975214
O O14 0.096348 0.750000 0.561972
O O15 0.174430 0.022022 0.566634
O O16 0.000000 0.000000 0.561685
O O17 0.797672 0.250000 0.134901
O O18 0.677383 0.475469 0.121089
O O19 0.383644 0.750000 0.968777
O O20 0.399795 0.496926 0.021706
O O21 0.415359 0.250000 0.579261
O O22 0.500000 0.000000 0.609851
#
# Coordination Sequence:
#
# PCOD8181026 Si02
#       8
#     8   8   8   8   8   8   8   8
#     4  10  21  40  63  90 123 158 202 254 305 361
#     4  10  19  32  54  86 125 167 210 251 300 357
#     4  12  26  46  70  94 117 151 200 253 310 368
#     4   9  19  34  55  84 120 159 197 241 297 354
#     4  11  22  36  56  86 120 158 197 241 298 362
#     4  11  23  42  64  88 120 157 200 252 303 355
#     4   9  17  31  51  80 118 162 205 245 291 348
#     4  10  21  35  56  86 121 160 201 243 294 351
#
# _framework density 20.343378000000001
#
# number of rings (size 3 to 8) (size 9 to 14) (size 15 to 20)
#    0.000    1.750    1.250    3.375    0.000    3.500 
#    0.000    1.875    0.000    1.500    0.000    0.000 
#    0.000    0.000    0.000    0.000    0.000    0.000 
#
# Total GULP energy -396644.143486 kJ/mol
# GULP energy per Si atom -12395.129484 kJ/mol
# Density = 2.029708 g / cm^3
# Si number density = 20.343378 Si / 1000 Ang^3
#
#
#
# Elastic Constant Matrix: (Units=GPa)
#
#
# Indices 1 2 3 4 5 6 
#
# 1 146.3072 53.9237 56.3591 0.0000 0.0000 0.0000
# 2 53.9237 84.9885 35.9759 0.0000 0.0000 0.0000
# 3 56.3591 35.9759 97.1089 0.0000 0.0000 0.0000
# 4 0.0000 0.0000 0.0000 26.3356 0.0000 0.0000
# 5 0.0000 0.0000 0.0000 0.0000 19.8810 0.0000
# 6 0.0000 0.0000 0.0000 0.0000 0.0000 35.9038
#
#
#
# Elastic Compliance Matrix: (Units=1/GPa)
#
#
# Indices 1 2 3 4 5 6 
#
# 1 0.010167 -0.004688 -0.004164 0.000000 0.000000 0.000000
# 2 -0.004688 0.016116 -0.003250 0.000000 0.000000 0.000000
# 3 -0.004164 -0.003250 0.013918 0.000000 0.000000 0.000000
# 4 0.000000 0.000000 0.000000 0.037971 0.000000 0.000000
# 5 0.000000 0.000000 0.000000 0.000000 0.050299 0.000000
# 6 0.000000 0.000000 0.000000 0.000000 0.000000 0.027852
#
#
# Mechanical properties :
#
#
# Convention : Reuss Voigt Hill
#
# Bulk Modulus (GPa) = 62.50721 68.99133 65.74927
# Shear Modulus (GPa) = 26.90197 28.56714 27.73455
#
# Velocity S-wave (km/s) = 3.64042 3.75139 3.69632
# Velocity P-wave (km/s) = 6.96154 7.26299 7.11386
#
# Compressibility (1/GPa) = 0.01599815
#
# Stress axis : x y z
#
# Youngs Moduli (GPa) = 98.36052 62.04828 71.84876
#
# Poissons Ratio (x) = 0.29089 0.29915
# Poissons Ratio (y) = 0.46112 0.23350
# Poissons Ratio (z) = 0.40954 0.20165
#
# Static dielectric constant tensor:
#      x y z
#    x 4.110610 0.000000 0.000000 
#    y 0.000000 3.664500 0.000000 
#    z 0.000000 0.000000 3.685800 
# 
# 
# High freq. dielectric constant tensor:
#      x y z
#    x 1.794160 0.000000 0.000000 
#    y 0.000000 1.796950 0.000000 
#    z 0.000000 0.000000 1.782090 
# 
# From -- ./inp_files/16143.got.cif
#   From: 2010.03.12/outbox.cif.g09.slc.cpg/sg39_9_cif.got.tgz:16143.got - 2010.04.14 02:53:20.
