data_PCOD8181814
_publ_section_title
;
Structure prediction by ZEFSAII (Michael W. Deem and Ramdas Pophale) SiO2 
 PCOD8181814
Probable space group: A B M 2
;
_chemical_formula_sum "Si O2"
_cell_formula_units_Z 64
_cell_length_a 14.328791
_cell_length_b 8.685711
_cell_length_c 25.209371
_cell_angle_alpha 90.000000
_cell_angle_beta 90.000000
_cell_angle_gamma 90.000000
_cell_volume 3137.450862
_symmetry_space_group_name_H-M "A B M 2"
_symmetry_group_IT_number 39
_symmetry_cell_setting 'orthorhombic'
loop_
_space_group_symop_operation_xyz
x,y,z
-x,-y,z
-x,1/2+y,z
x,1/2-y,z
x,1/2+y,1/2+z
-x,1/2-y,1/2+z
-x,y,1/2+z
x,-y,1/2+z
loop_
_atom_site_type_symbol
_atom_site_label
_atom_site_fract_x
_atom_site_fract_y
_atom_site_fract_z
Si Si1 0.100294 0.570149 0.576640
Si Si2 0.398939 0.432545 0.635677
Si Si3 0.775391 0.931797 0.488017
Si Si4 0.597690 0.070998 0.253003
Si Si5 0.207488 0.570484 0.291837
Si Si6 0.099899 0.070475 0.198871
Si Si7 0.602236 0.568477 0.030562
Si Si8 0.102402 0.930768 0.889581
O O1 0.099798 0.750000 0.562218
O O2 0.174403 0.479711 0.542010
O O3 0.127095 0.542314 0.637907
O O4 0.000000 0.500000 0.563747
O O5 0.500000 0.500000 0.625338
O O6 0.395008 0.250000 0.629317
O O7 0.368947 0.488307 0.694500
O O8 0.346683 0.510037 0.585570
O O9 0.762132 0.750000 0.485676
O O10 0.836257 0.992911 0.438456
O O11 0.673518 0.011883 0.484749
O O12 0.577957 0.250000 0.247701
O O13 0.680891 0.035320 0.294295
O O14 0.500000 0.000000 0.272617
O O15 0.187331 0.750000 0.300555
O O16 0.174836 0.520390 0.233620
O O17 0.153975 0.473413 0.335435
O O18 0.099014 0.250000 0.213562
O O19 0.000000 0.000000 0.212491
O O20 0.500000 0.500000 0.019025
O O21 0.594225 0.750000 0.030853
O O22 0.090955 0.750000 0.892356
O O23 0.000000 0.000000 0.891921
#
# Coordination Sequence:
#
# PCOD8181814 Si02
#       8
#     8   8   8   8   8   8   8   8
#     4  10  21  37  58  88 122 158 197 242 303 367
#     4   9  16  30  51  79 115 157 199 241 290 345
#     4  11  24  41  63  89 119 157 203 252 307 365
#     4   9  20  36  56  85 119 159 201 245 295 350
#     4  11  23  39  61  89 120 158 203 249 302 358
#     4  10  21  37  57  85 120 157 195 241 298 362
#     4  11  22  37  58  87 123 162 205 250 301 358
#     4  11  25  45  68  92 118 154 199 252 308 363
#
# _framework density 20.398724999999999
#
# number of rings (size 3 to 8) (size 9 to 14) (size 15 to 20)
#    0.000    1.750    0.000    4.875    1.750    6.000 
#    0.000    0.625    0.000    1.500    0.000    0.000 
#    0.000    0.000    0.000    0.000    0.000    0.000 
#
# Total GULP energy -396712.609069 kJ/mol
# GULP energy per Si atom -12397.269033 kJ/mol
# Density = 2.035230 g / cm^3
# Si number density = 20.398725 Si / 1000 Ang^3
#
#
#
# Elastic Constant Matrix: (Units=GPa)
#
#
# Indices 1 2 3 4 5 6 
#
# 1 128.1413 36.4323 59.6987 0.0000 0.0000 0.0000
# 2 36.4323 76.5853 27.4203 0.0000 0.0000 0.0000
# 3 59.6987 27.4203 73.2002 0.0000 0.0000 0.0000
# 4 0.0000 0.0000 0.0000 25.5463 0.0000 0.0000
# 5 0.0000 0.0000 0.0000 0.0000 32.4531 0.0000
# 6 0.0000 0.0000 0.0000 0.0000 0.0000 34.7989
#
#
#
# Elastic Compliance Matrix: (Units=1/GPa)
#
#
# Indices 1 2 3 4 5 6 
#
# 1 0.013077 -0.002775 -0.009626 0.000000 0.000000 0.000000
# 2 -0.002775 0.015668 -0.003607 0.000000 0.000000 0.000000
# 3 -0.009626 -0.003607 0.022863 0.000000 0.000000 0.000000
# 4 0.000000 0.000000 0.000000 0.039145 0.000000 0.000000
# 5 0.000000 0.000000 0.000000 0.000000 0.030814 0.000000
# 6 0.000000 0.000000 0.000000 0.000000 0.000000 0.028737
#
#
# Mechanical properties :
#
#
# Convention : Reuss Voigt Hill
#
# Bulk Modulus (GPa) = 51.03496 58.33662 54.68579
# Shear Modulus (GPa) = 26.47625 28.85135 27.66380
#
# Velocity S-wave (km/s) = 3.60660 3.76489 3.68659
# Velocity P-wave (km/s) = 6.51279 6.89634 6.70730
#
# Compressibility (1/GPa) = 0.01959441
#
# Stress axis : x y z
#
# Youngs Moduli (GPa) = 76.46869 63.82240 43.73965
#
# Poissons Ratio (x) = 0.17708 0.42103
# Poissons Ratio (y) = 0.21217 0.15775
# Poissons Ratio (z) = 0.73608 0.23018
#
# Static dielectric constant tensor:
#      x y z
#    x 3.729240 0.000000 0.000000 
#    y 0.000000 3.702770 0.000000 
#    z 0.000000 0.000000 3.795180 
# 
# 
# High freq. dielectric constant tensor:
#      x y z
#    x 1.804950 0.000000 0.000000 
#    y 0.000000 1.804890 0.000000 
#    z 0.000000 0.000000 1.783420 
# 
# From -- ./inp_files/16197.got.cif
#   From: 2010.03.12/outbox.cif.g09.slc.cpg/sg39_9_cif.got.tgz:16197.got - 2010.04.14 02:53:20.
