data_PCOD8181614
_publ_section_title
;
Structure prediction by ZEFSAII (Michael W. Deem and Ramdas Pophale) SiO2 
 PCOD8181614
Probable space group: A B M 2
;
_chemical_formula_sum "Si O2"
_cell_formula_units_Z 64
_cell_length_a 24.327527
_cell_length_b 8.996577
_cell_length_c 14.688594
_cell_angle_alpha 90.000000
_cell_angle_beta 90.000000
_cell_angle_gamma 90.000000
_cell_volume 3214.811339
_symmetry_space_group_name_H-M "A B M 2"
_symmetry_group_IT_number 39
_symmetry_cell_setting 'orthorhombic'
loop_
_space_group_symop_operation_xyz
x,y,z
-x,-y,z
-x,1/2+y,z
x,1/2-y,z
x,1/2+y,1/2+z
-x,1/2-y,1/2+z
-x,y,1/2+z
x,-y,1/2+z
loop_
_atom_site_type_symbol
_atom_site_label
_atom_site_fract_x
_atom_site_fract_y
_atom_site_fract_z
Si Si1 0.553982 0.418621 0.477190
Si Si2 0.665164 0.425543 0.978974
Si Si3 0.552877 0.915711 0.194050
Si Si4 0.137327 0.574284 0.840240
Si Si5 0.339725 0.579896 0.187964
Si Si6 0.056633 0.574011 0.477085
Si Si7 0.054487 0.578187 0.685232
Si Si8 0.254104 0.924100 0.342238
O O1 0.500000 0.500000 0.437281
O O2 0.556866 0.250000 0.440194
O O3 0.607305 0.508832 0.443553
O O4 0.551384 0.419879 0.585556
O O5 0.666379 0.250000 0.960708
O O6 0.714288 0.506157 0.927261
O O7 0.674331 0.465665 0.084814
O O8 0.551068 0.750000 0.232398
O O9 0.500000 0.000000 0.234510
O O10 0.609074 0.989315 0.228937
O O11 0.139911 0.750000 0.857651
O O12 0.106083 0.533634 0.746974
O O13 0.197393 0.508420 0.830576
O O14 0.107424 0.495968 0.924137
O O15 0.358224 0.750000 0.191460
O O16 0.286813 0.547440 0.248963
O O17 0.053568 0.750000 0.460914
O O18 0.067338 0.531038 0.581998
O O19 0.000000 0.500000 0.442688
O O20 0.041344 0.750000 0.691827
O O21 0.000000 0.500000 0.723263
O O22 0.244606 0.750000 0.360417
#
# Coordination Sequence:
#
# PCOD8181614 Si02
#       8
#     8   8   8   8   8   8   8   8
#     4   9  16  28  49  79 110 142 179 223 276 336
#     4  10  20  37  59  82 109 144 183 229 281 335
#     4   9  16  27  49  79 109 140 177 221 275 334
#     4  11  23  39  58  83 114 151 191 233 277 325
#     4   9  20  38  58  79 108 144 183 227 280 335
#     4  10  20  37  60  89 121 153 187 227 275 328
#     4   9  20  37  59  87 119 151 185 225 273 326
#     4  11  24  41  58  80 110 147 190 235 278 329
#
# _framework density 19.907855999999999
#
# number of rings (size 3 to 8) (size 9 to 14) (size 15 to 20)
#    0.000    2.250    0.000    2.625    0.000    8.000 
#    0.000    3.125    0.000    3.000    0.000    0.000 
#    0.000    0.000    0.000    0.000    0.000    0.000 
#
# Total GULP energy -396904.136791 kJ/mol
# GULP energy per Si atom -12403.254275 kJ/mol
# Density = 1.986254 g / cm^3
# Si number density = 19.907856 Si / 1000 Ang^3
#
#
#
# Elastic Constant Matrix: (Units=GPa)
#
#
# Indices 1 2 3 4 5 6 
#
# 1 167.5160 77.9443 56.7869 0.0000 0.0000 0.0000
# 2 77.9443 122.3826 48.6157 0.0000 0.0000 0.0000
# 3 56.7869 48.6157 72.3522 0.0000 0.0000 0.0000
# 4 0.0000 0.0000 0.0000 28.4853 0.0000 0.0000
# 5 0.0000 0.0000 0.0000 0.0000 31.9141 0.0000
# 6 0.0000 0.0000 0.0000 0.0000 0.0000 44.7297
#
#
#
# Elastic Compliance Matrix: (Units=1/GPa)
#
#
# Indices 1 2 3 4 5 6 
#
# 1 0.009497 -0.004212 -0.004624 0.000000 0.000000 0.000000
# 2 -0.004212 0.013014 -0.005439 0.000000 0.000000 0.000000
# 3 -0.004624 -0.005439 0.021105 0.000000 0.000000 0.000000
# 4 0.000000 0.000000 0.000000 0.035106 0.000000 0.000000
# 5 0.000000 0.000000 0.000000 0.000000 0.031334 0.000000
# 6 0.000000 0.000000 0.000000 0.000000 0.000000 0.022357
#
#
# Mechanical properties :
#
#
# Convention : Reuss Voigt Hill
#
# Bulk Modulus (GPa) = 66.37025 80.99386 73.68205
# Shear Modulus (GPa) = 30.12360 32.95274 31.53817
#
# Velocity S-wave (km/s) = 3.89414 4.07291 3.98453
# Velocity P-wave (km/s) = 7.32327 7.93037 7.63286
#
# Compressibility (1/GPa) = 0.01506699
#
# Stress axis : x y z
#
# Youngs Moduli (GPa) = 105.30088 76.84019 47.38237
#
# Poissons Ratio (x) = 0.32362 0.21908
# Poissons Ratio (y) = 0.44348 0.25771
# Poissons Ratio (z) = 0.48688 0.41793
#
# Static dielectric constant tensor:
#      x y z
#    x 3.606950 0.000000 0.000000 
#    y 0.000000 3.669080 0.000000 
#    z 0.000000 0.000000 3.613910 
# 
# 
# High freq. dielectric constant tensor:
#      x y z
#    x 1.775660 0.000000 0.000000 
#    y 0.000000 1.788020 0.000000 
#    z 0.000000 0.000000 1.772580 
# 
# From -- ./inp_files/10624.got.cif
#   From: 2010.03.12/outbox.cif.g09.slc.cpg/sg39_6_cif.got.tgz:10624.got - 2010.04.14 02:53:20.
