data_PCOD8181313
_publ_section_title
;
Structure prediction by ZEFSAII (Michael W. Deem and Ramdas Pophale) SiO2 
 PCOD8181313
Probable space group: A B M 2
;
_chemical_formula_sum "Si O2"
_cell_formula_units_Z 56
_cell_length_a 19.905882
_cell_length_b 9.022078
_cell_length_c 15.587992
_cell_angle_alpha 90.000000
_cell_angle_beta 90.000000
_cell_angle_gamma 90.000000
_cell_volume 2799.485207
_symmetry_space_group_name_H-M "A B M 2"
_symmetry_group_IT_number 39
_symmetry_cell_setting 'orthorhombic'
loop_
_space_group_symop_operation_xyz
x,y,z
-x,-y,z
-x,1/2+y,z
x,1/2-y,z
x,1/2+y,1/2+z
-x,1/2-y,1/2+z
-x,y,1/2+z
x,-y,1/2+z
loop_
_atom_site_type_symbol
_atom_site_label
_atom_site_fract_x
_atom_site_fract_y
_atom_site_fract_z
Si Si1 0.070877 0.923820 0.695340
Si Si2 0.561635 0.587227 0.284336
Si Si3 0.304494 0.416441 0.543329
Si Si4 0.834098 0.074250 0.537647
Si Si5 0.155804 0.572497 0.858879
Si Si6 0.698079 0.585952 0.343385
Si Si7 0.437029 0.586236 0.586583
O O1 0.059661 0.750000 0.697320
O O2 0.116235 0.969709 0.614632
O O3 0.103521 0.975165 0.785674
O O4 0.000000 0.000000 0.684279
O O5 0.500000 0.500000 0.328824
O O6 0.565444 0.750000 0.328269
O O7 0.633886 0.504119 0.299794
O O8 0.545171 0.606202 0.185441
O O9 0.297286 0.250000 0.581160
O O10 0.237942 0.509765 0.564587
O O11 0.316600 0.408565 0.443183
O O12 0.368359 0.495920 0.583479
O O13 0.828337 0.250000 0.525567
O O14 0.862942 0.002680 0.449662
O O15 0.159073 0.750000 0.873162
O O16 0.229131 0.510802 0.827965
O O17 0.702320 0.750000 0.302540
O O18 0.500000 0.500000 0.542539
O O19 0.429271 0.750000 0.544235
#
# Coordination Sequence:
#
# PCOD8181313 Si02
#       7
#     8   8   8   8   8   8   8
#     4  10  23  40  62  89 119 155 194 234 285 350
#     4   9  18  32  50  71  99 137 177 223 271 325
#     4  10  20  35  55  79 109 144 184 231 285 342
#     4  10  21  38  60  88 119 153 194 240 289 343
#     4   9  19  38  61  84 114 153 193 236 287 342
#     4   8  16  32  54  75  98 135 180 220 271 329
#     4  10  20  33  51  74 105 143 185 233 283 338
#
# _framework density 20.003679000000002
#
# number of rings (size 3 to 8) (size 9 to 14) (size 15 to 20)
#    0.000    2.571    0.000    2.143    2.000    3.429 
#    0.000    7.857    0.000    0.000    0.000    0.000 
#    0.000    0.000    0.000    0.000    0.000    0.000 
#
# Total GULP energy -346996.892409 kJ/mol
# GULP energy per Si atom -12392.746157 kJ/mol
# Density = 1.995815 g / cm^3
# Si number density = 20.003679 Si / 1000 Ang^3
#
#
#
# Elastic Constant Matrix: (Units=GPa)
#
#
# Indices 1 2 3 4 5 6 
#
# 1 157.2075 60.8054 65.3410 0.0000 0.0000 0.0000
# 2 60.8054 91.3103 40.7932 0.0000 0.0000 0.0000
# 3 65.3410 40.7932 73.8237 0.0000 0.0000 0.0000
# 4 0.0000 0.0000 0.0000 23.8682 0.0000 0.0000
# 5 0.0000 0.0000 0.0000 0.0000 14.1762 0.0000
# 6 0.0000 0.0000 0.0000 0.0000 0.0000 36.4446
#
#
#
# Elastic Compliance Matrix: (Units=1/GPa)
#
#
# Indices 1 2 3 4 5 6 
#
# 1 0.011049 -0.003969 -0.007587 0.000000 0.000000 0.000000
# 2 -0.003969 0.015967 -0.005310 0.000000 0.000000 0.000000
# 3 -0.007587 -0.005310 0.023195 0.000000 0.000000 0.000000
# 4 0.000000 0.000000 0.000000 0.041897 0.000000 0.000000
# 5 0.000000 0.000000 0.000000 0.000000 0.070541 0.000000
# 6 0.000000 0.000000 0.000000 0.000000 0.000000 0.027439
#
#
# Mechanical properties :
#
#
# Convention : Reuss Voigt Hill
#
# Bulk Modulus (GPa) = 60.67965 72.91341 66.79653
# Shear Modulus (GPa) = 21.80431 25.25792 23.53112
#
# Velocity S-wave (km/s) = 3.30512 3.55725 3.43350
# Velocity P-wave (km/s) = 6.70561 7.30761 7.01307
#
# Compressibility (1/GPa) = 0.01647999
#
# Stress axis : x y z
#
# Youngs Moduli (GPa) = 90.50323 62.62989 43.11246
#
# Poissons Ratio (x) = 0.24855 0.32708
# Poissons Ratio (y) = 0.35917 0.22894
# Poissons Ratio (z) = 0.68663 0.33258
#
# Static dielectric constant tensor:
#      x y z
#    x 3.777800 0.000000 0.000000 
#    y 0.000000 3.792110 0.000000 
#    z 0.000000 0.000000 3.475290 
# 
# 
# High freq. dielectric constant tensor:
#      x y z
#    x 1.790440 0.000000 0.000000 
#    y 0.000000 1.765540 0.000000 
#    z 0.000000 0.000000 1.766780 
# 
# From -- ./inp_files/10371.got.cif
#   From: 2010.03.12/outbox.cif.g09.slc.cpg/sg39_6_cif.got.tgz:10371.got - 2010.04.14 02:53:20.
