data_PCOD8181536
_publ_section_title
;
Structure prediction by ZEFSAII (Michael W. Deem and Ramdas Pophale) SiO2 
 PCOD8181536
Probable space group: A B M 2
;
_chemical_formula_sum "Si O2"
_cell_formula_units_Z 48
_cell_length_a 9.393298
_cell_length_b 8.615764
_cell_length_c 30.709474
_cell_angle_alpha 90.000000
_cell_angle_beta 90.000000
_cell_angle_gamma 90.000000
_cell_volume 2485.331205
_symmetry_space_group_name_H-M "A B M 2"
_symmetry_group_IT_number 39
_symmetry_cell_setting 'orthorhombic'
loop_
_space_group_symop_operation_xyz
x,y,z
-x,-y,z
-x,1/2+y,z
x,1/2-y,z
x,1/2+y,1/2+z
-x,1/2-y,1/2+z
-x,y,1/2+z
x,-y,1/2+z
loop_
_atom_site_type_symbol
_atom_site_label
_atom_site_fract_x
_atom_site_fract_y
_atom_site_fract_z
Si Si1 0.844693 0.433753 0.958260
Si Si2 0.653090 0.932311 0.130712
Si Si3 0.843081 0.933230 0.801197
Si Si4 0.656254 0.933766 0.720918
Si Si5 0.343149 0.934103 0.382947
Si Si6 0.150438 0.432946 0.050471
O O1 0.851841 0.250000 0.955078
O O2 0.724913 0.498248 0.926509
O O3 0.000000 0.500000 0.946092
O O4 0.796866 0.485226 0.006406
O O5 0.643693 0.750000 0.138106
O O6 0.746311 0.978146 0.089473
O O7 0.500000 0.000000 0.120567
O O8 0.716864 0.007777 0.174600
O O9 0.854555 0.750000 0.800686
O O10 0.764142 0.994208 0.757855
O O11 0.752732 0.990395 0.842564
O O12 0.000000 0.000000 0.803953
O O13 0.645202 0.750000 0.720863
O O14 0.500000 0.000000 0.730271
O O15 0.350575 0.750000 0.386239
O O16 0.500000 0.000000 0.376321
O O17 0.140600 0.250000 0.042128
O O18 0.000000 0.500000 0.064846
#
# Coordination Sequence:
#
# PCOD8181536 Si02
#       6
#     8   8   8   8   8   8
#     4  11  22  38  60  85 114 149 188 232 282 334
#     4  10  21  36  56  82 111 146 186 228 276 330
#     4  10  23  39  58  84 113 147 186 228 275 330
#     4  10  20  36  57  82 111 145 185 228 276 328
#     4  11  23  40  60  85 115 148 188 231 280 334
#     4  10  21  37  57  82 112 147 188 231 278 332
#
# _framework density 19.313319
#
# number of rings (size 3 to 8) (size 9 to 14) (size 15 to 20)
#    0.000    1.667    0.000    6.500    0.000    8.000 
#    0.000    5.000    0.000    0.000    0.000    0.000 
#    0.000    0.000    0.000    0.000    0.000    0.000 
#
# Total GULP energy -297674.815897 kJ/mol
# GULP energy per Si atom -12403.117329 kJ/mol
# Density = 1.926936 g / cm^3
# Si number density = 19.313319 Si / 1000 Ang^3
#
#
#
# Elastic Constant Matrix: (Units=GPa)
#
#
# Indices 1 2 3 4 5 6 
#
# 1 139.7363 50.7138 105.4796 0.0000 0.0000 0.0000
# 2 50.7138 97.2688 59.2167 0.0000 0.0000 0.0000
# 3 105.4796 59.2167 155.6083 0.0000 0.0000 0.0000
# 4 0.0000 0.0000 0.0000 27.9049 0.0000 0.0000
# 5 0.0000 0.0000 0.0000 0.0000 44.1068 0.0000
# 6 0.0000 0.0000 0.0000 0.0000 0.0000 35.6464
#
#
#
# Elastic Compliance Matrix: (Units=1/GPa)
#
#
# Indices 1 2 3 4 5 6 
#
# 1 0.014983 -0.002120 -0.009350 0.000000 0.000000 0.000000
# 2 -0.002120 0.013681 -0.003769 0.000000 0.000000 0.000000
# 3 -0.009350 -0.003769 0.014199 0.000000 0.000000 0.000000
# 4 0.000000 0.000000 0.000000 0.035836 0.000000 0.000000
# 5 0.000000 0.000000 0.000000 0.000000 0.022672 0.000000
# 6 0.000000 0.000000 0.000000 0.000000 0.000000 0.028053
#
#
# Mechanical properties :
#
#
# Convention : Reuss Voigt Hill
#
# Bulk Modulus (GPa) = 80.74393 91.49263 86.11828
# Shear Modulus (GPa) = 30.48216 33.34517 31.91367
#
# Velocity S-wave (km/s) = 3.97709 4.15967 4.06940
# Velocity P-wave (km/s) = 7.93648 8.39917 8.17111
#
# Compressibility (1/GPa) = 0.01238483
#
# Stress axis : x y z
#
# Youngs Moduli (GPa) = 66.74068 73.09549 70.42964
#
# Poissons Ratio (x) = 0.15495 0.65850
# Poissons Ratio (y) = 0.14148 0.26547
# Poissons Ratio (z) = 0.62401 0.27551
#
# Static dielectric constant tensor:
#      x y z
#    x 3.595330 0.000000 0.000000 
#    y 0.000000 3.616580 0.000000 
#    z 0.000000 0.000000 3.838250 
# 
# 
# High freq. dielectric constant tensor:
#      x y z
#    x 1.750810 0.000000 0.000000 
#    y 0.000000 1.764620 0.000000 
#    z 0.000000 0.000000 1.769230 
# 
# From -- ./inp_files/17611.got.cif
#   From: 2010.03.12/outbox.cif.g09.slc.cpg/sg39_9_cif.got.tgz:17611.got - 2010.04.14 02:53:20.
