data_PCOD8181381
_publ_section_title
;
Structure prediction by ZEFSAII (Michael W. Deem and Ramdas Pophale) SiO2 
 PCOD8181381
Probable space group: A B M 2
;
_chemical_formula_sum "Si O2"
_cell_formula_units_Z 52
_cell_length_a 27.090047
_cell_length_b 10.527264
_cell_length_c 8.906764
_cell_angle_alpha 90.000000
_cell_angle_beta 90.000000
_cell_angle_gamma 90.000000
_cell_volume 2540.067266
_symmetry_space_group_name_H-M "A B M 2"
_symmetry_group_IT_number 39
_symmetry_cell_setting 'orthorhombic'
loop_
_space_group_symop_operation_xyz
x,y,z
-x,-y,z
-x,1/2+y,z
x,1/2-y,z
x,1/2+y,1/2+z
-x,1/2-y,1/2+z
-x,y,1/2+z
x,-y,1/2+z
loop_
_atom_site_type_symbol
_atom_site_label
_atom_site_fract_x
_atom_site_fract_y
_atom_site_fract_z
Si Si1 0.332509 0.103828 0.566980
Si Si2 0.281390 0.103238 0.872392
Si Si3 0.173290 0.606739 0.413715
Si Si4 0.106912 0.497392 0.160218
Si Si5 0.436943 0.108596 0.684471
Si Si6 0.958470 0.607054 0.406845
Si Si7 0.500000 0.000000 0.439588
O O1 0.336762 0.250000 0.502388
O O2 0.291079 0.103097 0.695311
O O3 0.384738 0.053056 0.630885
O O4 0.318725 0.997836 0.444976
O O5 0.288122 0.250000 0.933475
O O6 0.226781 0.040957 0.898962
O O7 0.188546 0.750000 0.398769
O O8 0.147959 0.583186 0.573719
O O9 0.134436 0.579237 0.283843
O O10 0.079019 0.590689 0.045268
O O11 0.068659 0.405304 0.246177
O O12 0.427626 0.250000 0.736480
O O13 0.477644 0.106340 0.551012
O O14 0.454680 0.040750 0.835626
O O15 0.980952 0.750000 0.414908
O O16 0.000000 0.500000 0.419560
#
# Coordination Sequence:
#
# PCOD8181381 Si02
#       7
#     8   8   8   8   8   8   4
#     4  10  21  37  56  81 114 148 184 228 279 334
#     4  10  21  37  58  85 114 147 187 229 276 331
#     4  10  20  37  59  82 112 147 184 229 277 326
#     4  10  22  38  59  84 113 146 187 230 276 328
#     4  10  20  35  54  77 107 142 181 227 276 328
#     4  11  24  40  60  86 115 149 188 230 277 330
#     4  10  20  34  54  78 104 138 184 228 276 328
#
# _framework density 20.471900000000002
#
# number of rings (size 3 to 8) (size 9 to 14) (size 15 to 20)
#    0.000    1.846    0.000    3.692    0.000    5.538 
#    0.000    7.692    0.000    0.000    0.000    0.000 
#    0.000    0.000    0.000    0.000    0.000    0.000 
#
# Total GULP energy -322228.425057 kJ/mol
# GULP energy per Si atom -12393.400964 kJ/mol
# Density = 2.042530 g / cm^3
# Si number density = 20.471900 Si / 1000 Ang^3
#
#
#
# Elastic Constant Matrix: (Units=GPa)
#
#
# Indices 1 2 3 4 5 6 
#
# 1 86.5619 20.0361 11.4147 0.0000 0.0000 0.0000
# 2 20.0361 90.7108 19.3784 0.0000 0.0000 0.0000
# 3 11.4147 19.3784 85.0059 0.0000 0.0000 0.0000
# 4 0.0000 0.0000 0.0000 17.7128 0.0000 0.0000
# 5 0.0000 0.0000 0.0000 0.0000 39.3508 0.0000
# 6 0.0000 0.0000 0.0000 0.0000 0.0000 30.8398
#
#
#
# Elastic Compliance Matrix: (Units=1/GPa)
#
#
# Indices 1 2 3 4 5 6 
#
# 1 0.012269 -0.002479 -0.001082 0.000000 0.000000 0.000000
# 2 -0.002479 0.012089 -0.002423 0.000000 0.000000 0.000000
# 3 -0.001082 -0.002423 0.012462 0.000000 0.000000 0.000000
# 4 0.000000 0.000000 0.000000 0.056456 0.000000 0.000000
# 5 0.000000 0.000000 0.000000 0.000000 0.025412 0.000000
# 6 0.000000 0.000000 0.000000 0.000000 0.000000 0.032426
#
#
# Mechanical properties :
#
#
# Convention : Reuss Voigt Hill
#
# Bulk Modulus (GPa) = 40.23936 40.43745 40.33841
# Shear Modulus (GPa) = 29.17728 31.67730 30.42729
#
# Velocity S-wave (km/s) = 3.77932 3.93791 3.85943
# Velocity P-wave (km/s) = 6.22438 6.36174 6.29344
#
# Compressibility (1/GPa) = 0.02485129
#
# Stress axis : x y z
#
# Youngs Moduli (GPa) = 81.50694 82.71859 80.24638
#
# Poissons Ratio (x) = 0.20503 0.08686
# Poissons Ratio (y) = 0.20203 0.19444
# Poissons Ratio (z) = 0.08823 0.20043
#
# Static dielectric constant tensor:
#      x y z
#    x 3.890600 0.000000 0.000000 
#    y 0.000000 3.590260 0.000000 
#    z 0.000000 0.000000 3.693320 
# 
# 
# High freq. dielectric constant tensor:
#      x y z
#    x 1.814900 0.000000 0.000000 
#    y 0.000000 1.785990 0.000000 
#    z 0.000000 0.000000 1.801880 
# 
# From -- ./inp_files/4109.got.cif
#   From: 2010.03.12/outbox.cif.g09.slc.cpg/sg39_3_cif.got.tgz:4109.got - 2010.04.14 02:53:20.
