data_PCOD8181270
_publ_section_title
;
Structure prediction by ZEFSAII (Michael W. Deem and Ramdas Pophale) SiO2 
 PCOD8181270
Probable space group: A B M 2
;
_chemical_formula_sum "Si O2"
_cell_formula_units_Z 64
_cell_length_a 12.637755
_cell_length_b 15.178318
_cell_length_c 14.041643
_cell_angle_alpha 90.000000
_cell_angle_beta 90.000000
_cell_angle_gamma 90.000000
_cell_volume 2693.466053
_symmetry_space_group_name_H-M "A B M 2"
_symmetry_group_IT_number 39
_symmetry_cell_setting 'orthorhombic'
loop_
_space_group_symop_operation_xyz
x,y,z
-x,-y,z
-x,1/2+y,z
x,1/2-y,z
x,1/2+y,1/2+z
-x,1/2-y,1/2+z
-x,y,1/2+z
x,-y,1/2+z
loop_
_atom_site_type_symbol
_atom_site_label
_atom_site_fract_x
_atom_site_fract_y
_atom_site_fract_z
Si Si1 0.590053 0.848318 0.933320
Si Si2 0.771687 0.400633 0.307974
Si Si3 0.079416 0.146609 0.091667
Si Si4 0.979616 0.349286 0.388847
Si Si5 0.311104 0.643940 0.627028
Si Si6 0.804271 0.583257 0.406874
Si Si7 0.604429 0.849207 0.322485
Si Si8 0.845524 0.144671 0.117253
O O1 0.555438 0.750000 0.962147
O O2 0.680854 0.841042 0.853287
O O3 0.487956 0.897442 0.885123
O O4 0.633288 0.893684 0.030662
O O5 0.885609 0.353018 0.314032
O O6 0.762349 0.491236 0.365645
O O7 0.764145 0.400875 0.192694
O O8 0.097178 0.250000 0.082402
O O9 0.188859 0.107886 0.135624
O O10 0.969582 0.126398 0.147203
O O11 0.066484 0.106969 0.985314
O O12 0.017635 0.250000 0.408342
O O13 0.084384 0.399674 0.352760
O O14 0.309730 0.750000 0.627217
O O15 0.375721 0.606473 0.718358
O O16 0.714398 0.653175 0.379556
O O17 0.822430 0.592536 0.519581
O O18 0.565597 0.750000 0.304897
O O19 0.825722 0.250000 0.106415
#
# Coordination Sequence:
#
# PCOD8181270 Si02
#       8
#     8   8   8   8   8   8   8   8
#     4  10  21  39  63  92 125 170 231 288 334 398
#     4  12  24  39  63  96 134 173 222 275 346 408
#     4   8  15  31  58  90 122 160 213 273 334 387
#     4  10  19  38  64  90 127 175 219 271 329 402
#     4   9  17  33  59  93 123 155 214 286 336 385
#     4  11  25  42  60  94 139 172 216 279 349 401
#     4  10  22  39  63  91 122 174 233 281 335 404
#     4  10  22  41  67  99 135 185 235 281 333 411
#
# _framework density 23.761206000000001
#
# number of rings (size 3 to 8) (size 9 to 14) (size 15 to 20)
#    0.000    2.000    1.250    3.375    1.750    2.500 
#    0.000    3.750    0.000    3.000    0.000    0.000 
#    0.000    0.000    0.000    0.000    0.000    0.000 
#
# Total GULP energy -396432.975938 kJ/mol
# GULP energy per Si atom -12388.530498 kJ/mol
# Density = 2.370712 g / cm^3
# Si number density = 23.761206 Si / 1000 Ang^3
#
#
#
# Elastic Constant Matrix: (Units=GPa)
#
#
# Indices 1 2 3 4 5 6 
#
# 1 142.7515 -3.7985 80.2788 0.0000 0.0000 0.0000
# 2 -3.7985 45.2004 15.7497 0.0000 0.0000 0.0000
# 3 80.2788 15.7497 136.2746 0.0000 0.0000 0.0000
# 4 0.0000 0.0000 0.0000 22.7139 0.0000 0.0000
# 5 0.0000 0.0000 0.0000 0.0000 41.8923 0.0000
# 6 0.0000 0.0000 0.0000 0.0000 0.0000 10.9069
#
#
#
# Elastic Compliance Matrix: (Units=1/GPa)
#
#
# Indices 1 2 3 4 5 6 
#
# 1 0.010927 0.003294 -0.006818 0.000000 0.000000 0.000000
# 2 0.003294 0.024045 -0.004719 0.000000 0.000000 0.000000
# 3 -0.006818 -0.004719 0.011900 0.000000 0.000000 0.000000
# 4 0.000000 0.000000 0.000000 0.044026 0.000000 0.000000
# 5 0.000000 0.000000 0.000000 0.000000 0.023871 0.000000
# 6 0.000000 0.000000 0.000000 0.000000 0.000000 0.091685
#
#
# Mechanical properties :
#
#
# Convention : Reuss Voigt Hill
#
# Bulk Modulus (GPa) = 32.91072 56.52073 44.71573
# Shear Modulus (GPa) = 21.45297 30.56906 26.01101
#
# Velocity S-wave (km/s) = 3.00802 3.59069 3.31219
# Velocity P-wave (km/s) = 5.09361 6.40541 5.78681
#
# Compressibility (1/GPa) = 0.03038523
#
# Stress axis : x y z
#
# Youngs Moduli (GPa) = 91.51779 41.58886 84.03509
#
# Poissons Ratio (x) = -0.13699 0.57292
# Poissons Ratio (y) = -0.30144 0.39659
# Poissons Ratio (z) = 0.62393 0.19627
#
# Static dielectric constant tensor:
#      x y z
#    x 4.402880 0.000000 0.000000 
#    y 0.000000 3.679250 0.000000 
#    z 0.000000 0.000000 4.419110 
# 
# 
# High freq. dielectric constant tensor:
#      x y z
#    x 1.936790 0.000000 0.000000 
#    y 0.000000 1.899880 0.000000 
#    z 0.000000 0.000000 1.945620 
# 
# From -- ./inp_files/9464.got.cif
#   From: 2010.03.12/outbox.cif.g09.slc.cpg/sg39_5_cif.got.tgz:9464.got - 2010.04.14 02:53:20.
