data_PCOD8181031
_publ_section_title
;
Structure prediction by ZEFSAII (Michael W. Deem and Ramdas Pophale) SiO2 
 PCOD8181031
Probable space group: A B M 2
;
_chemical_formula_sum "Si O2"
_cell_formula_units_Z 64
_cell_length_a 14.269881
_cell_length_b 8.797597
_cell_length_c 31.050737
_cell_angle_alpha 90.000000
_cell_angle_beta 90.000000
_cell_angle_gamma 90.000000
_cell_volume 3898.130087
_symmetry_space_group_name_H-M "A B M 2"
_symmetry_group_IT_number 39
_symmetry_cell_setting 'orthorhombic'
loop_
_space_group_symop_operation_xyz
x,y,z
-x,-y,z
-x,1/2+y,z
x,1/2-y,z
x,1/2+y,1/2+z
-x,1/2-y,1/2+z
-x,y,1/2+z
x,-y,1/2+z
loop_
_atom_site_type_symbol
_atom_site_label
_atom_site_fract_x
_atom_site_fract_y
_atom_site_fract_z
Si Si1 0.601654 0.571497 0.179330
Si Si2 0.708031 0.430043 0.501790
Si Si3 0.904800 0.572247 0.968517
Si Si4 0.401147 0.572439 0.924160
Si Si5 0.717704 0.571926 0.340405
Si Si6 0.602972 0.570175 0.764027
Si Si7 0.096720 0.570096 0.369078
Si Si8 0.399087 0.427192 0.084985
O O1 0.500000 0.500000 0.177215
O O2 0.596445 0.750000 0.188758
O O3 0.652835 0.489789 0.219673
O O4 0.646251 0.536820 0.132197
O O5 0.703834 0.250000 0.495367
O O6 0.814542 0.488406 0.494857
O O7 0.637655 0.502878 0.467925
O O8 0.675087 0.482679 0.549208
O O9 0.916287 0.750000 0.973735
O O10 0.889852 0.525501 0.918980
O O11 0.000000 0.500000 0.987350
O O12 0.500000 0.500000 0.911950
O O13 0.415234 0.750000 0.930836
O O14 0.330237 0.534709 0.885792
O O15 0.716207 0.750000 0.329818
O O16 0.665147 0.480484 0.303660
O O17 0.822954 0.510156 0.341498
O O18 0.500000 0.500000 0.769123
O O19 0.594736 0.750000 0.763008
O O20 0.098834 0.750000 0.361856
O O21 0.000000 0.500000 0.351816
O O22 0.500000 0.500000 0.077329
O O23 0.417427 0.250000 0.080312
#
# Coordination Sequence:
#
# PCOD8181031 Si02
#       8
#     8   8   8   8   8   8   8   8
#     4   9  16  29  47  68  93 123 158 199 242 286
#     4  10  19  33  49  69  96 128 163 199 240 285
#     4   9  18  31  49  69  93 124 159 202 244 283
#     4  11  23  34  46  65  94 131 166 197 232 278
#     4  11  22  35  50  71  97 129 166 203 242 291
#     4  11  21  33  50  72  98 129 163 202 245 293
#     4  10  19  33  52  73  96 127 162 205 249 289
#     4   9  18  30  47  69  96 127 161 197 237 285
#
# _framework density 16.418129
#
# number of rings (size 3 to 8) (size 9 to 14) (size 15 to 20)
#    0.000    2.000    1.250    4.125    0.000    5.500 
#    0.000    0.000    0.000    0.000    0.000    0.875 
#    0.000    4.000    0.000    0.000    0.000    0.000 
#
# Total GULP energy -396728.309976 kJ/mol
# GULP energy per Si atom -12397.759687 kJ/mol
# Density = 1.638076 g / cm^3
# Si number density = 16.418129 Si / 1000 Ang^3
#
#
#
# Elastic Constant Matrix: (Units=GPa)
#
#
# Indices 1 2 3 4 5 6 
#
# 1 97.9932 37.4600 39.6176 0.0000 0.0000 0.0000
# 2 37.4600 75.7795 45.8174 0.0000 0.0000 0.0000
# 3 39.6176 45.8174 102.5375 0.0000 0.0000 0.0000
# 4 0.0000 0.0000 0.0000 22.6884 0.0000 0.0000
# 5 0.0000 0.0000 0.0000 0.0000 2.8482 0.0000
# 6 0.0000 0.0000 0.0000 0.0000 0.0000 27.0388
#
#
#
# Elastic Compliance Matrix: (Units=1/GPa)
#
#
# Indices 1 2 3 4 5 6 
#
# 1 0.013223 -0.004724 -0.002998 0.000000 0.000000 0.000000
# 2 -0.004724 0.019768 -0.007008 0.000000 0.000000 0.000000
# 3 -0.002998 -0.007008 0.014042 0.000000 0.000000 0.000000
# 4 0.000000 0.000000 0.000000 0.044075 0.000000 0.000000
# 5 0.000000 0.000000 0.000000 0.000000 0.351094 0.000000
# 6 0.000000 0.000000 0.000000 0.000000 0.000000 0.036984
#
#
# Mechanical properties :
#
#
# Convention : Reuss Voigt Hill
#
# Bulk Modulus (GPa) = 56.90349 58.01113 57.45731
# Shear Modulus (GPa) = 9.71809 20.74278 15.23043
#
# Velocity S-wave (km/s) = 2.43556 3.55830 3.04905
# Velocity P-wave (km/s) = 6.53020 7.23134 6.88969
#
# Compressibility (1/GPa) = 0.01757361
#
# Stress axis : x y z
#
# Youngs Moduli (GPa) = 75.62806 50.58566 71.21260
#
# Poissons Ratio (x) = 0.23894 0.21351
# Poissons Ratio (y) = 0.35723 0.49907
# Poissons Ratio (z) = 0.22675 0.35451
#
# Static dielectric constant tensor:
#      x y z
#    x 3.097830 0.000000 0.000000 
#    y 0.000000 3.180920 0.000000 
#    z 0.000000 0.000000 3.610150 
# 
# 
# High freq. dielectric constant tensor:
#      x y z
#    x 1.610690 0.000000 0.000000 
#    y 0.000000 1.643730 0.000000 
#    z 0.000000 0.000000 1.625760 
# 
# From -- ./inp_files/17986.got.cif
#   From: 2010.03.12/outbox.cif.g09.slc.cpg/sg39_9_cif.got.tgz:17986.got - 2010.04.14 02:53:20.
