data_PCOD8181802
_publ_section_title
;
Structure prediction by ZEFSAII (Michael W. Deem and Ramdas Pophale) SiO2 
 PCOD8181802
Probable space group: A B M 2
;
_chemical_formula_sum "Si O2"
_cell_formula_units_Z 64
_cell_length_a 9.689654
_cell_length_b 18.635660
_cell_length_c 19.265033
_cell_angle_alpha 90.000000
_cell_angle_beta 90.000000
_cell_angle_gamma 90.000000
_cell_volume 3478.746682
_symmetry_space_group_name_H-M "A B M 2"
_symmetry_group_IT_number 39
_symmetry_cell_setting 'orthorhombic'
loop_
_space_group_symop_operation_xyz
x,y,z
-x,-y,z
-x,1/2+y,z
x,1/2-y,z
x,1/2+y,1/2+z
-x,1/2-y,1/2+z
-x,y,1/2+z
x,-y,1/2+z
loop_
_atom_site_type_symbol
_atom_site_label
_atom_site_fract_x
_atom_site_fract_y
_atom_site_fract_z
Si Si1 0.319327 0.433824 0.043030
Si Si2 0.318690 0.561868 0.388568
Si Si3 0.389928 0.102980 0.389758
Si Si4 0.165748 0.168887 0.293673
Si Si5 0.164628 0.831584 0.152507
Si Si6 0.634605 0.597396 0.545373
Si Si7 0.854333 0.171109 0.631256
Si Si8 0.921576 0.926467 0.779287
O O1 0.299260 0.518699 0.052998
O O2 0.472819 0.408115 0.062928
O O3 0.215196 0.393818 0.092591
O O4 0.275027 0.412572 0.965183
O O5 0.448872 0.612801 0.367971
O O6 0.366563 0.480882 0.392821
O O7 0.194003 0.562793 0.336126
O O8 0.303111 0.143068 0.331650
O O9 0.352810 0.130787 0.467530
O O10 0.136148 0.250000 0.315056
O O11 0.181760 0.159554 0.211660
O O12 0.033778 0.123439 0.317211
O O13 0.191423 0.750000 0.180064
O O14 0.286788 0.851260 0.099330
O O15 0.156072 0.888468 0.215276
O O16 0.016817 0.833655 0.114831
O O17 0.800068 0.250000 0.607936
O O18 0.000000 0.000000 0.756619
#
# Coordination Sequence:
#
# PCOD8181802 Si02
#       8
#     8   8   8   8   8   8   8   8
#     4   9  19  37  56  83 112 142 188 234 282 337
#     4   9  19  36  57  83 113 140 188 244 282 329
#     4   9  18  37  57  81 112 147 186 237 287 336
#     4  10  21  37  56  81 117 151 185 233 285 344
#     4  10  23  39  54  81 117 150 187 235 283 338
#     4   9  20  35  58  81 111 148 184 235 283 334
#     4   9  20  37  54  76 111 148 182 229 281 331
#     4  11  21  36  59  86 112 151 193 237 286 343
#
# _framework density 18.39743
#
# number of rings (size 3 to 8) (size 9 to 14) (size 15 to 20)
#    0.000    2.500    1.250    2.625    3.500    3.000 
#    0.000    9.375    0.000    0.000    0.000    0.000 
#    0.000    0.000    0.000    0.000    0.000    0.000 
#
# Total GULP energy -396576.978271 kJ/mol
# GULP energy per Si atom -12393.030571 kJ/mol
# Density = 1.835556 g / cm^3
# Si number density = 18.397430 Si / 1000 Ang^3
#
#
#
# Elastic Constant Matrix: (Units=GPa)
#
#
# Indices 1 2 3 4 5 6 
#
# 1 67.0364 25.1904 45.1937 0.0000 0.0000 0.0000
# 2 25.1904 57.7277 28.5588 0.0000 0.0000 0.0000
# 3 45.1937 28.5588 67.1358 0.0000 0.0000 0.0000
# 4 0.0000 0.0000 0.0000 13.7920 0.0000 0.0000
# 5 0.0000 0.0000 0.0000 0.0000 28.6878 0.0000
# 6 0.0000 0.0000 0.0000 0.0000 0.0000 23.7473
#
#
#
# Elastic Compliance Matrix: (Units=1/GPa)
#
#
# Indices 1 2 3 4 5 6 
#
# 1 0.027908 -0.003653 -0.017233 0.000000 0.000000 0.000000
# 2 -0.003653 0.022418 -0.007077 0.000000 0.000000 0.000000
# 3 -0.017233 -0.007077 0.029506 0.000000 0.000000 0.000000
# 4 0.000000 0.000000 0.000000 0.072506 0.000000 0.000000
# 5 0.000000 0.000000 0.000000 0.000000 0.034858 0.000000
# 6 0.000000 0.000000 0.000000 0.000000 0.000000 0.042110
#
#
# Mechanical properties :
#
#
# Convention : Reuss Voigt Hill
#
# Bulk Modulus (GPa) = 41.83013 43.30953 42.56983
# Shear Modulus (GPa) = 17.05322 19.44255 18.24788
#
# Velocity S-wave (km/s) = 3.04786 3.25439 3.15282
# Velocity P-wave (km/s) = 5.93062 6.14114 6.03680
#
# Compressibility (1/GPa) = 0.02390621
#
# Stress axis : x y z
#
# Youngs Moduli (GPa) = 35.83266 44.60714 33.89106
#
# Poissons Ratio (x) = 0.16293 0.58403
# Poissons Ratio (y) = 0.13088 0.23986
# Poissons Ratio (z) = 0.61749 0.31571
#
# Static dielectric constant tensor:
#      x y z
#    x 3.449260 0.000000 0.000000 
#    y 0.000000 3.447010 0.000000 
#    z 0.000000 0.000000 3.379810 
# 
# 
# High freq. dielectric constant tensor:
#      x y z
#    x 1.715540 0.000000 0.000000 
#    y 0.000000 1.712320 0.000000 
#    z 0.000000 0.000000 1.704100 
# 
# From -- ./inp_files/11966.got.cif
#   From: 2010.03.12/outbox.cif.g09.slc.cpg/sg39_6_cif.got.tgz:11966.got - 2010.04.14 02:53:20.
