data_PCOD8181358
_publ_section_title
;
Structure prediction by ZEFSAII (Michael W. Deem and Ramdas Pophale) SiO2 
 PCOD8181358
Probable space group: A B M 2
;
_chemical_formula_sum "Si O2"
_cell_formula_units_Z 64
_cell_length_a 14.241704
_cell_length_b 8.578824
_cell_length_c 30.844425
_cell_angle_alpha 90.000000
_cell_angle_beta 90.000000
_cell_angle_gamma 90.000000
_cell_volume 3768.481536
_symmetry_space_group_name_H-M "A B M 2"
_symmetry_group_IT_number 39
_symmetry_cell_setting 'orthorhombic'
loop_
_space_group_symop_operation_xyz
x,y,z
-x,-y,z
-x,1/2+y,z
x,1/2-y,z
x,1/2+y,1/2+z
-x,1/2-y,1/2+z
-x,y,1/2+z
x,-y,1/2+z
loop_
_atom_site_type_symbol
_atom_site_label
_atom_site_fract_x
_atom_site_fract_y
_atom_site_fract_z
Si Si1 0.105055 0.433208 0.542540
Si Si2 0.599076 0.932328 0.654868
Si Si3 0.896043 0.431380 0.359996
Si Si4 0.898534 0.570093 0.955663
Si Si5 0.788285 0.933561 0.123067
Si Si6 0.214012 0.931642 0.782404
Si Si7 0.897948 0.567371 0.703829
Si Si8 0.400973 0.432983 0.755616
O O1 0.101759 0.250000 0.549221
O O2 0.149929 0.477076 0.495391
O O3 0.172736 0.507412 0.577712
O O4 0.000000 0.500000 0.546744
O O5 0.600028 0.750000 0.646331
O O6 0.615361 0.972309 0.705180
O O7 0.500000 0.000000 0.638649
O O8 0.681660 0.009641 0.627414
O O9 0.899786 0.250000 0.346673
O O10 0.850853 0.450205 0.408379
O O11 0.828478 0.527391 0.328821
O O12 0.000000 0.500000 0.356194
O O13 0.905292 0.750000 0.969319
O O14 0.000000 0.500000 0.949097
O O15 0.790332 0.750000 0.124372
O O16 0.853985 0.994979 0.161095
O O17 0.200665 0.750000 0.772252
O O18 0.165051 0.032667 0.745326
O O19 0.323173 0.977202 0.783477
O O20 0.904359 0.750000 0.696564
O O21 0.000000 0.500000 0.712668
O O22 0.500000 0.500000 0.771409
O O23 0.395960 0.250000 0.764731
#
# Coordination Sequence:
#
# PCOD8181358 Si02
#       8
#     8   8   8   8   8   8   8   8
#     4  11  21  34  52  75 105 138 174 214 257 306
#     4  10  20  35  55  77 102 133 169 214 260 305
#     4  10  20  34  52  75 105 138 174 215 258 305
#     4   9  17  31  51  74 100 132 170 213 259 303
#     4  12  23  36  53  75 103 136 174 213 255 305
#     4  12  23  35  52  75 103 137 175 212 255 305
#     4  12  24  38  51  69 100 138 176 212 252 301
#     4  10  20  35  55  76 102 132 169 215 260 306
#
# _framework density 16.982968
#
# number of rings (size 3 to 8) (size 9 to 14) (size 15 to 20)
#    0.000    1.250    1.250    7.500    0.000    2.500 
#    0.000    0.000    0.000    0.000    0.000    0.875 
#    0.000    6.000    0.000    0.000    0.000    0.000 
#
# Total GULP energy -396847.955526 kJ/mol
# GULP energy per Si atom -12401.498610 kJ/mol
# Density = 1.694431 g / cm^3
# Si number density = 16.982968 Si / 1000 Ang^3
#
#
#
# Elastic Constant Matrix: (Units=GPa)
#
#
# Indices 1 2 3 4 5 6 
#
# 1 102.5137 41.7146 43.2439 0.0000 0.0000 0.0000
# 2 41.7146 113.5195 26.6179 0.0000 0.0000 0.0000
# 3 43.2439 26.6179 88.8301 0.0000 0.0000 0.0000
# 4 0.0000 0.0000 0.0000 17.5738 0.0000 0.0000
# 5 0.0000 0.0000 0.0000 0.0000 -1.7256 0.0000
# 6 0.0000 0.0000 0.0000 0.0000 0.0000 30.8747
#
#
#
# Elastic Compliance Matrix: (Units=1/GPa)
#
#
# Indices 1 2 3 4 5 6 
#
# 1 0.013582 -0.003701 -0.005503 0.000000 0.000000 0.000000
# 2 -0.003701 0.010483 -0.001340 0.000000 0.000000 0.000000
# 3 -0.005503 -0.001340 0.014338 0.000000 0.000000 0.000000
# 4 0.000000 0.000000 0.000000 0.056903 0.000000 0.000000
# 5 0.000000 0.000000 0.000000 0.000000 -0.579512 0.000000
# 6 0.000000 0.000000 0.000000 0.000000 0.000000 0.032389
#
#
# Mechanical properties :
#
#
# Convention : Reuss Voigt Hill
#
# Bulk Modulus (GPa) = 57.74951 58.66847 58.20899
# Shear Modulus (GPa) = -11.76586 22.23037 5.23226
#
# Velocity S-wave (km/s) = -2.63497 3.62191 1.75715
# Velocity P-wave (km/s) = 4.98204 7.21882 6.20210
#
# Compressibility (1/GPa) = 0.01731616
#
# Stress axis : x y z
#
# Youngs Moduli (GPa) = 73.62682 95.39219 69.74539
#
# Poissons Ratio (x) = 0.35301 0.38381
# Poissons Ratio (y) = 0.27246 0.09344
# Poissons Ratio (z) = 0.40517 0.12780
#
# Static dielectric constant tensor:
#      x y z
#    x 3.128730 0.000000 0.000000 
#    y 0.000000 3.414720 0.000000 
#    z 0.000000 0.000000 3.473190 
# 
# 
# High freq. dielectric constant tensor:
#      x y z
#    x 1.634730 0.000000 0.000000 
#    y 0.000000 1.680860 0.000000 
#    z 0.000000 0.000000 1.646820 
# 
# From -- ./inp_files/17872.got.cif
#   From: 2010.03.12/outbox.cif.g09.slc.cpg/sg39_9_cif.got.tgz:17872.got - 2010.04.14 02:53:20.
