data_PCOD8181729
_publ_section_title
;
Structure prediction by ZEFSAII (Michael W. Deem and Ramdas Pophale) SiO2 
 PCOD8181729
Probable space group: A B M 2
;
_chemical_formula_sum "Si O2"
_cell_formula_units_Z 40
_cell_length_a 8.300204
_cell_length_b 26.115189
_cell_length_c 8.793918
_cell_angle_alpha 90.000000
_cell_angle_beta 90.000000
_cell_angle_gamma 90.000000
_cell_volume 1906.181944
_symmetry_space_group_name_H-M "A B M 2"
_symmetry_group_IT_number 39
_symmetry_cell_setting 'orthorhombic'
loop_
_space_group_symop_operation_xyz
x,y,z
-x,-y,z
-x,1/2+y,z
x,1/2-y,z
x,1/2+y,1/2+z
-x,1/2-y,1/2+z
-x,y,1/2+z
x,-y,1/2+z
loop_
_atom_site_type_symbol
_atom_site_label
_atom_site_fract_x
_atom_site_fract_y
_atom_site_fract_z
Si Si1 0.703151 0.807515 0.657870
Si Si2 0.413075 0.553371 0.423530
Si Si3 0.873946 0.397674 0.298458
Si Si4 0.594375 0.846922 0.345995
Si Si5 0.819370 0.598730 0.132638
O O1 0.764143 0.750000 0.688249
O O2 0.845431 0.847038 0.697863
O O3 0.656493 0.811710 0.481650
O O4 0.552485 0.818626 0.766483
O O5 0.500000 0.500000 0.401705
O O6 0.278451 0.562771 0.290030
O O7 0.544695 0.598234 0.417127
O O8 0.319238 0.556619 0.587776
O O9 0.895378 0.380359 0.474448
O O10 0.036047 0.424962 0.234951
O O11 0.737151 0.854820 0.224059
#
# Coordination Sequence:
#
# PCOD8181729 Si02
#       5
#     8   8   8   8   8
#     4  11  21  38  62  95 133 176 226 273 333 400
#     4   9  21  39  67  98 124 178 221 268 332 405
#     4   9  21  40  64  96 131 172 214 285 330 390
#     4  11  20  39  63  94 133 172 221 281 325 390
#     4  10  20  40  68  90 136 171 212 280 337 386
#
# _framework density 20.984355999999998
#
# number of rings (size 3 to 8) (size 9 to 14) (size 15 to 20)
#    1.200    0.800    2.000    1.800    0.000    0.800 
#    0.000    7.000    4.400    3.600    0.000    0.000 
#    0.000    0.000    0.000    0.000    0.000    0.000 
#
# Total GULP energy -247828.926596 kJ/mol
# GULP energy per Si atom -12391.446330 kJ/mol
# Density = 2.093659 g / cm^3
# Si number density = 20.984356 Si / 1000 Ang^3
#
#
#
# Elastic Constant Matrix: (Units=GPa)
#
#
# Indices 1 2 3 4 5 6 
#
# 1 88.8359 37.1285 35.1526 0.0000 0.0000 0.0000
# 2 37.1285 119.7219 28.3609 0.0000 0.0000 0.0000
# 3 35.1526 28.3609 109.5989 0.0000 0.0000 0.0000
# 4 0.0000 0.0000 0.0000 22.6955 0.0000 0.0000
# 5 0.0000 0.0000 0.0000 0.0000 52.6759 0.0000
# 6 0.0000 0.0000 0.0000 0.0000 0.0000 14.3135
#
#
#
# Elastic Compliance Matrix: (Units=1/GPa)
#
#
# Indices 1 2 3 4 5 6 
#
# 1 0.014171 -0.003535 -0.003630 0.000000 0.000000 0.000000
# 2 -0.003535 0.009780 -0.001397 0.000000 0.000000 0.000000
# 3 -0.003630 -0.001397 0.010650 0.000000 0.000000 0.000000
# 4 0.000000 0.000000 0.000000 0.044062 0.000000 0.000000
# 5 0.000000 0.000000 0.000000 0.000000 0.018984 0.000000
# 6 0.000000 0.000000 0.000000 0.000000 0.000000 0.069864
#
#
# Mechanical properties :
#
#
# Convention : Reuss Voigt Hill
#
# Bulk Modulus (GPa) = 57.22010 57.71563 57.46787
# Shear Modulus (GPa) = 26.25229 32.43796 29.34513
#
# Velocity S-wave (km/s) = 3.54084 3.93595 3.74361
# Velocity P-wave (km/s) = 6.63656 6.94402 6.79203
#
# Compressibility (1/GPa) = 0.01747638
#
# Stress axis : x y z
#
# Youngs Moduli (GPa) = 70.56895 102.25165 93.89583
#
# Poissons Ratio (x) = 0.36142 0.34088
# Poissons Ratio (y) = 0.24943 0.13118
# Poissons Ratio (z) = 0.25619 0.14285
#
# Static dielectric constant tensor:
#      x y z
#    x 3.824120 0.000000 0.000000 
#    y 0.000000 3.393380 0.000000 
#    z 0.000000 0.000000 3.870810 
# 
# 
# High freq. dielectric constant tensor:
#      x y z
#    x 1.822630 0.000000 0.000000 
#    y 0.000000 1.778020 0.000000 
#    z 0.000000 0.000000 1.832640 
# 
# From -- ./inp_files/2195.got.cif
#   From: 2010.03.12/outbox.cif.g09.slc.cpg/sg39_2_cif.got.tgz:2195.got - 2010.04.14 02:53:20.
