data_PCOD8181395
_publ_section_title
;
Structure prediction by ZEFSAII (Michael W. Deem and Ramdas Pophale) SiO2 
 PCOD8181395
Probable space group: A B M 2
;
_chemical_formula_sum "Si O2"
_cell_formula_units_Z 56
_cell_length_a 5.126909
_cell_length_b 16.667903
_cell_length_c 31.871909
_cell_angle_alpha 90.000000
_cell_angle_beta 90.000000
_cell_angle_gamma 90.000000
_cell_volume 2723.608307
_symmetry_space_group_name_H-M "A B M 2"
_symmetry_group_IT_number 39
_symmetry_cell_setting 'orthorhombic'
loop_
_space_group_symop_operation_xyz
x,y,z
-x,-y,z
-x,1/2+y,z
x,1/2-y,z
x,1/2+y,1/2+z
-x,1/2-y,1/2+z
-x,y,1/2+z
x,-y,1/2+z
loop_
_atom_site_type_symbol
_atom_site_label
_atom_site_fract_x
_atom_site_fract_y
_atom_site_fract_z
Si Si1 0.314482 0.654799 0.065530
Si Si2 0.394226 0.842760 0.353181
Si Si3 0.244477 0.947535 0.985101
Si Si4 0.186500 0.345363 0.115902
Si Si5 0.809718 0.345891 0.710333
Si Si6 0.903863 0.911259 0.393920
Si Si7 0.308932 0.654601 0.259101
O O1 0.316991 0.750000 0.060539
O O2 0.564507 0.622342 0.090623
O O3 0.067590 0.624000 0.091701
O O4 0.315983 0.618379 0.019360
O O5 0.477652 0.750000 0.352381
O O6 0.643172 0.892900 0.368138
O O7 0.318709 0.874798 0.307026
O O8 0.142138 0.852053 0.382937
O O9 0.159736 0.901371 0.942994
O O10 0.500000 0.000000 0.975220
O O11 0.000000 0.000000 0.001172
O O12 0.193267 0.250000 0.117783
O O13 0.184815 0.380088 0.163019
O O14 0.813868 0.250000 0.709496
O O15 0.554683 0.378983 0.733502
O O16 0.053708 0.380191 0.736354
O O17 0.000000 0.000000 0.382688
O O18 0.304542 0.750000 0.257773
#
# Coordination Sequence:
#
# PCOD8181395 Si02
#       7
#     8   8   8   8   8   8   8
#     4  10  20  34  54  83 113 139 177 230 280 322
#     4  11  22  37  59  89 119 146 188 243 291 332
#     4  11  23  41  60  80 108 145 189 228 271 338
#     4   9  17  29  48  78 113 144 177 221 271 324
#     4   9  15  26  45  72 110 148 176 213 271 326
#     4  11  23  41  60  82 113 153 194 233 282 348
#     4   9  17  28  46  76 111 143 178 224 273 322
#
# _framework density 20.560957999999999
#
# number of rings (size 3 to 8) (size 9 to 14) (size 15 to 20)
#    0.000    2.000    0.000    5.143    0.000    6.857 
#    0.000    1.429    0.000    0.000    0.000   35.000 
#    0.000    0.000    0.000    0.000    0.000    0.000 
#
# Total GULP energy -347259.569305 kJ/mol
# GULP energy per Si atom -12402.127475 kJ/mol
# Density = 2.051416 g / cm^3
# Si number density = 20.560958 Si / 1000 Ang^3
#
#
#
# Elastic Constant Matrix: (Units=GPa)
#
#
# Indices 1 2 3 4 5 6 
#
# 1 185.0710 22.4732 83.0613 0.0000 0.0000 0.0000
# 2 22.4732 26.4484 41.2901 0.0000 0.0000 0.0000
# 3 83.0613 41.2901 178.9907 0.0000 0.0000 0.0000
# 4 0.0000 0.0000 0.0000 6.9114 0.0000 0.0000
# 5 0.0000 0.0000 0.0000 0.0000 44.5859 0.0000
# 6 0.0000 0.0000 0.0000 0.0000 0.0000 21.9234
#
#
#
# Elastic Compliance Matrix: (Units=1/GPa)
#
#
# Indices 1 2 3 4 5 6 
#
# 1 0.006855 -0.001342 -0.002872 0.000000 0.000000 0.000000
# 2 -0.001342 0.059352 -0.013069 0.000000 0.000000 0.000000
# 3 -0.002872 -0.013069 0.009934 0.000000 0.000000 0.000000
# 4 0.000000 0.000000 0.000000 0.144688 0.000000 0.000000
# 5 0.000000 0.000000 0.000000 0.000000 0.022429 0.000000
# 6 0.000000 0.000000 0.000000 0.000000 0.000000 0.045613
#
#
# Mechanical properties :
#
#
# Convention : Reuss Voigt Hill
#
# Bulk Modulus (GPa) = 24.05173 76.01770 50.03471
# Shear Modulus (GPa) = 14.82380 30.92983 22.87682
#
# Velocity S-wave (km/s) = 2.68800 3.88274 3.33924
# Velocity P-wave (km/s) = 4.62136 7.55996 6.26538
#
# Compressibility (1/GPa) = 0.04157705
#
# Stress axis : x y z
#
# Youngs Moduli (GPa) = 145.87775 16.84855 100.66202
#
# Poissons Ratio (x) = 0.02261 0.28906
# Poissons Ratio (y) = 0.19573 1.31554
# Poissons Ratio (z) = 0.41890 0.22019
#
# Static dielectric constant tensor:
#      x y z
#    x 4.018930 0.000000 0.000000 
#    y 0.000000 3.209720 0.000000 
#    z 0.000000 0.000000 3.867130 
# 
# 
# High freq. dielectric constant tensor:
#      x y z
#    x 1.826890 0.000000 0.000000 
#    y 0.000000 1.754710 0.000000 
#    z 0.000000 0.000000 1.818770 
# 
# From -- ./inp_files/17268.got.cif
#   From: 2010.03.12/outbox.cif.g09.slc.cpg/sg39_9_cif.got.tgz:17268.got - 2010.04.14 02:53:20.
