data_PCOD8181988
_publ_section_title
;
Structure prediction by ZEFSAII (Michael W. Deem and Ramdas Pophale) SiO2 
 PCOD8181988
Probable space group: A B M 2
;
_chemical_formula_sum "Si O2"
_cell_formula_units_Z 48
_cell_length_a 9.123729
_cell_length_b 18.104805
_cell_length_c 14.382936
_cell_angle_alpha 90.000000
_cell_angle_beta 90.000000
_cell_angle_gamma 90.000000
_cell_volume 2375.821327
_symmetry_space_group_name_H-M "A B M 2"
_symmetry_group_IT_number 39
_symmetry_cell_setting 'orthorhombic'
loop_
_space_group_symop_operation_xyz
x,y,z
-x,-y,z
-x,1/2+y,z
x,1/2-y,z
x,1/2+y,1/2+z
-x,1/2-y,1/2+z
-x,y,1/2+z
x,-y,1/2+z
loop_
_atom_site_type_symbol
_atom_site_label
_atom_site_fract_x
_atom_site_fract_y
_atom_site_fract_z
Si Si1 0.310250 0.936209 0.574450
Si Si2 0.099828 0.071186 0.242701
Si Si3 0.366942 0.101277 0.569556
Si Si4 0.814168 0.167272 0.909373
Si Si5 0.854002 0.668512 0.938639
Si Si6 0.165586 0.335163 0.722132
O O1 0.226011 0.947863 0.670646
O O2 0.459679 0.889753 0.587637
O O3 0.214655 0.895063 0.499077
O O4 0.336990 0.018054 0.536717
O O5 0.187351 0.104762 0.330274
O O6 0.994187 0.132682 0.196711
O O7 0.000000 0.000000 0.270117
O O8 0.310681 0.153041 0.486172
O O9 0.290784 0.121672 0.666756
O O10 0.788001 0.250000 0.867874
O O11 0.972816 0.164636 0.957265
O O12 0.796158 0.750000 0.966937
O O13 0.810983 0.652954 0.831858
O O14 0.168451 0.250000 0.693015
#
# Coordination Sequence:
#
# PCOD8181988 Si02
#       6
#     8   8   8   8   8   8
#     4  11  25  39  58  94 125 166 213 253 314 384
#     4  11  22  40  66  96 122 165 213 269 317 373
#     4  11  24  40  59  88 132 167 206 258 313 383
#     4  10  23  41  64  95 124 162 212 265 319 377
#     4   9  21  39  63  90 120 155 208 264 311 372
#     4  10  21  41  65  91 123 164 209 263 317 374
#
# _framework density 20.203538000000002
#
# number of rings (size 3 to 8) (size 9 to 14) (size 15 to 20)
#    0.000    1.667    1.667    3.000    4.667    5.333 
#    0.000    5.000    0.000    0.000    0.000    0.000 
#    0.000    0.000    0.000    0.000    0.000    0.000 
#
# Total GULP energy -297580.153693 kJ/mol
# GULP energy per Si atom -12399.173071 kJ/mol
# Density = 2.015755 g / cm^3
# Si number density = 20.203538 Si / 1000 Ang^3
#
#
#
# Elastic Constant Matrix: (Units=GPa)
#
#
# Indices 1 2 3 4 5 6 
#
# 1 78.1835 33.7053 36.4941 0.0000 0.0000 0.0000
# 2 33.7053 106.5697 39.5473 0.0000 0.0000 0.0000
# 3 36.4941 39.5473 69.9015 0.0000 0.0000 0.0000
# 4 0.0000 0.0000 0.0000 37.0502 0.0000 0.0000
# 5 0.0000 0.0000 0.0000 0.0000 2.8086 0.0000
# 6 0.0000 0.0000 0.0000 0.0000 0.0000 27.5216
#
#
#
# Elastic Compliance Matrix: (Units=1/GPa)
#
#
# Indices 1 2 3 4 5 6 
#
# 1 0.017511 -0.002716 -0.007606 0.000000 0.000000 0.000000
# 2 -0.002716 0.012298 -0.005540 0.000000 0.000000 0.000000
# 3 -0.007606 -0.005540 0.021411 0.000000 0.000000 0.000000
# 4 0.000000 0.000000 0.000000 0.026990 0.000000 0.000000
# 5 0.000000 0.000000 0.000000 0.000000 0.356051 0.000000
# 6 0.000000 0.000000 0.000000 0.000000 0.000000 0.036335
#
#
# Mechanical properties :
#
#
# Convention : Reuss Voigt Hill
#
# Bulk Modulus (GPa) = 51.28899 52.68313 51.98606
# Shear Modulus (GPa) = 9.82666 23.13662 16.48164
#
# Velocity S-wave (km/s) = 2.20780 3.38772 2.85928
# Velocity P-wave (km/s) = 5.65159 6.43700 6.05704
#
# Compressibility (1/GPa) = 0.01949736
#
# Stress axis : x y z
#
# Youngs Moduli (GPa) = 57.10544 81.31169 46.70515
#
# Poissons Ratio (x) = 0.22084 0.35523
# Poissons Ratio (y) = 0.15510 0.25874
# Poissons Ratio (z) = 0.43433 0.45046
#
# Static dielectric constant tensor:
#      x y z
#    x 3.670660 0.000000 0.000000 
#    y 0.000000 3.882580 0.000000 
#    z 0.000000 0.000000 3.495870 
# 
# 
# High freq. dielectric constant tensor:
#      x y z
#    x 1.778000 0.000000 0.000000 
#    y 0.000000 1.807090 0.000000 
#    z 0.000000 0.000000 1.780740 
# 
# From -- ./inp_files/8341.got.cif
#   From: 2010.03.12/outbox.cif.g09.slc.cpg/sg39_5_cif.got.tgz:8341.got - 2010.04.14 02:53:20.
