data_PCOD8181405
_publ_section_title
;
Structure prediction by ZEFSAII (Michael W. Deem and Ramdas Pophale) SiO2 
 PCOD8181405
Probable space group: A B M 2
;
_chemical_formula_sum "Si O2"
_cell_formula_units_Z 64
_cell_length_a 9.336052
_cell_length_b 19.131572
_cell_length_c 18.782776
_cell_angle_alpha 90.000000
_cell_angle_beta 90.000000
_cell_angle_gamma 90.000000
_cell_volume 3354.854563
_symmetry_space_group_name_H-M "A B M 2"
_symmetry_group_IT_number 39
_symmetry_cell_setting 'orthorhombic'
loop_
_space_group_symop_operation_xyz
x,y,z
-x,-y,z
-x,1/2+y,z
x,1/2-y,z
x,1/2+y,1/2+z
-x,1/2-y,1/2+z
-x,y,1/2+z
x,-y,1/2+z
loop_
_atom_site_type_symbol
_atom_site_label
_atom_site_fract_x
_atom_site_fract_y
_atom_site_fract_z
Si Si1 0.034274 0.078080 0.376730
Si Si2 0.786986 0.172044 0.415245
Si Si3 0.865665 0.829089 0.076574
Si Si4 0.477923 0.671543 0.943448
Si Si5 0.599449 0.168285 0.670226
Si Si6 0.578735 0.926189 0.574775
Si Si7 0.094356 0.432351 0.540315
Si Si8 0.733371 0.170896 0.816808
O O1 0.103687 0.081604 0.455527
O O2 0.137447 0.115358 0.319548
O O3 0.883132 0.117648 0.373006
O O4 0.000000 0.000000 0.351523
O O5 0.837163 0.250000 0.394276
O O6 0.798365 0.160043 0.499339
O O7 0.620998 0.158853 0.396565
O O8 0.907084 0.750000 0.093455
O O9 0.745985 0.855600 0.131537
O O10 0.014986 0.870203 0.082144
O O11 0.483931 0.750000 0.977071
O O12 0.344652 0.664612 0.891845
O O13 0.467698 0.614616 0.004463
O O14 0.565373 0.250000 0.655671
O O15 0.467570 0.120794 0.642730
O O16 0.623265 0.152777 0.753616
O O17 0.748820 0.939543 0.574358
O O18 0.500000 0.000000 0.577022
O O19 0.000000 0.500000 0.555225
O O20 0.793017 0.250000 0.806253
#
# Coordination Sequence:
#
# PCOD8181405 Si02
#       8
#     8   8   8   8   8   8   8   8
#     4  10  20  34  55  85 117 154 193 243 296 355
#     4   9  17  31  54  82 112 143 188 243 294 346
#     4   9  17  32  55  81 108 145 185 236 288 343
#     4  10  20  35  58  87 113 147 197 249 297 348
#     4  10  21  40  62  85 121 161 200 242 299 364
#     4  12  23  36  60  87 117 157 195 249 309 359
#     4  10  21  35  54  84 119 147 190 246 297 354
#     4  10  21  39  60  85 119 158 198 244 296 353
#
# _framework density 19.076832
#
# number of rings (size 3 to 8) (size 9 to 14) (size 15 to 20)
#    0.000    2.000    2.500    1.500    3.500    1.500 
#    0.000    5.000    0.000    4.500    0.000    0.000 
#    0.000    0.000    0.000    0.000    0.000    0.000 
#
# Total GULP energy -396769.783675 kJ/mol
# GULP energy per Si atom -12399.055740 kJ/mol
# Density = 1.903341 g / cm^3
# Si number density = 19.076832 Si / 1000 Ang^3
#
#
#
# Elastic Constant Matrix: (Units=GPa)
#
#
# Indices 1 2 3 4 5 6 
#
# 1 117.4101 62.1744 16.8338 0.0000 0.0000 0.0000
# 2 62.1744 120.9169 35.4138 0.0000 0.0000 0.0000
# 3 16.8338 35.4138 48.0490 0.0000 0.0000 0.0000
# 4 0.0000 0.0000 0.0000 17.4070 0.0000 0.0000
# 5 0.0000 0.0000 0.0000 0.0000 23.1926 0.0000
# 6 0.0000 0.0000 0.0000 0.0000 0.0000 34.7248
#
#
#
# Elastic Compliance Matrix: (Units=1/GPa)
#
#
# Indices 1 2 3 4 5 6 
#
# 1 0.011711 -0.006147 0.000428 0.000000 0.000000 0.000000
# 2 -0.006147 0.013773 -0.007998 0.000000 0.000000 0.000000
# 3 0.000428 -0.007998 0.026557 0.000000 0.000000 0.000000
# 4 0.000000 0.000000 0.000000 0.057448 0.000000 0.000000
# 5 0.000000 0.000000 0.000000 0.000000 0.043117 0.000000
# 6 0.000000 0.000000 0.000000 0.000000 0.000000 0.028798
#
#
# Mechanical properties :
#
#
# Convention : Reuss Voigt Hill
#
# Bulk Modulus (GPa) = 40.63906 57.24667 48.94286
# Shear Modulus (GPa) = 23.03717 26.52848 24.78282
#
# Velocity S-wave (km/s) = 3.47882 3.73314 3.60822
# Velocity P-wave (km/s) = 6.12253 6.97534 6.56280
#
# Compressibility (1/GPa) = 0.02460687
#
# Stress axis : x y z
#
# Youngs Moduli (GPa) = 85.39030 72.60486 37.65499
#
# Poissons Ratio (x) = 0.44629 -0.01610
# Poissons Ratio (y) = 0.52488 0.30116
# Poissons Ratio (z) = -0.03651 0.58068
#
# Static dielectric constant tensor:
#      x y z
#    x 3.580630 0.000000 0.000000 
#    y 0.000000 3.637720 0.000000 
#    z 0.000000 0.000000 3.204470 
# 
# 
# High freq. dielectric constant tensor:
#      x y z
#    x 1.743910 0.000000 0.000000 
#    y 0.000000 1.748810 0.000000 
#    z 0.000000 0.000000 1.706130 
# 
# From -- ./inp_files/11948.got.cif
#   From: 2010.03.12/outbox.cif.g09.slc.cpg/sg39_6_cif.got.tgz:11948.got - 2010.04.14 02:53:20.
