data_PCOD8181100
_publ_section_title
;
Structure prediction by ZEFSAII (Michael W. Deem and Ramdas Pophale) SiO2 
 PCOD8181100
Probable space group: A B M 2
;
_chemical_formula_sum "Si O2"
_cell_formula_units_Z 64
_cell_length_a 23.811809
_cell_length_b 8.994339
_cell_length_c 15.296237
_cell_angle_alpha 90.000000
_cell_angle_beta 90.000000
_cell_angle_gamma 90.000000
_cell_volume 3276.017753
_symmetry_space_group_name_H-M "A B M 2"
_symmetry_group_IT_number 39
_symmetry_cell_setting 'orthorhombic'
loop_
_space_group_symop_operation_xyz
x,y,z
-x,-y,z
-x,1/2+y,z
x,1/2-y,z
x,1/2+y,1/2+z
-x,1/2-y,1/2+z
-x,y,1/2+z
x,-y,1/2+z
loop_
_atom_site_type_symbol
_atom_site_label
_atom_site_fract_x
_atom_site_fract_y
_atom_site_fract_z
Si Si1 0.743730 0.074466 0.660740
Si Si2 0.323798 0.079237 0.809141
Si Si3 0.138468 0.921792 0.150660
Si Si4 0.555413 0.422728 0.252780
Si Si5 0.555601 0.576531 0.550367
Si Si6 0.058667 0.574397 0.989726
Si Si7 0.665731 0.920864 0.003955
Si Si8 0.058864 0.573897 0.310973
O O1 0.743863 0.250000 0.664403
O O2 0.707231 0.016855 0.578413
O O3 0.718505 0.014932 0.750915
O O4 0.806558 0.020402 0.648296
O O5 0.320797 0.250000 0.777466
O O6 0.387974 0.021138 0.800140
O O7 0.304386 0.062506 0.909651
O O8 0.156009 0.750000 0.152587
O O9 0.103246 0.964071 0.236207
O O10 0.102967 0.960318 0.064973
O O11 0.500000 0.500000 0.292952
O O12 0.546276 0.250000 0.267399
O O13 0.562429 0.465793 0.151681
O O14 0.500000 0.500000 0.511401
O O15 0.550437 0.750000 0.534389
O O16 0.609302 0.515753 0.499870
O O17 0.049805 0.750000 0.976016
O O18 0.081233 0.499246 0.900689
O O19 0.000000 0.500000 0.017166
O O20 0.649691 0.750000 0.022488
O O21 0.050577 0.750000 0.322851
O O22 0.000000 0.500000 0.284130
#
# Coordination Sequence:
#
# PCOD8181100 Si02
#       8
#     8   8   8   8   8   8   8   8
#     4  11  24  40  59  84 112 146 192 243 287 330
#     4  10  21  40  61  81 111 150 188 229 285 344
#     4  10  23  40  59  82 114 156 195 233 282 337
#     4   9  18  32  54  81 108 143 179 220 275 334
#     4  10  19  33  56  84 113 147 183 225 281 340
#     4  10  20  36  59  89 122 156 191 232 281 333
#     4  10  22  39  59  83 112 146 186 234 286 341
#     4  10  20  36  59  88 120 154 189 230 281 333
#
# _framework density 19.535913000000001
#
# number of rings (size 3 to 8) (size 9 to 14) (size 15 to 20)
#    0.000    2.000    1.250    2.625    0.000    5.500 
#    0.000    5.000    0.000    0.000    0.000    0.000 
#    0.000    0.000    0.000    0.000    0.000    0.000 
#
# Total GULP energy -396890.143984 kJ/mol
# GULP energy per Si atom -12402.816999 kJ/mol
# Density = 1.949145 g / cm^3
# Si number density = 19.535913 Si / 1000 Ang^3
#
#
#
# Elastic Constant Matrix: (Units=GPa)
#
#
# Indices 1 2 3 4 5 6 
#
# 1 127.7601 58.0604 67.2109 0.0000 0.0000 0.0000
# 2 58.0604 86.9896 51.6287 0.0000 0.0000 0.0000
# 3 67.2109 51.6287 110.8442 0.0000 0.0000 0.0000
# 4 0.0000 0.0000 0.0000 24.8981 0.0000 0.0000
# 5 0.0000 0.0000 0.0000 0.0000 21.1943 0.0000
# 6 0.0000 0.0000 0.0000 0.0000 0.0000 38.8611
#
#
#
# Elastic Compliance Matrix: (Units=1/GPa)
#
#
# Indices 1 2 3 4 5 6 
#
# 1 0.013222 -0.005620 -0.005399 0.000000 0.000000 0.000000
# 2 -0.005620 0.018277 -0.005105 0.000000 0.000000 0.000000
# 3 -0.005399 -0.005105 0.014673 0.000000 0.000000 0.000000
# 4 0.000000 0.000000 0.000000 0.040164 0.000000 0.000000
# 5 0.000000 0.000000 0.000000 0.000000 0.047183 0.000000
# 6 0.000000 0.000000 0.000000 0.000000 0.000000 0.025733
#
#
# Mechanical properties :
#
#
# Convention : Reuss Voigt Hill
#
# Bulk Modulus (GPa) = 71.82512 75.48819 73.65666
# Shear Modulus (GPa) = 25.49197 26.90363 26.19780
#
# Velocity S-wave (km/s) = 3.61623 3.71501 3.66595
# Velocity P-wave (km/s) = 7.36761 7.55819 7.46351
#
# Compressibility (1/GPa) = 0.01392270
#
# Stress axis : x y z
#
# Youngs Moduli (GPa) = 75.63360 54.71478 68.15086
#
# Poissons Ratio (x) = 0.30751 0.36796
# Poissons Ratio (y) = 0.42507 0.34791
# Poissons Ratio (z) = 0.40836 0.27932
#
# Static dielectric constant tensor:
#      x y z
#    x 3.507410 0.000000 0.000000 
#    y 0.000000 3.528090 0.000000 
#    z 0.000000 0.000000 3.636950 
# 
# 
# High freq. dielectric constant tensor:
#      x y z
#    x 1.756600 0.000000 0.000000 
#    y 0.000000 1.761960 0.000000 
#    z 0.000000 0.000000 1.767160 
# 
# From -- ./inp_files/10612.got.cif
#   From: 2010.03.12/outbox.cif.g09.slc.cpg/sg39_6_cif.got.tgz:10612.got - 2010.04.14 02:53:20.
