data_PCOD8181969
_publ_section_title
;
Structure prediction by ZEFSAII (Michael W. Deem and Ramdas Pophale) SiO2 
 PCOD8181969
Probable space group: A B M 2
;
_chemical_formula_sum "Si O2"
_cell_formula_units_Z 48
_cell_length_a 8.812117
_cell_length_b 17.124586
_cell_length_c 15.181797
_cell_angle_alpha 90.000000
_cell_angle_beta 90.000000
_cell_angle_gamma 90.000000
_cell_volume 2290.991699
_symmetry_space_group_name_H-M "A B M 2"
_symmetry_group_IT_number 39
_symmetry_cell_setting 'orthorhombic'
loop_
_space_group_symop_operation_xyz
x,y,z
-x,-y,z
-x,1/2+y,z
x,1/2-y,z
x,1/2+y,1/2+z
-x,1/2-y,1/2+z
-x,y,1/2+z
x,-y,1/2+z
loop_
_atom_site_type_symbol
_atom_site_label
_atom_site_fract_x
_atom_site_fract_y
_atom_site_fract_z
Si Si1 0.320297 0.076976 0.542400
Si Si2 0.825453 0.160989 0.387425
Si Si3 0.334841 0.341550 0.714599
Si Si4 0.316034 0.659455 0.729947
Si Si5 0.111306 0.576448 0.870831
Si Si6 0.343988 0.401674 0.047921
O O1 0.256888 0.123982 0.626483
O O2 0.212944 0.073439 0.458028
O O3 0.482240 0.118124 0.519669
O O4 0.340533 0.990411 0.579432
O O5 0.777136 0.250000 0.403320
O O6 0.761240 0.126945 0.296372
O O7 0.760864 0.107586 0.463883
O O8 0.005877 0.151951 0.384422
O O9 0.321230 0.250000 0.705492
O O10 0.507991 0.366746 0.733804
O O11 0.291217 0.750000 0.759718
O O12 0.218638 0.597591 0.787542
O O13 0.275567 0.651620 0.626344
O O14 0.000000 0.500000 0.857807
#
# Coordination Sequence:
#
# PCOD8181969 Si02
#       6
#     8   8   8   8   8   8
#     4  10  22  40  64  95 123 162 213 263 319 369
#     4  11  23  41  62  91 129 170 206 254 317 385
#     4   9  21  41  67  94 123 162 215 267 316 371
#     4  10  22  42  66  94 123 165 217 268 316 369
#     4  12  25  41  59  94 132 171 207 258 318 391
#     4  10  21  40  67  93 123 161 212 268 313 372
#
# _framework density 20.951626000000001
#
# number of rings (size 3 to 8) (size 9 to 14) (size 15 to 20)
#    0.000    1.667    1.667    2.000    2.333    3.333 
#    0.000    1.667    0.000    0.000    0.000    0.000 
#    0.000    0.000    0.000    0.000    0.000    0.000 
#
# Total GULP energy -297439.196358 kJ/mol
# GULP energy per Si atom -12393.299848 kJ/mol
# Density = 2.090394 g / cm^3
# Si number density = 20.951626 Si / 1000 Ang^3
#
#
#
# Elastic Constant Matrix: (Units=GPa)
#
#
# Indices 1 2 3 4 5 6 
#
# 1 93.3589 33.8382 68.6150 0.0000 0.0000 0.0000
# 2 33.8382 62.4896 50.8502 0.0000 0.0000 0.0000
# 3 68.6150 50.8502 145.8421 0.0000 0.0000 0.0000
# 4 0.0000 0.0000 0.0000 35.7437 0.0000 0.0000
# 5 0.0000 0.0000 0.0000 0.0000 -11.2435 0.0000
# 6 0.0000 0.0000 0.0000 0.0000 0.0000 31.9144
#
#
#
# Elastic Compliance Matrix: (Units=1/GPa)
#
#
# Indices 1 2 3 4 5 6 
#
# 1 0.016983 -0.003762 -0.006679 0.000000 0.000000 0.000000
# 2 -0.003762 0.023175 -0.006310 0.000000 0.000000 0.000000
# 3 -0.006679 -0.006310 0.012199 0.000000 0.000000 0.000000
# 4 0.000000 0.000000 0.000000 0.027977 0.000000 0.000000
# 5 0.000000 0.000000 0.000000 0.000000 -0.088940 0.000000
# 6 0.000000 0.000000 0.000000 0.000000 0.000000 0.031334
#
#
# Mechanical properties :
#
#
# Convention : Reuss Voigt Hill
#
# Bulk Modulus (GPa) = 53.03510 67.58857 60.31184
# Shear Modulus (GPa) = 79.98188 21.17542 50.57865
#
# Velocity S-wave (km/s) = 6.18526 3.18257 4.91865
# Velocity P-wave (km/s) = 8.73945 6.77011 7.81704
#
# Compressibility (1/GPa) = 0.01885544
#
# Stress axis : x y z
#
# Youngs Moduli (GPa) = 58.88117 43.15053 81.97357
#
# Poissons Ratio (x) = 0.16233 0.54747
# Poissons Ratio (y) = 0.22150 0.51728
# Poissons Ratio (z) = 0.39324 0.27230
#
# Static dielectric constant tensor:
#      x y z
#    x 4.155160 0.000000 0.000000 
#    y 0.000000 3.708890 0.000000 
#    z 0.000000 0.000000 3.783870 
# 
# 
# High freq. dielectric constant tensor:
#      x y z
#    x 1.815840 0.000000 0.000000 
#    y 0.000000 1.822810 0.000000 
#    z 0.000000 0.000000 1.826020 
# 
# From -- ./inp_files/8367.got.cif
#   From: 2010.03.12/outbox.cif.g09.slc.cpg/sg39_5_cif.got.tgz:8367.got - 2010.04.14 02:53:20.
