data_PCOD8181710
_publ_section_title
;
Structure prediction by ZEFSAII (Michael W. Deem and Ramdas Pophale) SiO2 
 PCOD8181710
Probable space group: A B M 2
;
_chemical_formula_sum "Si O2"
_cell_formula_units_Z 64
_cell_length_a 12.491677
_cell_length_b 18.543010
_cell_length_c 13.927475
_cell_angle_alpha 90.000000
_cell_angle_beta 90.000000
_cell_angle_gamma 90.000000
_cell_volume 3226.066877
_symmetry_space_group_name_H-M "A B M 2"
_symmetry_group_IT_number 39
_symmetry_cell_setting 'orthorhombic'
loop_
_space_group_symop_operation_xyz
x,y,z
-x,-y,z
-x,1/2+y,z
x,1/2-y,z
x,1/2+y,1/2+z
-x,1/2-y,1/2+z
-x,y,1/2+z
x,-y,1/2+z
loop_
_atom_site_type_symbol
_atom_site_label
_atom_site_fract_x
_atom_site_fract_y
_atom_site_fract_z
Si Si1 0.430797 0.565924 0.074550
Si Si2 0.271820 0.018371 0.742423
Si Si3 0.490505 0.171104 0.719348
Si Si4 0.935465 0.168868 0.083221
Si Si5 0.867281 0.166974 0.872816
Si Si6 0.931417 0.931062 0.210993
Si Si7 0.761742 0.327576 0.243366
Si Si8 0.358498 0.101275 0.368240
O O1 0.500000 0.500000 0.036037
O O2 0.345249 0.541004 0.153598
O O3 0.512606 0.622734 0.124900
O O4 0.376138 0.600686 0.981992
O O5 0.188337 0.961267 0.697309
O O6 0.337997 0.979241 0.826889
O O7 0.219599 0.092356 0.790371
O O8 0.542425 0.250000 0.704911
O O9 0.363683 0.178718 0.726657
O O10 0.539162 0.134812 0.814583
O O11 0.983982 0.250000 0.081312
O O12 0.826861 0.167685 0.144433
O O13 0.025790 0.112501 0.118534
O O14 0.900714 0.142343 0.978572
O O15 0.891430 0.250000 0.854677
O O16 0.942082 0.123108 0.800193
O O17 0.743454 0.151774 0.850532
O O18 0.000000 0.000000 0.236241
O O19 0.795652 0.250000 0.295588
#
# Coordination Sequence:
#
# PCOD8181710 Si02
#       8
#     8   8   8   8   8   8   8   8
#     4  11  23  38  63  89 118 162 200 246 303 363
#     4  10  21  40  57  89 121 155 201 250 307 356
#     4  10  21  38  60  88 120 155 198 248 299 353
#     4  10  20  39  64  88 117 158 202 248 299 360
#     4  10  22  40  61  89 118 154 201 245 295 358
#     4  11  22  37  60  90 120 155 194 251 303 357
#     4   9  18  33  57  83 113 152 196 240 288 346
#     4  11  23  37  63  90 122 158 203 250 301 363
#
# _framework density 19.838398000000002
#
# number of rings (size 3 to 8) (size 9 to 14) (size 15 to 20)
#    0.000    1.750    2.500    2.250    3.500    2.500 
#    2.250    0.000    0.000    0.000    0.000    0.000 
#    0.000    0.000    0.000    0.000    0.000    0.000 
#
# Total GULP energy -396442.578076 kJ/mol
# GULP energy per Si atom -12388.830565 kJ/mol
# Density = 1.979324 g / cm^3
# Si number density = 19.838398 Si / 1000 Ang^3
#
#
#
# Elastic Constant Matrix: (Units=GPa)
#
#
# Indices 1 2 3 4 5 6 
#
# 1 48.6814 32.7596 24.9826 0.0000 0.0000 0.0000
# 2 32.7596 151.9952 47.9617 0.0000 0.0000 0.0000
# 3 24.9826 47.9617 98.1097 0.0000 0.0000 0.0000
# 4 0.0000 0.0000 0.0000 22.1224 0.0000 0.0000
# 5 0.0000 0.0000 0.0000 0.0000 27.7443 0.0000
# 6 0.0000 0.0000 0.0000 0.0000 0.0000 0.7180
#
#
#
# Elastic Compliance Matrix: (Units=1/GPa)
#
#
# Indices 1 2 3 4 5 6 
#
# 1 0.025618 -0.004095 -0.004522 0.000000 0.000000 0.000000
# 2 -0.004095 0.008434 -0.003080 0.000000 0.000000 0.000000
# 3 -0.004522 -0.003080 0.012850 0.000000 0.000000 0.000000
# 4 0.000000 0.000000 0.000000 0.045203 0.000000 0.000000
# 5 0.000000 0.000000 0.000000 0.000000 0.036043 0.000000
# 6 0.000000 0.000000 0.000000 0.000000 0.000000 1.392730
#
#
# Mechanical properties :
#
#
# Convention : Reuss Voigt Hill
#
# Bulk Modulus (GPa) = 42.53822 56.68823 49.61323
# Shear Modulus (GPa) = 3.22143 22.98910 13.10527
#
# Velocity S-wave (km/s) = 1.27568 3.40784 2.57300
# Velocity P-wave (km/s) = 4.86402 6.64240 5.82152
#
# Compressibility (1/GPa) = 0.02350827
#
# Stress axis : x y z
#
# Youngs Moduli (GPa) = 39.03578 118.57305 77.82214
#
# Poissons Ratio (x) = 0.48551 0.35188
# Poissons Ratio (y) = 0.15984 0.23971
# Poissons Ratio (z) = 0.17650 0.36523
#
# Static dielectric constant tensor:
#      x y z
#    x 3.570530 0.000000 0.000000 
#    y 0.000000 4.687950 0.000000 
#    z 0.000000 0.000000 3.350250 
# 
# 
# High freq. dielectric constant tensor:
#      x y z
#    x 1.766530 0.000000 0.000000 
#    y 0.000000 1.804450 0.000000 
#    z 0.000000 0.000000 1.741150 
# 
# From -- ./inp_files/6640.got.cif
#   From: 2010.03.12/outbox.cif.g09.slc.cpg/sg39_4_cif.got.tgz:6640.got - 2010.04.14 02:53:20.
