data_PCOD8181625
_publ_section_title
;
Structure prediction by ZEFSAII (Michael W. Deem and Ramdas Pophale) SiO2 
 PCOD8181625
Probable space group: A B M 2
;
_chemical_formula_sum "Si O2"
_cell_formula_units_Z 40
_cell_length_a 9.194814
_cell_length_b 8.534684
_cell_length_c 25.487528
_cell_angle_alpha 90.000000
_cell_angle_beta 90.000000
_cell_angle_gamma 90.000000
_cell_volume 2000.129476
_symmetry_space_group_name_H-M "A B M 2"
_symmetry_group_IT_number 39
_symmetry_cell_setting 'orthorhombic'
loop_
_space_group_symop_operation_xyz
x,y,z
-x,-y,z
-x,1/2+y,z
x,1/2-y,z
x,1/2+y,1/2+z
-x,1/2-y,1/2+z
-x,y,1/2+z
x,-y,1/2+z
loop_
_atom_site_type_symbol
_atom_site_label
_atom_site_fract_x
_atom_site_fract_y
_atom_site_fract_z
Si Si1 0.840395 0.935221 0.613200
Si Si2 0.658515 0.064647 0.706008
Si Si3 0.655631 0.436137 0.318883
Si Si4 0.339258 0.563833 0.517185
Si Si5 0.840490 0.565418 0.917233
O O1 0.846471 0.750000 0.614373
O O2 0.782186 0.997481 0.668487
O O3 0.732799 0.991857 0.568343
O O4 0.000000 0.000000 0.601890
O O5 0.653950 0.250000 0.701705
O O6 0.500000 0.000000 0.690261
O O7 0.703421 0.013282 0.764319
O O8 0.500000 0.500000 0.337030
O O9 0.647860 0.250000 0.312191
O O10 0.769917 0.491152 0.362732
O O11 0.500000 0.500000 0.511971
O O12 0.339955 0.750000 0.522049
O O13 0.253125 0.503533 0.466121
O O14 0.846958 0.750000 0.918789
O O15 0.000000 0.500000 0.922366
#
# Coordination Sequence:
#
# PCOD8181625 Si02
#       5
#     8   8   8   8   8
#     4  12  25  42  62  88 120 156 195 243 296 353
#     4  11  22  39  62  89 119 157 199 245 294 348
#     4  10  20  37  59  87 118 154 198 245 291 346
#     4  11  23  41  63  90 119 155 198 243 292 349
#     4  10  23  39  59  86 120 156 195 240 293 350
#
# _framework density 19.998704
#
# number of rings (size 3 to 8) (size 9 to 14) (size 15 to 20)
#    0.000    1.200    0.000    7.800    0.000    5.600 
#    0.000    2.000    0.000    0.000    0.000    0.000 
#    0.000    0.000    0.000    0.000    0.000    0.000 
#
# Total GULP energy -248110.653779 kJ/mol
# GULP energy per Si atom -12405.532689 kJ/mol
# Density = 1.995319 g / cm^3
# Si number density = 19.998704 Si / 1000 Ang^3
#
#
#
# Elastic Constant Matrix: (Units=GPa)
#
#
# Indices 1 2 3 4 5 6 
#
# 1 154.2228 53.3814 91.4339 0.0000 0.0000 0.0000
# 2 53.3814 122.9142 43.2151 0.0000 0.0000 0.0000
# 3 91.4339 43.2151 127.1480 0.0000 0.0000 0.0000
# 4 0.0000 0.0000 0.0000 29.7846 0.0000 0.0000
# 5 0.0000 0.0000 0.0000 0.0000 40.2108 0.0000
# 6 0.0000 0.0000 0.0000 0.0000 0.0000 39.5736
#
#
#
# Elastic Compliance Matrix: (Units=1/GPa)
#
#
# Indices 1 2 3 4 5 6 
#
# 1 0.011923 -0.002457 -0.007739 0.000000 0.000000 0.000000
# 2 -0.002457 0.009746 -0.001546 0.000000 0.000000 0.000000
# 3 -0.007739 -0.001546 0.013955 0.000000 0.000000 0.000000
# 4 0.000000 0.000000 0.000000 0.033574 0.000000 0.000000
# 5 0.000000 0.000000 0.000000 0.000000 0.024869 0.000000
# 6 0.000000 0.000000 0.000000 0.000000 0.000000 0.025269
#
#
# Mechanical properties :
#
#
# Convention : Reuss Voigt Hill
#
# Bulk Modulus (GPa) = 82.36334 86.70512 84.53423
# Shear Modulus (GPa) = 34.04454 36.33076 35.18765
#
# Velocity S-wave (km/s) = 4.13041 4.26685 4.19919
# Velocity P-wave (km/s) = 8.00130 8.22947 8.11619
#
# Compressibility (1/GPa) = 0.01214132
#
# Stress axis : x y z
#
# Youngs Moduli (GPa) = 83.87449 102.60290 71.65857
#
# Poissons Ratio (x) = 0.25211 0.55453
# Poissons Ratio (y) = 0.20609 0.11076
# Poissons Ratio (z) = 0.64907 0.15858
#
# Static dielectric constant tensor:
#      x y z
#    x 3.640320 0.000000 0.000000 
#    y 0.000000 3.765110 0.000000 
#    z 0.000000 0.000000 3.959810 
# 
# 
# High freq. dielectric constant tensor:
#      x y z
#    x 1.787350 0.000000 0.000000 
#    y 0.000000 1.794100 0.000000 
#    z 0.000000 0.000000 1.799110 
# 
# From -- ./inp_files/15454.got.cif
#   From: 2010.03.12/outbox.cif.g09.slc.cpg/sg39_8_cif.got.tgz:15454.got - 2010.04.14 02:53:20.
