data_PCOD8181362
_publ_section_title
;
Structure prediction by ZEFSAII (Michael W. Deem and Ramdas Pophale) SiO2 
 PCOD8181362
Probable space group: A B M 2
;
_chemical_formula_sum "Si O2"
_cell_formula_units_Z 48
_cell_length_a 15.508930
_cell_length_b 8.832649
_cell_length_c 18.949059
_cell_angle_alpha 90.000000
_cell_angle_beta 90.000000
_cell_angle_gamma 90.000000
_cell_volume 2595.735616
_symmetry_space_group_name_H-M "A B M 2"
_symmetry_group_IT_number 39
_symmetry_cell_setting 'orthorhombic'
loop_
_space_group_symop_operation_xyz
x,y,z
-x,-y,z
-x,1/2+y,z
x,1/2-y,z
x,1/2+y,1/2+z
-x,1/2-y,1/2+z
-x,y,1/2+z
x,-y,1/2+z
loop_
_atom_site_type_symbol
_atom_site_label
_atom_site_fract_x
_atom_site_fract_y
_atom_site_fract_z
Si Si1 0.736493 0.429665 0.526240
Si Si2 0.410918 0.075632 0.615763
Si Si3 0.730938 0.069125 0.875996
Si Si4 0.084317 0.418794 0.533970
Si Si5 0.411770 0.076315 0.782442
Si Si6 0.081514 0.084897 0.367143
O O1 0.738195 0.250000 0.521225
O O2 0.667436 0.482917 0.583242
O O3 0.707841 0.497450 0.451220
O O4 0.829997 0.486795 0.551780
O O5 0.409324 0.250000 0.590816
O O6 0.401035 0.062767 0.699269
O O7 0.500000 0.000000 0.590355
O O8 0.731604 0.250000 0.884694
O O9 0.825513 0.009783 0.850660
O O10 0.664764 0.016957 0.817330
O O11 0.093086 0.250000 0.566242
O O12 0.071270 0.406466 0.450782
O O13 0.000000 0.500000 0.567316
O O14 0.410333 0.250000 0.807721
O O15 0.500000 0.000000 0.808210
O O16 0.079060 0.250000 0.332809
O O17 0.000000 0.000000 0.332870
#
# Coordination Sequence:
#
# PCOD8181362 Si02
#       6
#     8   8   8   8   8   8
#     4  11  21  33  52  79 108 138 174 215 260 305
#     4  10  21  38  57  77 102 133 171 213 259 313
#     4  10  20  34  52  77 108 137 170 214 259 302
#     4   9  16  28  46  71 103 137 172 210 255 304
#     4  10  21  37  57  78 101 133 171 211 257 312
#     4   8  15  26  43  68  98 132 165 201 244 292
#
# _framework density 18.491869000000001
#
# number of rings (size 3 to 8) (size 9 to 14) (size 15 to 20)
#    0.000    2.333    0.000    4.500    0.000    7.333 
#    0.000    3.333    0.000    1.000    0.000    2.333 
#    0.000    0.000    0.000    0.000    0.000    0.000 
#
# Total GULP energy -297549.998179 kJ/mol
# GULP energy per Si atom -12397.916591 kJ/mol
# Density = 1.844978 g / cm^3
# Si number density = 18.491869 Si / 1000 Ang^3
#
#
#
# Elastic Constant Matrix: (Units=GPa)
#
#
# Indices 1 2 3 4 5 6 
#
# 1 152.9702 64.7234 34.2593 0.0000 0.0000 0.0000
# 2 64.7234 139.4689 25.2080 0.0000 0.0000 0.0000
# 3 34.2593 25.2080 21.5947 0.0000 0.0000 0.0000
# 4 0.0000 0.0000 0.0000 23.4917 0.0000 0.0000
# 5 0.0000 0.0000 0.0000 0.0000 -9.7747 0.0000
# 6 0.0000 0.0000 0.0000 0.0000 0.0000 38.5883
#
#
#
# Elastic Compliance Matrix: (Units=1/GPa)
#
#
# Indices 1 2 3 4 5 6 
#
# 1 0.010746 -0.002415 -0.014228 0.000000 0.000000 0.000000
# 2 -0.002415 0.009630 -0.007410 0.000000 0.000000 0.000000
# 3 -0.014228 -0.007410 0.077530 0.000000 0.000000 0.000000
# 4 0.000000 0.000000 0.000000 0.042568 0.000000 0.000000
# 5 0.000000 0.000000 0.000000 0.000000 -0.102305 0.000000
# 6 0.000000 0.000000 0.000000 0.000000 0.000000 0.025915
#
#
# Mechanical properties :
#
#
# Convention : Reuss Voigt Hill
#
# Bulk Modulus (GPa) = 20.08069 62.49056 41.28562
# Shear Modulus (GPa) = 38.82269 23.11728 30.96998
#
# Velocity S-wave (km/s) = 4.58694 3.53956 4.09686
# Velocity P-wave (km/s) = 6.23988 7.11136 6.68983
#
# Compressibility (1/GPa) = 0.04979908
#
# Stress axis : x y z
#
# Youngs Moduli (GPa) = 93.06063 103.84084 12.89816
#
# Poissons Ratio (x) = 0.25078 0.18352
# Poissons Ratio (y) = 0.22475 0.09558
# Poissons Ratio (z) = 1.32411 0.76946
#
# Static dielectric constant tensor:
#      x y z
#    x 3.676840 0.000000 0.000000 
#    y 0.000000 3.687930 0.000000 
#    z 0.000000 0.000000 2.916100 
# 
# 
# High freq. dielectric constant tensor:
#      x y z
#    x 1.737060 0.000000 0.000000 
#    y 0.000000 1.733350 0.000000 
#    z 0.000000 0.000000 1.665990 
# 
# From -- ./inp_files/12637.got.cif
#   From: 2010.03.12/outbox.cif.g09.slc.cpg/sg39_7_cif.got.tgz:12637.got - 2010.04.14 02:53:20.
