data_PCOD8181439
_publ_section_title
;
Structure prediction by ZEFSAII (Michael W. Deem and Ramdas Pophale) SiO2 
 PCOD8181439
Probable space group: A B M 2
;
_chemical_formula_sum "Si O2"
_cell_formula_units_Z 48
_cell_length_a 9.472576
_cell_length_b 8.545810
_cell_length_c 30.592215
_cell_angle_alpha 90.000000
_cell_angle_beta 90.000000
_cell_angle_gamma 90.000000
_cell_volume 2476.465340
_symmetry_space_group_name_H-M "A B M 2"
_symmetry_group_IT_number 39
_symmetry_cell_setting 'orthorhombic'
loop_
_space_group_symop_operation_xyz
x,y,z
-x,-y,z
-x,1/2+y,z
x,1/2-y,z
x,1/2+y,1/2+z
-x,1/2-y,1/2+z
-x,y,1/2+z
x,-y,1/2+z
loop_
_atom_site_type_symbol
_atom_site_label
_atom_site_fract_x
_atom_site_fract_y
_atom_site_fract_z
Si Si1 0.342846 0.935478 0.564340
Si Si2 0.148792 0.065106 0.240456
Si Si3 0.850210 0.565808 0.143066
Si Si4 0.655756 0.564747 0.909789
Si Si5 0.842854 0.064773 0.986252
Si Si6 0.652143 0.935961 0.317164
O O1 0.344108 0.750000 0.557703
O O2 0.274353 0.986083 0.610570
O O3 0.500000 0.000000 0.562366
O O4 0.250396 0.012819 0.526943
O O5 0.144696 0.250000 0.240291
O O6 0.187445 0.002520 0.191749
O O7 0.257440 0.003148 0.276339
O O8 0.000000 0.000000 0.255676
O O9 0.866177 0.750000 0.143448
O O10 0.000000 0.500000 0.126615
O O11 0.500000 0.500000 0.920930
O O12 0.648413 0.750000 0.912621
O O13 0.707974 0.511177 0.862040
O O14 0.772008 0.501049 0.942711
O O15 0.848989 0.250000 0.983758
O O16 0.000000 0.000000 0.991416
O O17 0.651902 0.750000 0.322370
O O18 0.500000 0.000000 0.306226
#
# Coordination Sequence:
#
# PCOD8181439 Si02
#       6
#     8   8   8   8   8   8
#     4  11  23  39  59  85 116 150 189 232 280 333
#     4   9  19  35  55  80 111 147 187 231 278 331
#     4   9  19  36  57  81 111 147 187 231 279 331
#     4  11  22  39  61  85 114 149 189 232 282 335
#     4  12  25  42  62  86 115 147 186 230 280 335
#     4  10  20  35  55  81 113 148 188 232 279 331
#
# _framework density 19.382463999999999
#
# number of rings (size 3 to 8) (size 9 to 14) (size 15 to 20)
#    0.000    1.667    0.000    6.000    0.000    5.333 
#    0.000    1.667    0.000    0.000    0.000    0.000 
#    0.000    0.000    0.000    0.000    0.000    0.000 
#
# Total GULP energy -297622.930466 kJ/mol
# GULP energy per Si atom -12400.955436 kJ/mol
# Density = 1.933835 g / cm^3
# Si number density = 19.382464 Si / 1000 Ang^3
#
#
#
# Elastic Constant Matrix: (Units=GPa)
#
#
# Indices 1 2 3 4 5 6 
#
# 1 139.7086 52.8156 101.3604 0.0000 0.0000 0.0000
# 2 52.8156 109.1669 54.5450 0.0000 0.0000 0.0000
# 3 101.3604 54.5450 150.6779 0.0000 0.0000 0.0000
# 4 0.0000 0.0000 0.0000 28.5672 0.0000 0.0000
# 5 0.0000 0.0000 0.0000 0.0000 55.3914 0.0000
# 6 0.0000 0.0000 0.0000 0.0000 0.0000 35.8225
#
#
#
# Elastic Compliance Matrix: (Units=1/GPa)
#
#
# Indices 1 2 3 4 5 6 
#
# 1 0.014574 -0.002628 -0.008852 0.000000 0.000000 0.000000
# 2 -0.002628 0.011657 -0.002452 0.000000 0.000000 0.000000
# 3 -0.008852 -0.002452 0.013479 0.000000 0.000000 0.000000
# 4 0.000000 0.000000 0.000000 0.035005 0.000000 0.000000
# 5 0.000000 0.000000 0.000000 0.000000 0.018053 0.000000
# 6 0.000000 0.000000 0.000000 0.000000 0.000000 0.027915
#
#
# Mechanical properties :
#
#
# Convention : Reuss Voigt Hill
#
# Bulk Modulus (GPa) = 84.42151 90.77727 87.59939
# Shear Modulus (GPa) = 32.78763 36.67839 34.73301
#
# Velocity S-wave (km/s) = 4.11738 4.35483 4.23777
# Velocity P-wave (km/s) = 8.13965 8.49838 8.32095
#
# Compressibility (1/GPa) = 0.01184532
#
# Stress axis : x y z
#
# Youngs Moduli (GPa) = 68.61674 85.78714 74.18790
#
# Poissons Ratio (x) = 0.22543 0.65674
# Poissons Ratio (y) = 0.18031 0.18191
# Poissons Ratio (z) = 0.60742 0.21035
#
# Static dielectric constant tensor:
#      x y z
#    x 3.506680 0.000000 0.000000 
#    y 0.000000 3.632610 0.000000 
#    z 0.000000 0.000000 4.094910 
# 
# 
# High freq. dielectric constant tensor:
#      x y z
#    x 1.755350 0.000000 0.000000 
#    y 0.000000 1.763680 0.000000 
#    z 0.000000 0.000000 1.772290 
# 
# From -- ./inp_files/17610.got.cif
#   From: 2010.03.12/outbox.cif.g09.slc.cpg/sg39_9_cif.got.tgz:17610.got - 2010.04.14 02:53:20.
