data_PCOD8181636
_publ_section_title
;
Structure prediction by ZEFSAII (Michael W. Deem and Ramdas Pophale) SiO2 
 PCOD8181636
Probable space group: A B M 2
;
_chemical_formula_sum "Si O2"
_cell_formula_units_Z 64
_cell_length_a 15.431394
_cell_length_b 8.737590
_cell_length_c 23.734550
_cell_angle_alpha 90.000000
_cell_angle_beta 90.000000
_cell_angle_gamma 90.000000
_cell_volume 3200.205182
_symmetry_space_group_name_H-M "A B M 2"
_symmetry_group_IT_number 39
_symmetry_cell_setting 'orthorhombic'
loop_
_space_group_symop_operation_xyz
x,y,z
-x,-y,z
-x,1/2+y,z
x,1/2-y,z
x,1/2+y,1/2+z
-x,1/2-y,1/2+z
-x,y,1/2+z
x,-y,1/2+z
loop_
_atom_site_type_symbol
_atom_site_label
_atom_site_fract_x
_atom_site_fract_y
_atom_site_fract_z
Si Si1 0.144708 0.067889 0.181690
Si Si2 0.087603 0.068949 0.796871
Si Si3 0.589545 0.069601 0.565359
Si Si4 0.590162 0.430426 0.801848
Si Si5 0.911945 0.430760 0.065488
Si Si6 0.745435 0.427450 0.366572
Si Si7 0.341494 0.568215 0.683400
Si Si8 0.241975 0.572179 0.497937
O O1 0.139002 0.250000 0.183563
O O2 0.243364 0.007872 0.182388
O O3 0.095530 0.998595 0.234661
O O4 0.099107 0.007016 0.126157
O O5 0.080646 0.250000 0.794426
O O6 0.168411 0.015733 0.834831
O O7 0.000000 0.000000 0.824215
O O8 0.579965 0.250000 0.566294
O O9 0.609328 0.005484 0.628169
O O10 0.666193 0.019147 0.523568
O O11 0.500000 0.000000 0.542783
O O12 0.500000 0.500000 0.822967
O O13 0.581898 0.250000 0.800591
O O14 0.664358 0.475779 0.845390
O O15 0.612034 0.495527 0.739450
O O16 0.919432 0.250000 0.071706
O O17 0.833036 0.471118 0.024719
O O18 0.000000 0.500000 0.038851
O O19 0.727000 0.250000 0.354364
O O20 0.757568 0.460130 0.432042
O O21 0.340570 0.750000 0.683222
O O22 0.224698 0.750000 0.512319
#
# Coordination Sequence:
#
# PCOD8181636 Si02
#       8
#     8   8   8   8   8   8   8   8
#     4  11  20  38  64  90 122 158 199 244 302 364
#     4  11  23  39  60  90 123 156 199 247 302 364
#     4  10  20  37  60  87 119 154 194 241 298 355
#     4  11  22  38  61  90 123 160 203 249 306 366
#     4  12  25  41  63  93 124 159 201 247 303 362
#     4  10  23  42  63  88 119 159 207 256 306 356
#     4   9  18  34  59  88 117 155 194 240 300 359
#     4  10  22  43  65  86 120 162 204 255 305 354
#
# _framework density 19.998718
#
# number of rings (size 3 to 8) (size 9 to 14) (size 15 to 20)
#    0.000    1.500    2.500    3.000    0.000    2.500 
#    0.000    3.125    0.000    0.000    0.000    0.000 
#    0.000    0.000    0.000    0.000    0.000    0.000 
#
# Total GULP energy -396954.136149 kJ/mol
# GULP energy per Si atom -12404.816755 kJ/mol
# Density = 1.995320 g / cm^3
# Si number density = 19.998718 Si / 1000 Ang^3
#
#
#
# Elastic Constant Matrix: (Units=GPa)
#
#
# Indices 1 2 3 4 5 6 
#
# 1 168.5781 46.4698 44.8283 0.0000 0.0000 0.0000
# 2 46.4698 60.8979 22.4231 0.0000 0.0000 0.0000
# 3 44.8283 22.4231 95.9565 0.0000 0.0000 0.0000
# 4 0.0000 0.0000 0.0000 24.0883 0.0000 0.0000
# 5 0.0000 0.0000 0.0000 0.0000 7.0797 0.0000
# 6 0.0000 0.0000 0.0000 0.0000 0.0000 35.2650
#
#
#
# Elastic Compliance Matrix: (Units=1/GPa)
#
#
# Indices 1 2 3 4 5 6 
#
# 1 0.008041 -0.005200 -0.002541 0.000000 0.000000 0.000000
# 2 -0.005200 0.021330 -0.002555 0.000000 0.000000 0.000000
# 3 -0.002541 -0.002555 0.012206 0.000000 0.000000 0.000000
# 4 0.000000 0.000000 0.000000 0.041514 0.000000 0.000000
# 5 0.000000 0.000000 0.000000 0.000000 0.141249 0.000000
# 6 0.000000 0.000000 0.000000 0.000000 0.000000 0.028357
#
#
# Mechanical properties :
#
#
# Convention : Reuss Voigt Hill
#
# Bulk Modulus (GPa) = 47.65646 61.43054 54.54350
# Shear Modulus (GPa) = 17.83899 27.40070 22.61985
#
# Velocity S-wave (km/s) = 2.98989 3.70553 3.36678
# Velocity P-wave (km/s) = 5.98337 7.00656 6.51508
#
# Compressibility (1/GPa) = 0.02098351
#
# Stress axis : x y z
#
# Youngs Moduli (GPa) = 124.35786 46.88250 81.92879
#
# Poissons Ratio (x) = 0.24381 0.20822
# Poissons Ratio (y) = 0.64670 0.20932
# Poissons Ratio (z) = 0.31605 0.11978
#
# Static dielectric constant tensor:
#      x y z
#    x 3.863640 0.000000 0.000000 
#    y 0.000000 3.458480 0.000000 
#    z 0.000000 0.000000 3.647800 
# 
# 
# High freq. dielectric constant tensor:
#      x y z
#    x 1.799340 0.000000 0.000000 
#    y 0.000000 1.768130 0.000000 
#    z 0.000000 0.000000 1.777140 
# 
# From -- ./inp_files/16154.got.cif
#   From: 2010.03.12/outbox.cif.g09.slc.cpg/sg39_9_cif.got.tgz:16154.got - 2010.04.14 02:53:20.
