data_PCOD8181840
_publ_section_title
;
Structure prediction by ZEFSAII (Michael W. Deem and Ramdas Pophale) SiO2 
 PCOD8181840
Probable space group: A B M 2
;
_chemical_formula_sum "Si O2"
_cell_formula_units_Z 64
_cell_length_a 8.583535
_cell_length_b 30.721333
_cell_length_c 12.003258
_cell_angle_alpha 90.000000
_cell_angle_beta 90.000000
_cell_angle_gamma 90.000000
_cell_volume 3165.230772
_symmetry_space_group_name_H-M "A B M 2"
_symmetry_group_IT_number 39
_symmetry_cell_setting 'orthorhombic'
loop_
_space_group_symop_operation_xyz
x,y,z
-x,-y,z
-x,1/2+y,z
x,1/2-y,z
x,1/2+y,1/2+z
-x,1/2-y,1/2+z
-x,y,1/2+z
x,-y,1/2+z
loop_
_atom_site_type_symbol
_atom_site_label
_atom_site_fract_x
_atom_site_fract_y
_atom_site_fract_z
Si Si1 0.562485 0.135433 0.994470
Si Si2 0.794837 0.340264 0.175780
Si Si3 0.312537 0.919047 0.614846
Si Si4 0.090195 0.151913 0.036766
Si Si5 0.322468 0.799614 0.397014
Si Si6 0.073422 0.909079 0.328377
Si Si7 0.733035 0.429537 0.849979
Si Si8 0.176290 0.013922 0.961472
O O1 0.473069 0.169755 0.915474
O O2 0.698394 0.112427 0.924742
O O3 0.640835 0.159119 0.099708
O O4 0.448769 0.097246 0.034324
O O5 0.758705 0.307564 0.277018
O O6 0.836048 0.387948 0.224601
O O7 0.944049 0.326257 0.101161
O O8 0.181062 0.881033 0.618663
O O9 0.376398 0.927975 0.740113
O O10 0.249280 0.965506 0.572385
O O11 0.200853 0.191406 0.996948
O O12 0.041450 0.125263 0.927091
O O13 0.378110 0.750000 0.403179
O O14 0.182256 0.948715 0.367347
O O15 0.905668 0.927911 0.296258
O O16 0.717353 0.473547 0.921944
O O17 0.000000 0.000000 0.989265
#
# Coordination Sequence:
#
# PCOD8181840 Si02
#       8
#     8   8   8   8   8   8   8   8
#     4  11  24  40  62  89 123 169 203 253 318 391
#     4  11  20  38  71  90 116 166 213 247 318 375
#     4  10  21  38  56  85 123 164 206 250 315 368
#     4   9  18  37  64  89 117 154 202 252 299 367
#     4  10  24  43  61  93 131 154 197 262 320 387
#     4   9  18  35  58  92 118 153 205 261 294 357
#     4  11  20  36  60  84 119 162 214 255 306 363
#     4   9  21  35  55  88 126 160 210 266 310 346
#
# _framework density 20.219694
#
# number of rings (size 3 to 8) (size 9 to 14) (size 15 to 20)
#    0.000    2.000    2.500    1.500    0.000    4.000 
#    0.000    1.250    0.000    0.000    0.000    0.000 
#    0.000    0.000    0.000    0.000    0.000    0.000 
#
# Total GULP energy -396731.225136 kJ/mol
# GULP energy per Si atom -12397.850785 kJ/mol
# Density = 2.017367 g / cm^3
# Si number density = 20.219694 Si / 1000 Ang^3
#
#
#
# Elastic Constant Matrix: (Units=GPa)
#
#
# Indices 1 2 3 4 5 6 
#
# 1 69.9742 27.5655 23.6123 0.0000 0.0000 0.0000
# 2 27.5655 109.8238 37.3325 0.0000 0.0000 0.0000
# 3 23.6123 37.3325 96.5693 0.0000 0.0000 0.0000
# 4 0.0000 0.0000 0.0000 21.0949 0.0000 0.0000
# 5 0.0000 0.0000 0.0000 0.0000 31.1693 0.0000
# 6 0.0000 0.0000 0.0000 0.0000 0.0000 21.8376
#
#
#
# Elastic Compliance Matrix: (Units=1/GPa)
#
#
# Indices 1 2 3 4 5 6 
#
# 1 0.016492 -0.003187 -0.002800 0.000000 0.000000 0.000000
# 2 -0.003187 0.011099 -0.003511 0.000000 0.000000 0.000000
# 3 -0.002800 -0.003511 0.012397 0.000000 0.000000 0.000000
# 4 0.000000 0.000000 0.000000 0.047405 0.000000 0.000000
# 5 0.000000 0.000000 0.000000 0.000000 0.032083 0.000000
# 6 0.000000 0.000000 0.000000 0.000000 0.000000 0.045793
#
#
# Mechanical properties :
#
#
# Convention : Reuss Voigt Hill
#
# Bulk Modulus (GPa) = 47.64167 50.37644 49.00906
# Shear Modulus (GPa) = 26.14200 27.34417 26.74308
#
# Velocity S-wave (km/s) = 3.59959 3.68142 3.64074
# Velocity P-wave (km/s) = 6.39447 6.56042 6.47798
#
# Compressibility (1/GPa) = 0.02099003
#
# Stress axis : x y z
#
# Youngs Moduli (GPa) = 60.63721 90.09676 80.66214
#
# Poissons Ratio (x) = 0.28718 0.22586
# Poissons Ratio (y) = 0.19328 0.28324
# Poissons Ratio (z) = 0.16979 0.31637
#
# Static dielectric constant tensor:
#      x y z
#    x 3.567330 0.000000 0.000000 
#    y 0.000000 3.408860 0.000000 
#    z 0.000000 0.000000 3.639960 
# 
# 
# High freq. dielectric constant tensor:
#      x y z
#    x 1.781150 0.000000 0.000000 
#    y 0.000000 1.763940 0.000000 
#    z 0.000000 0.000000 1.795260 
# 
# From -- ./inp_files/5386.got.cif
#   From: 2010.03.12/outbox.cif.g09.slc.cpg/sg39_3_cif.got.tgz:5386.got - 2010.04.14 02:53:20.
