data_PCOD8181246
_publ_section_title
;
Structure prediction by ZEFSAII (Michael W. Deem and Ramdas Pophale) SiO2 
 PCOD8181246
Probable space group: A B M 2
;
_chemical_formula_sum "Si O2"
_cell_formula_units_Z 48
_cell_length_a 11.686534
_cell_length_b 18.017546
_cell_length_c 11.317732
_cell_angle_alpha 90.000000
_cell_angle_beta 90.000000
_cell_angle_gamma 90.000000
_cell_volume 2383.091800
_symmetry_space_group_name_H-M "A B M 2"
_symmetry_group_IT_number 39
_symmetry_cell_setting 'orthorhombic'
loop_
_space_group_symop_operation_xyz
x,y,z
-x,-y,z
-x,1/2+y,z
x,1/2-y,z
x,1/2+y,1/2+z
-x,1/2-y,1/2+z
-x,y,1/2+z
x,-y,1/2+z
loop_
_atom_site_type_symbol
_atom_site_label
_atom_site_fract_x
_atom_site_fract_y
_atom_site_fract_z
Si Si1 0.663850 0.664088 0.925760
Si Si2 0.756512 0.928977 0.311888
Si Si3 0.107533 0.417628 0.538067
Si Si4 0.144377 0.909175 0.572776
Si Si5 0.299624 0.084948 0.699953
Si Si6 0.551454 0.422997 0.975430
O O1 0.682205 0.750000 0.951989
O O2 0.650578 0.647988 0.786222
O O3 0.775669 0.619105 0.967952
O O4 0.547944 0.637839 0.990247
O O5 0.862981 0.915196 0.399688
O O6 0.792176 0.884044 0.193932
O O7 0.643793 0.896523 0.377150
O O8 0.736812 0.015015 0.280359
O O9 0.124782 0.503170 0.574687
O O10 0.195353 0.376922 0.626876
O O11 0.984745 0.378472 0.558224
O O12 0.394546 0.061317 0.603834
O O13 0.500000 0.500000 0.927823
#
# Coordination Sequence:
#
# PCOD8181246 Si02
#       6
#     8   8   8   8   8   8
#     4  12  26  41  59  88 131 167 200 247 311 377
#     4  10  19  36  62  95 122 147 201 264 307 344
#     4   9  19  35  65  93 118 148 203 263 304 350
#     4  10  21  35  60  94 122 156 196 252 311 360
#     4  10  21  38  59  91 121 156 201 254 310 357
#     4  11  22  38  63  90 120 160 209 259 300 355
#
# _framework density 20.141901000000001
#
# number of rings (size 3 to 8) (size 9 to 14) (size 15 to 20)
#    0.000    1.667    3.333    2.000    7.000    2.000 
#    0.000    0.833    0.000    2.000    0.000    0.000 
#    0.000    0.000    0.000    0.000    0.000    0.000 
#
# Total GULP energy -297443.612668 kJ/mol
# GULP energy per Si atom -12393.483861 kJ/mol
# Density = 2.009606 g / cm^3
# Si number density = 20.141901 Si / 1000 Ang^3
#
#
#
# Elastic Constant Matrix: (Units=GPa)
#
#
# Indices 1 2 3 4 5 6 
#
# 1 152.5443 31.5430 51.0206 0.0000 0.0000 0.0000
# 2 31.5430 43.5892 20.5397 0.0000 0.0000 0.0000
# 3 51.0206 20.5397 101.6553 0.0000 0.0000 0.0000
# 4 0.0000 0.0000 0.0000 11.3614 0.0000 0.0000
# 5 0.0000 0.0000 0.0000 0.0000 31.6063 0.0000
# 6 0.0000 0.0000 0.0000 0.0000 0.0000 12.4636
#
#
#
# Elastic Compliance Matrix: (Units=1/GPa)
#
#
# Indices 1 2 3 4 5 6 
#
# 1 0.008658 -0.004661 -0.003403 0.000000 0.000000 0.000000
# 2 -0.004661 0.027865 -0.003291 0.000000 0.000000 0.000000
# 3 -0.003403 -0.003291 0.012210 0.000000 0.000000 0.000000
# 4 0.000000 0.000000 0.000000 0.088018 0.000000 0.000000
# 5 0.000000 0.000000 0.000000 0.000000 0.031639 0.000000
# 6 0.000000 0.000000 0.000000 0.000000 0.000000 0.080234
#
#
# Mechanical properties :
#
#
# Convention : Reuss Voigt Hill
#
# Bulk Modulus (GPa) = 38.42877 55.99949 47.21413
# Shear Modulus (GPa) = 17.85658 24.06527 20.96093
#
# Velocity S-wave (km/s) = 2.98071 3.46032 3.22943
# Velocity P-wave (km/s) = 5.56477 6.62027 6.11533
#
# Compressibility (1/GPa) = 0.02602217
#
# Stress axis : x y z
#
# Youngs Moduli (GPa) = 115.50465 35.88699 81.89847
#
# Poissons Ratio (x) = 0.16728 0.27874
# Poissons Ratio (y) = 0.53840 0.26951
# Poissons Ratio (z) = 0.39311 0.11810
#
# Static dielectric constant tensor:
#      x y z
#    x 4.130130 0.000000 0.000000 
#    y 0.000000 2.984600 0.000000 
#    z 0.000000 0.000000 3.891220 
# 
# 
# High freq. dielectric constant tensor:
#      x y z
#    x 1.803390 0.000000 0.000000 
#    y 0.000000 1.711260 0.000000 
#    z 0.000000 0.000000 1.804760 
# 
# From -- ./inp_files/5909.got.cif
#   From: 2010.03.12/outbox.cif.g09.slc.cpg/sg39_3_cif.got.tgz:5909.got - 2010.04.14 02:53:20.
