data_PCOD8181503
_publ_section_title
;
Structure prediction by ZEFSAII (Michael W. Deem and Ramdas Pophale) SiO2 
 PCOD8181503
Probable space group: A B M 2
;
_chemical_formula_sum "Si O2"
_cell_formula_units_Z 48
_cell_length_a 13.949152
_cell_length_b 8.662312
_cell_length_c 20.087733
_cell_angle_alpha 90.000000
_cell_angle_beta 90.000000
_cell_angle_gamma 90.000000
_cell_volume 2427.239081
_symmetry_space_group_name_H-M "A B M 2"
_symmetry_group_IT_number 39
_symmetry_cell_setting 'orthorhombic'
loop_
_space_group_symop_operation_xyz
x,y,z
-x,-y,z
-x,1/2+y,z
x,1/2-y,z
x,1/2+y,1/2+z
-x,1/2-y,1/2+z
-x,y,1/2+z
x,-y,1/2+z
loop_
_atom_site_type_symbol
_atom_site_label
_atom_site_fract_x
_atom_site_fract_y
_atom_site_fract_z
Si Si1 0.397765 0.931763 0.307190
Si Si2 0.704182 0.569657 0.430273
Si Si3 0.288215 0.931072 0.686173
Si Si4 0.395258 0.931651 0.552734
Si Si5 0.099893 0.567356 0.219298
Si Si6 0.902088 0.931172 0.364233
O O1 0.403373 0.750000 0.302966
O O2 0.500000 0.000000 0.288622
O O3 0.366484 0.981928 0.380451
O O4 0.322393 0.993277 0.254280
O O5 0.682070 0.750000 0.424454
O O6 0.681465 0.509113 0.503713
O O7 0.815365 0.533790 0.414718
O O8 0.279069 0.750000 0.696884
O O9 0.360795 0.972518 0.626947
O O10 0.183384 0.001775 0.671465
O O11 0.397959 0.750000 0.539950
O O12 0.500000 0.000000 0.540671
O O13 0.097578 0.750000 0.215830
O O14 0.119516 0.513914 0.294668
O O15 0.000000 0.500000 0.192363
O O16 0.914521 0.750000 0.350754
O O17 0.000000 0.000000 0.395726
#
# Coordination Sequence:
#
# PCOD8181503 Si02
#       6
#     8   8   8   8   8   8
#     4  12  24  38  60  88 119 155 199 253 306 360
#     4  11  23  40  62  88 122 160 202 251 300 361
#     4  11  23  41  62  89 122 158 203 253 304 362
#     4  11  25  43  64  87 120 162 204 251 304 367
#     4  11  21  35  60  91 124 161 199 249 303 362
#     4  10  20  35  59  89 123 158 197 247 301 360
#
# _framework density 19.775555000000001
#
# number of rings (size 3 to 8) (size 9 to 14) (size 15 to 20)
#    0.000    1.000    1.667    7.000    0.000    6.000 
#    0.000    0.833    0.000    2.000    0.000    0.000 
#    0.000    0.000    0.000    0.000    0.000    0.000 
#
# Total GULP energy -297738.247618 kJ/mol
# GULP energy per Si atom -12405.760317 kJ/mol
# Density = 1.973054 g / cm^3
# Si number density = 19.775555 Si / 1000 Ang^3
#
#
#
# Elastic Constant Matrix: (Units=GPa)
#
#
# Indices 1 2 3 4 5 6 
#
# 1 127.1648 58.8204 29.2085 0.0000 0.0000 0.0000
# 2 58.8204 142.1285 31.5244 0.0000 0.0000 0.0000
# 3 29.2085 31.5244 51.2089 0.0000 0.0000 0.0000
# 4 0.0000 0.0000 0.0000 28.6916 0.0000 0.0000
# 5 0.0000 0.0000 0.0000 0.0000 33.5293 0.0000
# 6 0.0000 0.0000 0.0000 0.0000 0.0000 39.0979
#
#
#
# Elastic Compliance Matrix: (Units=1/GPa)
#
#
# Indices 1 2 3 4 5 6 
#
# 1 0.010318 -0.003434 -0.003772 0.000000 0.000000 0.000000
# 2 -0.003434 0.009291 -0.003761 0.000000 0.000000 0.000000
# 3 -0.003772 -0.003761 0.023994 0.000000 0.000000 0.000000
# 4 0.000000 0.000000 0.000000 0.034853 0.000000 0.000000
# 5 0.000000 0.000000 0.000000 0.000000 0.029825 0.000000
# 6 0.000000 0.000000 0.000000 0.000000 0.000000 0.025577
#
#
# Mechanical properties :
#
#
# Convention : Reuss Voigt Hill
#
# Bulk Modulus (GPa) = 46.14438 62.17876 54.16157
# Shear Modulus (GPa) = 30.67191 33.66035 32.16613
#
# Velocity S-wave (km/s) = 3.94255 4.13015 4.03744
# Velocity P-wave (km/s) = 6.64151 7.36578 7.01300
#
# Compressibility (1/GPa) = 0.02167111
#
# Stress axis : x y z
#
# Youngs Moduli (GPa) = 96.91429 107.62878 41.67625
#
# Poissons Ratio (x) = 0.36957 0.15718
# Poissons Ratio (y) = 0.33278 0.15675
# Poissons Ratio (z) = 0.36552 0.40481
#
# Static dielectric constant tensor:
#      x y z
#    x 3.953060 0.000000 0.000000 
#    y 0.000000 3.745300 0.000000 
#    z 0.000000 0.000000 3.395160 
# 
# 
# High freq. dielectric constant tensor:
#      x y z
#    x 1.791590 0.000000 0.000000 
#    y 0.000000 1.791080 0.000000 
#    z 0.000000 0.000000 1.746560 
# 
# From -- ./inp_files/12633.got.cif
#   From: 2010.03.12/outbox.cif.g09.slc.cpg/sg39_7_cif.got.tgz:12633.got - 2010.04.14 02:53:20.
