data_PCOD8181487
_publ_section_title
;
Structure prediction by ZEFSAII (Michael W. Deem and Ramdas Pophale) SiO2 
 PCOD8181487
Probable space group: A B M 2
;
_chemical_formula_sum "Si O2"
_cell_formula_units_Z 48
_cell_length_a 9.045452
_cell_length_b 15.518523
_cell_length_c 18.558775
_cell_angle_alpha 90.000000
_cell_angle_beta 90.000000
_cell_angle_gamma 90.000000
_cell_volume 2605.133383
_symmetry_space_group_name_H-M "A B M 2"
_symmetry_group_IT_number 39
_symmetry_cell_setting 'orthorhombic'
loop_
_space_group_symop_operation_xyz
x,y,z
-x,-y,z
-x,1/2+y,z
x,1/2-y,z
x,1/2+y,1/2+z
-x,1/2-y,1/2+z
-x,y,1/2+z
x,-y,1/2+z
loop_
_atom_site_type_symbol
_atom_site_label
_atom_site_fract_x
_atom_site_fract_y
_atom_site_fract_z
Si Si1 0.329277 0.507602 0.726150
Si Si2 0.104652 0.917403 0.129504
Si Si3 0.166201 0.650838 0.978593
Si Si4 0.328872 0.997257 0.895083
Si Si5 0.821774 0.151792 0.475726
Si Si6 0.188035 0.344884 0.140940
O O1 0.500000 0.500000 0.705468
O O2 0.230371 0.433789 0.688846
O O3 0.301192 0.502571 0.810383
O O4 0.279084 0.599279 0.696666
O O5 0.988741 0.845753 0.157760
O O6 0.190530 0.884869 0.059040
O O7 0.000000 0.000000 0.113007
O O8 0.222030 0.750000 0.972764
O O9 0.258851 0.590396 0.925443
O O10 0.994704 0.644958 0.958274
O O11 0.500000 0.000000 0.915350
O O12 0.259867 0.084923 0.924893
O O13 0.767610 0.250000 0.461105
O O14 0.788536 0.125040 0.558241
O O15 0.249672 0.250000 0.152321
#
# Coordination Sequence:
#
# PCOD8181487 Si02
#       6
#     8   8   8   8   8   8
#     4  10  22  37  51  74 109 147 178 210 260 313
#     4   9  17  33  57  81 105 135 173 218 265 314
#     4  10  20  35  58  84 107 134 174 223 269 316
#     4  11  23  37  52  75 113 149 177 215 260 313
#     4   9  19  37  60  83 105 134 176 224 269 312
#     4   9  18  35  58  81 104 131 172 224 268 310
#
# _framework density 18.425160000000002
#
# number of rings (size 3 to 8) (size 9 to 14) (size 15 to 20)
#    0.000    2.333    0.000    5.000    0.000    8.000 
#    0.000    9.167    0.000    0.000    0.000    0.000 
#    0.000    0.000    0.000    0.000    0.000    0.000 
#
# Total GULP energy -297516.918317 kJ/mol
# GULP energy per Si atom -12396.538263 kJ/mol
# Density = 1.838322 g / cm^3
# Si number density = 18.425160 Si / 1000 Ang^3
#
#
#
# Elastic Constant Matrix: (Units=GPa)
#
#
# Indices 1 2 3 4 5 6 
#
# 1 96.5279 51.2093 72.8479 0.0000 0.0000 0.0000
# 2 51.2093 112.0101 63.4022 0.0000 0.0000 0.0000
# 3 72.8479 63.4022 98.4735 0.0000 0.0000 0.0000
# 4 0.0000 0.0000 0.0000 14.8511 0.0000 0.0000
# 5 0.0000 0.0000 0.0000 0.0000 35.3580 0.0000
# 6 0.0000 0.0000 0.0000 0.0000 0.0000 15.4454
#
#
#
# Elastic Compliance Matrix: (Units=1/GPa)
#
#
# Indices 1 2 3 4 5 6 
#
# 1 0.023598 -0.001427 -0.016538 0.000000 0.000000 0.000000
# 2 -0.001427 0.014134 -0.008044 0.000000 0.000000 0.000000
# 3 -0.016538 -0.008044 0.027568 0.000000 0.000000 0.000000
# 4 0.000000 0.000000 0.000000 0.067335 0.000000 0.000000
# 5 0.000000 0.000000 0.000000 0.000000 0.028282 0.000000
# 6 0.000000 0.000000 0.000000 0.000000 0.000000 0.064744
#
#
# Mechanical properties :
#
#
# Convention : Reuss Voigt Hill
#
# Bulk Modulus (GPa) = 75.29447 75.77003 75.53225
# Shear Modulus (GPa) = 17.72376 21.10103 19.41240
#
# Velocity S-wave (km/s) = 3.10487 3.38780 3.24941
# Velocity P-wave (km/s) = 7.33535 7.51766 7.42707
#
# Compressibility (1/GPa) = 0.01328119
#
# Stress axis : x y z
#
# Youngs Moduli (GPa) = 42.37660 70.75369 36.27333
#
# Poissons Ratio (x) = 0.10100 0.59989
# Poissons Ratio (y) = 0.06049 0.29178
# Poissons Ratio (z) = 0.70083 0.56914
#
# Static dielectric constant tensor:
#      x y z
#    x 3.378210 0.000000 0.000000 
#    y 0.000000 3.775180 0.000000 
#    z 0.000000 0.000000 3.282660 
# 
# 
# High freq. dielectric constant tensor:
#      x y z
#    x 1.707290 0.000000 0.000000 
#    y 0.000000 1.725360 0.000000 
#    z 0.000000 0.000000 1.707000 
# 
# From -- ./inp_files/11615.got.cif
#   From: 2010.03.12/outbox.cif.g09.slc.cpg/sg39_6_cif.got.tgz:11615.got - 2010.04.14 02:53:20.
