data_PCOD8181957
_publ_section_title
;
Structure prediction by ZEFSAII (Michael W. Deem and Ramdas Pophale) SiO2 
 PCOD8181957
Probable space group: A B M 2
;
_chemical_formula_sum "Si O2"
_cell_formula_units_Z 48
_cell_length_a 18.571446
_cell_length_b 8.606557
_cell_length_c 14.961667
_cell_angle_alpha 90.000000
_cell_angle_beta 90.000000
_cell_angle_gamma 90.000000
_cell_volume 2391.416127
_symmetry_space_group_name_H-M "A B M 2"
_symmetry_group_IT_number 39
_symmetry_cell_setting 'orthorhombic'
loop_
_space_group_symop_operation_xyz
x,y,z
-x,-y,z
-x,1/2+y,z
x,1/2-y,z
x,1/2+y,1/2+z
-x,1/2-y,1/2+z
-x,y,1/2+z
x,-y,1/2+z
loop_
_atom_site_type_symbol
_atom_site_label
_atom_site_fract_x
_atom_site_fract_y
_atom_site_fract_z
Si Si1 0.339663 0.432145 0.626750
Si Si2 0.837773 0.428075 0.795790
Si Si3 0.922543 0.430834 0.448569
Si Si4 0.811184 0.432663 0.595428
Si Si5 0.576227 0.567510 0.967522
Si Si6 0.672679 0.569218 0.317149
O O1 0.343595 0.250000 0.646115
O O2 0.262908 0.474728 0.583273
O O3 0.401706 0.481022 0.558368
O O4 0.353278 0.524630 0.718190
O O5 0.856777 0.250000 0.814891
O O6 0.894857 0.531139 0.849365
O O7 0.846485 0.467975 0.691520
O O8 0.757129 0.466911 0.827355
O O9 0.929700 0.250000 0.461204
O O10 0.865871 0.496516 0.520930
O O11 0.000000 0.500000 0.467882
O O12 0.793743 0.250000 0.585808
O O13 0.500000 0.500000 0.936024
O O14 0.571672 0.750000 0.985125
O O15 0.632877 0.535541 0.889224
O O16 0.655738 0.750000 0.333816
#
# Coordination Sequence:
#
# PCOD8181957 Si02
#       6
#     8   8   8   8   8   8
#     4  11  22  38  62  91 119 153 194 238 288 344
#     4   9  19  37  60  84 112 144 184 232 282 335
#     4  11  23  37  55  80 113 150 189 232 285 342
#     4   9  20  39  60  83 112 149 190 237 286 337
#     4  12  25  41  60  86 120 157 196 240 290 346
#     4  10  21  40  64  90 118 151 192 241 291 344
#
# _framework density 20.071788999999999
#
# number of rings (size 3 to 8) (size 9 to 14) (size 15 to 20)
#    0.000    1.667    0.000    6.000    0.000    8.667 
#    0.000    5.000    0.000    0.000    0.000    0.000 
#    0.000    0.000    0.000    0.000    0.000    0.000 
#
# Total GULP energy -297743.647821 kJ/mol
# GULP energy per Si atom -12405.985326 kJ/mol
# Density = 2.002610 g / cm^3
# Si number density = 20.071789 Si / 1000 Ang^3
#
#
#
# Elastic Constant Matrix: (Units=GPa)
#
#
# Indices 1 2 3 4 5 6 
#
# 1 56.2790 27.5094 25.3170 0.0000 0.0000 0.0000
# 2 27.5094 69.0421 10.7771 0.0000 0.0000 0.0000
# 3 25.3170 10.7771 69.9826 0.0000 0.0000 0.0000
# 4 0.0000 0.0000 0.0000 33.4878 0.0000 0.0000
# 5 0.0000 0.0000 0.0000 0.0000 13.3584 0.0000
# 6 0.0000 0.0000 0.0000 0.0000 0.0000 31.6257
#
#
#
# Elastic Compliance Matrix: (Units=1/GPa)
#
#
# Indices 1 2 3 4 5 6 
#
# 1 0.025742 -0.009020 -0.007923 0.000000 0.000000 0.000000
# 2 -0.009020 0.018001 0.000491 0.000000 0.000000 0.000000
# 3 -0.007923 0.000491 0.017080 0.000000 0.000000 0.000000
# 4 0.000000 0.000000 0.000000 0.029862 0.000000 0.000000
# 5 0.000000 0.000000 0.000000 0.000000 0.074859 0.000000
# 6 0.000000 0.000000 0.000000 0.000000 0.000000 0.031620
#
#
# Mechanical properties :
#
#
# Convention : Reuss Voigt Hill
#
# Bulk Modulus (GPa) = 35.81868 35.83455 35.82662
# Shear Modulus (GPa) = 20.88773 24.47438 22.68105
#
# Velocity S-wave (km/s) = 3.22941 3.49570 3.36519
# Velocity P-wave (km/s) = 5.63822 5.84681 5.74346
#
# Compressibility (1/GPa) = 0.02791839
#
# Stress axis : x y z
#
# Youngs Moduli (GPa) = 38.84717 55.55181 58.54785
#
# Poissons Ratio (x) = 0.50107 0.46390
# Poissons Ratio (y) = 0.35040 -0.02874
# Poissons Ratio (z) = 0.30780 -0.02727
#
# Static dielectric constant tensor:
#      x y z
#    x 3.668680 0.000000 0.000000 
#    y 0.000000 3.590640 0.000000 
#    z 0.000000 0.000000 3.722670 
# 
# 
# High freq. dielectric constant tensor:
#      x y z
#    x 1.777840 0.000000 0.000000 
#    y 0.000000 1.786760 0.000000 
#    z 0.000000 0.000000 1.793530 
# 
# From -- ./inp_files/10028.got.cif
#   From: 2010.03.12/outbox.cif.g09.slc.cpg/sg39_6_cif.got.tgz:10028.got - 2010.04.14 02:53:20.
