data_PCOD8181523
_publ_section_title
;
Structure prediction by ZEFSAII (Michael W. Deem and Ramdas Pophale) SiO2 
 PCOD8181523
Probable space group: A B M 2
;
_chemical_formula_sum "Si O2"
_cell_formula_units_Z 56
_cell_length_a 23.086012
_cell_length_b 8.804665
_cell_length_c 15.018871
_cell_angle_alpha 90.000000
_cell_angle_beta 90.000000
_cell_angle_gamma 90.000000
_cell_volume 3052.804834
_symmetry_space_group_name_H-M "A B M 2"
_symmetry_group_IT_number 39
_symmetry_cell_setting 'orthorhombic'
loop_
_space_group_symop_operation_xyz
x,y,z
-x,-y,z
-x,1/2+y,z
x,1/2-y,z
x,1/2+y,1/2+z
-x,1/2-y,1/2+z
-x,y,1/2+z
x,-y,1/2+z
loop_
_atom_site_type_symbol
_atom_site_label
_atom_site_fract_x
_atom_site_fract_y
_atom_site_fract_z
Si Si1 0.143113 0.429683 0.293310
Si Si2 0.645453 0.578837 0.176669
Si Si3 0.628110 0.421682 0.869973
Si Si4 0.268354 0.570985 0.291409
Si Si5 0.059332 0.072365 0.448698
Si Si6 0.438694 0.430015 0.023175
Si Si7 0.060725 0.070245 0.651064
O O1 0.143432 0.250000 0.280777
O O2 0.207481 0.490453 0.300938
O O3 0.110799 0.479816 0.383833
O O4 0.112820 0.504522 0.208565
O O5 0.666355 0.750000 0.154548
O O6 0.606246 0.580197 0.267037
O O7 0.702247 0.474768 0.195961
O O8 0.607950 0.512170 0.095803
O O9 0.635246 0.250000 0.906519
O O10 0.690537 0.508036 0.871600
O O11 0.581071 0.512129 0.926891
O O12 0.261043 0.750000 0.298702
O O13 0.049978 0.250000 0.444578
O O14 0.073499 0.020416 0.549315
O O15 0.000000 0.000000 0.413678
O O16 0.500000 0.500000 0.048893
O O17 0.444191 0.250000 0.023032
O O18 0.057684 0.250000 0.662418
O O19 0.000000 0.000000 0.683792
#
# Coordination Sequence:
#
# PCOD8181523 Si02
#       7
#     8   8   8   8   8   8   8
#     4  11  21  36  56  81 109 145 186 231 277 330
#     4   8  19  39  58  79 112 149 182 225 277 327
#     4   9  19  39  59  81 112 149 183 226 277 325
#     4  10  20  37  59  82 109 147 190 232 279 335
#     4   9  20  36  55  78 109 143 180 224 278 331
#     4  11  22  37  59  89 117 146 186 227 272 330
#     4  10  20  36  55  80 110 143 181 228 279 335
#
# _framework density 18.343786000000001
#
# number of rings (size 3 to 8) (size 9 to 14) (size 15 to 20)
#    0.857    1.429    0.000    3.000    0.000    4.571 
#    2.571    1.429    0.000    0.000    0.000    0.000 
#    0.000    0.000    0.000    0.000    0.000    0.000 
#
# Total GULP energy -347083.278868 kJ/mol
# GULP energy per Si atom -12395.831388 kJ/mol
# Density = 1.830203 g / cm^3
# Si number density = 18.343786 Si / 1000 Ang^3
#
#
#
# Elastic Constant Matrix: (Units=GPa)
#
#
# Indices 1 2 3 4 5 6 
#
# 1 89.8592 28.2490 26.9640 0.0000 0.0000 0.0000
# 2 28.2490 73.2430 26.4450 0.0000 0.0000 0.0000
# 3 26.9640 26.4450 61.9786 0.0000 0.0000 0.0000
# 4 0.0000 0.0000 0.0000 5.7739 0.0000 0.0000
# 5 0.0000 0.0000 0.0000 0.0000 1.7297 0.0000
# 6 0.0000 0.0000 0.0000 0.0000 0.0000 36.0795
#
#
#
# Elastic Compliance Matrix: (Units=1/GPa)
#
#
# Indices 1 2 3 4 5 6 
#
# 1 0.013586 -0.003672 -0.004344 0.000000 0.000000 0.000000
# 2 -0.003672 0.017132 -0.005712 0.000000 0.000000 0.000000
# 3 -0.004344 -0.005712 0.020462 0.000000 0.000000 0.000000
# 4 0.000000 0.000000 0.000000 0.173192 0.000000 0.000000
# 5 0.000000 0.000000 0.000000 0.000000 0.578121 0.000000
# 6 0.000000 0.000000 0.000000 0.000000 0.000000 0.027717
#
#
# Mechanical properties :
#
#
# Convention : Reuss Voigt Hill
#
# Bulk Modulus (GPa) = 42.15211 43.15521 42.65366
# Shear Modulus (GPa) = 5.77652 18.27815 12.02734
#
# Velocity S-wave (km/s) = 1.77648 3.16004 2.56337
# Velocity P-wave (km/s) = 5.21888 6.07382 5.66251
#
# Compressibility (1/GPa) = 0.02372361
#
# Stress axis : x y z
#
# Youngs Moduli (GPa) = 73.60355 58.37101 48.87125
#
# Poissons Ratio (x) = 0.21431 0.21231
# Poissons Ratio (y) = 0.27024 0.27917
# Poissons Ratio (z) = 0.31975 0.33344
#
# Static dielectric constant tensor:
#      x y z
#    x 3.298190 0.000000 0.000000 
#    y 0.000000 3.397510 0.000000 
#    z 0.000000 0.000000 3.418680 
# 
# 
# High freq. dielectric constant tensor:
#      x y z
#    x 1.700330 0.000000 0.000000 
#    y 0.000000 1.721450 0.000000 
#    z 0.000000 0.000000 1.704420 
# 
# From -- ./inp_files/10410.got.cif
#   From: 2010.03.12/outbox.cif.g09.slc.cpg/sg39_6_cif.got.tgz:10410.got - 2010.04.14 02:53:20.
