data_PCOD8181666
_publ_section_title
;
Structure prediction by ZEFSAII (Michael W. Deem and Ramdas Pophale) SiO2 
 PCOD8181666
Probable space group: A B M 2
;
_chemical_formula_sum "Si O2"
_cell_formula_units_Z 40
_cell_length_a 5.179679
_cell_length_b 25.688610
_cell_length_c 15.335236
_cell_angle_alpha 90.000000
_cell_angle_beta 90.000000
_cell_angle_gamma 90.000000
_cell_volume 2040.487391
_symmetry_space_group_name_H-M "A B M 2"
_symmetry_group_IT_number 39
_symmetry_cell_setting 'orthorhombic'
loop_
_space_group_symop_operation_xyz
x,y,z
-x,-y,z
-x,1/2+y,z
x,1/2-y,z
x,1/2+y,1/2+z
-x,1/2-y,1/2+z
-x,y,1/2+z
x,-y,1/2+z
loop_
_atom_site_type_symbol
_atom_site_label
_atom_site_fract_x
_atom_site_fract_y
_atom_site_fract_z
Si Si1 0.976676 0.058848 0.107750
Si Si2 0.055830 0.601916 0.286407
Si Si3 0.477593 0.121842 0.063905
Si Si4 0.643118 0.809873 0.718884
Si Si5 0.451413 0.368830 0.369092
O O1 0.997153 0.058472 0.213366
O O2 0.697528 0.079059 0.078797
O O3 0.201213 0.094085 0.066858
O O4 0.000000 0.000000 0.073906
O O5 0.092112 0.657241 0.233821
O O6 0.319964 0.590885 0.340315
O O7 0.822176 0.603200 0.354771
O O8 0.491274 0.167647 0.135107
O O9 0.515066 0.147940 0.969067
O O10 0.710946 0.750000 0.703543
O O11 0.467825 0.817911 0.806185
#
# Coordination Sequence:
#
# PCOD8181666 Si02
#       5
#     8   8   8   8   8
#     4  11  21  40  63  87 118 161 198 245 304 360
#     4   9  19  39  58  84 117 159 188 252 284 348
#     4  11  22  39  63  87 125 153 198 251 298 353
#     4   9  21  38  61  88 120 159 197 237 297 354
#     4  10  20  38  60  82 122 154 194 243 296 337
#
# _framework density 19.603158000000001
#
# number of rings (size 3 to 8) (size 9 to 14) (size 15 to 20)
#    1.200    0.800    2.000    1.800    0.000    1.600 
#    0.000    6.000    0.000    0.000    0.000    0.000 
#    0.000    0.000    0.000    0.000    0.000    0.000 
#
# Total GULP energy -247827.203226 kJ/mol
# GULP energy per Si atom -12391.360161 kJ/mol
# Density = 1.955854 g / cm^3
# Si number density = 19.603158 Si / 1000 Ang^3
#
#
#
# Elastic Constant Matrix: (Units=GPa)
#
#
# Indices 1 2 3 4 5 6 
#
# 1 100.0929 0.2076 9.9722 0.0000 0.0000 0.0000
# 2 0.2076 69.6124 21.1820 0.0000 0.0000 0.0000
# 3 9.9722 21.1820 142.7655 0.0000 0.0000 0.0000
# 4 0.0000 0.0000 0.0000 8.1362 0.0000 0.0000
# 5 0.0000 0.0000 0.0000 0.0000 31.9962 0.0000
# 6 0.0000 0.0000 0.0000 0.0000 0.0000 17.1207
#
#
#
# Elastic Compliance Matrix: (Units=1/GPa)
#
#
# Indices 1 2 3 4 5 6 
#
# 1 0.010063 0.000193 -0.000731 0.000000 0.000000 0.000000
# 2 0.000193 0.015048 -0.002246 0.000000 0.000000 0.000000
# 3 -0.000731 -0.002246 0.007389 0.000000 0.000000 0.000000
# 4 0.000000 0.000000 0.000000 0.122908 0.000000 0.000000
# 5 0.000000 0.000000 0.000000 0.000000 0.031254 0.000000
# 6 0.000000 0.000000 0.000000 0.000000 0.000000 0.058409
#
#
# Mechanical properties :
#
#
# Convention : Reuss Voigt Hill
#
# Bulk Modulus (GPa) = 37.13320 41.68828 39.41074
# Shear Modulus (GPa) = 19.25914 30.19122 24.72518
#
# Velocity S-wave (km/s) = 3.13781 3.92869 3.55531
# Velocity P-wave (km/s) = 5.66669 6.47239 6.08289
#
# Compressibility (1/GPa) = 0.02693008
#
# Stress axis : x y z
#
# Youngs Moduli (GPa) = 99.37196 66.45340 135.33917
#
# Poissons Ratio (x) = -0.01280 0.09900
# Poissons Ratio (y) = -0.01914 0.30399
# Poissons Ratio (z) = 0.07269 0.14926
#
# Static dielectric constant tensor:
#      x y z
#    x 3.543110 0.000000 0.000000 
#    y 0.000000 3.036610 0.000000 
#    z 0.000000 0.000000 3.595510 
# 
# 
# High freq. dielectric constant tensor:
#      x y z
#    x 1.773440 0.000000 0.000000 
#    y 0.000000 1.714580 0.000000 
#    z 0.000000 0.000000 1.769220 
# 
# From -- ./inp_files/7399.got.cif
#   From: 2010.03.12/outbox.cif.g09.slc.cpg/sg39_4_cif.got.tgz:7399.got - 2010.04.14 02:53:20.
