data_PCOD8181436
_publ_section_title
;
Structure prediction by ZEFSAII (Michael W. Deem and Ramdas Pophale) SiO2 
 PCOD8181436
Probable space group: A B M 2
;
_chemical_formula_sum "Si O2"
_cell_formula_units_Z 64
_cell_length_a 20.591909
_cell_length_b 8.989581
_cell_length_c 18.205283
_cell_angle_alpha 90.000000
_cell_angle_beta 90.000000
_cell_angle_gamma 90.000000
_cell_volume 3370.027887
_symmetry_space_group_name_H-M "A B M 2"
_symmetry_group_IT_number 39
_symmetry_cell_setting 'orthorhombic'
loop_
_space_group_symop_operation_xyz
x,y,z
-x,-y,z
-x,1/2+y,z
x,1/2-y,z
x,1/2+y,1/2+z
-x,1/2-y,1/2+z
-x,y,1/2+z
x,-y,1/2+z
loop_
_atom_site_type_symbol
_atom_site_label
_atom_site_fract_x
_atom_site_fract_y
_atom_site_fract_z
Si Si1 0.813306 0.574254 0.876810
Si Si2 0.694017 0.421764 0.952200
Si Si3 0.316470 0.422107 0.624584
Si Si4 0.190437 0.074221 0.708582
Si Si5 0.934175 0.924203 0.624073
Si Si6 0.566122 0.924944 0.201125
Si Si7 0.434324 0.923936 0.868952
Si Si8 0.933488 0.075194 0.954377
O O1 0.822846 0.750000 0.884732
O O2 0.749645 0.525125 0.919895
O O3 0.805426 0.524291 0.792628
O O4 0.875643 0.491677 0.907593
O O5 0.707586 0.250000 0.931022
O O6 0.625538 0.476312 0.919096
O O7 0.693721 0.444004 0.038706
O O8 0.328849 0.250000 0.644677
O O9 0.253351 0.486945 0.665995
O O10 0.377177 0.518282 0.649284
O O11 0.188695 0.250000 0.699558
O O12 0.125281 0.008996 0.671311
O O13 0.942471 0.750000 0.636457
O O14 0.920297 0.962406 0.539337
O O15 0.000000 0.000000 0.652151
O O16 0.558948 0.750000 0.192344
O O17 0.580780 0.971404 0.285213
O O18 0.500000 0.000000 0.173625
O O19 0.445770 0.750000 0.875782
O O20 0.500000 0.000000 0.898097
O O21 0.938067 0.250000 0.940312
O O22 0.000000 0.000000 0.927480
#
# Coordination Sequence:
#
# PCOD8181436 Si02
#       8
#     8   8   8   8   8   8   8   8
#     4  11  22  35  54  80 109 141 179 221 263 314
#     4  10  21  37  56  79 108 141 177 219 267 317
#     4  10  20  36  57  78 104 140 179 221 269 317
#     4   9  19  35  54  77 106 140 177 217 264 315
#     4   9  18  35  57  79 105 138 175 214 258 310
#     4  10  20  35  55  79 108 140 175 216 261 314
#     4   9  19  35  55  79 107 140 177 217 263 315
#     4  10  20  36  58  81 108 142 178 219 266 316
#
# _framework density 18.990940999999999
#
# number of rings (size 3 to 8) (size 9 to 14) (size 15 to 20)
#    0.000    2.250    0.000    2.625    0.000    5.000 
#    0.000    5.000    0.000    0.000    0.000    0.000 
#    0.000    0.000    0.000    0.000    0.000    0.000 
#
# Total GULP energy -396919.367620 kJ/mol
# GULP energy per Si atom -12403.730238 kJ/mol
# Density = 1.894772 g / cm^3
# Si number density = 18.990941 Si / 1000 Ang^3
#
#
#
# Elastic Constant Matrix: (Units=GPa)
#
#
# Indices 1 2 3 4 5 6 
#
# 1 168.9262 53.2974 71.9724 0.0000 0.0000 0.0000
# 2 53.2974 60.5145 39.5499 0.0000 0.0000 0.0000
# 3 71.9724 39.5499 93.0252 0.0000 0.0000 0.0000
# 4 0.0000 0.0000 0.0000 17.7561 0.0000 0.0000
# 5 0.0000 0.0000 0.0000 0.0000 41.6289 0.0000
# 6 0.0000 0.0000 0.0000 0.0000 0.0000 38.7240
#
#
#
# Elastic Compliance Matrix: (Units=1/GPa)
#
#
# Indices 1 2 3 4 5 6 
#
# 1 0.009857 -0.005120 -0.005449 0.000000 0.000000 0.000000
# 2 -0.005120 0.025543 -0.006898 0.000000 0.000000 0.000000
# 3 -0.005449 -0.006898 0.017899 0.000000 0.000000 0.000000
# 4 0.000000 0.000000 0.000000 0.056319 0.000000 0.000000
# 5 0.000000 0.000000 0.000000 0.000000 0.024022 0.000000
# 6 0.000000 0.000000 0.000000 0.000000 0.000000 0.025824
#
#
# Mechanical properties :
#
#
# Convention : Reuss Voigt Hill
#
# Bulk Modulus (GPa) = 54.45709 72.45616 63.45662
# Shear Modulus (GPa) = 24.93530 30.13154 27.53342
#
# Velocity S-wave (km/s) = 3.62748 3.98757 3.81178
# Velocity P-wave (km/s) = 6.80311 7.70953 7.27046
#
# Compressibility (1/GPa) = 0.01836308
#
# Stress axis : x y z
#
# Youngs Moduli (GPa) = 101.45234 39.15012 55.86958
#
# Poissons Ratio (x) = 0.20044 0.30446
# Poissons Ratio (y) = 0.51941 0.38541
# Poissons Ratio (z) = 0.55286 0.27007
#
# Static dielectric constant tensor:
#      x y z
#    x 3.455870 0.000000 0.000000 
#    y 0.000000 3.146390 0.000000 
#    z 0.000000 0.000000 3.516820 
# 
# 
# High freq. dielectric constant tensor:
#      x y z
#    x 1.754600 0.000000 0.000000 
#    y 0.000000 1.725440 0.000000 
#    z 0.000000 0.000000 1.738510 
# 
# From -- ./inp_files/13148.got.cif
#   From: 2010.03.12/outbox.cif.g09.slc.cpg/sg39_7_cif.got.tgz:13148.got - 2010.04.14 02:53:20.
