data_PCOD8181768
_publ_section_title
;
Structure prediction by ZEFSAII (Michael W. Deem and Ramdas Pophale) SiO2 
 PCOD8181768
Probable space group: A B M 2
;
_chemical_formula_sum "Si O2"
_cell_formula_units_Z 48
_cell_length_a 28.936198
_cell_length_b 13.758466
_cell_length_c 5.262672
_cell_angle_alpha 90.000000
_cell_angle_beta 90.000000
_cell_angle_gamma 90.000000
_cell_volume 2095.162853
_symmetry_space_group_name_H-M "A B M 2"
_symmetry_group_IT_number 39
_symmetry_cell_setting 'orthorhombic'
loop_
_space_group_symop_operation_xyz
x,y,z
-x,-y,z
-x,1/2+y,z
x,1/2-y,z
x,1/2+y,1/2+z
-x,1/2-y,1/2+z
-x,y,1/2+z
x,-y,1/2+z
loop_
_atom_site_type_symbol
_atom_site_label
_atom_site_fract_x
_atom_site_fract_y
_atom_site_fract_z
Si Si1 0.151367 0.901111 0.371410
Si Si2 0.746493 0.363934 0.375345
Si Si3 0.689698 0.863673 0.373780
Si Si4 0.529524 0.250000 0.862109
Si Si5 0.029923 0.250000 0.397302
Si Si6 0.887219 0.614601 0.371407
Si Si7 0.411504 0.058448 0.368318
O O1 0.205882 0.924553 0.373013
O O2 0.137658 0.840698 0.622122
O O3 0.119794 0.998498 0.370141
O O4 0.138223 0.840866 0.119417
O O5 0.758720 0.250000 0.379210
O O6 0.718101 0.394733 0.624387
O O7 0.717800 0.392078 0.125710
O O8 0.677915 0.750000 0.367358
O O9 0.642953 0.923848 0.376405
O O10 0.509614 0.250000 0.577610
O O11 0.561340 0.342600 0.902355
O O12 0.060002 0.348917 0.372909
O O13 0.007276 0.250000 0.674218
O O14 0.425944 0.989407 0.601613
#
# Coordination Sequence:
#
# PCOD8181768 Si02
#       7
#     8   8   8   4   4   8   8
#     4  10  21  42  59  95 127 171 204 264 322 387
#     4  10  21  35  66  97 132 178 238 271 320 399
#     4  10  21  43  63  96 140 189 230 289 338 405
#     4  12  28  50  80 109 144 191 248 326 392 456
#     4  12  26  46  70  97 118 157 216 274 330 420
#     4  10  23  41  65  88 130 163 201 265 341 375
#     4  12  26  47  74 107 150 199 243 308 383 442
#
# _framework density 22.909914000000001
#
# number of rings (size 3 to 8) (size 9 to 14) (size 15 to 20)
#    0.000    1.333    0.833    4.000    2.333    2.000 
#   18.000   10.000    0.000    0.000    0.000    0.000 
#    0.000    0.000    0.000    0.000    0.000    0.000 
#
# Total GULP energy -297549.756560 kJ/mol
# GULP energy per Si atom -12397.906523 kJ/mol
# Density = 2.285777 g / cm^3
# Si number density = 22.909914 Si / 1000 Ang^3
#
#
#
# Elastic Constant Matrix: (Units=GPa)
#
#
# Indices 1 2 3 4 5 6 
#
# 1 111.7970 39.7256 39.5941 0.0000 0.0000 0.0000
# 2 39.7256 97.8457 4.6270 0.0000 0.0000 0.0000
# 3 39.5941 4.6270 211.5555 0.0000 0.0000 0.0000
# 4 0.0000 0.0000 0.0000 -15.7940 0.0000 0.0000
# 5 0.0000 0.0000 0.0000 0.0000 38.1044 0.0000
# 6 0.0000 0.0000 0.0000 0.0000 0.0000-1496.3788
#
#
#
# Elastic Compliance Matrix: (Units=1/GPa)
#
#
# Indices 1 2 3 4 5 6 
#
# 1 0.011244 -0.004470 -0.002007 0.000000 0.000000 0.000000
# 2 -0.004470 0.012008 0.000574 0.000000 0.000000 0.000000
# 3 -0.002007 0.000574 0.005090 0.000000 0.000000 0.000000
# 4 0.000000 0.000000 0.000000 -0.063315 0.000000 0.000000
# 5 0.000000 0.000000 0.000000 0.000000 0.026244 0.000000
# 6 0.000000 0.000000 0.000000 0.000000 0.000000 -0.000668
#
#
# Mechanical properties :
#
#
# Convention : Reuss Voigt Hill
#
# Bulk Modulus (GPa) = 60.47354 65.45461 62.96408
# Shear Modulus (GPa) = 631.36714 -272.33025 179.51845
#
# Velocity S-wave (km/s) = 16.61882 -10.91458 8.86163
# Velocity P-wave (km/s) = 19.86707 11.41074 11.49990
#
# Compressibility (1/GPa) = 0.01653616
#
# Stress axis : x y z
#
# Youngs Moduli (GPa) = 88.93751 83.27844 196.46797
#
# Poissons Ratio (x) = 0.37227 0.39423
# Poissons Ratio (y) = 0.39756 -0.11277
# Poissons Ratio (z) = 0.17846 -0.04780
#
# Static dielectric constant tensor:
#      x y z
#    x 3.959750 0.000000 0.000000 
#    y 0.000000 3.986470 0.000000 
#    z 0.000000 0.000000 5.542770 
# 
# 
# High freq. dielectric constant tensor:
#      x y z
#    x 1.894970 0.000000 0.000000 
#    y 0.000000 1.908280 0.000000 
#    z 0.000000 0.000000 1.938920 
# 
# From -- ./inp_files/1408.got.cif
#   From: 2010.03.12/outbox.cif.g09.slc.cpg/sg39_1_cif.got.tgz:1408.got - 2010.04.14 02:53:20.
