data_PCOD8181535
_publ_section_title
;
Structure prediction by ZEFSAII (Michael W. Deem and Ramdas Pophale) SiO2 
 PCOD8181535
Probable space group: A B M 2
;
_chemical_formula_sum "Si O2"
_cell_formula_units_Z 40
_cell_length_a 9.215027
_cell_length_b 8.977265
_cell_length_c 25.178903
_cell_angle_alpha 90.000000
_cell_angle_beta 90.000000
_cell_angle_gamma 90.000000
_cell_volume 2082.943367
_symmetry_space_group_name_H-M "A B M 2"
_symmetry_group_IT_number 39
_symmetry_cell_setting 'orthorhombic'
loop_
_space_group_symop_operation_xyz
x,y,z
-x,-y,z
-x,1/2+y,z
x,1/2-y,z
x,1/2+y,1/2+z
-x,1/2-y,1/2+z
-x,y,1/2+z
x,-y,1/2+z
loop_
_atom_site_type_symbol
_atom_site_label
_atom_site_fract_x
_atom_site_fract_y
_atom_site_fract_z
Si Si1 0.154147 0.423909 0.275160
Si Si2 0.653983 0.425621 0.873041
Si Si3 0.853078 0.423152 0.967367
Si Si4 0.653246 0.574048 0.173833
Si Si5 0.848541 0.073833 0.088968
O O1 0.126923 0.250000 0.280211
O O2 0.241702 0.483470 0.326154
O O3 0.242896 0.464599 0.222640
O O4 0.000000 0.500000 0.271775
O O5 0.500000 0.500000 0.866060
O O6 0.632090 0.250000 0.869248
O O7 0.722012 0.474970 0.929487
O O8 0.881954 0.250000 0.960771
O O9 0.000000 0.500000 0.948148
O O10 0.814320 0.464763 0.027757
O O11 0.500000 0.500000 0.186368
O O12 0.634847 0.750000 0.165113
O O13 0.718170 0.499581 0.121185
O O14 0.857077 0.250000 0.099515
O O15 0.000000 0.000000 0.106758
#
# Coordination Sequence:
#
# PCOD8181535 Si02
#       5
#     8   8   8   8   8
#     4  10  22  38  58  82 108 139 179 222 268 321
#     4  10  21  37  55  80 111 142 177 220 268 320
#     4   9  19  35  56  81 109 141 181 223 266 316
#     4  11  23  38  56  81 111 145 182 224 273 325
#     4  10  20  36  57  82 111 145 184 227 270 320
#
# _framework density 19.203596000000001
#
# number of rings (size 3 to 8) (size 9 to 14) (size 15 to 20)
#    0.000    2.000    0.000    3.000    0.000    6.400 
#    0.000    2.000    0.000    0.000    0.000    0.000 
#    0.000    0.000    0.000    0.000    0.000    0.000 
#
# Total GULP energy -248083.753667 kJ/mol
# GULP energy per Si atom -12404.187683 kJ/mol
# Density = 1.915989 g / cm^3
# Si number density = 19.203596 Si / 1000 Ang^3
#
#
#
# Elastic Constant Matrix: (Units=GPa)
#
#
# Indices 1 2 3 4 5 6 
#
# 1 174.7217 67.3786 79.3947 0.0000 0.0000 0.0000
# 2 67.3786 68.2922 50.9229 0.0000 0.0000 0.0000
# 3 79.3947 50.9229 114.8747 0.0000 0.0000 0.0000
# 4 0.0000 0.0000 0.0000 25.7211 0.0000 0.0000
# 5 0.0000 0.0000 0.0000 0.0000 23.2812 0.0000
# 6 0.0000 0.0000 0.0000 0.0000 0.0000 41.8616
#
#
#
# Elastic Compliance Matrix: (Units=1/GPa)
#
#
# Indices 1 2 3 4 5 6 
#
# 1 0.010289 -0.007243 -0.003900 0.000000 0.000000 0.000000
# 2 -0.007243 0.026972 -0.006950 0.000000 0.000000 0.000000
# 3 -0.003900 -0.006950 0.014482 0.000000 0.000000 0.000000
# 4 0.000000 0.000000 0.000000 0.038879 0.000000 0.000000
# 5 0.000000 0.000000 0.000000 0.000000 0.042953 0.000000
# 6 0.000000 0.000000 0.000000 0.000000 0.000000 0.023888
#
#
# Mechanical properties :
#
#
# Convention : Reuss Voigt Hill
#
# Bulk Modulus (GPa) = 64.28775 83.69788 73.99281
# Shear Modulus (GPa) = 25.14657 28.85230 26.99944
#
# Velocity S-wave (km/s) = 3.62259 3.88034 3.75368
# Velocity P-wave (km/s) = 7.14473 7.98468 7.57635
#
# Compressibility (1/GPa) = 0.01555506
#
# Stress axis : x y z
#
# Youngs Moduli (GPa) = 97.19304 37.07613 69.05183
#
# Poissons Ratio (x) = 0.26854 0.26933
# Poissons Ratio (y) = 0.70395 0.47994
# Poissons Ratio (z) = 0.37909 0.25769
#
# Static dielectric constant tensor:
#      x y z
#    x 3.482770 0.000000 0.000000 
#    y 0.000000 3.485060 0.000000 
#    z 0.000000 0.000000 3.779940 
# 
# 
# High freq. dielectric constant tensor:
#      x y z
#    x 1.751330 0.000000 0.000000 
#    y 0.000000 1.746610 0.000000 
#    z 0.000000 0.000000 1.762380 
# 
# From -- ./inp_files/15448.got.cif
#   From: 2010.03.12/outbox.cif.g09.slc.cpg/sg39_8_cif.got.tgz:15448.got - 2010.04.14 02:53:20.
