data_PCOD8181570
_publ_section_title
;
Structure prediction by ZEFSAII (Michael W. Deem and Ramdas Pophale) SiO2 
 PCOD8181570
Probable space group: A B M 2
;
_chemical_formula_sum "Si O2"
_cell_formula_units_Z 64
_cell_length_a 10.212268
_cell_length_b 13.899309
_cell_length_c 22.692567
_cell_angle_alpha 90.000000
_cell_angle_beta 90.000000
_cell_angle_gamma 90.000000
_cell_volume 3221.061670
_symmetry_space_group_name_H-M "A B M 2"
_symmetry_group_IT_number 39
_symmetry_cell_setting 'orthorhombic'
loop_
_space_group_symop_operation_xyz
x,y,z
-x,-y,z
-x,1/2+y,z
x,1/2-y,z
x,1/2+y,1/2+z
-x,1/2-y,1/2+z
-x,y,1/2+z
x,-y,1/2+z
loop_
_atom_site_type_symbol
_atom_site_label
_atom_site_fract_x
_atom_site_fract_y
_atom_site_fract_z
Si Si1 0.302607 0.056631 0.875000
Si Si2 0.088304 0.858597 0.025611
Si Si3 0.807214 0.445391 0.500303
Si Si4 0.031190 0.857204 0.155748
Si Si5 0.577995 0.357132 0.847433
Si Si6 0.244159 0.361142 0.116734
Si Si7 0.385137 0.576649 0.724721
Si Si8 0.140440 0.959325 0.266219
O O1 0.434516 0.115792 0.868829
O O2 0.199999 0.091828 0.824669
O O3 0.323211 0.940475 0.869942
O O4 0.251333 0.087755 0.938694
O O5 0.118094 0.750000 0.002484
O O6 0.114532 0.863731 0.095788
O O7 0.940445 0.887246 0.010673
O O8 0.180822 0.938409 0.996133
O O9 0.716744 0.416609 0.556333
O O10 0.992240 0.750000 0.172363
O O11 0.117305 0.892010 0.210125
O O12 0.889835 0.909590 0.144718
O O13 0.617452 0.250000 0.870764
O O14 0.572276 0.350949 0.776248
O O15 0.218660 0.250000 0.100834
O O16 0.363991 0.370223 0.162477
O O17 0.500000 0.500000 0.716604
O O18 0.245897 0.536319 0.745437
O O19 0.000000 0.000000 0.286016
#
# Coordination Sequence:
#
# PCOD8181570 Si02
#       8
#     8   8   8   8   8   8   8   8
#     4  10  23  40  58  89 114 158 208 244 294 368
#     4   9  19  34  55  86 120 158 199 244 311 368
#     4  10  20  36  60  80 121 164 200 251 295 352
#     4   9  18  33  54  87 119 147 190 242 303 362
#     4  10  21  42  64  81 113 158 199 251 310 366
#     4  10  20  36  61  91 118 156 204 246 304 373
#     4  11  20  39  59  90 121 154 199 244 307 366
#     4  11  20  34  60  84 120 154 194 240 301 352
#
# _framework density 19.869225
#
# number of rings (size 3 to 8) (size 9 to 14) (size 15 to 20)
#    0.000    2.000    3.750    2.250    3.500    2.000 
#    2.250    0.000    0.000    0.750    0.000    0.000 
#    0.000    0.000    0.000    0.000    0.000    0.000 
#
# Total GULP energy -396478.633547 kJ/mol
# GULP energy per Si atom -12389.957298 kJ/mol
# Density = 1.982400 g / cm^3
# Si number density = 19.869225 Si / 1000 Ang^3
#
#
#
# Elastic Constant Matrix: (Units=GPa)
#
#
# Indices 1 2 3 4 5 6 
#
# 1 63.9906 14.8778 40.8281 0.0000 0.0000 0.0000
# 2 14.8778 79.6128 27.0118 0.0000 0.0000 0.0000
# 3 40.8281 27.0118 154.2877 0.0000 0.0000 0.0000
# 4 0.0000 0.0000 0.0000 63.0289 0.0000 0.0000
# 5 0.0000 0.0000 0.0000 0.0000 42.4354 0.0000
# 6 0.0000 0.0000 0.0000 0.0000 0.0000 13.8546
#
#
#
# Elastic Compliance Matrix: (Units=1/GPa)
#
#
# Indices 1 2 3 4 5 6 
#
# 1 0.019088 -0.001970 -0.004706 0.000000 0.000000 0.000000
# 2 -0.001970 0.013557 -0.001852 0.000000 0.000000 0.000000
# 3 -0.004706 -0.001852 0.008051 0.000000 0.000000 0.000000
# 4 0.000000 0.000000 0.000000 0.015866 0.000000 0.000000
# 5 0.000000 0.000000 0.000000 0.000000 0.023565 0.000000
# 6 0.000000 0.000000 0.000000 0.000000 0.000000 0.072178
#
#
# Mechanical properties :
#
#
# Convention : Reuss Voigt Hill
#
# Bulk Modulus (GPa) = 42.30272 51.48072 46.89172
# Shear Modulus (GPa) = 28.20992 38.20869 33.20931
#
# Velocity S-wave (km/s) = 3.77208 4.38997 4.09270
# Velocity P-wave (km/s) = 6.34888 7.18761 6.78123
#
# Compressibility (1/GPa) = 0.02363914
#
# Stress axis : x y z
#
# Youngs Moduli (GPa) = 52.38867 73.76034 124.20767
#
# Poissons Ratio (x) = 0.14533 0.58455
# Poissons Ratio (y) = 0.10322 0.23005
# Poissons Ratio (z) = 0.24655 0.13662
#
# Static dielectric constant tensor:
#      x y z
#    x 3.400570 0.000000 0.000000 
#    y 0.000000 3.489230 0.000000 
#    z 0.000000 0.000000 3.805660 
# 
# 
# High freq. dielectric constant tensor:
#      x y z
#    x 1.747120 0.000000 0.000000 
#    y 0.000000 1.766130 0.000000 
#    z 0.000000 0.000000 1.779620 
# 
# From -- ./inp_files/15729.got.cif
#   From: 2010.03.12/outbox.cif.g09.slc.cpg/sg39_8_cif.got.tgz:15729.got - 2010.04.14 02:53:20.
