data_PCOD8181426
_publ_section_title
;
Structure prediction by ZEFSAII (Michael W. Deem and Ramdas Pophale) SiO2 
 PCOD8181426
Probable space group: A B M 2
;
_chemical_formula_sum "Si O2"
_cell_formula_units_Z 56
_cell_length_a 19.700461
_cell_length_b 8.847920
_cell_length_c 15.665319
_cell_angle_alpha 90.000000
_cell_angle_beta 90.000000
_cell_angle_gamma 90.000000
_cell_volume 2730.592036
_symmetry_space_group_name_H-M "A B M 2"
_symmetry_group_IT_number 39
_symmetry_cell_setting 'orthorhombic'
loop_
_space_group_symop_operation_xyz
x,y,z
-x,-y,z
-x,1/2+y,z
x,1/2-y,z
x,1/2+y,1/2+z
-x,1/2-y,1/2+z
-x,y,1/2+z
x,-y,1/2+z
loop_
_atom_site_type_symbol
_atom_site_label
_atom_site_fract_x
_atom_site_fract_y
_atom_site_fract_z
Si Si1 0.566905 0.079740 0.784440
Si Si2 0.706357 0.922043 0.031254
Si Si3 0.160744 0.927071 0.983853
Si Si4 0.707797 0.421874 0.728070
Si Si5 0.927265 0.570835 0.131292
Si Si6 0.846161 0.572008 0.293522
Si Si7 0.431927 0.421931 0.486768
O O1 0.562928 0.250000 0.750382
O O2 0.635559 0.998034 0.749052
O O3 0.568705 0.070514 0.885520
O O4 0.500000 0.000000 0.747236
O O5 0.708518 0.750000 0.997326
O O6 0.760415 0.023992 0.980379
O O7 0.631436 0.986445 0.022093
O O8 0.727201 0.929262 0.129554
O O9 0.155326 0.750000 0.004766
O O10 0.129377 0.963843 0.889848
O O11 0.121204 0.022469 0.054042
O O12 0.699362 0.250000 0.760410
O O13 0.771029 0.499307 0.777674
O O14 0.933602 0.750000 0.130190
O O15 0.898911 0.509839 0.222567
O O16 0.000000 0.500000 0.115000
O O17 0.839247 0.750000 0.278443
O O18 0.500000 0.500000 0.522807
O O19 0.428842 0.250000 0.519517
#
# Coordination Sequence:
#
# PCOD8181426 Si02
#       7
#     8   8   8   8   8   8   8
#     4   9  18  33  53  74 103 144 191 243 298 355
#     4  11  21  35  57  84 118 157 199 248 305 363
#     4  11  22  39  65  95 125 161 206 251 300 358
#     4   9  17  33  56  80 108 149 195 241 295 352
#     4  11  23  43  67  93 127 162 199 245 300 360
#     4   9  19  38  64  89 119 161 204 247 300 357
#     4  10  20  35  54  77 109 149 199 253 309 366
#
# _framework density 20.508372999999999
#
# number of rings (size 3 to 8) (size 9 to 14) (size 15 to 20)
#    0.000    2.000    1.429    2.571    0.000    4.000 
#    0.000    7.143    0.000    0.000    0.000    0.000 
#    0.000    0.000    0.000    0.000    0.000    0.000 
#
# Total GULP energy -347148.267221 kJ/mol
# GULP energy per Si atom -12398.152401 kJ/mol
# Density = 2.046169 g / cm^3
# Si number density = 20.508373 Si / 1000 Ang^3
#
#
#
# Elastic Constant Matrix: (Units=GPa)
#
#
# Indices 1 2 3 4 5 6 
#
# 1 124.9507 30.2140 36.7033 0.0000 0.0000 0.0000
# 2 30.2140 74.9653 29.0008 0.0000 0.0000 0.0000
# 3 36.7033 29.0008 81.9729 0.0000 0.0000 0.0000
# 4 0.0000 0.0000 0.0000 21.6058 0.0000 0.0000
# 5 0.0000 0.0000 0.0000 0.0000 27.2527 0.0000
# 6 0.0000 0.0000 0.0000 0.0000 0.0000 33.2893
#
#
#
# Elastic Compliance Matrix: (Units=1/GPa)
#
#
# Indices 1 2 3 4 5 6 
#
# 1 0.009622 -0.002562 -0.003402 0.000000 0.000000 0.000000
# 2 -0.002562 0.016137 -0.004562 0.000000 0.000000 0.000000
# 3 -0.003402 -0.004562 0.015336 0.000000 0.000000 0.000000
# 4 0.000000 0.000000 0.000000 0.046284 0.000000 0.000000
# 5 0.000000 0.000000 0.000000 0.000000 0.036694 0.000000
# 6 0.000000 0.000000 0.000000 0.000000 0.000000 0.030040
#
#
# Mechanical properties :
#
#
# Convention : Reuss Voigt Hill
#
# Bulk Modulus (GPa) = 49.89099 52.63610 51.26354
# Shear Modulus (GPa) = 27.49598 28.82761 28.16179
#
# Velocity S-wave (km/s) = 3.66556 3.75327 3.70967
# Velocity P-wave (km/s) = 6.50346 6.67114 6.58783
#
# Compressibility (1/GPa) = 0.02004370
#
# Stress axis : x y z
#
# Youngs Moduli (GPa) = 103.92932 61.96983 65.20506
#
# Poissons Ratio (x) = 0.15877 0.22182
# Poissons Ratio (y) = 0.26627 0.29746
# Poissons Ratio (z) = 0.35355 0.28270
#
# Static dielectric constant tensor:
#      x y z
#    x 3.906520 0.000000 0.000000 
#    y 0.000000 3.544630 0.000000 
#    z 0.000000 0.000000 3.694240 
# 
# 
# High freq. dielectric constant tensor:
#      x y z
#    x 1.812730 0.000000 0.000000 
#    y 0.000000 1.774490 0.000000 
#    z 0.000000 0.000000 1.801570 
# 
# From -- ./inp_files/10327.got.cif
#   From: 2010.03.12/outbox.cif.g09.slc.cpg/sg39_6_cif.got.tgz:10327.got - 2010.04.14 02:53:20.
