data_PCOD8181977
_publ_section_title
;
Structure prediction by ZEFSAII (Michael W. Deem and Ramdas Pophale) SiO2 
 PCOD8181977
Probable space group: A B M 2
;
_chemical_formula_sum "Si O2"
_cell_formula_units_Z 48
_cell_length_a 9.537325
_cell_length_b 16.509194
_cell_length_c 13.831028
_cell_angle_alpha 90.000000
_cell_angle_beta 90.000000
_cell_angle_gamma 90.000000
_cell_volume 2177.744440
_symmetry_space_group_name_H-M "A B M 2"
_symmetry_group_IT_number 39
_symmetry_cell_setting 'orthorhombic'
loop_
_space_group_symop_operation_xyz
x,y,z
-x,-y,z
-x,1/2+y,z
x,1/2-y,z
x,1/2+y,1/2+z
-x,1/2-y,1/2+z
-x,y,1/2+z
x,-y,1/2+z
loop_
_atom_site_type_symbol
_atom_site_label
_atom_site_fract_x
_atom_site_fract_y
_atom_site_fract_z
Si Si1 0.569283 0.587672 0.197840
Si Si2 0.681777 0.341057 0.099229
Si Si3 0.292412 0.343227 0.384658
Si Si4 0.939881 0.588497 0.695003
Si Si5 0.966890 0.154980 0.392620
Si Si6 0.817934 0.842597 0.087950
O O1 0.500000 0.500000 0.189733
O O2 0.449210 0.651985 0.171333
O O3 0.629954 0.602185 0.305013
O O4 0.692089 0.598043 0.118687
O O5 0.742881 0.250000 0.106270
O O6 0.803688 0.402955 0.128503
O O7 0.634111 0.358275 0.988527
O O8 0.305112 0.250000 0.351231
O O9 0.130392 0.368313 0.397971
O O10 0.895505 0.605718 0.805341
O O11 0.000000 0.500000 0.678920
O O12 0.060103 0.653480 0.668482
O O13 0.945041 0.250000 0.378134
O O14 0.884717 0.125951 0.487950
O O15 0.764222 0.750000 0.081865
#
# Coordination Sequence:
#
# PCOD8181977 Si02
#       6
#     8   8   8   8   8   8
#     4  12  26  44  67 103 146 182 226 282 359 421
#     4  11  24  43  67  99 137 182 232 284 343 420
#     4  10  21  42  71  97 130 184 238 287 341 409
#     4  12  24  40  64 103 141 177 227 290 356 412
#     4  10  21  40  71 102 130 177 239 290 340 409
#     4  11  22  43  73 100 131 184 240 287 339 413
#
# _framework density 22.041153000000001
#
# number of rings (size 3 to 8) (size 9 to 14) (size 15 to 20)
#    0.000    1.000    3.333    4.000    0.000    2.667 
#    3.000    1.667    0.000    0.000    0.000    0.000 
#    0.000    0.000    0.000    0.000    0.000    0.000 
#
# Total GULP energy -297672.368006 kJ/mol
# GULP energy per Si atom -12403.015334 kJ/mol
# Density = 2.199099 g / cm^3
# Si number density = 22.041153 Si / 1000 Ang^3
#
#
#
# Elastic Constant Matrix: (Units=GPa)
#
#
# Indices 1 2 3 4 5 6 
#
# 1 133.9834 54.5350 69.2420 0.0000 0.0000 0.0000
# 2 54.5350 79.4635 73.7400 0.0000 0.0000 0.0000
# 3 69.2420 73.7400 153.9959 0.0000 0.0000 0.0000
# 4 0.0000 0.0000 0.0000 20.4740 0.0000 0.0000
# 5 0.0000 0.0000 0.0000 0.0000 47.1566 0.0000
# 6 0.0000 0.0000 0.0000 0.0000 0.0000 40.5684
#
#
#
# Elastic Compliance Matrix: (Units=1/GPa)
#
#
# Indices 1 2 3 4 5 6 
#
# 1 0.010811 -0.005235 -0.002354 0.000000 0.000000 0.000000
# 2 -0.005235 0.025183 -0.009705 0.000000 0.000000 0.000000
# 3 -0.002354 -0.009705 0.012199 0.000000 0.000000 0.000000
# 4 0.000000 0.000000 0.000000 0.048842 0.000000 0.000000
# 5 0.000000 0.000000 0.000000 0.000000 0.021206 0.000000
# 6 0.000000 0.000000 0.000000 0.000000 0.000000 0.024650
#
#
# Mechanical properties :
#
#
# Convention : Reuss Voigt Hill
#
# Bulk Modulus (GPa) = 73.50112 84.71964 79.11038
# Shear Modulus (GPa) = 27.47036 32.96820 30.21928
#
# Velocity S-wave (km/s) = 3.53416 3.87170 3.70677
# Velocity P-wave (km/s) = 7.07625 7.64900 7.36819
#
# Compressibility (1/GPa) = 0.01360524
#
# Stress axis : x y z
#
# Youngs Moduli (GPa) = 92.49826 39.70969 81.97076
#
# Poissons Ratio (x) = 0.20787 0.19300
# Poissons Ratio (y) = 0.48419 0.79552
# Poissons Ratio (z) = 0.21778 0.38538
#
# Static dielectric constant tensor:
#      x y z
#    x 3.983010 0.000000 0.000000 
#    y 0.000000 3.730280 0.000000 
#    z 0.000000 0.000000 4.128850 
# 
# 
# High freq. dielectric constant tensor:
#      x y z
#    x 1.861850 0.000000 0.000000 
#    y 0.000000 1.856060 0.000000 
#    z 0.000000 0.000000 1.878910 
# 
# From -- ./inp_files/8354.got.cif
#   From: 2010.03.12/outbox.cif.g09.slc.cpg/sg39_5_cif.got.tgz:8354.got - 2010.04.14 02:53:20.
