data_PCOD8181291
_publ_section_title
;
Structure prediction by ZEFSAII (Michael W. Deem and Ramdas Pophale) SiO2 
 PCOD8181291
Probable space group: A B M 2
;
_chemical_formula_sum "Si O2"
_cell_formula_units_Z 64
_cell_length_a 17.615072
_cell_length_b 8.994786
_cell_length_c 22.919645
_cell_angle_alpha 90.000000
_cell_angle_beta 90.000000
_cell_angle_gamma 90.000000
_cell_volume 3631.475718
_symmetry_space_group_name_H-M "A B M 2"
_symmetry_group_IT_number 39
_symmetry_cell_setting 'orthorhombic'
loop_
_space_group_symop_operation_xyz
x,y,z
-x,-y,z
-x,1/2+y,z
x,1/2-y,z
x,1/2+y,1/2+z
-x,1/2-y,1/2+z
-x,y,1/2+z
x,-y,1/2+z
loop_
_atom_site_type_symbol
_atom_site_label
_atom_site_fract_x
_atom_site_fract_y
_atom_site_fract_z
Si Si1 0.647913 0.078209 0.465730
Si Si2 0.134736 0.086682 0.514875
Si Si3 0.766716 0.425549 0.675561
Si Si4 0.734988 0.073057 0.297533
Si Si5 0.300189 0.583060 0.070169
Si Si6 0.574966 0.579406 0.849296
Si Si7 0.074372 0.422075 0.118276
Si Si8 0.786383 0.924418 0.404434
O O1 0.657736 0.250000 0.482795
O O2 0.579632 0.054438 0.419595
O O3 0.636858 0.985529 0.525787
O O4 0.721859 0.026172 0.431756
O O5 0.099573 0.250000 0.526526
O O6 0.221224 0.084167 0.536234
O O7 0.138078 0.053702 0.444966
O O8 0.084889 0.968790 0.550388
O O9 0.756931 0.250000 0.685541
O O10 0.750257 0.518480 0.732834
O O11 0.706369 0.480209 0.627277
O O12 0.852000 0.467138 0.655527
O O13 0.745267 0.250000 0.302215
O O14 0.650345 0.020659 0.316353
O O15 0.796962 0.989680 0.339130
O O16 0.324839 0.750000 0.087919
O O17 0.500000 0.500000 0.824869
O O18 0.565222 0.750000 0.833730
O O19 0.059173 0.250000 0.120317
O O20 0.000000 0.500000 0.145302
O O21 0.763691 0.750000 0.402845
#
# Coordination Sequence:
#
# PCOD8181291 Si02
#       8
#     8   8   8   8   8   8   8   8
#     4   9  16  27  43  67  96 122 151 190 235 285
#     4   8  15  27  44  67  94 120 149 186 231 280
#     4  10  20  33  50  73  98 130 170 210 248 293
#     4  10  20  33  49  72 100 131 168 210 250 294
#     4   9  16  27  45  69  94 122 153 190 236 283
#     4   9  19  32  48  71  98 128 162 201 249 299
#     4  10  20  32  49  72  98 127 161 200 247 298
#     4   9  16  27  45  69  94 122 154 191 235 282
#
# _framework density 17.623691000000001
#
# number of rings (size 3 to 8) (size 9 to 14) (size 15 to 20)
#    0.000    2.750    0.000    3.750    0.000    8.000 
#    0.000    0.000    0.000    1.500    0.000    8.750 
#    0.000    0.000    0.000    0.000    0.000    0.000 
#
# Total GULP energy -396537.203046 kJ/mol
# GULP energy per Si atom -12391.787595 kJ/mol
# Density = 1.758358 g / cm^3
# Si number density = 17.623691 Si / 1000 Ang^3
#
#
#
# Elastic Constant Matrix: (Units=GPa)
#
#
# Indices 1 2 3 4 5 6 
#
# 1 50.2732 34.2486 30.9827 0.0000 0.0000 0.0000
# 2 34.2486 82.3556 36.2217 0.0000 0.0000 0.0000
# 3 30.9827 36.2217 105.3946 0.0000 0.0000 0.0000
# 4 0.0000 0.0000 0.0000 33.7292 0.0000 0.0000
# 5 0.0000 0.0000 0.0000 0.0000 14.4394 0.0000
# 6 0.0000 0.0000 0.0000 0.0000 0.0000 22.5306
#
#
#
# Elastic Compliance Matrix: (Units=1/GPa)
#
#
# Indices 1 2 3 4 5 6 
#
# 1 0.030123 -0.010169 -0.005360 0.000000 0.000000 0.000000
# 2 -0.010169 0.017738 -0.003107 0.000000 0.000000 0.000000
# 3 -0.005360 -0.003107 0.012132 0.000000 0.000000 0.000000
# 4 0.000000 0.000000 0.000000 0.029648 0.000000 0.000000
# 5 0.000000 0.000000 0.000000 0.000000 0.069255 0.000000
# 6 0.000000 0.000000 0.000000 0.000000 0.000000 0.044384
#
#
# Mechanical properties :
#
#
# Convention : Reuss Voigt Hill
#
# Bulk Modulus (GPa) = 44.01452 48.99216 46.50334
# Shear Modulus (GPa) = 20.15120 23.24454 21.69787
#
# Velocity S-wave (km/s) = 3.38511 3.63566 3.51262
# Velocity P-wave (km/s) = 6.34882 6.74414 6.54946
#
# Compressibility (1/GPa) = 0.02271977
#
# Stress axis : x y z
#
# Youngs Moduli (GPa) = 33.19772 56.37653 82.42971
#
# Poissons Ratio (x) = 0.57331 0.44183
# Poissons Ratio (y) = 0.33760 0.25608
# Poissons Ratio (z) = 0.17794 0.17514
#
# Static dielectric constant tensor:
#      x y z
#    x 3.004480 0.000000 0.000000 
#    y 0.000000 3.378750 0.000000 
#    z 0.000000 0.000000 3.480460 
# 
# 
# High freq. dielectric constant tensor:
#      x y z
#    x 1.633030 0.000000 0.000000 
#    y 0.000000 1.695910 0.000000 
#    z 0.000000 0.000000 1.675620 
# 
# From -- ./inp_files/16360.got.cif
#   From: 2010.03.12/outbox.cif.g09.slc.cpg/sg39_9_cif.got.tgz:16360.got - 2010.04.14 02:53:20.
