data_PCOD8181787
_publ_section_title
;
Structure prediction by ZEFSAII (Michael W. Deem and Ramdas Pophale) SiO2 
 PCOD8181787
Probable space group: A B M 2
;
_chemical_formula_sum "Si O2"
_cell_formula_units_Z 48
_cell_length_a 8.788799
_cell_length_b 10.116738
_cell_length_c 28.154562
_cell_angle_alpha 90.000000
_cell_angle_beta 90.000000
_cell_angle_gamma 90.000000
_cell_volume 2503.334073
_symmetry_space_group_name_H-M "A B M 2"
_symmetry_group_IT_number 39
_symmetry_cell_setting 'orthorhombic'
loop_
_space_group_symop_operation_xyz
x,y,z
-x,-y,z
-x,1/2+y,z
x,1/2-y,z
x,1/2+y,1/2+z
-x,1/2-y,1/2+z
-x,y,1/2+z
x,-y,1/2+z
loop_
_atom_site_type_symbol
_atom_site_label
_atom_site_fract_x
_atom_site_fract_y
_atom_site_fract_z
Si Si1 0.172986 0.250000 0.036901
Si Si2 0.635519 0.901098 0.394130
Si Si3 0.819263 0.250000 0.159805
Si Si4 0.819022 0.012024 0.706927
Si Si5 0.179925 0.250000 0.145586
Si Si6 0.186726 0.750000 0.051592
Si Si7 0.319936 0.009985 0.496128
Si Si8 0.862359 0.598537 0.307378
O O1 0.232736 0.250000 0.090988
O O2 0.991495 0.250000 0.039889
O O3 0.234452 0.374898 0.008128
O O4 0.575440 0.750000 0.400430
O O5 0.718503 0.948715 0.442194
O O6 0.753870 0.909081 0.351986
O O7 0.500000 0.000000 0.381481
O O8 0.752049 0.373111 0.189340
O O9 0.761776 0.250000 0.106143
O O10 0.000519 0.250000 0.154941
O O11 0.752824 0.120067 0.670529
O O12 0.770704 0.050145 0.760520
O O13 0.000000 0.000000 0.705328
O O14 0.258646 0.619058 0.031184
O O15 0.500000 0.000000 0.502779
O O16 0.920475 0.750000 0.299537
O O17 0.000000 0.500000 0.317775
#
# Coordination Sequence:
#
# PCOD8181787 Si02
#       8
#     4   8   4   8   4   4   8   8
#     4  11  23  35  62  93 118 156 201 249 300 335
#     4  10  23  43  63  83 111 155 200 237 287 360
#     4   9  18  29  52  81 116 150 189 237 290 343
#     4   9  16  29  50  80 116 151 183 230 289 348
#     4   9  16  31  50  81 114 150 187 231 286 347
#     4  11  21  39  60  91 124 150 203 259 290 343
#     4  11  23  41  61  85 118 164 200 239 299 368
#     4  10  21  36  58  91 121 147 189 246 295 339
#
# _framework density 19.174429
#
# number of rings (size 3 to 8) (size 9 to 14) (size 15 to 20)
#    0.000    2.000    1.667    2.000    7.000    4.667 
#    0.000    0.000    0.000    6.000    0.000    0.000 
#    0.000    0.000    0.000    0.000    0.000    0.000 
#
# Total GULP energy -297533.020047 kJ/mol
# GULP energy per Si atom -12397.209169 kJ/mol
# Density = 1.913079 g / cm^3
# Si number density = 19.174429 Si / 1000 Ang^3
#
#
#
# Elastic Constant Matrix: (Units=GPa)
#
#
# Indices 1 2 3 4 5 6 
#
# 1 44.8755 39.3756 44.7971 0.0000 0.0000 0.0000
# 2 39.3756 200.5885 94.5601 0.0000 0.0000 0.0000
# 3 44.7971 94.5601 157.4713 0.0000 0.0000 0.0000
# 4 0.0000 0.0000 0.0000 38.5138 0.0000 0.0000
# 5 0.0000 0.0000 0.0000 0.0000 -22.5392 0.0000
# 6 0.0000 0.0000 0.0000 0.0000 0.0000 27.7962
#
#
#
# Elastic Compliance Matrix: (Units=1/GPa)
#
#
# Indices 1 2 3 4 5 6 
#
# 1 0.032207 -0.002794 -0.007484 0.000000 0.000000 0.000000
# 2 -0.002794 0.007196 -0.003526 0.000000 0.000000 0.000000
# 3 -0.007484 -0.003526 0.010597 0.000000 0.000000 0.000000
# 4 0.000000 0.000000 0.000000 0.025965 0.000000 0.000000
# 5 0.000000 0.000000 0.000000 0.000000 -0.044367 0.000000
# 6 0.000000 0.000000 0.000000 0.000000 0.000000 0.035976
#
#
# Mechanical properties :
#
#
# Convention : Reuss Voigt Hill
#
# Bulk Modulus (GPa) = 44.66178 84.48897 64.57537
# Shear Modulus (GPa) = 48.71079 23.70099 36.20589
#
# Velocity S-wave (km/s) = 5.04571 3.51960 4.35010
# Velocity P-wave (km/s) = 7.56892 7.78947 7.67998
#
# Compressibility (1/GPa) = 0.02239051
#
# Stress axis : x y z
#
# Youngs Moduli (GPa) = 31.04944 138.96239 94.36570
#
# Poissons Ratio (x) = 0.38826 0.70626
# Poissons Ratio (y) = 0.08675 0.33277
# Poissons Ratio (z) = 0.23238 0.49004
#
# Static dielectric constant tensor:
#      x y z
#    x 3.080300 0.000000 0.000000 
#    y 0.000000 3.931670 0.000000 
#    z 0.000000 0.000000 3.794300 
# 
# 
# High freq. dielectric constant tensor:
#      x y z
#    x 1.698040 0.000000 0.000000 
#    y 0.000000 1.772290 0.000000 
#    z 0.000000 0.000000 1.766420 
# 
# From -- ./inp_files/17689.got.cif
#   From: 2010.03.12/outbox.cif.g09.slc.cpg/sg39_9_cif.got.tgz:17689.got - 2010.04.14 02:53:20.
