data_PCOD8181565
_publ_section_title
;
Structure prediction by ZEFSAII (Michael W. Deem and Ramdas Pophale) SiO2 
 PCOD8181565
Probable space group: A B M 2
;
_chemical_formula_sum "Si O2"
_cell_formula_units_Z 32
_cell_length_a 9.283376
_cell_length_b 8.621006
_cell_length_c 20.713738
_cell_angle_alpha 90.000000
_cell_angle_beta 90.000000
_cell_angle_gamma 90.000000
_cell_volume 1657.762712
_symmetry_space_group_name_H-M "A B M 2"
_symmetry_group_IT_number 39
_symmetry_cell_setting 'orthorhombic'
loop_
_space_group_symop_operation_xyz
x,y,z
-x,-y,z
-x,1/2+y,z
x,1/2-y,z
x,1/2+y,1/2+z
-x,1/2-y,1/2+z
-x,y,1/2+z
x,-y,1/2+z
loop_
_atom_site_type_symbol
_atom_site_label
_atom_site_fract_x
_atom_site_fract_y
_atom_site_fract_z
Si Si1 0.660433 0.567334 0.141340
Si Si2 0.659094 0.930547 0.912318
Si Si3 0.655742 0.429067 0.269598
Si Si4 0.158346 0.067284 0.524954
O O1 0.500000 0.500000 0.136790
O O2 0.654836 0.750000 0.134445
O O3 0.733323 0.518995 0.210355
O O4 0.755157 0.499263 0.084838
O O5 0.651237 0.750000 0.931491
O O6 0.727524 0.950458 0.840155
O O7 0.500000 0.000000 0.918661
O O8 0.765429 0.021432 0.958687
O O9 0.500000 0.500000 0.277689
O O10 0.644637 0.250000 0.249948
O O11 0.150895 0.250000 0.530940
O O12 0.000000 0.000000 0.525546
#
# Coordination Sequence:
#
# PCOD8181565 Si02
#       4
#     8   8   8   8
#     4  11  21  36  59  86 115 147 186 229 276 328
#     4  10  20  36  59  87 116 147 185 228 275 327
#     4   9  17  31  54  84 115 144 180 227 276 325
#     4  12  25  41  58  79 111 148 188 232 280 332
#
# _framework density 19.303124
#
# number of rings (size 3 to 8) (size 9 to 14) (size 15 to 20)
#    0.000    1.500    0.000    8.250    0.000    3.000 
#    0.000    1.250    0.000    6.000    0.000    0.000 
#    0.000    0.000    0.000    0.000    0.000    0.000 
#
# Total GULP energy -198339.278177 kJ/mol
# GULP energy per Si atom -12396.204886 kJ/mol
# Density = 1.925919 g / cm^3
# Si number density = 19.303124 Si / 1000 Ang^3
#
#
#
# Elastic Constant Matrix: (Units=GPa)
#
#
# Indices 1 2 3 4 5 6 
#
# 1 88.2513 55.2360 65.6323 0.0000 0.0000 0.0000
# 2 55.2360 192.3433 78.4669 0.0000 0.0000 0.0000
# 3 65.6323 78.4669 167.6622 0.0000 0.0000 0.0000
# 4 0.0000 0.0000 0.0000 38.9361 0.0000 0.0000
# 5 0.0000 0.0000 0.0000 0.0000 -13.1896 0.0000
# 6 0.0000 0.0000 0.0000 0.0000 0.0000 30.4358
#
#
#
# Elastic Compliance Matrix: (Units=1/GPa)
#
#
# Indices 1 2 3 4 5 6 
#
# 1 0.017037 -0.002684 -0.005413 0.000000 0.000000 0.000000
# 2 -0.002684 0.006849 -0.002154 0.000000 0.000000 0.000000
# 3 -0.005413 -0.002154 0.009092 0.000000 0.000000 0.000000
# 4 0.000000 0.000000 0.000000 0.025683 0.000000 0.000000
# 5 0.000000 0.000000 0.000000 0.000000 -0.075817 0.000000
# 6 0.000000 0.000000 0.000000 0.000000 0.000000 0.032856
#
#
# Mechanical properties :
#
#
# Convention : Reuss Voigt Hill
#
# Bulk Modulus (GPa) = 80.16755 94.10303 87.13529
# Shear Modulus (GPa) = 123.88288 27.83124 75.85706
#
# Velocity S-wave (km/s) = 8.01979 3.80122 6.27560
# Velocity P-wave (km/s) = 11.28614 8.25359 9.88683
#
# Compressibility (1/GPa) = 0.01247387
#
# Stress axis : x y z
#
# Youngs Moduli (GPa) = 58.69582 146.00995 109.99153
#
# Poissons Ratio (x) = 0.39194 0.59538
# Poissons Ratio (y) = 0.15756 0.23698
# Poissons Ratio (z) = 0.31772 0.31458
#
# Static dielectric constant tensor:
#      x y z
#    x 3.160470 0.000000 0.000000 
#    y 0.000000 3.839240 0.000000 
#    z 0.000000 0.000000 4.562470 
# 
# 
# High freq. dielectric constant tensor:
#      x y z
#    x 1.707610 0.000000 0.000000 
#    y 0.000000 1.776550 0.000000 
#    z 0.000000 0.000000 1.782240 
# 
# From -- ./inp_files/13730.got.cif
#   From: 2010.03.12/outbox.cif.g09.slc.cpg/sg39_7_cif.got.tgz:13730.got - 2010.04.14 02:53:20.
