data_PCOD8181142
_publ_section_title
;
Structure prediction by ZEFSAII (Michael W. Deem and Ramdas Pophale) SiO2 
 PCOD8181142
Probable space group: A B M 2
;
_chemical_formula_sum "Si O2"
_cell_formula_units_Z 64
_cell_length_a 5.163290
_cell_length_b 17.228331
_cell_length_c 35.554089
_cell_angle_alpha 90.000000
_cell_angle_beta 90.000000
_cell_angle_gamma 90.000000
_cell_volume 3162.709335
_symmetry_space_group_name_H-M "A B M 2"
_symmetry_group_IT_number 39
_symmetry_cell_setting 'orthorhombic'
loop_
_space_group_symop_operation_xyz
x,y,z
-x,-y,z
-x,1/2+y,z
x,1/2-y,z
x,1/2+y,1/2+z
-x,1/2-y,1/2+z
-x,y,1/2+z
x,-y,1/2+z
loop_
_atom_site_type_symbol
_atom_site_label
_atom_site_fract_x
_atom_site_fract_y
_atom_site_fract_z
Si Si1 0.000843 0.091377 0.044440
Si Si2 0.029973 0.658227 0.789906
Si Si3 0.487253 0.157739 0.419022
Si Si4 0.528564 0.159752 0.172808
Si Si5 0.027522 0.839762 0.625391
Si Si6 0.470389 0.409471 0.752904
Si Si7 0.499073 0.907662 0.001923
Si Si8 0.988870 0.842058 0.874937
O O1 0.254628 0.126240 0.024385
O O2 0.992764 0.110991 0.088078
O O3 0.751844 0.126316 0.023158
O O4 0.000000 0.000000 0.040116
O O5 0.989091 0.750000 0.786940
O O6 0.318182 0.637668 0.776658
O O7 0.997117 0.627083 0.832357
O O8 0.817396 0.616926 0.764057
O O9 0.486088 0.250000 0.422322
O O10 0.505710 0.121934 0.459834
O O11 0.231877 0.125542 0.398406
O O12 0.729173 0.127684 0.394649
O O13 0.518279 0.250000 0.184651
O O14 0.801856 0.137665 0.154369
O O15 0.486831 0.107115 0.209098
O O16 0.302272 0.139405 0.143591
O O17 0.009248 0.750000 0.614344
O O18 0.500000 0.500000 0.760952
O O19 0.500000 0.000000 0.001790
O O20 0.000570 0.750000 0.874323
#
# Coordination Sequence:
#
# PCOD8181142 Si02
#       8
#     8   8   8   8   8   8   8   8
#     4  10  21  36  54  75 106 144 181 220 272 336
#     4  11  22  41  66  87 116 163 204 239 294 364
#     4  10  19  34  56  82 108 138 181 234 280 324
#     4  10  21  38  58  82 112 150 189 228 282 350
#     4  10  21  36  57  83 109 138 185 238 278 328
#     4  12  25  40  60  92 126 154 195 252 298 344
#     4  10  21  36  52  76 108 144 181 218 268 338
#     4   9  19  35  57  83 109 141 188 235 278 334
#
# _framework density 20.235814999999999
#
# number of rings (size 3 to 8) (size 9 to 14) (size 15 to 20)
#    0.000    1.750    0.000    4.500    0.000    5.000 
#    0.000    3.750    0.000    0.000    0.000    0.000 
#    0.000    0.000    0.000    0.000    0.000    0.000 
#
# Total GULP energy -396957.002460 kJ/mol
# GULP energy per Si atom -12404.906327 kJ/mol
# Density = 2.018976 g / cm^3
# Si number density = 20.235815 Si / 1000 Ang^3
#
#
#
# Elastic Constant Matrix: (Units=GPa)
#
#
# Indices 1 2 3 4 5 6 
#
# 1 125.2016 15.0843 28.2088 0.0000 0.0000 0.0000
# 2 15.0843 35.1266 14.3102 0.0000 0.0000 0.0000
# 3 28.2088 14.3102 112.5233 0.0000 0.0000 0.0000
# 4 0.0000 0.0000 0.0000 137.7869 0.0000 0.0000
# 5 0.0000 0.0000 0.0000 0.0000 38.4833 0.0000
# 6 0.0000 0.0000 0.0000 0.0000 0.0000 15.0751
#
#
#
# Elastic Compliance Matrix: (Units=1/GPa)
#
#
# Indices 1 2 3 4 5 6 
#
# 1 0.008760 -0.003024 -0.001811 0.000000 0.000000 0.000000
# 2 -0.003024 0.031068 -0.003193 0.000000 0.000000 0.000000
# 3 -0.001811 -0.003193 0.009747 0.000000 0.000000 0.000000
# 4 0.000000 0.000000 0.000000 0.007258 0.000000 0.000000
# 5 0.000000 0.000000 0.000000 0.000000 0.025985 0.000000
# 6 0.000000 0.000000 0.000000 0.000000 0.000000 0.066334
#
#
# Mechanical properties :
#
#
# Convention : Reuss Voigt Hill
#
# Bulk Modulus (GPa) = 29.83446 43.11757 36.47602
# Shear Modulus (GPa) = 28.34778 52.61896 40.48337
#
# Velocity S-wave (km/s) = 3.74688 5.10483 4.47764
# Velocity P-wave (km/s) = 5.78742 7.48997 6.69305
#
# Compressibility (1/GPa) = 0.03351828
#
# Stress axis : x y z
#
# Youngs Moduli (GPa) = 114.16138 32.18777 102.59315
#
# Poissons Ratio (x) = 0.09732 0.18584
# Poissons Ratio (y) = 0.34518 0.32758
# Poissons Ratio (z) = 0.20679 0.10278
#
# Static dielectric constant tensor:
#      x y z
#    x 4.255380 0.000000 0.000000 
#    y 0.000000 3.361260 0.000000 
#    z 0.000000 0.000000 3.682860 
# 
# 
# High freq. dielectric constant tensor:
#      x y z
#    x 1.813000 0.000000 0.000000 
#    y 0.000000 1.763820 0.000000 
#    z 0.000000 0.000000 1.804490 
# 
# From -- ./inp_files/17378.got.cif
#   From: 2010.03.12/outbox.cif.g09.slc.cpg/sg39_9_cif.got.tgz:17378.got - 2010.04.14 02:53:20.
