data_PCOD8181880
_publ_section_title
;
Structure prediction by ZEFSAII (Michael W. Deem and Ramdas Pophale) SiO2 
 PCOD8181880
Probable space group: A B M 2
;
_chemical_formula_sum "Si O2"
_cell_formula_units_Z 64
_cell_length_a 8.805878
_cell_length_b 25.424871
_cell_length_c 14.029754
_cell_angle_alpha 90.000000
_cell_angle_beta 90.000000
_cell_angle_gamma 90.000000
_cell_volume 3141.097944
_symmetry_space_group_name_H-M "A B M 2"
_symmetry_group_IT_number 39
_symmetry_cell_setting 'orthorhombic'
loop_
_space_group_symop_operation_xyz
x,y,z
-x,-y,z
-x,1/2+y,z
x,1/2-y,z
x,1/2+y,1/2+z
-x,1/2-y,1/2+z
-x,y,1/2+z
x,-y,1/2+z
loop_
_atom_site_type_symbol
_atom_site_label
_atom_site_fract_x
_atom_site_fract_y
_atom_site_fract_z
Si Si1 0.453869 0.655363 0.776000
Si Si2 0.255083 0.809303 0.384840
Si Si3 0.155501 0.477463 0.411157
Si Si4 0.291365 0.689735 0.958735
Si Si5 0.628258 0.461407 0.751841
Si Si6 0.217830 0.061232 0.067780
Si Si7 0.572022 0.653563 0.058861
Si Si8 0.010019 0.872459 0.960251
O O1 0.622594 0.673761 0.805449
O O2 0.328186 0.679934 0.846823
O O3 0.451843 0.592574 0.781154
O O4 0.414348 0.673364 0.668117
O O5 0.198786 0.750000 0.362730
O O6 0.330275 0.808585 0.490226
O O7 0.114338 0.850628 0.384204
O O8 0.297356 0.488610 0.343536
O O9 0.195570 0.507765 0.508827
O O10 0.000000 0.500000 0.367396
O O11 0.128770 0.414996 0.418885
O O12 0.320976 0.750000 0.983783
O O13 0.117618 0.676412 0.987107
O O14 0.397864 0.654137 0.025735
O O15 0.500000 0.500000 0.709627
O O16 0.767797 0.454143 0.678099
O O17 0.372280 0.093255 0.043501
O O18 0.075713 0.100862 0.050335
#
# Coordination Sequence:
#
# PCOD8181880 Si02
#       8
#     8   8   8   8   8   8   8   8
#     4  10  21  40  60  91 123 161 200 261 311 359
#     4  10  21  38  63  88 121 162 204 256 314 369
#     4  10  22  38  63  86 124 166 195 246 303 370
#     4  11  22  37  62  93 121 160 212 257 306 361
#     4  11  24  38  62  96 121 158 211 253 301 372
#     4   9  22  42  60  90 124 166 196 242 315 363
#     4   9  20  38  62  88 123 156 208 254 305 368
#     4  10  21  41  60  83 125 163 200 249 305 367
#
# _framework density 20.375039999999998
#
# number of rings (size 3 to 8) (size 9 to 14) (size 15 to 20)
#    0.000    2.000    1.250    1.875    7.000    6.000 
#    2.250    0.000    0.000    3.000    0.000    0.000 
#    0.000    0.000    0.000    0.000    0.000    0.000 
#
# Total GULP energy -396633.868506 kJ/mol
# GULP energy per Si atom -12394.808391 kJ/mol
# Density = 2.032867 g / cm^3
# Si number density = 20.375040 Si / 1000 Ang^3
#
#
#
# Elastic Constant Matrix: (Units=GPa)
#
#
# Indices 1 2 3 4 5 6 
#
# 1 106.6063 39.9399 36.0840 0.0000 0.0000 0.0000
# 2 39.9399 106.0829 28.8471 0.0000 0.0000 0.0000
# 3 36.0840 28.8471 94.7252 0.0000 0.0000 0.0000
# 4 0.0000 0.0000 0.0000 23.4573 0.0000 0.0000
# 5 0.0000 0.0000 0.0000 0.0000 26.2607 0.0000
# 6 0.0000 0.0000 0.0000 0.0000 0.0000 36.1594
#
#
#
# Elastic Compliance Matrix: (Units=1/GPa)
#
#
# Indices 1 2 3 4 5 6 
#
# 1 0.011870 -0.003532 -0.003446 0.000000 0.000000 0.000000
# 2 -0.003532 0.011329 -0.002105 0.000000 0.000000 0.000000
# 3 -0.003446 -0.002105 0.012510 0.000000 0.000000 0.000000
# 4 0.000000 0.000000 0.000000 0.042631 0.000000 0.000000
# 5 0.000000 0.000000 0.000000 0.000000 0.038080 0.000000
# 6 0.000000 0.000000 0.000000 0.000000 0.000000 0.027655
#
#
# Mechanical properties :
#
#
# Convention : Reuss Voigt Hill
#
# Bulk Modulus (GPa) = 56.99947 57.46182 57.23064
# Shear Modulus (GPa) = 29.74634 30.67836 30.21235
#
# Velocity S-wave (km/s) = 3.82506 3.88452 3.85491
# Velocity P-wave (km/s) = 6.89522 6.95576 6.92556
#
# Compressibility (1/GPa) = 0.01754402
#
# Stress axis : x y z
#
# Youngs Moduli (GPa) = 84.24629 88.27191 79.93295
#
# Poissons Ratio (x) = 0.31177 0.27546
# Poissons Ratio (y) = 0.29755 0.16822
# Poissons Ratio (z) = 0.29032 0.18577
#
# Static dielectric constant tensor:
#      x y z
#    x 3.733930 0.000000 0.000000 
#    y 0.000000 3.741550 0.000000 
#    z 0.000000 0.000000 3.521640 
# 
# 
# High freq. dielectric constant tensor:
#      x y z
#    x 1.796980 0.000000 0.000000 
#    y 0.000000 1.803170 0.000000 
#    z 0.000000 0.000000 1.771760 
# 
# From -- ./inp_files/8793.got.cif
#   From: 2010.03.12/outbox.cif.g09.slc.cpg/sg39_5_cif.got.tgz:8793.got - 2010.04.14 02:53:20.
