data_PCOD8181250
_publ_section_title
;
Structure prediction by ZEFSAII (Michael W. Deem and Ramdas Pophale) SiO2 
 PCOD8181250
Probable space group: A B M 2
;
_chemical_formula_sum "Si O2"
_cell_formula_units_Z 40
_cell_length_a 8.189147
_cell_length_b 18.104102
_cell_length_c 12.562269
_cell_angle_alpha 90.000000
_cell_angle_beta 90.000000
_cell_angle_gamma 90.000000
_cell_volume 1862.446232
_symmetry_space_group_name_H-M "A B M 2"
_symmetry_group_IT_number 39
_symmetry_cell_setting 'orthorhombic'
loop_
_space_group_symop_operation_xyz
x,y,z
-x,-y,z
-x,1/2+y,z
x,1/2-y,z
x,1/2+y,1/2+z
-x,1/2-y,1/2+z
-x,y,1/2+z
x,-y,1/2+z
loop_
_atom_site_type_symbol
_atom_site_label
_atom_site_fract_x
_atom_site_fract_y
_atom_site_fract_z
Si Si1 0.500000 0.000000 0.101241
Si Si2 0.299599 0.613753 0.240940
Si Si3 0.258148 0.250000 0.410596
Si Si4 0.241327 0.904085 0.474233
Si Si5 0.944713 0.667189 0.564295
Si Si6 0.601083 0.250000 0.507503
Si Si7 0.481852 0.750000 0.745103
O O1 0.406140 0.943542 0.175298
O O2 0.634197 0.960680 0.027705
O O3 0.225531 0.576725 0.348611
O O4 0.418222 0.677923 0.282174
O O5 0.151706 0.644102 0.169797
O O6 0.177576 0.323505 0.461470
O O7 0.453630 0.250000 0.425464
O O8 0.285158 0.250000 0.281878
O O9 0.289659 0.820289 0.490759
O O10 0.065170 0.900666 0.533868
O O11 0.021542 0.750000 0.584795
O O12 0.511028 0.250000 0.619289
#
# Coordination Sequence:
#
# PCOD8181250 Si02
#       7
#     4   8   4   8   8   4   4
#     4  12  28  48  68 102 142 192 244 280 344 444
#     4  12  24  45  71 104 138 188 236 288 353 423
#     4  10  19  36  65 109 135 171 219 297 353 396
#     4  12  25  45  72 102 142 186 233 295 359 414
#     4  10  23  43  67 109 145 169 230 303 354 412
#     4  12  19  38  69 105 127 175 239 294 330 410
#     4  12  20  36  76 100 136 174 244 295 341 406
#
# _framework density 21.477132000000001
#
# number of rings (size 3 to 8) (size 9 to 14) (size 15 to 20)
#    0.600    0.000    8.000    0.600    0.000    2.400 
#    0.000    2.000    0.000    0.000    0.000    0.000 
#    0.000    0.000    0.000    0.000    0.000    0.000 
#
# Total GULP energy -247786.455742 kJ/mol
# GULP energy per Si atom -12389.322787 kJ/mol
# Density = 2.142825 g / cm^3
# Si number density = 21.477132 Si / 1000 Ang^3
#
#
#
# Elastic Constant Matrix: (Units=GPa)
#
#
# Indices 1 2 3 4 5 6 
#
# 1 111.0000 44.8761 66.5409 0.0000 0.0000 0.0000
# 2 44.8761 94.5399 50.9683 0.0000 0.0000 0.0000
# 3 66.5409 50.9683 138.1312 0.0000 0.0000 0.0000
# 4 0.0000 0.0000 0.0000 -7.2423 0.0000 0.0000
# 5 0.0000 0.0000 0.0000 0.0000 40.4511 0.0000
# 6 0.0000 0.0000 0.0000 0.0000 0.0000 55.9287
#
#
#
# Elastic Compliance Matrix: (Units=1/GPa)
#
#
# Indices 1 2 3 4 5 6 
#
# 1 0.013607 -0.003652 -0.005207 0.000000 0.000000 0.000000
# 2 -0.003652 0.014184 -0.003475 0.000000 0.000000 0.000000
# 3 -0.005207 -0.003475 0.011030 0.000000 0.000000 0.000000
# 4 0.000000 0.000000 0.000000 -0.138078 0.000000 0.000000
# 5 0.000000 0.000000 0.000000 0.000000 0.024721 0.000000
# 6 0.000000 0.000000 0.000000 0.000000 0.000000 0.017880
#
#
# Mechanical properties :
#
#
# Convention : Reuss Voigt Hill
#
# Bulk Modulus (GPa) = 70.65176 74.27131 72.46153
# Shear Modulus (GPa) = -183.34972 29.91321 -76.71826
#
# Velocity S-wave (km/s) = -9.24960 3.73606 -5.98318
# Velocity P-wave (km/s) = 9.00587 7.29846 3.73083
#
# Compressibility (1/GPa) = 0.01415393
#
# Stress axis : x y z
#
# Youngs Moduli (GPa) = 73.49178 70.50128 90.66066
#
# Poissons Ratio (x) = 0.25744 0.47211
# Poissons Ratio (y) = 0.26836 0.31502
# Poissons Ratio (z) = 0.38270 0.24497
#
# Static dielectric constant tensor:
#      x y z
#    x 3.885480 0.000000 0.000000 
#    y 0.000000 3.758410 0.000000 
#    z 0.000000 0.000000 4.151800 
# 
# 
# High freq. dielectric constant tensor:
#      x y z
#    x 1.843290 0.000000 0.000000 
#    y 0.000000 1.821930 0.000000 
#    z 0.000000 0.000000 1.865810 
# 
# From -- ./inp_files/5103.got.cif
#   From: 2010.03.12/outbox.cif.g09.slc.cpg/sg39_3_cif.got.tgz:5103.got - 2010.04.14 02:53:20.
