data_PCOD8181590
_publ_section_title
;
Structure prediction by ZEFSAII (Michael W. Deem and Ramdas Pophale) SiO2 
 PCOD8181590
Probable space group: A B M 2
;
_chemical_formula_sum "Si O2"
_cell_formula_units_Z 48
_cell_length_a 10.918138
_cell_length_b 17.544140
_cell_length_c 11.251406
_cell_angle_alpha 90.000000
_cell_angle_beta 90.000000
_cell_angle_gamma 90.000000
_cell_volume 2155.199412
_symmetry_space_group_name_H-M "A B M 2"
_symmetry_group_IT_number 39
_symmetry_cell_setting 'orthorhombic'
loop_
_space_group_symop_operation_xyz
x,y,z
-x,-y,z
-x,1/2+y,z
x,1/2-y,z
x,1/2+y,1/2+z
-x,1/2-y,1/2+z
-x,y,1/2+z
x,-y,1/2+z
loop_
_atom_site_type_symbol
_atom_site_label
_atom_site_fract_x
_atom_site_fract_y
_atom_site_fract_z
Si Si1 0.415795 0.250000 0.483310
Si Si2 0.967759 0.916928 0.971451
Si Si3 0.631718 0.529510 0.947306
Si Si4 0.606029 0.750000 0.211552
Si Si5 0.197590 0.949885 0.260572
Si Si6 0.775529 0.116607 0.014576
Si Si7 0.753331 0.606775 0.142609
O O1 0.463967 0.250000 0.342770
O O2 0.518345 0.250000 0.591189
O O3 0.329794 0.322707 0.495583
O O4 0.921413 0.931579 0.838378
O O5 0.866410 0.874576 0.053397
O O6 0.000000 0.000000 0.030708
O O7 0.090657 0.864925 0.958488
O O8 0.500000 0.500000 0.918752
O O9 0.678831 0.574385 0.831872
O O10 0.732115 0.463668 0.963484
O O11 0.634410 0.580983 0.064793
O O12 0.700906 0.679011 0.213189
O O13 0.195572 0.891999 0.152909
O O14 0.205248 0.040131 0.231202
#
# Coordination Sequence:
#
# PCOD8181590 Si02
#       7
#     4   8   8   4   8   8   8
#     4  12  30  51  70 100 142 199 241 298 355 438
#     4  11  21  39  69 102 139 174 225 296 360 429
#     4  10  20  36  61  95 128 170 234 295 354 419
#     4  12  28  49  74  94 148 193 245 296 361 426
#     4  10  21  37  66  99 131 175 231 300 357 420
#     4  11  24  41  65  99 135 179 237 288 361 424
#     4  10  23  40  65 100 131 183 230 289 359 427
#
# _framework density 22.271719999999998
#
# number of rings (size 3 to 8) (size 9 to 14) (size 15 to 20)
#    0.000    1.333    5.000    2.000    2.333    8.667 
#    0.000    0.833    0.000    0.000    0.000    0.000 
#    0.000    0.000    0.000    0.000    0.000    0.000 
#
# Total GULP energy -297324.113533 kJ/mol
# GULP energy per Si atom -12388.504731 kJ/mol
# Density = 2.222103 g / cm^3
# Si number density = 22.271720 Si / 1000 Ang^3
#
#
#
# Elastic Constant Matrix: (Units=GPa)
#
#
# Indices 1 2 3 4 5 6 
#
# 1 130.3967 6.5547 53.2120 0.0000 0.0000 0.0000
# 2 6.5547 58.8405 28.3955 0.0000 0.0000 0.0000
# 3 53.2120 28.3955 147.6971 0.0000 0.0000 0.0000
# 4 0.0000 0.0000 0.0000 29.2131 0.0000 0.0000
# 5 0.0000 0.0000 0.0000 0.0000 27.6119 0.0000
# 6 0.0000 0.0000 0.0000 0.0000 0.0000 -43.7968
#
#
#
# Elastic Compliance Matrix: (Units=1/GPa)
#
#
# Indices 1 2 3 4 5 6 
#
# 1 0.009011 0.000620 -0.003366 0.000000 0.000000 0.000000
# 2 0.000620 0.018776 -0.003833 0.000000 0.000000 0.000000
# 3 -0.003366 -0.003833 0.008720 0.000000 0.000000 0.000000
# 4 0.000000 0.000000 0.000000 0.034231 0.000000 0.000000
# 5 0.000000 0.000000 0.000000 0.000000 0.036216 0.000000
# 6 0.000000 0.000000 0.000000 0.000000 0.000000 -0.022833
#
#
# Mechanical properties :
#
#
# Convention : Reuss Voigt Hill
#
# Bulk Modulus (GPa) = 42.82656 57.02874 49.92765
# Shear Modulus (GPa) = 47.59059 19.19045 33.39052
#
# Velocity S-wave (km/s) = 4.62759 2.93857 3.87619
# Velocity P-wave (km/s) = 6.91546 6.09714 6.51915
#
# Compressibility (1/GPa) = 0.02335000
#
# Stress axis : x y z
#
# Youngs Moduli (GPa) = 110.97253 53.25988 114.67599
#
# Poissons Ratio (x) = -0.03305 0.38598
# Poissons Ratio (y) = -0.06886 0.43959
# Poissons Ratio (z) = 0.37352 0.20416
#
# Static dielectric constant tensor:
#      x y z
#    x 4.132710 0.000000 0.000000 
#    y 0.000000 3.524550 0.000000 
#    z 0.000000 0.000000 4.435920 
# 
# 
# High freq. dielectric constant tensor:
#      x y z
#    x 1.886120 0.000000 0.000000 
#    y 0.000000 1.831770 0.000000 
#    z 0.000000 0.000000 1.899820 
# 
# From -- ./inp_files/5853.got.cif
#   From: 2010.03.12/outbox.cif.g09.slc.cpg/sg39_3_cif.got.tgz:5853.got - 2010.04.14 02:53:20.
