data_PCOD8181841
_publ_section_title
;
Structure prediction by ZEFSAII (Michael W. Deem and Ramdas Pophale) SiO2 
 PCOD8181841
Probable space group: A B M 2
;
_chemical_formula_sum "Si O2"
_cell_formula_units_Z 64
_cell_length_a 13.761491
_cell_length_b 8.932768
_cell_length_c 27.230480
_cell_angle_alpha 90.000000
_cell_angle_beta 90.000000
_cell_angle_gamma 90.000000
_cell_volume 3347.394067
_symmetry_space_group_name_H-M "A B M 2"
_symmetry_group_IT_number 39
_symmetry_cell_setting 'orthorhombic'
loop_
_space_group_symop_operation_xyz
x,y,z
-x,-y,z
-x,1/2+y,z
x,1/2-y,z
x,1/2+y,1/2+z
-x,1/2-y,1/2+z
-x,y,1/2+z
x,-y,1/2+z
loop_
_atom_site_type_symbol
_atom_site_label
_atom_site_fract_x
_atom_site_fract_y
_atom_site_fract_z
Si Si1 0.896828 0.426374 0.466910
Si Si2 0.600823 0.424922 0.713153
Si Si3 0.284352 0.072615 0.515013
Si Si4 0.212093 0.072685 0.267943
Si Si5 0.399736 0.573266 0.429902
Si Si6 0.098977 0.424499 0.175151
Si Si7 0.787247 0.421416 0.368912
Si Si8 0.288632 0.923586 0.615652
O O1 0.900105 0.250000 0.477728
O O2 0.820169 0.500824 0.503628
O O3 0.865251 0.458861 0.411024
O O4 0.000000 0.500000 0.477247
O O5 0.500000 0.500000 0.726570
O O6 0.588030 0.250000 0.720073
O O7 0.681761 0.486332 0.751269
O O8 0.633290 0.461985 0.657707
O O9 0.280402 0.250000 0.507828
O O10 0.367231 0.003826 0.480394
O O11 0.313181 0.030968 0.570361
O O12 0.212722 0.250000 0.266556
O O13 0.132594 0.014047 0.228659
O O14 0.184904 0.018854 0.322013
O O15 0.500000 0.500000 0.411929
O O16 0.410905 0.750000 0.438848
O O17 0.320512 0.539231 0.387951
O O18 0.080013 0.250000 0.178540
O O19 0.180902 0.460658 0.135031
O O20 0.000000 0.500000 0.157798
O O21 0.793534 0.250000 0.353058
O O22 0.295999 0.750000 0.599916
#
# Coordination Sequence:
#
# PCOD8181841 Si02
#       8
#     8   8   8   8   8   8   8   8
#     4  10  21  38  57  79 108 141 179 221 266 316
#     4   9  19  35  54  76 103 137 175 215 260 310
#     4  11  22  36  56  82 109 140 178 218 267 320
#     4   9  19  35  53  75 105 140 174 210 259 315
#     4  10  21  38  57  79 108 141 179 221 266 316
#     4   9  19  35  54  76 103 137 175 215 260 310
#     4   9  20  36  54  78 107 138 174 218 263 310
#     4   9  19  37  55  73 105 142 174 214 263 313
#
# _framework density 19.119351000000002
#
# number of rings (size 3 to 8) (size 9 to 14) (size 15 to 20)
#    0.000    2.500    0.000    4.125    0.000    7.000 
#    0.000   10.000    0.000    0.000    0.000    0.000 
#    0.000    0.000    0.000    0.000    0.000    0.000 
#
# Total GULP energy -396830.812975 kJ/mol
# GULP energy per Si atom -12400.962905 kJ/mol
# Density = 1.907583 g / cm^3
# Si number density = 19.119351 Si / 1000 Ang^3
#
#
#
# Elastic Constant Matrix: (Units=GPa)
#
#
# Indices 1 2 3 4 5 6 
#
# 1 47.2351 4.0560 -26.6062 0.0000 0.0000 0.0000
# 2 4.0560 65.3702 11.6683 0.0000 0.0000 0.0000
# 3 -26.6062 11.6683 53.2208 0.0000 0.0000 0.0000
# 4 0.0000 0.0000 0.0000 25.9632 0.0000 0.0000
# 5 0.0000 0.0000 0.0000 0.0000 10.2549 0.0000
# 6 0.0000 0.0000 0.0000 0.0000 0.0000 35.0778
#
#
#
# Elastic Compliance Matrix: (Units=1/GPa)
#
#
# Indices 1 2 3 4 5 6 
#
# 1 0.030886 -0.004863 0.016507 0.000000 0.000000 0.000000
# 2 -0.004863 0.016686 -0.006089 0.000000 0.000000 0.000000
# 3 0.016507 -0.006089 0.028377 0.000000 0.000000 0.000000
# 4 0.000000 0.000000 0.000000 0.038516 0.000000 0.000000
# 5 0.000000 0.000000 0.000000 0.000000 0.097514 0.000000
# 6 0.000000 0.000000 0.000000 0.000000 0.000000 0.028508
#
#
# Mechanical properties :
#
#
# Convention : Reuss Voigt Hill
#
# Bulk Modulus (GPa) = 11.48658 16.00692 13.74675
# Shear Modulus (GPa) = 19.35007 26.03972 22.69489
#
# Velocity S-wave (km/s) = 3.18475 3.69447 3.44904
# Velocity P-wave (km/s) = 4.42090 5.15646 4.80279
#
# Compressibility (1/GPa) = 0.08705813
#
# Stress axis : x y z
#
# Youngs Moduli (GPa) = 32.37713 59.93004 35.24016
#
# Poissons Ratio (x) = 0.29143 -0.58170
# Poissons Ratio (y) = 0.15744 0.21459
# Poissons Ratio (z) = -0.53444 0.36493
#
# Static dielectric constant tensor:
#      x y z
#    x 3.754390 0.000000 0.000000 
#    y 0.000000 3.357830 0.000000 
#    z 0.000000 0.000000 3.411950 
# 
# 
# High freq. dielectric constant tensor:
#      x y z
#    x 1.744630 0.000000 0.000000 
#    y 0.000000 1.739060 0.000000 
#    z 0.000000 0.000000 1.741160 
# 
# From -- ./inp_files/16255.got.cif
#   From: 2010.03.12/outbox.cif.g09.slc.cpg/sg39_9_cif.got.tgz:16255.got - 2010.04.14 02:53:20.
