data_PCOD8181927
_publ_section_title
;
Structure prediction by ZEFSAII (Michael W. Deem and Ramdas Pophale) SiO2 
 PCOD8181927
Probable space group: A B M 2
;
_chemical_formula_sum "Si O2"
_cell_formula_units_Z 64
_cell_length_a 14.156243
_cell_length_b 18.878991
_cell_length_c 11.382102
_cell_angle_alpha 90.000000
_cell_angle_beta 90.000000
_cell_angle_gamma 90.000000
_cell_volume 3041.930319
_symmetry_space_group_name_H-M "A B M 2"
_symmetry_group_IT_number 39
_symmetry_cell_setting 'orthorhombic'
loop_
_space_group_symop_operation_xyz
x,y,z
-x,-y,z
-x,1/2+y,z
x,1/2-y,z
x,1/2+y,1/2+z
-x,1/2-y,1/2+z
-x,y,1/2+z
x,-y,1/2+z
loop_
_atom_site_type_symbol
_atom_site_label
_atom_site_fract_x
_atom_site_fract_y
_atom_site_fract_z
Si Si1 0.672553 0.669195 0.986220
Si Si2 0.223235 0.559716 0.077072
Si Si3 0.956362 0.429767 0.946140
Si Si4 0.664802 0.934833 0.347079
Si Si5 0.369316 0.412530 0.758223
Si Si6 0.149073 0.570342 0.718108
Si Si7 0.109657 0.668405 0.524694
Si Si8 0.549650 0.166149 0.713713
O O1 0.651920 0.750000 0.954601
O O2 0.628056 0.622961 0.884682
O O3 0.783541 0.653271 0.986097
O O4 0.623629 0.650268 0.109547
O O5 0.271456 0.601218 0.186107
O O6 0.177813 0.486652 0.120338
O O7 0.133824 0.600761 0.020038
O O8 0.307156 0.546322 0.981455
O O9 0.924092 0.455984 0.817011
O O10 0.000000 0.500000 0.008083
O O11 0.035796 0.369133 0.936821
O O12 0.757022 0.904656 0.283260
O O13 0.590047 0.870260 0.333750
O O14 0.620712 0.003200 0.280106
O O15 0.452959 0.375764 0.683269
O O16 0.098190 0.636455 0.655062
O O17 0.083889 0.750000 0.528189
O O18 0.532986 0.250000 0.733478
#
# Coordination Sequence:
#
# PCOD8181927 Si02
#       8
#     8   8   8   8   8   8   8   8
#     4  10  23  44  68  94 134 178 225 273 335 410
#     4  10  23  43  65 101 130 169 220 283 335 391
#     4  11  24  38  67  98 129 170 224 274 337 400
#     4  10  22  41  66  96 128 172 222 285 327 393
#     4  11  24  40  69  97 137 167 227 280 335 393
#     4  10  21  39  63  92 130 170 219 274 338 391
#     4  11  23  41  64  93 132 176 223 273 331 408
#     4  11  24  44  67  98 134 183 226 269 339 409
#
# _framework density 21.039273000000001
#
# number of rings (size 3 to 8) (size 9 to 14) (size 15 to 20)
#    0.000    1.500    2.500    1.500    8.750    0.500 
#    0.000    5.000    0.000    0.000    0.000    0.000 
#    0.000    0.000    0.000    0.000    0.000    0.000 
#
# Total GULP energy -396605.839670 kJ/mol
# GULP energy per Si atom -12393.932490 kJ/mol
# Density = 2.099139 g / cm^3
# Si number density = 21.039273 Si / 1000 Ang^3
#
#
#
# Elastic Constant Matrix: (Units=GPa)
#
#
# Indices 1 2 3 4 5 6 
#
# 1 111.2427 68.4275 36.8323 0.0000 0.0000 0.0000
# 2 68.4275 105.1417 39.1834 0.0000 0.0000 0.0000
# 3 36.8323 39.1834 87.9334 0.0000 0.0000 0.0000
# 4 0.0000 0.0000 0.0000 28.4355 0.0000 0.0000
# 5 0.0000 0.0000 0.0000 0.0000 33.5017 0.0000
# 6 0.0000 0.0000 0.0000 0.0000 0.0000 35.0226
#
#
#
# Elastic Compliance Matrix: (Units=1/GPa)
#
#
# Indices 1 2 3 4 5 6 
#
# 1 0.015394 -0.009132 -0.002379 0.000000 0.000000 0.000000
# 2 -0.009132 0.016823 -0.003671 0.000000 0.000000 0.000000
# 3 -0.002379 -0.003671 0.014004 0.000000 0.000000 0.000000
# 4 0.000000 0.000000 0.000000 0.035167 0.000000 0.000000
# 5 0.000000 0.000000 0.000000 0.000000 0.029849 0.000000
# 6 0.000000 0.000000 0.000000 0.000000 0.000000 0.028553
#
#
# Mechanical properties :
#
#
# Convention : Reuss Voigt Hill
#
# Bulk Modulus (GPa) = 63.06294 65.91159 64.48727
# Shear Modulus (GPa) = 28.49963 30.05027 29.27495
#
# Velocity S-wave (km/s) = 3.68447 3.78338 3.73425
# Velocity P-wave (km/s) = 6.93826 7.10501 7.02213
#
# Compressibility (1/GPa) = 0.01585717
#
# Stress axis : x y z
#
# Youngs Moduli (GPa) = 64.95827 59.44419 71.40614
#
# Poissons Ratio (x) = 0.54287 0.16986
# Poissons Ratio (y) = 0.59323 0.26212
# Poissons Ratio (z) = 0.15452 0.21821
#
# Static dielectric constant tensor:
#      x y z
#    x 4.099880 0.000000 0.000000 
#    y 0.000000 3.694940 0.000000 
#    z 0.000000 0.000000 3.807130 
# 
# 
# High freq. dielectric constant tensor:
#      x y z
#    x 1.839030 0.000000 0.000000 
#    y 0.000000 1.801690 0.000000 
#    z 0.000000 0.000000 1.819970 
# 
# From -- ./inp_files/6630.got.cif
#   From: 2010.03.12/outbox.cif.g09.slc.cpg/sg39_4_cif.got.tgz:6630.got - 2010.04.14 02:53:20.
