data_PCOD8181619
_publ_section_title
;
Structure prediction by ZEFSAII (Michael W. Deem and Ramdas Pophale) SiO2 
 PCOD8181619
Probable space group: A B M 2
;
_chemical_formula_sum "Si O2"
_cell_formula_units_Z 32
_cell_length_a 13.065555
_cell_length_b 8.695887
_cell_length_c 15.275899
_cell_angle_alpha 90.000000
_cell_angle_beta 90.000000
_cell_angle_gamma 90.000000
_cell_volume 1735.595552
_symmetry_space_group_name_H-M "A B M 2"
_symmetry_group_IT_number 39
_symmetry_cell_setting 'orthorhombic'
loop_
_space_group_symop_operation_xyz
x,y,z
-x,-y,z
-x,1/2+y,z
x,1/2-y,z
x,1/2+y,1/2+z
-x,1/2-y,1/2+z
-x,y,1/2+z
x,-y,1/2+z
loop_
_atom_site_type_symbol
_atom_site_label
_atom_site_fract_x
_atom_site_fract_y
_atom_site_fract_z
Si Si1 0.895080 0.575697 0.534410
Si Si2 0.686666 0.424842 0.106701
Si Si3 0.728224 0.068386 0.434251
Si Si4 0.608758 0.930968 0.279565
O O1 0.915889 0.750000 0.504905
O O2 0.811515 0.570286 0.613698
O O3 0.846422 0.482958 0.451678
O O4 0.000000 0.500000 0.566941
O O5 0.646002 0.250000 0.115013
O O6 0.634888 0.529142 0.179745
O O7 0.656832 0.494077 0.011098
O O8 0.717817 0.250000 0.435978
O O9 0.695132 0.004714 0.340565
O O10 0.606463 0.750000 0.292480
O O11 0.500000 0.000000 0.306622
#
# Coordination Sequence:
#
# PCOD8181619 Si02
#       4
#     8   8   8   8
#     4   9  18  34  59  85 115 149 188 231 282 336
#     4   9  20  38  58  84 116 148 189 234 280 335
#     4  10  20  37  59  84 116 150 189 234 281 334
#     4  12  24  39  59  84 114 150 192 235 285 337
#
# _framework density 18.437476
#
# number of rings (size 3 to 8) (size 9 to 14) (size 15 to 20)
#    1.500    0.500    0.000    5.250    0.000    1.000 
#    0.000    6.250    0.000    3.000    0.000    0.000 
#    0.000    0.000    0.000    0.000    0.000    0.000 
#
# Total GULP energy -198279.528127 kJ/mol
# GULP energy per Si atom -12392.470508 kJ/mol
# Density = 1.839551 g / cm^3
# Si number density = 18.437476 Si / 1000 Ang^3
#
#
#
# Elastic Constant Matrix: (Units=GPa)
#
#
# Indices 1 2 3 4 5 6 
#
# 1 56.5872 30.1889 0.1595 0.0000 0.0000 0.0000
# 2 30.1889 156.8638 21.0773 0.0000 0.0000 0.0000
# 3 0.1595 21.0773 57.9389 0.0000 0.0000 0.0000
# 4 0.0000 0.0000 0.0000 33.9822 0.0000 0.0000
# 5 0.0000 0.0000 0.0000 0.0000 -15.7410 0.0000
# 6 0.0000 0.0000 0.0000 0.0000 0.0000 34.3465
#
#
#
# Elastic Compliance Matrix: (Units=1/GPa)
#
#
# Indices 1 2 3 4 5 6 
#
# 1 0.019801 -0.003999 0.001400 0.000000 0.000000 0.000000
# 2 -0.003999 0.007510 -0.002721 0.000000 0.000000 0.000000
# 3 0.001400 -0.002721 0.018246 0.000000 0.000000 0.000000
# 4 0.000000 0.000000 0.000000 0.029427 0.000000 0.000000
# 5 0.000000 0.000000 0.000000 0.000000 -0.063528 0.000000
# 6 0.000000 0.000000 0.000000 0.000000 0.000000 0.029115
#
#
# Mechanical properties :
#
#
# Convention : Reuss Voigt Hill
#
# Bulk Modulus (GPa) = 28.63895 41.58238 35.11066
# Shear Modulus (GPa) = 79.55477 25.18182 52.36830
#
# Velocity S-wave (km/s) = 6.57587 3.69968 5.33525
# Velocity P-wave (km/s) = 8.55703 6.39158 7.55232
#
# Compressibility (1/GPa) = 0.03491748
#
# Stress axis : x y z
#
# Youngs Moduli (GPa) = 50.50173 133.15241 54.80777
#
# Poissons Ratio (x) = 0.53247 -0.07674
# Poissons Ratio (y) = 0.20195 0.14914
# Poissons Ratio (z) = -0.07071 0.36232
#
# Static dielectric constant tensor:
#      x y z
#    x 3.880690 0.000000 0.000000 
#    y 0.000000 3.456720 0.000000 
#    z 0.000000 0.000000 3.136200 
# 
# 
# High freq. dielectric constant tensor:
#      x y z
#    x 1.699260 0.000000 0.000000 
#    y 0.000000 1.738430 0.000000 
#    z 0.000000 0.000000 1.690650 
# 
# From -- ./inp_files/6234.got.cif
#   From: 2010.03.12/outbox.cif.g09.slc.cpg/sg39_4_cif.got.tgz:6234.got - 2010.04.14 02:53:20.
