data_PCOD8181263
_publ_section_title
;
Structure prediction by ZEFSAII (Michael W. Deem and Ramdas Pophale) SiO2 
 PCOD8181263
Probable space group: A B M 2
;
_chemical_formula_sum "Si O2"
_cell_formula_units_Z 64
_cell_length_a 11.477876
_cell_length_b 17.968217
_cell_length_c 15.139145
_cell_angle_alpha 90.000000
_cell_angle_beta 90.000000
_cell_angle_gamma 90.000000
_cell_volume 3122.251343
_symmetry_space_group_name_H-M "A B M 2"
_symmetry_group_IT_number 39
_symmetry_cell_setting 'orthorhombic'
loop_
_space_group_symop_operation_xyz
x,y,z
-x,-y,z
-x,1/2+y,z
x,1/2-y,z
x,1/2+y,1/2+z
-x,1/2-y,1/2+z
-x,y,1/2+z
x,-y,1/2+z
loop_
_atom_site_type_symbol
_atom_site_label
_atom_site_fract_x
_atom_site_fract_y
_atom_site_fract_z
Si Si1 0.005856 0.413986 0.433140
Si Si2 0.801418 0.414905 0.190217
Si Si3 0.435812 0.578831 0.851844
Si Si4 0.013561 0.662695 0.755469
Si Si5 0.231020 0.904390 0.510581
Si Si6 0.662905 0.664538 0.843327
Si Si7 0.257685 0.424739 0.497820
Si Si8 0.240361 0.917245 0.706312
O O1 0.969118 0.362205 0.351589
O O2 0.133700 0.392389 0.466477
O O3 0.000000 0.500000 0.403003
O O4 0.910013 0.397222 0.508784
O O5 0.731562 0.385482 0.273787
O O6 0.822233 0.502930 0.199113
O O7 0.928410 0.376403 0.184016
O O8 0.727886 0.400555 0.100107
O O9 0.500000 0.500000 0.866513
O O10 0.527703 0.644081 0.836636
O O11 0.362487 0.605550 0.937669
O O12 0.354321 0.575455 0.765971
O O13 0.000985 0.750000 0.743966
O O14 0.147857 0.639618 0.746896
O O15 0.292321 0.848619 0.442799
O O16 0.276124 0.887271 0.609309
O O17 0.264893 0.987283 0.482519
O O18 0.680630 0.750000 0.817568
#
# Coordination Sequence:
#
# PCOD8181263 Si02
#       8
#     8   8   8   8   8   8   8   8
#     4  10  19  37  66  93 128 167 209 272 339 405
#     4  11  22  42  69 101 126 172 227 282 333 407
#     4  12  23  44  68  97 130 177 232 283 329 395
#     4  12  24  38  63  98 138 178 215 271 351 420
#     4  10  21  39  68 101 124 164 220 276 335 399
#     4  12  26  44  65  94 137 181 220 279 348 404
#     4  10  21  40  68 100 127 161 226 283 329 388
#     4  11  23  42  71  97 130 173 226 283 333 398
#
# _framework density 20.498028000000001
#
# number of rings (size 3 to 8) (size 9 to 14) (size 15 to 20)
#    0.000    1.000    5.000    2.250    0.000    4.000 
#    0.000    5.000    0.000    0.000    0.000    0.000 
#    0.000    0.000    0.000    0.000    0.000    0.000 
#
# Total GULP energy -396863.062401 kJ/mol
# GULP energy per Si atom -12401.970700 kJ/mol
# Density = 2.045137 g / cm^3
# Si number density = 20.498028 Si / 1000 Ang^3
#
#
#
# Elastic Constant Matrix: (Units=GPa)
#
#
# Indices 1 2 3 4 5 6 
#
# 1 112.2893 20.5267 42.1567 0.0000 0.0000 0.0000
# 2 20.5267 76.6030 27.6139 0.0000 0.0000 0.0000
# 3 42.1567 27.6139 129.7807 0.0000 0.0000 0.0000
# 4 0.0000 0.0000 0.0000 13.3200 0.0000 0.0000
# 5 0.0000 0.0000 0.0000 0.0000 25.4104 0.0000
# 6 0.0000 0.0000 0.0000 0.0000 0.0000 24.1002
#
#
#
# Elastic Compliance Matrix: (Units=1/GPa)
#
#
# Indices 1 2 3 4 5 6 
#
# 1 0.010340 -0.001690 -0.002999 0.000000 0.000000 0.000000
# 2 -0.001690 0.014415 -0.002518 0.000000 0.000000 0.000000
# 3 -0.002999 -0.002518 0.009215 0.000000 0.000000 0.000000
# 4 0.000000 0.000000 0.000000 0.075075 0.000000 0.000000
# 5 0.000000 0.000000 0.000000 0.000000 0.039354 0.000000
# 6 0.000000 0.000000 0.000000 0.000000 0.000000 0.041493
#
#
# Mechanical properties :
#
#
# Convention : Reuss Voigt Hill
#
# Bulk Modulus (GPa) = 51.13466 55.47415 53.30441
# Shear Modulus (GPa) = 23.71617 27.79117 25.75367
#
# Velocity S-wave (km/s) = 3.40516 3.68611 3.54842
# Velocity P-wave (km/s) = 6.36085 6.72595 6.54595
#
# Compressibility (1/GPa) = 0.01955621
#
# Stress axis : x y z
#
# Youngs Moduli (GPa) = 96.70713 69.37289 108.51382
#
# Poissons Ratio (x) = 0.11722 0.32548
# Poissons Ratio (y) = 0.16340 0.27326
# Poissons Ratio (z) = 0.29006 0.17470
#
# Static dielectric constant tensor:
#      x y z
#    x 3.846470 0.000000 0.000000 
#    y 0.000000 3.425520 0.000000 
#    z 0.000000 0.000000 3.808900 
# 
# 
# High freq. dielectric constant tensor:
#      x y z
#    x 1.805520 0.000000 0.000000 
#    y 0.000000 1.771970 0.000000 
#    z 0.000000 0.000000 1.810290 
# 
# From -- ./inp_files/9428.got.cif
#   From: 2010.03.12/outbox.cif.g09.slc.cpg/sg39_5_cif.got.tgz:9428.got - 2010.04.14 02:53:20.
