data_PCOD8181526
_publ_section_title
;
Structure prediction by ZEFSAII (Michael W. Deem and Ramdas Pophale) SiO2 
 PCOD8181526
Probable space group: A B M 2
;
_chemical_formula_sum "Si O2"
_cell_formula_units_Z 56
_cell_length_a 5.476397
_cell_length_b 11.844984
_cell_length_c 30.889121
_cell_angle_alpha 90.000000
_cell_angle_beta 90.000000
_cell_angle_gamma 90.000000
_cell_volume 2003.710399
_symmetry_space_group_name_H-M "A B M 2"
_symmetry_group_IT_number 39
_symmetry_cell_setting 'orthorhombic'
loop_
_space_group_symop_operation_xyz
x,y,z
-x,-y,z
-x,1/2+y,z
x,1/2-y,z
x,1/2+y,1/2+z
-x,1/2-y,1/2+z
-x,y,1/2+z
x,-y,1/2+z
loop_
_atom_site_type_symbol
_atom_site_label
_atom_site_fract_x
_atom_site_fract_y
_atom_site_fract_z
Si Si1 0.141909 0.624689 0.065530
Si Si2 0.143125 0.881041 0.342121
Si Si3 0.250000 0.934373 0.972255
Si Si4 0.356875 0.381041 0.102390
Si Si5 0.644957 0.380829 0.702412
Si Si6 0.641909 0.875311 0.378980
Si Si7 0.144957 0.619171 0.242099
O O1 0.112743 0.750000 0.085664
O O2 0.371002 0.566083 0.091686
O O3 0.870374 0.567824 0.073067
O O4 0.199209 0.638872 0.014873
O O5 0.114318 0.750000 0.355141
O O6 0.370374 0.932176 0.371443
O O7 0.208699 0.897172 0.292174
O O8 0.871002 0.933917 0.352825
O O9 0.300790 0.861128 0.929637
O O10 0.500000 0.000000 0.982309
O O11 0.000000 0.000000 0.962201
O O12 0.385681 0.250000 0.089370
O O13 0.291301 0.397174 0.152336
O O14 0.622619 0.250000 0.715330
O O15 0.372390 0.432233 0.713425
O O16 0.872390 0.432233 0.731085
O O17 0.612742 0.750000 0.358847
O O18 0.122618 0.750000 0.229180
#
# Coordination Sequence:
#
# PCOD8181526 Si02
#       7
#     8   8   8   8   8   8   8
#     4  10  20  36  56  77 105 141 178 214 259 314
#     4   9  17  29  48  74 104 140 178 212 251 308
#     4  12  25  40  57  80 108 134 172 222 271 318
#     4   9  17  29  48  74 104 140 178 212 251 308
#     4   9  15  23  38  65 104 141 167 201 254 304
#     4  10  20  36  56  77 105 141 178 214 259 314
#     4   9  15  23  38  65 104 141 167 201 254 304
#
# _framework density 27.948149000000001
#
# number of rings (size 3 to 8) (size 9 to 14) (size 15 to 20)
#    0.000    2.286    0.000    3.857    0.000    6.857 
#    0.000    5.714    0.000    0.000    0.000    0.000 
#    0.000   80.000    0.000    0.000    0.000    0.000 
#
# Total GULP energy -347462.643360 kJ/mol
# GULP energy per Si atom -12409.380120 kJ/mol
# Density = 2.788454 g / cm^3
# Si number density = 27.948149 Si / 1000 Ang^3
#
#
#
# Elastic Constant Matrix: (Units=GPa)
#
#
# Indices 1 2 3 4 5 6 
#
# 1 300.2867 102.9651 90.4380 0.0000 0.0000 0.0000
# 2 102.9651 111.9809 -4.9056 0.0000 0.0000 0.0000
# 3 90.4380 -4.9056 154.3361 0.0000 0.0000 0.0000
# 4 0.0000 0.0000 0.0000 92.7036 0.0000 0.0000
# 5 0.0000 0.0000 0.0000 0.0000 61.9060 0.0000
# 6 0.0000 0.0000 0.0000 0.0000 0.0000 54.0320
#
#
#
# Elastic Compliance Matrix: (Units=1/GPa)
#
#
# Indices 1 2 3 4 5 6 
#
# 1 0.006797 -0.006433 -0.004188 0.000000 0.000000 0.000000
# 2 -0.006433 0.015032 0.004248 0.000000 0.000000 0.000000
# 3 -0.004188 0.004248 0.009068 0.000000 0.000000 0.000000
# 4 0.000000 0.000000 0.000000 0.010787 0.000000 0.000000
# 5 0.000000 0.000000 0.000000 0.000000 0.016154 0.000000
# 6 0.000000 0.000000 0.000000 0.000000 0.000000 0.018508
#
#
# Mechanical properties :
#
#
# Convention : Reuss Voigt Hill
#
# Bulk Modulus (GPa) = 55.09504 104.84429 79.96966
# Shear Modulus (GPa) = 52.55287 66.93541 59.74414
#
# Velocity S-wave (km/s) = 4.34103 4.89917 4.62852
# Velocity P-wave (km/s) = 6.69941 8.34253 7.56571
#
# Compressibility (1/GPa) = 0.01815045
#
# Stress axis : x y z
#
# Youngs Moduli (GPa) = 147.11701 66.52607 110.27521
#
# Poissons Ratio (x) = 0.42800 0.46179
# Poissons Ratio (y) = 0.94648 -0.46841
# Poissons Ratio (z) = 0.61606 -0.28258
#
# Static dielectric constant tensor:
#      x y z
#    x 6.175620 0.000000 0.000000 
#    y 0.000000 5.898960 0.000000 
#    z 0.000000 0.000000 4.494260 
# 
# 
# High freq. dielectric constant tensor:
#      x y z
#    x 2.190030 0.000000 0.000000 
#    y 0.000000 2.234250 0.000000 
#    z 0.000000 0.000000 2.091790 
# 
# From -- ./inp_files/17266.got.cif
#   From: 2010.03.12/outbox.cif.g09.slc.cpg/sg39_9_cif.got.tgz:17266.got - 2010.04.14 02:53:20.
