data_PCOD8181278
_publ_section_title
;
Structure prediction by ZEFSAII (Michael W. Deem and Ramdas Pophale) SiO2 
 PCOD8181278
Probable space group: A B M 2
;
_chemical_formula_sum "Si O2"
_cell_formula_units_Z 64
_cell_length_a 15.674120
_cell_length_b 18.757745
_cell_length_c 10.751453
_cell_angle_alpha 90.000000
_cell_angle_beta 90.000000
_cell_angle_gamma 90.000000
_cell_volume 3161.047018
_symmetry_space_group_name_H-M "A B M 2"
_symmetry_group_IT_number 39
_symmetry_cell_setting 'orthorhombic'
loop_
_space_group_symop_operation_xyz
x,y,z
-x,-y,z
-x,1/2+y,z
x,1/2-y,z
x,1/2+y,1/2+z
-x,1/2-y,1/2+z
-x,y,1/2+z
x,-y,1/2+z
loop_
_atom_site_type_symbol
_atom_site_label
_atom_site_fract_x
_atom_site_fract_y
_atom_site_fract_z
Si Si1 0.848791 0.669644 0.684420
Si Si2 0.985016 0.582197 0.137782
Si Si3 0.275260 0.409756 0.524498
Si Si4 0.561966 0.332004 0.939518
Si Si5 0.851398 0.045966 0.821868
Si Si6 0.143921 0.104779 0.930291
Si Si7 0.283844 0.937866 0.607042
Si Si8 0.563295 0.833224 0.159768
O O1 0.855690 0.750000 0.634764
O O2 0.758081 0.636094 0.641340
O O3 0.850949 0.670267 0.834494
O O4 0.927708 0.624408 0.633863
O O5 0.935619 0.587277 0.271269
O O6 0.000000 0.500000 0.100276
O O7 0.926991 0.619419 0.033448
O O8 0.347266 0.370073 0.446438
O O9 0.189165 0.417608 0.442489
O O10 0.318215 0.484711 0.564259
O O11 0.580023 0.250000 0.964202
O O12 0.523652 0.343789 0.799459
O O13 0.500058 0.359334 0.050122
O O14 0.781762 0.044451 0.714770
O O15 0.879728 0.965384 0.849995
O O16 0.237035 0.098102 0.990858
O O17 0.355630 0.884221 0.652943
O O18 0.589064 0.750000 0.140907
#
# Coordination Sequence:
#
# PCOD8181278 Si02
#       8
#     8   8   8   8   8   8   8   8
#     4  12  26  40  57  90 129 163 207 259 315 376
#     4  11  22  38  64  87 116 165 216 255 309 368
#     4  11  22  40  65  92 124 163 207 255 312 373
#     4  10  22  42  66  91 128 169 210 254 315 381
#     4  10  19  39  64  89 117 155 206 257 309 359
#     4  10  22  38  59  89 121 158 201 259 312 370
#     4  10  20  39  67  93 119 156 206 257 304 372
#     4  10  22  42  66  96 127 166 211 258 313 380
#
# _framework density 20.246455999999998
#
# number of rings (size 3 to 8) (size 9 to 14) (size 15 to 20)
#    0.000    1.500    3.750    1.875    3.500    2.500 
#    0.000    5.000    0.000    0.000    0.000    0.000 
#    0.000    0.000    0.000    0.000    0.000    0.000 
#
# Total GULP energy -396719.698739 kJ/mol
# GULP energy per Si atom -12397.490586 kJ/mol
# Density = 2.020037 g / cm^3
# Si number density = 20.246456 Si / 1000 Ang^3
#
#
#
# Elastic Constant Matrix: (Units=GPa)
#
#
# Indices 1 2 3 4 5 6 
#
# 1 66.8267 31.4168 30.2122 0.0000 0.0000 0.0000
# 2 31.4168 66.3754 25.9426 0.0000 0.0000 0.0000
# 3 30.2122 25.9426 105.9584 0.0000 0.0000 0.0000
# 4 0.0000 0.0000 0.0000 19.9469 0.0000 0.0000
# 5 0.0000 0.0000 0.0000 0.0000 26.5935 0.0000
# 6 0.0000 0.0000 0.0000 0.0000 0.0000 25.2184
#
#
#
# Elastic Compliance Matrix: (Units=1/GPa)
#
#
# Indices 1 2 3 4 5 6 
#
# 1 0.020576 -0.008234 -0.003851 0.000000 0.000000 0.000000
# 2 -0.008234 0.019955 -0.002538 0.000000 0.000000 0.000000
# 3 -0.003851 -0.002538 0.011157 0.000000 0.000000 0.000000
# 4 0.000000 0.000000 0.000000 0.050133 0.000000 0.000000
# 5 0.000000 0.000000 0.000000 0.000000 0.037603 0.000000
# 6 0.000000 0.000000 0.000000 0.000000 0.000000 0.039654
#
#
# Mechanical properties :
#
#
# Convention : Reuss Voigt Hill
#
# Bulk Modulus (GPa) = 44.55832 46.03376 45.29604
# Shear Modulus (GPa) = 23.16911 24.45769 23.81340
#
# Velocity S-wave (km/s) = 3.38650 3.47940 3.43326
# Velocity P-wave (km/s) = 6.11121 6.23920 6.17554
#
# Compressibility (1/GPa) = 0.02244250
#
# Stress axis : x y z
#
# Youngs Moduli (GPa) = 48.60023 50.11259 89.62916
#
# Poissons Ratio (x) = 0.41262 0.34516
# Poissons Ratio (y) = 0.40017 0.22748
# Poissons Ratio (z) = 0.18716 0.12718
#
# Static dielectric constant tensor:
#      x y z
#    x 3.550270 0.000000 0.000000 
#    y 0.000000 3.474440 0.000000 
#    z 0.000000 0.000000 4.065300 
# 
# 
# High freq. dielectric constant tensor:
#      x y z
#    x 1.778790 0.000000 0.000000 
#    y 0.000000 1.769590 0.000000 
#    z 0.000000 0.000000 1.811760 
# 
# From -- ./inp_files/6619.got.cif
#   From: 2010.03.12/outbox.cif.g09.slc.cpg/sg39_4_cif.got.tgz:6619.got - 2010.04.14 02:53:20.
