data_PCOD8181141
_publ_section_title
;
Structure prediction by ZEFSAII (Michael W. Deem and Ramdas Pophale) SiO2 
 PCOD8181141
Probable space group: A B M 2
;
_chemical_formula_sum "Si O2"
_cell_formula_units_Z 64
_cell_length_a 8.698119
_cell_length_b 24.312807
_cell_length_c 15.442978
_cell_angle_alpha 90.000000
_cell_angle_beta 90.000000
_cell_angle_gamma 90.000000
_cell_volume 3265.814405
_symmetry_space_group_name_H-M "A B M 2"
_symmetry_group_IT_number 39
_symmetry_cell_setting 'orthorhombic'
loop_
_space_group_symop_operation_xyz
x,y,z
-x,-y,z
-x,1/2+y,z
x,1/2-y,z
x,1/2+y,1/2+z
-x,1/2-y,1/2+z
-x,y,1/2+z
x,-y,1/2+z
loop_
_atom_site_type_symbol
_atom_site_label
_atom_site_fract_x
_atom_site_fract_y
_atom_site_fract_z
Si Si1 0.150152 0.533942 0.881620
Si Si2 0.105536 0.686376 0.249183
Si Si3 0.884277 0.314058 0.593757
Si Si4 0.335732 0.064828 0.916636
Si Si5 0.169151 0.009305 0.187454
Si Si6 0.630248 0.597638 0.098530
Si Si7 0.976514 0.633763 0.922022
Si Si8 0.643240 0.097357 0.232188
O O1 0.301379 0.501408 0.916960
O O2 0.158965 0.541142 0.778165
O O3 0.000000 0.500000 0.907480
O O4 0.129827 0.595141 0.921376
O O5 0.149382 0.750000 0.242931
O O6 0.022518 0.674260 0.340023
O O7 0.264510 0.654040 0.237035
O O8 0.987113 0.668773 0.174910
O O9 0.844227 0.250000 0.592748
O O10 0.723220 0.345697 0.598515
O O11 0.979469 0.329940 0.508148
O O12 0.172923 0.095711 0.915325
O O13 0.423897 0.081318 0.827641
O O14 0.431597 0.083907 0.001145
O O15 0.245651 0.950240 0.198972
O O16 0.261967 0.046010 0.120157
O O17 0.000000 0.000000 0.147702
O O18 0.494424 0.604399 0.165798
#
# Coordination Sequence:
#
# PCOD8181141 Si02
#       8
#     8   8   8   8   8   8   8   8
#     4   8  14  28  51  78 108 138 173 215 263 320
#     4  10  20  36  57  79 107 145 185 226 277 335
#     4  10  21  35  54  83 112 140 182 231 276 330
#     4   8  18  33  51  76 107 143 180 221 270 327
#     4  10  19  34  56  81 111 143 178 224 272 326
#     4  11  21  35  56  80 109 147 185 226 281 334
#     4   9  16  31  55  82 106 137 178 222 273 326
#     4  10  21  38  55  79 111 143 186 231 276 330
#
# _framework density 19.59695
#
# number of rings (size 3 to 8) (size 9 to 14) (size 15 to 20)
#    0.000    2.500    0.000    4.500    0.000    4.000 
#    0.000    7.500    0.000    0.000    0.000    0.000 
#    0.000    0.000    0.000    0.000    0.000    0.000 
#
# Total GULP energy -396751.801728 kJ/mol
# GULP energy per Si atom -12398.493804 kJ/mol
# Density = 1.955235 g / cm^3
# Si number density = 19.596950 Si / 1000 Ang^3
#
#
#
# Elastic Constant Matrix: (Units=GPa)
#
#
# Indices 1 2 3 4 5 6 
#
# 1 63.7039 37.5354 57.8535 0.0000 0.0000 0.0000
# 2 37.5354 87.3092 53.4891 0.0000 0.0000 0.0000
# 3 57.8535 53.4891 153.5844 0.0000 0.0000 0.0000
# 4 0.0000 0.0000 0.0000 28.4082 0.0000 0.0000
# 5 0.0000 0.0000 0.0000 0.0000 32.0906 0.0000
# 6 0.0000 0.0000 0.0000 0.0000 0.0000 17.4265
#
#
#
# Elastic Compliance Matrix: (Units=1/GPa)
#
#
# Indices 1 2 3 4 5 6 
#
# 1 0.026660 -0.006749 -0.007692 0.000000 0.000000 0.000000
# 2 -0.006749 0.016269 -0.003124 0.000000 0.000000 0.000000
# 3 -0.007692 -0.003124 0.010496 0.000000 0.000000 0.000000
# 4 0.000000 0.000000 0.000000 0.035201 0.000000 0.000000
# 5 0.000000 0.000000 0.000000 0.000000 0.031162 0.000000
# 6 0.000000 0.000000 0.000000 0.000000 0.000000 0.057384
#
#
# Mechanical properties :
#
#
# Convention : Reuss Voigt Hill
#
# Bulk Modulus (GPa) = 54.65761 66.92817 60.79289
# Shear Modulus (GPa) = 22.89383 25.96638 24.43011
#
# Velocity S-wave (km/s) = 3.42165 3.64403 3.53459
# Velocity P-wave (km/s) = 6.60013 7.20637 6.90990
#
# Compressibility (1/GPa) = 0.01829571
#
# Stress axis : x y z
#
# Youngs Moduli (GPa) = 37.50961 61.46769 95.27039
#
# Poissons Ratio (x) = 0.41485 0.73282
# Poissons Ratio (y) = 0.25315 0.29759
# Poissons Ratio (z) = 0.28852 0.19200
#
# Static dielectric constant tensor:
#      x y z
#    x 3.229690 0.000000 0.000000 
#    y 0.000000 3.555250 0.000000 
#    z 0.000000 0.000000 3.907250 
# 
# 
# High freq. dielectric constant tensor:
#      x y z
#    x 1.729870 0.000000 0.000000 
#    y 0.000000 1.760590 0.000000 
#    z 0.000000 0.000000 1.778600 
# 
# From -- ./inp_files/8781.got.cif
#   From: 2010.03.12/outbox.cif.g09.slc.cpg/sg39_5_cif.got.tgz:8781.got - 2010.04.14 02:53:20.
