data_PCOD8181493
_publ_section_title
;
Structure prediction by ZEFSAII (Michael W. Deem and Ramdas Pophale) SiO2 
 PCOD8181493
Probable space group: A B M 2
;
_chemical_formula_sum "Si O2"
_cell_formula_units_Z 64
_cell_length_a 23.790794
_cell_length_b 8.713326
_cell_length_c 15.379426
_cell_angle_alpha 90.000000
_cell_angle_beta 90.000000
_cell_angle_gamma 90.000000
_cell_volume 3188.108009
_symmetry_space_group_name_H-M "A B M 2"
_symmetry_group_IT_number 39
_symmetry_cell_setting 'orthorhombic'
loop_
_space_group_symop_operation_xyz
x,y,z
-x,-y,z
-x,1/2+y,z
x,1/2-y,z
x,1/2+y,1/2+z
-x,1/2-y,1/2+z
-x,y,1/2+z
x,-y,1/2+z
loop_
_atom_site_type_symbol
_atom_site_label
_atom_site_fract_x
_atom_site_fract_y
_atom_site_fract_z
Si Si1 0.558808 0.069142 0.995440
Si Si2 0.634302 0.070255 0.837524
Si Si3 0.944205 0.926889 0.756696
Si Si4 0.170223 0.068907 0.007266
Si Si5 0.440672 0.431000 0.691619
Si Si6 0.175059 0.427057 0.684499
Si Si7 0.764286 0.569365 0.348687
Si Si8 0.058599 0.568471 0.942814
O O1 0.552810 0.250000 0.993911
O O2 0.606169 0.013141 0.927673
O O3 0.500000 0.000000 0.964007
O O4 0.573920 0.013339 0.093254
O O5 0.624800 0.250000 0.824538
O O6 0.699242 0.026329 0.841773
O O7 0.608485 0.985830 0.754598
O O8 0.955559 0.750000 0.781603
O O9 0.892403 0.942716 0.691348
O O10 0.000000 0.000000 0.712618
O O11 0.930136 0.019427 0.843920
O O12 0.165155 0.250000 0.000686
O O13 0.195900 0.017055 0.099475
O O14 0.108754 0.995243 0.001009
O O15 0.212035 0.009715 0.934164
O O16 0.500000 0.500000 0.722508
O O17 0.445636 0.250000 0.696496
O O18 0.193289 0.250000 0.678594
O O19 0.204079 0.503845 0.766116
O O20 0.774718 0.750000 0.355289
O O21 0.057152 0.750000 0.950931
O O22 0.000000 0.500000 0.977616
#
# Coordination Sequence:
#
# PCOD8181493 Si02
#       8
#     8   8   8   8   8   8   8   8
#     4   9  19  36  57  85 121 157 193 237 289 346
#     4  10  22  39  60  87 119 155 199 248 297 355
#     4  10  20  35  59  89 121 155 194 243 303 366
#     4  12  25  42  64  90 121 159 206 254 306 368
#     4  10  20  35  58  88 122 160 198 241 295 351
#     4  11  24  42  64  89 120 159 205 253 307 367
#     4  11  24  43  64  88 121 161 205 257 312 363
#     4  11  21  36  61  90 123 158 197 245 304 366
#
# _framework density 20.074601999999999
#
# number of rings (size 3 to 8) (size 9 to 14) (size 15 to 20)
#    0.000    1.500    1.250    4.875    0.000    6.000 
#    0.000    2.500    0.000    0.000    0.000    0.000 
#    0.000    0.000    0.000    0.000    0.000    0.000 
#
# Total GULP energy -396922.399728 kJ/mol
# GULP energy per Si atom -12403.824991 kJ/mol
# Density = 2.002891 g / cm^3
# Si number density = 20.074602 Si / 1000 Ang^3
#
#
#
# Elastic Constant Matrix: (Units=GPa)
#
#
# Indices 1 2 3 4 5 6 
#
# 1 112.0994 53.7687 53.2369 0.0000 0.0000 0.0000
# 2 53.7687 121.7826 43.5635 0.0000 0.0000 0.0000
# 3 53.2369 43.5635 116.2390 0.0000 0.0000 0.0000
# 4 0.0000 0.0000 0.0000 25.1224 0.0000 0.0000
# 5 0.0000 0.0000 0.0000 0.0000 -10.8837 0.0000
# 6 0.0000 0.0000 0.0000 0.0000 0.0000 31.7977
#
#
#
# Elastic Compliance Matrix: (Units=1/GPa)
#
#
# Indices 1 2 3 4 5 6 
#
# 1 0.013008 -0.004171 -0.004394 0.000000 0.000000 0.000000
# 2 -0.004171 0.010820 -0.002145 0.000000 0.000000 0.000000
# 3 -0.004394 -0.002145 0.011419 0.000000 0.000000 0.000000
# 4 0.000000 0.000000 0.000000 0.039805 0.000000 0.000000
# 5 0.000000 0.000000 0.000000 0.000000 -0.091880 0.000000
# 6 0.000000 0.000000 0.000000 0.000000 0.000000 0.031449
#
#
# Mechanical properties :
#
#
# Convention : Reuss Voigt Hill
#
# Bulk Modulus (GPa) = 72.32247 72.36216 72.34231
# Shear Modulus (GPa) = 122.99507 22.51074 72.75290
#
# Velocity S-wave (km/s) = 7.83594 3.35230 6.02660
# Velocity P-wave (km/s) = 10.86160 7.14904 9.19465
#
# Compressibility (1/GPa) = 0.01382696
#
# Stress axis : x y z
#
# Youngs Moduli (GPa) = 76.87305 92.41903 87.57049
#
# Poissons Ratio (x) = 0.38552 0.38482
# Poissons Ratio (y) = 0.32067 0.18781
# Poissons Ratio (z) = 0.33782 0.19821
#
# Static dielectric constant tensor:
#      x y z
#    x 3.736750 0.000000 0.000000 
#    y 0.000000 3.712140 0.000000 
#    z 0.000000 0.000000 3.721150 
# 
# 
# High freq. dielectric constant tensor:
#      x y z
#    x 1.780870 0.000000 0.000000 
#    y 0.000000 1.793140 0.000000 
#    z 0.000000 0.000000 1.789850 
# 
# From -- ./inp_files/10690.got.cif
#   From: 2010.03.12/outbox.cif.g09.slc.cpg/sg39_6_cif.got.tgz:10690.got - 2010.04.14 02:53:20.
