data_PCOD8181945
_publ_section_title
;
Structure prediction by ZEFSAII (Michael W. Deem and Ramdas Pophale) SiO2 
 PCOD8181945
Probable space group: A B M 2
;
_chemical_formula_sum "Si O2"
_cell_formula_units_Z 32
_cell_length_a 6.723328
_cell_length_b 14.071262
_cell_length_c 11.867172
_cell_angle_alpha 90.000000
_cell_angle_beta 90.000000
_cell_angle_gamma 90.000000
_cell_volume 1122.702230
_symmetry_space_group_name_H-M "A B M 2"
_symmetry_group_IT_number 39
_symmetry_cell_setting 'orthorhombic'
loop_
_space_group_symop_operation_xyz
x,y,z
-x,-y,z
-x,1/2+y,z
x,1/2-y,z
x,1/2+y,1/2+z
-x,1/2-y,1/2+z
-x,y,1/2+z
x,-y,1/2+z
loop_
_atom_site_type_symbol
_atom_site_label
_atom_site_fract_x
_atom_site_fract_y
_atom_site_fract_z
Si Si1 0.724811 0.479303 0.333810
Si Si2 0.643392 0.862673 0.617340
Si Si3 0.781582 0.646628 0.188032
Si Si4 0.018185 0.855714 0.972538
O O1 0.500000 0.500000 0.373886
O O2 0.739854 0.413693 0.224468
O O3 0.831272 0.581005 0.298277
O O4 0.861412 0.431977 0.427899
O O5 0.664312 0.750000 0.630328
O O6 0.751525 0.891783 0.496365
O O7 0.410284 0.893143 0.618132
O O8 0.729853 0.750000 0.239048
O O9 0.965519 0.653856 0.105396
O O10 0.999479 0.750000 0.916177
#
# Coordination Sequence:
#
# PCOD8181945 Si02
#       4
#     8   8   8   8
#     4  10  21  39  68  99 133 176 226 282 346 415
#     4   9  19  39  66  96 133 173 219 283 350 408
#     4   9  20  41  65  93 133 177 221 273 339 414
#     4  10  21  41  69  97 127 169 225 286 344 403
#
# _framework density 28.502659999999999
#
# number of rings (size 3 to 8) (size 9 to 14) (size 15 to 20)
#    0.000    2.500    0.000    0.750    0.000    5.000 
#    0.000   15.000    0.000   31.500    0.000    0.000 
#    0.000    0.000    0.000    0.000    0.000    0.000 
#
# Total GULP energy -198310.279014 kJ/mol
# GULP energy per Si atom -12394.392438 kJ/mol
# Density = 2.843779 g / cm^3
# Si number density = 28.502660 Si / 1000 Ang^3
#
#
#
# Elastic Constant Matrix: (Units=GPa)
#
#
# Indices 1 2 3 4 5 6 
#
# 1 89.7704 35.0801 42.8355 0.0000 0.0000 0.0000
# 2 35.0801 115.5568 16.1223 0.0000 0.0000 0.0000
# 3 42.8355 16.1223 76.1796 0.0000 0.0000 0.0000
# 4 0.0000 0.0000 0.0000 44.0895 0.0000 0.0000
# 5 0.0000 0.0000 0.0000 0.0000 65.3590 0.0000
# 6 0.0000 0.0000 0.0000 0.0000 0.0000 44.8792
#
#
#
# Elastic Compliance Matrix: (Units=1/GPa)
#
#
# Indices 1 2 3 4 5 6 
#
# 1 0.016765 -0.003889 -0.008604 0.000000 0.000000 0.000000
# 2 -0.003889 0.009819 0.000109 0.000000 0.000000 0.000000
# 3 -0.008604 0.000109 0.017942 0.000000 0.000000 0.000000
# 4 0.000000 0.000000 0.000000 0.022681 0.000000 0.000000
# 5 0.000000 0.000000 0.000000 0.000000 0.015300 0.000000
# 6 0.000000 0.000000 0.000000 0.000000 0.000000 0.022282
#
#
# Mechanical properties :
#
#
# Convention : Reuss Voigt Hill
#
# Bulk Modulus (GPa) = 50.61344 52.17585 51.39465
# Shear Modulus (GPa) = 36.72623 43.36346 40.04485
#
# Velocity S-wave (km/s) = 3.59349 3.90472 3.75233
# Velocity P-wave (km/s) = 5.91722 6.21888 6.06993
#
# Compressibility (1/GPa) = 0.01975760
#
# Stress axis : x y z
#
# Youngs Moduli (GPa) = 59.64947 101.84157 55.73612
#
# Poissons Ratio (x) = 0.39605 0.47953
# Poissons Ratio (y) = 0.23197 -0.00606
# Poissons Ratio (z) = 0.51320 -0.01106
#
# Static dielectric constant tensor:
#      x y z
#    x 5.676130 0.000000 0.000000 
#    y 0.000000 5.603630 0.000000 
#    z 0.000000 0.000000 5.267570 
# 
# 
# High freq. dielectric constant tensor:
#      x y z
#    x 2.183490 0.000000 0.000000 
#    y 0.000000 2.174210 0.000000 
#    z 0.000000 0.000000 2.156000 
# 
# From -- ./inp_files/7893.got.cif
#   From: 2010.03.12/outbox.cif.g09.slc.cpg/sg39_4_cif.got.tgz:7893.got - 2010.04.14 02:53:20.
