data_PCOD8181769
_publ_section_title
;
Structure prediction by ZEFSAII (Michael W. Deem and Ramdas Pophale) SiO2 
 PCOD8181769
Probable space group: A B M 2
;
_chemical_formula_sum "Si O2"
_cell_formula_units_Z 48
_cell_length_a 5.261670
_cell_length_b 13.703395
_cell_length_c 28.950524
_cell_angle_alpha 90.000000
_cell_angle_beta 90.000000
_cell_angle_gamma 90.000000
_cell_volume 2087.412173
_symmetry_space_group_name_H-M "A B M 2"
_symmetry_group_IT_number 39
_symmetry_cell_setting 'orthorhombic'
loop_
_space_group_symop_operation_xyz
x,y,z
-x,-y,z
-x,1/2+y,z
x,1/2-y,z
x,1/2+y,1/2+z
-x,1/2-y,1/2+z
-x,y,1/2+z
x,-y,1/2+z
loop_
_atom_site_type_symbol
_atom_site_label
_atom_site_fract_x
_atom_site_fract_y
_atom_site_fract_z
Si Si1 0.767285 0.750000 0.896510
Si Si2 0.691638 0.634934 0.179517
Si Si3 0.255898 0.599473 0.577508
Si Si4 0.267160 0.250000 0.456034
Si Si5 0.755163 0.114730 0.038934
Si Si6 0.808206 0.635269 0.734962
Si Si7 0.753804 0.440976 0.336347
O O1 0.547912 0.750000 0.934790
O O2 0.734851 0.842264 0.864251
O O3 0.047946 0.750000 0.918005
O O4 0.701680 0.750000 0.168682
O O5 0.729666 0.576029 0.131894
O O6 0.421853 0.603961 0.201251
O O7 0.920205 0.604775 0.213609
O O8 0.503519 0.660788 0.562524
O O9 0.250167 0.501753 0.545934
O O10 0.000422 0.658812 0.565566
O O11 0.236257 0.349172 0.486109
O O12 0.797011 0.750000 0.744848
O O13 0.775763 0.578420 0.782200
O O14 0.500000 0.500000 0.347418
O O15 0.000000 0.500000 0.353581
#
# Coordination Sequence:
#
# PCOD8181769 Si02
#       7
#     4   8   8   4   8   8   8
#     4  12  28  54  78 109 148 181 244 318 366 468
#     4  10  21  35  66  99 136 193 246 280 335 413
#     4  10  21  42  59  95 137 183 225 289 337 412
#     4  12  26  48  76 105 130 187 240 304 390 432
#     4  10  23  41  64  89 134 174 230 290 363 408
#     4  10  21  43  66  99 144 188 235 298 343 416
#     4  12  26  50  77 111 147 196 237 294 389 438
#
# _framework density 22.994978
#
# number of rings (size 3 to 8) (size 9 to 14) (size 15 to 20)
#    0.000    1.333    0.833    4.000    2.333    0.000 
#   36.000    0.000    0.000    0.000    0.000    0.000 
#    0.000    0.000    0.000    0.000    0.000    0.000 
#
# Total GULP energy -297553.981525 kJ/mol
# GULP energy per Si atom -12398.082564 kJ/mol
# Density = 2.294264 g / cm^3
# Si number density = 22.994978 Si / 1000 Ang^3
#
#
#
# Elastic Constant Matrix: (Units=GPa)
#
#
# Indices 1 2 3 4 5 6 
#
# 1 219.7416 19.8899 40.2090 0.0000 0.0000 0.0000
# 2 19.8899 92.0440 44.4904 0.0000 0.0000 0.0000
# 3 40.2090 44.4904 112.5506 0.0000 0.0000 0.0000
# 4 0.0000 0.0000 0.0000 29.0979 0.0000 0.0000
# 5 0.0000 0.0000 0.0000 0.0000 121.5742 0.0000
# 6 0.0000 0.0000 0.0000 0.0000 0.0000 10.7362
#
#
#
# Elastic Compliance Matrix: (Units=1/GPa)
#
#
# Indices 1 2 3 4 5 6 
#
# 1 0.004874 -0.000262 -0.001638 0.000000 0.000000 0.000000
# 2 -0.000262 0.013445 -0.005221 0.000000 0.000000 0.000000
# 3 -0.001638 -0.005221 0.011534 0.000000 0.000000 0.000000
# 4 0.000000 0.000000 0.000000 0.034367 0.000000 0.000000
# 5 0.000000 0.000000 0.000000 0.000000 0.008225 0.000000
# 6 0.000000 0.000000 0.000000 0.000000 0.000000 0.093143
#
#
# Mechanical properties :
#
#
# Convention : Reuss Voigt Hill
#
# Bulk Modulus (GPa) = 64.05534 70.39051 67.22293
# Shear Modulus (GPa) = 27.02228 53.59813 40.31020
#
# Velocity S-wave (km/s) = 3.43175 4.83314 4.19143
# Velocity P-wave (km/s) = 6.60449 7.86278 7.26094
#
# Compressibility (1/GPa) = 0.01561150
#
# Stress axis : x y z
#
# Youngs Moduli (GPa) = 205.16239 74.37957 86.70089
#
# Poissons Ratio (x) = 0.01945 0.14201
# Poissons Ratio (y) = 0.05366 0.45267
# Poissons Ratio (z) = 0.33604 0.38834
#
# Static dielectric constant tensor:
#      x y z
#    x 5.181760 0.000000 0.000000 
#    y 0.000000 4.026690 0.000000 
#    z 0.000000 0.000000 3.941830 
# 
# 
# High freq. dielectric constant tensor:
#      x y z
#    x 1.942700 0.000000 0.000000 
#    y 0.000000 1.914720 0.000000 
#    z 0.000000 0.000000 1.896520 
# 
# From -- ./inp_files/16514.got.cif
#   From: 2010.03.12/outbox.cif.g09.slc.cpg/sg39_9_cif.got.tgz:16514.got - 2010.04.14 02:53:20.
