data_PCOD8181750
_publ_section_title
;
Structure prediction by ZEFSAII (Michael W. Deem and Ramdas Pophale) SiO2 
 PCOD8181750
Probable space group: A B M 2
;
_chemical_formula_sum "Si O2"
_cell_formula_units_Z 56
_cell_length_a 17.148088
_cell_length_b 28.730213
_cell_length_c 5.129409
_cell_angle_alpha 90.000000
_cell_angle_beta 90.000000
_cell_angle_gamma 90.000000
_cell_volume 2527.096806
_symmetry_space_group_name_H-M "A B M 2"
_symmetry_group_IT_number 39
_symmetry_cell_setting 'orthorhombic'
loop_
_space_group_symop_operation_xyz
x,y,z
-x,-y,z
-x,1/2+y,z
x,1/2-y,z
x,1/2+y,1/2+z
-x,1/2-y,1/2+z
-x,y,1/2+z
x,-y,1/2+z
loop_
_atom_site_type_symbol
_atom_site_label
_atom_site_fract_x
_atom_site_fract_y
_atom_site_fract_z
Si Si1 0.194943 0.470161 0.806940
Si Si2 0.207553 0.803111 0.995709
Si Si3 0.449490 0.128304 0.958335
Si Si4 0.306656 0.303715 0.007969
Si Si5 0.963953 0.328077 0.092831
Si Si6 0.367800 0.468395 0.875373
Si Si7 0.964139 0.567881 0.724925
O O1 0.186506 0.488676 0.513821
O O2 0.279630 0.447665 0.863730
O O3 0.125567 0.432677 0.825407
O O4 0.188336 0.750000 0.927668
O O5 0.246803 0.808513 0.273697
O O6 0.125961 0.829923 0.007374
O O7 0.264155 0.822974 0.769115
O O8 0.486742 0.137951 0.238481
O O9 0.379806 0.164728 0.935076
O O10 0.423271 0.075142 0.920186
O O11 0.333826 0.250000 0.044894
O O12 0.993267 0.380038 0.161520
O O13 0.983336 0.302839 0.368695
O O14 0.383940 0.494617 0.604265
O O15 0.981302 0.543002 0.445862
#
# Coordination Sequence:
#
# PCOD8181750 Si02
#       7
#     8   8   8   8   8   8   8
#     4  10  21  37  56  81 111 154 204 247 303 361
#     4  10  21  39  63  90 122 167 212 254 312 369
#     4  12  26  43  68 101 125 164 212 246 324 397
#     4  10  23  43  65  96 130 163 210 262 313 378
#     4  10  21  36  54  86 123 160 206 255 309 358
#     4  10  23  43  63  92 129 162 206 258 308 369
#     4  10  21  35  51  80 116 155 200 251 307 354
#
# _framework density 22.159814000000001
#
# number of rings (size 3 to 8) (size 9 to 14) (size 15 to 20)
#    0.000    1.714    0.000    3.429    2.000    4.571 
#    5.143    0.000    0.000    0.000    0.000    0.000 
#    0.000    0.000    0.000    0.000    0.000    0.000 
#
# Total GULP energy -347042.914934 kJ/mol
# GULP energy per Si atom -12394.389819 kJ/mol
# Density = 2.210938 g / cm^3
# Si number density = 22.159814 Si / 1000 Ang^3
#
#
#
# Elastic Constant Matrix: (Units=GPa)
#
#
# Indices 1 2 3 4 5 6 
#
# 1 97.2501 30.3728 25.5427 0.0000 0.0000 0.0000
# 2 30.3728 52.9415 16.2956 0.0000 0.0000 0.0000
# 3 25.5427 16.2956 125.4411 0.0000 0.0000 0.0000
# 4 0.0000 0.0000 0.0000 13.3031 0.0000 0.0000
# 5 0.0000 0.0000 0.0000 0.0000 41.9266 0.0000
# 6 0.0000 0.0000 0.0000 0.0000 0.0000 21.1122
#
#
#
# Elastic Compliance Matrix: (Units=1/GPa)
#
#
# Indices 1 2 3 4 5 6 
#
# 1 0.012879 -0.006856 -0.001732 0.000000 0.000000 0.000000
# 2 -0.006856 0.023325 -0.001634 0.000000 0.000000 0.000000
# 3 -0.001732 -0.001634 0.008537 0.000000 0.000000 0.000000
# 4 0.000000 0.000000 0.000000 0.075171 0.000000 0.000000
# 5 0.000000 0.000000 0.000000 0.000000 0.023851 0.000000
# 6 0.000000 0.000000 0.000000 0.000000 0.000000 0.047366
#
#
# Mechanical properties :
#
#
# Convention : Reuss Voigt Hill
#
# Bulk Modulus (GPa) = 41.15662 46.67276 43.91469
# Shear Modulus (GPa) = 22.76138 28.82979 25.79558
#
# Velocity S-wave (km/s) = 3.20839 3.61084 3.41555
# Velocity P-wave (km/s) = 5.68665 6.20418 5.95104
#
# Compressibility (1/GPa) = 0.02429743
#
# Stress axis : x y z
#
# Youngs Moduli (GPa) = 77.64746 42.87279 117.14000
#
# Poissons Ratio (x) = 0.29392 0.20287
# Poissons Ratio (y) = 0.53231 0.19142
# Poissons Ratio (z) = 0.13447 0.07006
#
# Static dielectric constant tensor:
#      x y z
#    x 4.033230 0.000000 0.000000 
#    y 0.000000 3.692620 0.000000 
#    z 0.000000 0.000000 4.691660 
# 
# 
# High freq. dielectric constant tensor:
#      x y z
#    x 1.874110 0.000000 0.000000 
#    y 0.000000 1.847770 0.000000 
#    z 0.000000 0.000000 1.903230 
# 
# From -- ./inp_files/651.got.cif
#   From: 2010.03.12/outbox.cif.g09.slc.cpg/sg39_1_cif.got.tgz:651.got - 2010.04.14 02:53:20.
