data_PCOD8181025
_publ_section_title
;
Structure prediction by ZEFSAII (Michael W. Deem and Ramdas Pophale) SiO2 
 PCOD8181025
Probable space group: A B M 2
;
_chemical_formula_sum "Si O2"
_cell_formula_units_Z 64
_cell_length_a 21.137119
_cell_length_b 9.193587
_cell_length_c 16.265663
_cell_angle_alpha 90.000000
_cell_angle_beta 90.000000
_cell_angle_gamma 90.000000
_cell_volume 3160.840292
_symmetry_space_group_name_H-M "A B M 2"
_symmetry_group_IT_number 39
_symmetry_cell_setting 'orthorhombic'
loop_
_space_group_symop_operation_xyz
x,y,z
-x,-y,z
-x,1/2+y,z
x,1/2-y,z
x,1/2+y,1/2+z
-x,1/2-y,1/2+z
-x,y,1/2+z
x,-y,1/2+z
loop_
_atom_site_type_symbol
_atom_site_label
_atom_site_fract_x
_atom_site_fract_y
_atom_site_fract_z
Si Si1 0.755440 0.908519 0.220700
Si Si2 0.862007 0.581380 0.796841
Si Si3 0.356609 0.408049 0.331144
Si Si4 0.862541 0.083085 0.481267
Si Si5 0.319871 0.413430 0.608308
Si Si6 0.933658 0.921283 0.627321
Si Si7 0.560078 0.914847 0.725437
Si Si8 0.714425 0.582545 0.961638
O O1 0.782319 0.750000 0.190235
O O2 0.684279 0.877860 0.250154
O O3 0.801545 0.977249 0.288532
O O4 0.745495 0.026311 0.148832
O O5 0.840201 0.750000 0.794873
O O6 0.890738 0.548835 0.888600
O O7 0.907758 0.546214 0.719594
O O8 0.375401 0.250000 0.370125
O O9 0.419132 0.500491 0.308793
O O10 0.306695 0.501566 0.380801
O O11 0.877784 0.250000 0.504065
O O12 0.787864 0.054392 0.478504
O O13 0.890306 0.981786 0.553190
O O14 0.304249 0.250000 0.580378
O O15 0.382980 0.416027 0.661559
O O16 0.331454 0.516158 0.530816
O O17 0.941888 0.750000 0.613733
O O18 0.000000 0.000000 0.619852
O O19 0.540855 0.750000 0.747660
O O20 0.500000 0.000000 0.687702
O O21 0.698463 0.750000 0.951507
#
# Coordination Sequence:
#
# PCOD8181025 Si02
#       8
#     8   8   8   8   8   8   8   8
#     4  10  19  32  54  85 115 146 188 234 285 348
#     4  10  21  39  62  88 119 159 199 245 305 366
#     4  10  20  34  55  83 117 151 188 234 285 349
#     4  10  22  40  63  91 126 161 200 250 308 369
#     4  10  21  35  54  80 115 154 190 237 298 358
#     4  11  25  43  63  86 118 159 206 254 303 362
#     4  10  21  38  59  81 109 150 197 244 293 349
#     4  11  21  35  58  88 121 152 189 242 301 359
#
# _framework density 20.247779999999999
#
# number of rings (size 3 to 8) (size 9 to 14) (size 15 to 20)
#    0.000    1.750    1.250    3.000    0.000    7.500 
#    0.000    1.875    0.000    1.500    0.000    0.000 
#    0.000    0.000    0.000    0.000    0.000    0.000 
#
# Total GULP energy -396461.803372 kJ/mol
# GULP energy per Si atom -12389.431355 kJ/mol
# Density = 2.020170 g / cm^3
# Si number density = 20.247780 Si / 1000 Ang^3
#
#
#
# Elastic Constant Matrix: (Units=GPa)
#
#
# Indices 1 2 3 4 5 6 
#
# 1 54.4167 49.6325 27.6291 0.0000 0.0000 0.0000
# 2 49.6325 157.3103 53.3257 0.0000 0.0000 0.0000
# 3 27.6291 53.3257 96.5443 0.0000 0.0000 0.0000
# 4 0.0000 0.0000 0.0000 31.5526 0.0000 0.0000
# 5 0.0000 0.0000 0.0000 0.0000 12.5304 0.0000
# 6 0.0000 0.0000 0.0000 0.0000 0.0000 28.9613
#
#
#
# Elastic Compliance Matrix: (Units=1/GPa)
#
#
# Indices 1 2 3 4 5 6 
#
# 1 0.026832 -0.007213 -0.003695 0.000000 0.000000 0.000000
# 2 -0.007213 0.009760 -0.003327 0.000000 0.000000 0.000000
# 3 -0.003695 -0.003327 0.013253 0.000000 0.000000 0.000000
# 4 0.000000 0.000000 0.000000 0.031693 0.000000 0.000000
# 5 0.000000 0.000000 0.000000 0.000000 0.079806 0.000000
# 6 0.000000 0.000000 0.000000 0.000000 0.000000 0.034529
#
#
# Mechanical properties :
#
#
# Convention : Reuss Voigt Hill
#
# Bulk Modulus (GPa) = 46.78212 63.27179 55.02695
# Shear Modulus (GPa) = 21.60140 26.45448 24.02794
#
# Velocity S-wave (km/s) = 3.26981 3.61853 3.44858
# Velocity P-wave (km/s) = 6.11642 6.98390 6.56451
#
# Compressibility (1/GPa) = 0.02137569
#
# Stress axis : x y z
#
# Youngs Moduli (GPa) = 37.26960 102.45470 75.45578
#
# Poissons Ratio (x) = 0.73902 0.27877
# Poissons Ratio (y) = 0.26883 0.25103
# Poissons Ratio (z) = 0.13769 0.34085
#
# Static dielectric constant tensor:
#      x y z
#    x 3.389290 0.000000 0.000000 
#    y 0.000000 4.066480 0.000000 
#    z 0.000000 0.000000 3.850320 
# 
# 
# High freq. dielectric constant tensor:
#      x y z
#    x 1.765610 0.000000 0.000000 
#    y 0.000000 1.810180 0.000000 
#    z 0.000000 0.000000 1.787120 
# 
# From -- ./inp_files/13120.got.cif
#   From: 2010.03.12/outbox.cif.g09.slc.cpg/sg39_7_cif.got.tgz:13120.got - 2010.04.14 02:53:20.
