data_PCOD8181320
_publ_section_title
;
Structure prediction by ZEFSAII (Michael W. Deem and Ramdas Pophale) SiO2 
 PCOD8181320
Probable space group: A B M 2
;
_chemical_formula_sum "Si O2"
_cell_formula_units_Z 48
_cell_length_a 15.512679
_cell_length_b 8.772205
_cell_length_c 19.563760
_cell_angle_alpha 90.000000
_cell_angle_beta 90.000000
_cell_angle_gamma 90.000000
_cell_volume 2662.244292
_symmetry_space_group_name_H-M "A B M 2"
_symmetry_group_IT_number 39
_symmetry_cell_setting 'orthorhombic'
loop_
_space_group_symop_operation_xyz
x,y,z
-x,-y,z
-x,1/2+y,z
x,1/2-y,z
x,1/2+y,1/2+z
-x,1/2-y,1/2+z
-x,y,1/2+z
x,-y,1/2+z
loop_
_atom_site_type_symbol
_atom_site_label
_atom_site_fract_x
_atom_site_fract_y
_atom_site_fract_z
Si Si1 0.918696 0.925236 0.485480
Si Si2 0.408899 0.929949 0.735327
Si Si3 0.730340 0.927489 0.480074
Si Si4 0.590737 0.569465 0.591191
Si Si5 0.918001 0.926944 0.837668
Si Si6 0.273403 0.926652 0.333521
O O1 0.940457 0.750000 0.482086
O O2 0.823660 0.955908 0.516731
O O3 0.915481 0.990968 0.409886
O O4 0.000000 0.000000 0.526487
O O5 0.419277 0.750000 0.728187
O O6 0.500000 0.000000 0.758821
O O7 0.379504 0.999717 0.663136
O O8 0.337423 0.968193 0.791155
O O9 0.721095 0.750000 0.459520
O O10 0.659401 0.978766 0.534349
O O11 0.719250 0.029180 0.412898
O O12 0.500000 0.500000 0.567716
O O13 0.582835 0.750000 0.599098
O O14 0.935695 0.750000 0.847811
O O15 0.823841 0.953873 0.803956
O O16 0.000000 0.000000 0.795889
O O17 0.299399 0.750000 0.325840
#
# Coordination Sequence:
#
# PCOD8181320 Si02
#       6
#     8   8   8   8   8   8
#     4   9  15  25  42  66  96 129 163 198 240 288
#     4  11  22  37  56  75  98 130 168 207 250 302
#     4   9  19  33  50  74 104 135 165 203 250 296
#     4  10  20  36  55  74  98 129 166 204 247 299
#     4   9  16  26  43  68  98 131 164 200 242 289
#     4  10  20  33  51  77 106 134 167 208 251 294
#
# _framework density 18.029900999999999
#
# number of rings (size 3 to 8) (size 9 to 14) (size 15 to 20)
#    0.000    2.333    0.000    5.500    0.000    4.667 
#    0.000    1.667    0.000    1.000    0.000    2.333 
#    0.000    0.000    0.000    0.000    0.000    0.000 
#
# Total GULP energy -297407.153394 kJ/mol
# GULP energy per Si atom -12391.964725 kJ/mol
# Density = 1.798886 g / cm^3
# Si number density = 18.029901 Si / 1000 Ang^3
#
#
#
# Elastic Constant Matrix: (Units=GPa)
#
#
# Indices 1 2 3 4 5 6 
#
# 1 145.2928 58.3095 58.9169 0.0000 0.0000 0.0000
# 2 58.3095 108.6904 31.4582 0.0000 0.0000 0.0000
# 3 58.9169 31.4582 53.4215 0.0000 0.0000 0.0000
# 4 0.0000 0.0000 0.0000 22.4241 0.0000 0.0000
# 5 0.0000 0.0000 0.0000 0.0000 -1.1978 0.0000
# 6 0.0000 0.0000 0.0000 0.0000 0.0000 33.5643
#
#
#
# Elastic Compliance Matrix: (Units=1/GPa)
#
#
# Indices 1 2 3 4 5 6 
#
# 1 0.013490 -0.003533 -0.012797 0.000000 0.000000 0.000000
# 2 -0.003533 0.012016 -0.003179 0.000000 0.000000 0.000000
# 3 -0.012797 -0.003179 0.034705 0.000000 0.000000 0.000000
# 4 0.000000 0.000000 0.000000 0.044595 0.000000 0.000000
# 5 0.000000 0.000000 0.000000 0.000000 -0.834834 0.000000
# 6 0.000000 0.000000 0.000000 0.000000 0.000000 0.029794
#
#
# Mechanical properties :
#
#
# Convention : Reuss Voigt Hill
#
# Bulk Modulus (GPa) = 47.18820 67.19710 57.19265
# Shear Modulus (GPa) = -7.64348 21.53945 6.94799
#
# Velocity S-wave (km/s) = -2.06120 3.46012 1.96519
# Velocity P-wave (km/s) = 4.53479 7.30164 6.07776
#
# Compressibility (1/GPa) = 0.02119174
#
# Stress axis : x y z
#
# Youngs Moduli (GPa) = 74.13005 83.22205 28.81460
#
# Poissons Ratio (x) = 0.29403 0.36874
# Poissons Ratio (y) = 0.26191 0.09161
# Poissons Ratio (z) = 0.94864 0.26459
#
# Static dielectric constant tensor:
#      x y z
#    x 4.360420 0.000000 0.000000 
#    y 0.000000 3.455770 0.000000 
#    z 0.000000 0.000000 2.866930 
# 
# 
# High freq. dielectric constant tensor:
#      x y z
#    x 1.724730 0.000000 0.000000 
#    y 0.000000 1.715890 0.000000 
#    z 0.000000 0.000000 1.641230 
# 
# From -- ./inp_files/14591.got.cif
#   From: 2010.03.12/outbox.cif.g09.slc.cpg/sg39_8_cif.got.tgz:14591.got - 2010.04.14 02:53:20.
