data_PCOD8181737
_publ_section_title
;
Structure prediction by ZEFSAII (Michael W. Deem and Ramdas Pophale) SiO2 
 PCOD8181737
Probable space group: A B M 2
;
_chemical_formula_sum "Si O2"
_cell_formula_units_Z 64
_cell_length_a 11.354661
_cell_length_b 14.412617
_cell_length_c 18.407200
_cell_angle_alpha 90.000000
_cell_angle_beta 90.000000
_cell_angle_gamma 90.000000
_cell_volume 3012.345278
_symmetry_space_group_name_H-M "A B M 2"
_symmetry_group_IT_number 39
_symmetry_cell_setting 'orthorhombic'
loop_
_space_group_symop_operation_xyz
x,y,z
-x,-y,z
-x,1/2+y,z
x,1/2-y,z
x,1/2+y,1/2+z
-x,1/2-y,1/2+z
-x,y,1/2+z
x,-y,1/2+z
loop_
_atom_site_type_symbol
_atom_site_label
_atom_site_fract_x
_atom_site_fract_y
_atom_site_fract_z
Si Si1 0.129468 0.980869 0.810280
Si Si2 0.535600 0.354191 0.285277
Si Si3 0.311892 0.856283 0.155912
Si Si4 0.279283 0.140519 0.036269
Si Si5 0.867703 0.485584 0.645357
Si Si6 0.460544 0.855266 0.012043
Si Si7 0.676355 0.360842 0.872892
Si Si8 0.752065 0.852124 0.874426
O O1 0.126410 0.945077 0.727351
O O2 0.195988 0.906413 0.861381
O O3 0.191817 0.080142 0.815659
O O4 0.000000 0.000000 0.841784
O O5 0.512039 0.250000 0.258468
O O6 0.604454 0.402588 0.218504
O O7 0.407789 0.396326 0.306061
O O8 0.611278 0.355318 0.360088
O O9 0.277516 0.750000 0.175812
O O10 0.380285 0.861722 0.081620
O O11 0.192806 0.914026 0.146897
O O12 0.279777 0.250000 0.056200
O O13 0.204653 0.086578 0.096451
O O14 0.412592 0.098618 0.031069
O O15 0.220048 0.122639 0.957744
O O16 0.000000 0.500000 0.614780
O O17 0.489208 0.750000 0.989349
O O18 0.384512 0.900040 0.946347
O O19 0.691003 0.250000 0.875155
O O20 0.801553 0.750000 0.856662
#
# Coordination Sequence:
#
# PCOD8181737 Si02
#       8
#     8   8   8   8   8   8   8   8
#     4  11  26  43  61  92 130 172 222 265 309 379
#     4   9  17  35  64  92 120 157 205 260 323 391
#     4  10  21  39  63  90 124 165 207 265 330 387
#     4  10  22  42  66  94 129 169 210 264 328 389
#     4  11  26  44  61  90 130 175 226 265 309 386
#     4   9  19  38  63  93 127 158 201 260 332 400
#     4  10  21  40  65  96 131 165 206 269 334 390
#     4  10  20  41  67  89 121 165 211 262 317 378
#
# _framework density 21.245903999999999
#
# number of rings (size 3 to 8) (size 9 to 14) (size 15 to 20)
#    0.000    2.000    2.500    0.000    3.500    3.000 
#    0.000    2.500    0.000    0.000    0.000    0.000 
#    0.000    0.000    0.000    0.000    0.000    0.000 
#
# Total GULP energy -396633.979848 kJ/mol
# GULP energy per Si atom -12394.811870 kJ/mol
# Density = 2.119755 g / cm^3
# Si number density = 21.245904 Si / 1000 Ang^3
#
#
#
# Elastic Constant Matrix: (Units=GPa)
#
#
# Indices 1 2 3 4 5 6 
#
# 1 152.9780 46.1961 61.2533 0.0000 0.0000 0.0000
# 2 46.1961 66.0015 37.5469 0.0000 0.0000 0.0000
# 3 61.2533 37.5469 110.1629 0.0000 0.0000 0.0000
# 4 0.0000 0.0000 0.0000 28.6619 0.0000 0.0000
# 5 0.0000 0.0000 0.0000 0.0000 30.4292 0.0000
# 6 0.0000 0.0000 0.0000 0.0000 0.0000 25.1118
#
#
#
# Elastic Compliance Matrix: (Units=1/GPa)
#
#
# Indices 1 2 3 4 5 6 
#
# 1 0.009357 -0.004453 -0.003685 0.000000 0.000000 0.000000
# 2 -0.004453 0.020915 -0.004652 0.000000 0.000000 0.000000
# 3 -0.003685 -0.004652 0.012712 0.000000 0.000000 0.000000
# 4 0.000000 0.000000 0.000000 0.034890 0.000000 0.000000
# 5 0.000000 0.000000 0.000000 0.000000 0.032863 0.000000
# 6 0.000000 0.000000 0.000000 0.000000 0.000000 0.039822
#
#
# Mechanical properties :
#
#
# Convention : Reuss Voigt Hill
#
# Bulk Modulus (GPa) = 57.46132 68.79276 63.12704
# Shear Modulus (GPa) = 27.48157 29.11699 28.29928
#
# Velocity S-wave (km/s) = 3.60043 3.70601 3.65360
# Velocity P-wave (km/s) = 6.66248 7.12476 6.89750
#
# Compressibility (1/GPa) = 0.01740301
#
# Stress axis : x y z
#
# Youngs Moduli (GPa) = 106.87077 47.81370 78.66492
#
# Poissons Ratio (x) = 0.21291 0.28989
# Poissons Ratio (y) = 0.47588 0.36598
# Poissons Ratio (z) = 0.39383 0.22245
#
# Static dielectric constant tensor:
#      x y z
#    x 3.795870 0.000000 0.000000 
#    y 0.000000 3.685210 0.000000 
#    z 0.000000 0.000000 3.837140 
# 
# 
# High freq. dielectric constant tensor:
#      x y z
#    x 1.819680 0.000000 0.000000 
#    y 0.000000 1.819400 0.000000 
#    z 0.000000 0.000000 1.841130 
# 
# From -- ./inp_files/12362.got.cif
#   From: 2010.03.12/outbox.cif.g09.slc.cpg/sg39_7_cif.got.tgz:12362.got - 2010.04.14 02:53:20.
