data_PCOD8181782
_publ_section_title
;
Structure prediction by ZEFSAII (Michael W. Deem and Ramdas Pophale) SiO2 
 PCOD8181782
Probable space group: A B M 2
;
_chemical_formula_sum "Si O2"
_cell_formula_units_Z 64
_cell_length_a 14.404845
_cell_length_b 8.983525
_cell_length_c 25.256653
_cell_angle_alpha 90.000000
_cell_angle_beta 90.000000
_cell_angle_gamma 90.000000
_cell_volume 3268.369641
_symmetry_space_group_name_H-M "A B M 2"
_symmetry_group_IT_number 39
_symmetry_cell_setting 'orthorhombic'
loop_
_space_group_symop_operation_xyz
x,y,z
-x,-y,z
-x,1/2+y,z
x,1/2-y,z
x,1/2+y,1/2+z
-x,1/2-y,1/2+z
-x,y,1/2+z
x,-y,1/2+z
loop_
_atom_site_type_symbol
_atom_site_label
_atom_site_fract_x
_atom_site_fract_y
_atom_site_fract_z
Si Si1 0.402400 0.574762 0.410970
Si Si2 0.404098 0.077142 0.032573
Si Si3 0.094799 0.077606 0.474204
Si Si4 0.399437 0.426761 0.726183
Si Si5 0.709990 0.574185 0.321205
Si Si6 0.097180 0.421647 0.360469
Si Si7 0.904117 0.076736 0.089916
Si Si8 0.708202 0.076384 0.120747
O O1 0.500000 0.500000 0.396894
O O2 0.407741 0.750000 0.398272
O O3 0.375663 0.544824 0.472036
O O4 0.326141 0.494021 0.375872
O O5 0.417481 0.250000 0.043461
O O6 0.500000 0.000000 0.047934
O O7 0.324511 0.014100 0.069849
O O8 0.077907 0.250000 0.481214
O O9 0.146037 0.041428 0.418420
O O10 0.132056 0.020601 0.531268
O O11 0.000000 0.000000 0.461884
O O12 0.500000 0.500000 0.726977
O O13 0.408985 0.250000 0.732257
O O14 0.338051 0.490389 0.773174
O O15 0.348376 0.473225 0.672184
O O16 0.688563 0.750000 0.319005
O O17 0.821163 0.542356 0.318373
O O18 0.070421 0.250000 0.359124
O O19 0.000000 0.500000 0.346145
O O20 0.926816 0.250000 0.090151
O O21 0.818176 0.040318 0.129124
O O22 0.000000 0.000000 0.107965
O O23 0.694215 0.250000 0.108455
#
# Coordination Sequence:
#
# PCOD8181782 Si02
#       8
#     8   8   8   8   8   8   8   8
#     4  10  21  37  56  83 117 152 187 231 288 350
#     4  10  21  36  56  84 117 151 187 231 288 350
#     4   8  14  27  47  73 106 144 181 222 267 319
#     4  11  24  43  64  86 113 148 193 244 296 349
#     4  11  23  38  60  87 114 150 195 240 292 346
#     4   9  19  34  54  82 114 151 192 233 282 335
#     4   9  18  33  54  81 115 152 192 234 281 334
#     4  10  22  38  60  86 114 152 195 239 291 345
#
# _framework density 19.581627999999998
#
# number of rings (size 3 to 8) (size 9 to 14) (size 15 to 20)
#    0.000    2.250    0.000    2.250    1.750    5.000 
#    0.000    0.625    0.000    3.000    0.000    0.000 
#    0.000    0.000    0.000    0.000    0.000    0.000 
#
# Total GULP energy -396468.306899 kJ/mol
# GULP energy per Si atom -12389.634591 kJ/mol
# Density = 1.953706 g / cm^3
# Si number density = 19.581628 Si / 1000 Ang^3
#
#
#
# Elastic Constant Matrix: (Units=GPa)
#
#
# Indices 1 2 3 4 5 6 
#
# 1 126.3624 44.9586 63.3201 0.0000 0.0000 0.0000
# 2 44.9586 63.0892 41.9364 0.0000 0.0000 0.0000
# 3 63.3201 41.9364 81.6549 0.0000 0.0000 0.0000
# 4 0.0000 0.0000 0.0000 11.7289 0.0000 0.0000
# 5 0.0000 0.0000 0.0000 0.0000 30.2369 0.0000
# 6 0.0000 0.0000 0.0000 0.0000 0.0000 30.9022
#
#
#
# Elastic Compliance Matrix: (Units=1/GPa)
#
#
# Indices 1 2 3 4 5 6 
#
# 1 0.013599 -0.004071 -0.008454 0.000000 0.000000 0.000000
# 2 -0.004071 0.025285 -0.009829 0.000000 0.000000 0.000000
# 3 -0.008454 -0.009829 0.023851 0.000000 0.000000 0.000000
# 4 0.000000 0.000000 0.000000 0.085259 0.000000 0.000000
# 5 0.000000 0.000000 0.000000 0.000000 0.033072 0.000000
# 6 0.000000 0.000000 0.000000 0.000000 0.000000 0.032360
#
#
# Mechanical properties :
#
#
# Convention : Reuss Voigt Hill
#
# Bulk Modulus (GPa) = 55.47661 63.50406 59.49034
# Shear Modulus (GPa) = 18.92907 22.63304 20.78105
#
# Velocity S-wave (km/s) = 3.11251 3.40344 3.26122
# Velocity P-wave (km/s) = 6.42724 6.92426 6.68037
#
# Compressibility (1/GPa) = 0.01802561
#
# Stress axis : x y z
#
# Youngs Moduli (GPa) = 73.53670 39.54891 41.92723
#
# Poissons Ratio (x) = 0.16100 0.35447
# Poissons Ratio (y) = 0.29936 0.41211
# Poissons Ratio (z) = 0.62172 0.38873
#
# Static dielectric constant tensor:
#      x y z
#    x 3.519670 0.000000 0.000000 
#    y 0.000000 3.612650 0.000000 
#    z 0.000000 0.000000 3.681480 
# 
# 
# High freq. dielectric constant tensor:
#      x y z
#    x 1.763700 0.000000 0.000000 
#    y 0.000000 1.764960 0.000000 
#    z 0.000000 0.000000 1.753660 
# 
# From -- ./inp_files/16277.got.cif
#   From: 2010.03.12/outbox.cif.g09.slc.cpg/sg39_9_cif.got.tgz:16277.got - 2010.04.14 02:53:20.
