data_PCOD8181537
_publ_section_title
;
Structure prediction by ZEFSAII (Michael W. Deem and Ramdas Pophale) SiO2 
 PCOD8181537
Probable space group: A B M 2
;
_chemical_formula_sum "Si O2"
_cell_formula_units_Z 48
_cell_length_a 9.478192
_cell_length_b 8.583785
_cell_length_c 30.410327
_cell_angle_alpha 90.000000
_cell_angle_beta 90.000000
_cell_angle_gamma 90.000000
_cell_volume 2474.146566
_symmetry_space_group_name_H-M "A B M 2"
_symmetry_group_IT_number 39
_symmetry_cell_setting 'orthorhombic'
loop_
_space_group_symop_operation_xyz
x,y,z
-x,-y,z
-x,1/2+y,z
x,1/2-y,z
x,1/2+y,1/2+z
-x,1/2-y,1/2+z
-x,y,1/2+z
x,-y,1/2+z
loop_
_atom_site_type_symbol
_atom_site_label
_atom_site_fract_x
_atom_site_fract_y
_atom_site_fract_z
Si Si1 0.155558 0.565931 0.689610
Si Si2 0.149021 0.067046 0.440212
Si Si3 0.348243 0.931931 0.612011
Si Si4 0.656093 0.065524 0.771467
Si Si5 0.154099 0.065874 0.846848
Si Si6 0.652964 0.933536 0.012414
O O1 0.143928 0.750000 0.688626
O O2 0.229597 0.501643 0.645109
O O3 0.249478 0.509196 0.730522
O O4 0.000000 0.500000 0.694144
O O5 0.138908 0.250000 0.431248
O O6 0.200328 0.983693 0.395738
O O7 0.250307 0.030974 0.480254
O O8 0.000000 0.000000 0.454968
O O9 0.364476 0.750000 0.618907
O O10 0.300897 0.971845 0.562381
O O11 0.500000 0.000000 0.623977
O O12 0.648455 0.250000 0.774610
O O13 0.500000 0.000000 0.765555
O O14 0.725857 0.999450 0.815351
O O15 0.147458 0.250000 0.843086
O O16 0.000000 0.000000 0.834382
O O17 0.659913 0.750000 0.002371
O O18 0.500000 0.000000 0.003624
#
# Coordination Sequence:
#
# PCOD8181537 Si02
#       6
#     8   8   8   8   8   8
#     4  10  22  38  57  83 114 148 187 230 277 331
#     4  11  22  38  59  84 114 149 189 232 282 335
#     4   9  19  36  57  82 112 147 187 231 278 330
#     4  11  23  39  59  85 115 148 188 232 281 334
#     4  11  22  39  61  85 114 148 187 231 281 334
#     4  10  20  36  57  83 115 150 190 234 282 334
#
# _framework density 19.400628999999999
#
# number of rings (size 3 to 8) (size 9 to 14) (size 15 to 20)
#    0.000    1.667    0.000    6.000    0.000    5.333 
#    0.000    5.000    0.000    0.000    0.000    0.000 
#    0.000    0.000    0.000    0.000    0.000    0.000 
#
# Total GULP energy -297658.494983 kJ/mol
# GULP energy per Si atom -12402.437291 kJ/mol
# Density = 1.935647 g / cm^3
# Si number density = 19.400629 Si / 1000 Ang^3
#
#
#
# Elastic Constant Matrix: (Units=GPa)
#
#
# Indices 1 2 3 4 5 6 
#
# 1 143.6645 48.2663 93.5768 0.0000 0.0000 0.0000
# 2 48.2663 75.0546 35.6069 0.0000 0.0000 0.0000
# 3 93.5768 35.6069 126.9021 0.0000 0.0000 0.0000
# 4 0.0000 0.0000 0.0000 25.0520 0.0000 0.0000
# 5 0.0000 0.0000 0.0000 0.0000 46.1767 0.0000
# 6 0.0000 0.0000 0.0000 0.0000 0.0000 37.4567
#
#
#
# Elastic Compliance Matrix: (Units=1/GPa)
#
#
# Indices 1 2 3 4 5 6 
#
# 1 0.014877 -0.005033 -0.009558 0.000000 0.000000 0.000000
# 2 -0.005033 0.017072 -0.001079 0.000000 0.000000 0.000000
# 3 -0.009558 -0.001079 0.015231 0.000000 0.000000 0.000000
# 4 0.000000 0.000000 0.000000 0.039917 0.000000 0.000000
# 5 0.000000 0.000000 0.000000 0.000000 0.021656 0.000000
# 6 0.000000 0.000000 0.000000 0.000000 0.000000 0.026698
#
#
# Mechanical properties :
#
#
# Convention : Reuss Voigt Hill
#
# Bulk Modulus (GPa) = 63.13047 77.83567 70.48307
# Shear Modulus (GPa) = 29.05770 32.94850 31.00310
#
# Velocity S-wave (km/s) = 3.87430 4.12554 4.00189
# Velocity P-wave (km/s) = 7.25429 7.93100 7.60018
#
# Compressibility (1/GPa) = 0.01584021
#
# Stress axis : x y z
#
# Youngs Moduli (GPa) = 67.21600 58.57534 65.65496
#
# Poissons Ratio (x) = 0.29480 0.62756
# Poissons Ratio (y) = 0.33828 0.07084
# Poissons Ratio (z) = 0.64248 0.06320
#
# Static dielectric constant tensor:
#      x y z
#    x 3.565980 0.000000 0.000000 
#    y 0.000000 3.612310 0.000000 
#    z 0.000000 0.000000 3.826270 
# 
# 
# High freq. dielectric constant tensor:
#      x y z
#    x 1.757480 0.000000 0.000000 
#    y 0.000000 1.763940 0.000000 
#    z 0.000000 0.000000 1.769910 
# 
# From -- ./inp_files/17586.got.cif
#   From: 2010.03.12/outbox.cif.g09.slc.cpg/sg39_9_cif.got.tgz:17586.got - 2010.04.14 02:53:20.
