data_PCOD8181232
_publ_section_title
;
Structure prediction by ZEFSAII (Michael W. Deem and Ramdas Pophale) SiO2 
 PCOD8181232
Probable space group: A B M 2
;
_chemical_formula_sum "Si O2"
_cell_formula_units_Z 56
_cell_length_a 5.020340
_cell_length_b 16.493482
_cell_length_c 31.431088
_cell_angle_alpha 90.000000
_cell_angle_beta 90.000000
_cell_angle_gamma 90.000000
_cell_volume 2602.584841
_symmetry_space_group_name_H-M "A B M 2"
_symmetry_group_IT_number 39
_symmetry_cell_setting 'orthorhombic'
loop_
_space_group_symop_operation_xyz
x,y,z
-x,-y,z
-x,1/2+y,z
x,1/2-y,z
x,1/2+y,1/2+z
-x,1/2-y,1/2+z
-x,y,1/2+z
x,-y,1/2+z
loop_
_atom_site_type_symbol
_atom_site_label
_atom_site_fract_x
_atom_site_fract_y
_atom_site_fract_z
Si Si1 0.599316 0.156672 0.795600
Si Si2 0.090097 0.591398 0.340481
Si Si3 0.365576 0.845294 0.985097
Si Si4 0.757822 0.946087 0.216861
Si Si5 0.106347 0.088126 0.123421
Si Si6 0.615701 0.156757 0.080481
Si Si7 0.125811 0.654143 0.432482
O O1 0.516007 0.250000 0.791598
O O2 0.344111 0.105973 0.810595
O O3 0.689432 0.124066 0.749926
O O4 0.842922 0.149301 0.828679
O O5 0.177927 0.608287 0.388567
O O6 0.000000 0.500000 0.333817
O O7 0.320855 0.750000 0.986734
O O8 0.647022 0.869955 0.965755
O O9 0.141161 0.880835 0.953840
O O10 0.339100 0.878628 0.032997
O O11 0.860235 0.902955 0.174041
O O12 0.500000 0.000000 0.206321
O O13 0.000000 0.000000 0.235782
O O14 0.389633 0.102649 0.101894
O O15 0.888771 0.152416 0.107141
O O16 0.000000 0.000000 0.110511
O O17 0.520618 0.250000 0.079068
O O18 0.120665 0.750000 0.423326
#
# Coordination Sequence:
#
# PCOD8181232 Si02
#       7
#     8   8   8   8   8   8   8
#     4  12  25  42  66  95 123 158 208 257 303 361
#     4  12  25  42  63  92 129 165 202 249 312 372
#     4   9  19  35  58  86 118 159 204 253 307 357
#     4  11  23  43  66  89 124 166 205 248 309 373
#     4  11  23  41  62  90 126 166 203 248 312 373
#     4  11  22  39  64  93 124 162 211 259 304 361
#     4  10  19  36  60  85 117 160 209 254 299 357
#
# _framework density 21.51707
#
# number of rings (size 3 to 8) (size 9 to 14) (size 15 to 20)
#    0.000    1.143    0.000    8.143    0.000    4.571 
#    0.000    4.286    0.000    0.000    0.000    0.000 
#    0.000    0.000    0.000    0.000    0.000    0.000 
#
# Total GULP energy -347372.541420 kJ/mol
# GULP energy per Si atom -12406.162194 kJ/mol
# Density = 2.146810 g / cm^3
# Si number density = 21.517070 Si / 1000 Ang^3
#
#
#
# Elastic Constant Matrix: (Units=GPa)
#
#
# Indices 1 2 3 4 5 6 
#
# 1 116.4182 23.7421 38.6518 0.0000 0.0000 0.0000
# 2 23.7421 69.3577 50.1510 0.0000 0.0000 0.0000
# 3 38.6518 50.1510 139.6075 0.0000 0.0000 0.0000
# 4 0.0000 0.0000 0.0000 22.2134 0.0000 0.0000
# 5 0.0000 0.0000 0.0000 0.0000 42.5640 0.0000
# 6 0.0000 0.0000 0.0000 0.0000 0.0000 30.0258
#
#
#
# Elastic Compliance Matrix: (Units=1/GPa)
#
#
# Indices 1 2 3 4 5 6 
#
# 1 0.009632 -0.001849 -0.002002 0.000000 0.000000 0.000000
# 2 -0.001849 0.019832 -0.006612 0.000000 0.000000 0.000000
# 3 -0.002002 -0.006612 0.010093 0.000000 0.000000 0.000000
# 4 0.000000 0.000000 0.000000 0.045018 0.000000 0.000000
# 5 0.000000 0.000000 0.000000 0.000000 0.023494 0.000000
# 6 0.000000 0.000000 0.000000 0.000000 0.000000 0.033305
#
#
# Mechanical properties :
#
#
# Convention : Reuss Voigt Hill
#
# Bulk Modulus (GPa) = 53.68036 61.16368 57.42202
# Shear Modulus (GPa) = 29.67174 33.14988 31.41081
#
# Velocity S-wave (km/s) = 3.71750 3.92935 3.82489
# Velocity P-wave (km/s) = 6.59002 7.00526 6.80081
#
# Compressibility (1/GPa) = 0.01862879
#
# Stress axis : x y z
#
# Youngs Moduli (GPa) = 103.82458 50.42293 99.08211
#
# Poissons Ratio (x) = 0.09324 0.19839
# Poissons Ratio (y) = 0.19199 0.65516
# Poissons Ratio (z) = 0.20789 0.33341
#
# Static dielectric constant tensor:
#      x y z
#    x 4.097840 0.000000 0.000000 
#    y 0.000000 3.628420 0.000000 
#    z 0.000000 0.000000 3.985010 
# 
# 
# High freq. dielectric constant tensor:
#      x y z
#    x 1.864000 0.000000 0.000000 
#    y 0.000000 1.822620 0.000000 
#    z 0.000000 0.000000 1.859050 
# 
# From -- ./inp_files/17278.got.cif
#   From: 2010.03.12/outbox.cif.g09.slc.cpg/sg39_9_cif.got.tgz:17278.got - 2010.04.14 02:53:20.
