data_PCOD8181131
_publ_section_title
;
Structure prediction by ZEFSAII (Michael W. Deem and Ramdas Pophale) SiO2 
 PCOD8181131
Probable space group: A B M 2
;
_chemical_formula_sum "Si O2"
_cell_formula_units_Z 60
_cell_length_a 6.359192
_cell_length_b 25.405322
_cell_length_c 19.681102
_cell_angle_alpha 90.000000
_cell_angle_beta 90.000000
_cell_angle_gamma 90.000000
_cell_volume 3179.626102
_symmetry_space_group_name_H-M "A B M 2"
_symmetry_group_IT_number 39
_symmetry_cell_setting 'orthorhombic'
loop_
_space_group_symop_operation_xyz
x,y,z
-x,-y,z
-x,1/2+y,z
x,1/2-y,z
x,1/2+y,1/2+z
-x,1/2-y,1/2+z
-x,y,1/2+z
x,-y,1/2+z
loop_
_atom_site_type_symbol
_atom_site_label
_atom_site_fract_x
_atom_site_fract_y
_atom_site_fract_z
Si Si1 0.899704 0.375209 0.405660
Si Si2 0.378776 0.949285 0.128894
Si Si3 0.206480 0.810656 0.810144
Si Si4 0.508177 0.807943 0.932096
Si Si5 0.465217 0.558793 0.370409
Si Si6 0.000000 0.000000 0.206514
Si Si7 0.719065 0.396545 0.990558
Si Si8 0.305676 0.908807 0.742224
O O1 0.726118 0.338260 0.439366
O O2 0.780642 0.424690 0.369940
O O3 0.024053 0.338976 0.353152
O O4 0.041034 0.401502 0.464930
O O5 0.309035 0.911663 0.068381
O O6 0.531885 0.918877 0.181173
O O7 0.500000 0.000000 0.099645
O O8 0.163604 0.966983 0.162785
O O9 0.144344 0.750000 0.790532
O O10 0.419654 0.808515 0.855062
O O11 0.225556 0.847504 0.741561
O O12 0.543451 0.750000 0.960082
O O13 0.342565 0.835441 0.982618
O O14 0.500000 0.500000 0.345542
O O15 0.567971 0.567443 0.444052
O O16 0.581721 0.593764 0.314989
O O17 0.126749 0.045508 0.247499
#
# Coordination Sequence:
#
# PCOD8181131 Si02
#       8
#     8   8   8   8   8   4   8   8
#     4  10  19  34  55  88 119 147 193 239 291 345
#     4  10  23  41  58  81 116 161 194 235 291 356
#     4  10  20  36  59  87 117 151 194 242 293 348
#     4   9  18  35  58  84 115 150 186 238 295 344
#     4  11  22  34  57  87 121 152 188 245 298 347
#     4  10  24  38  62  82 118 160 200 238 290 364
#     4  10  21  37  56  85 116 150 196 240 287 353
#     4  11  22  39  59  88 119 155 199 240 299 349
#
# _framework density 18.870145000000001
#
# number of rings (size 3 to 8) (size 9 to 14) (size 15 to 20)
#    0.000    1.867    4.000    2.000    3.733    6.400 
#    0.000    0.667    0.000    0.800    0.000    0.000 
#    0.000    0.000    0.000    0.000    0.000    0.000 
#
# Total GULP energy -371683.425325 kJ/mol
# GULP energy per Si atom -12389.447511 kJ/mol
# Density = 1.882720 g / cm^3
# Si number density = 18.870145 Si / 1000 Ang^3
#
#
#
# Elastic Constant Matrix: (Units=GPa)
#
#
# Indices 1 2 3 4 5 6 
#
# 1 115.5572 41.4459 34.4769 0.0000 0.0000 0.0000
# 2 41.4459 142.5256 44.0183 0.0000 0.0000 0.0000
# 3 34.4769 44.0183 74.6455 0.0000 0.0000 0.0000
# 4 0.0000 0.0000 0.0000 25.9540 0.0000 0.0000
# 5 0.0000 0.0000 0.0000 0.0000 17.6307 0.0000
# 6 0.0000 0.0000 0.0000 0.0000 0.0000 23.3200
#
#
#
# Elastic Compliance Matrix: (Units=1/GPa)
#
#
# Indices 1 2 3 4 5 6 
#
# 1 0.010437 -0.001891 -0.003706 0.000000 0.000000 0.000000
# 2 -0.001891 0.008921 -0.004388 0.000000 0.000000 0.000000
# 3 -0.003706 -0.004388 0.017696 0.000000 0.000000 0.000000
# 4 0.000000 0.000000 0.000000 0.038530 0.000000 0.000000
# 5 0.000000 0.000000 0.000000 0.000000 0.056719 0.000000
# 6 0.000000 0.000000 0.000000 0.000000 0.000000 0.042882
#
#
# Mechanical properties :
#
#
# Convention : Reuss Voigt Hill
#
# Bulk Modulus (GPa) = 58.52709 63.62339 61.07524
# Shear Modulus (GPa) = 24.89437 27.56675 26.23056
#
# Velocity S-wave (km/s) = 3.63608 3.82627 3.73239
# Velocity P-wave (km/s) = 6.97934 7.30138 7.14217
#
# Compressibility (1/GPa) = 0.01708611
#
# Stress axis : x y z
#
# Youngs Moduli (GPa) = 95.80853 112.09326 56.51102
#
# Poissons Ratio (x) = 0.21193 0.20942
# Poissons Ratio (y) = 0.18114 0.24795
# Poissons Ratio (z) = 0.35506 0.49182
#
# Static dielectric constant tensor:
#      x y z
#    x 3.783790 0.000000 0.000000 
#    y 0.000000 3.791910 0.000000 
#    z 0.000000 0.000000 3.052220 
# 
# 
# High freq. dielectric constant tensor:
#      x y z
#    x 1.745850 0.000000 0.000000 
#    y 0.000000 1.743560 0.000000 
#    z 0.000000 0.000000 1.692940 
# 
# From -- ./inp_files/11157.got.cif
#   From: 2010.03.12/outbox.cif.g09.slc.cpg/sg39_6_cif.got.tgz:11157.got - 2010.04.14 02:53:20.
