data_PCOD8181102
_publ_section_title
;
Structure prediction by ZEFSAII (Michael W. Deem and Ramdas Pophale) SiO2 
 PCOD8181102
Probable space group: A B M 2
;
_chemical_formula_sum "Si O2"
_cell_formula_units_Z 64
_cell_length_a 23.881383
_cell_length_b 9.008971
_cell_length_c 15.130856
_cell_angle_alpha 90.000000
_cell_angle_beta 90.000000
_cell_angle_gamma 90.000000
_cell_volume 3255.353538
_symmetry_space_group_name_H-M "A B M 2"
_symmetry_group_IT_number 39
_symmetry_cell_setting 'orthorhombic'
loop_
_space_group_symop_operation_xyz
x,y,z
-x,-y,z
-x,1/2+y,z
x,1/2-y,z
x,1/2+y,1/2+z
-x,1/2-y,1/2+z
-x,y,1/2+z
x,-y,1/2+z
loop_
_atom_site_type_symbol
_atom_site_label
_atom_site_fract_x
_atom_site_fract_y
_atom_site_fract_z
Si Si1 0.136189 0.425523 0.192100
Si Si2 0.555220 0.576506 0.301929
Si Si3 0.554643 0.422100 0.598540
Si Si4 0.745113 0.424947 0.190078
Si Si5 0.676233 0.580286 0.043889
Si Si6 0.941621 0.925774 0.551321
Si Si7 0.943466 0.577738 0.349769
Si Si8 0.664396 0.918758 0.847791
O O1 0.135345 0.250000 0.175112
O O2 0.198727 0.482730 0.200140
O O3 0.107516 0.506955 0.109936
O O4 0.105989 0.469098 0.283798
O O5 0.500000 0.500000 0.342520
O O6 0.549217 0.750000 0.315646
O O7 0.561949 0.529726 0.200033
O O8 0.609861 0.520570 0.352307
O O9 0.500000 0.500000 0.556297
O O10 0.543322 0.250000 0.588408
O O11 0.611326 0.470403 0.549139
O O12 0.757861 0.250000 0.188878
O O13 0.714721 0.470420 0.099703
O O14 0.706737 0.472875 0.272434
O O15 0.682337 0.750000 0.078980
O O16 0.695550 0.568224 0.942153
O O17 0.945805 0.750000 0.566075
O O18 0.927229 0.967331 0.449781
O O19 0.000000 0.000000 0.580057
O O20 0.956169 0.750000 0.343978
O O21 0.000000 0.500000 0.317790
O O22 0.645355 0.750000 0.829440
#
# Coordination Sequence:
#
# PCOD8181102 Si02
#       8
#     8   8   8   8   8   8   8   8
#     4  11  23  39  60  85 115 156 198 239 286 337
#     4  10  19  33  56  84 114 149 185 228 284 344
#     4   9  18  32  54  81 110 144 181 223 277 337
#     4  11  24  41  59  83 113 149 193 243 290 337
#     4  10  21  40  61  83 112 149 189 233 286 345
#     4  10  20  37  60  90 125 157 193 236 283 338
#     4   9  20  37  59  88 122 157 191 231 281 334
#     4  10  22  39  60  84 113 147 188 237 290 346
#
# _framework density 19.659922999999999
#
# number of rings (size 3 to 8) (size 9 to 14) (size 15 to 20)
#    0.000    2.000    1.250    1.875    0.000    6.000 
#    0.000    3.750    0.000    0.000    0.000    0.000 
#    0.000    0.000    0.000    0.000    0.000    0.000 
#
# Total GULP energy -396906.994053 kJ/mol
# GULP energy per Si atom -12403.343564 kJ/mol
# Density = 1.961518 g / cm^3
# Si number density = 19.659923 Si / 1000 Ang^3
#
#
#
# Elastic Constant Matrix: (Units=GPa)
#
#
# Indices 1 2 3 4 5 6 
#
# 1 125.9002 47.9017 55.7696 0.0000 0.0000 0.0000
# 2 47.9017 73.3091 41.1458 0.0000 0.0000 0.0000
# 3 55.7696 41.1458 96.3578 0.0000 0.0000 0.0000
# 4 0.0000 0.0000 0.0000 26.3707 0.0000 0.0000
# 5 0.0000 0.0000 0.0000 0.0000 -0.1653 0.0000
# 6 0.0000 0.0000 0.0000 0.0000 0.0000 39.9303
#
#
#
# Elastic Compliance Matrix: (Units=1/GPa)
#
#
# Indices 1 2 3 4 5 6 
#
# 1 0.012017 -0.005193 -0.004738 0.000000 0.000000 0.000000
# 2 -0.005193 0.020185 -0.005613 0.000000 0.000000 0.000000
# 3 -0.004738 -0.005613 0.015517 0.000000 0.000000 0.000000
# 4 0.000000 0.000000 0.000000 0.037921 0.000000 0.000000
# 5 0.000000 0.000000 0.000000 0.000000 -6.049347 0.000000
# 6 0.000000 0.000000 0.000000 0.000000 0.000000 0.025044
#
#
# Mechanical properties :
#
#
# Convention : Reuss Voigt Hill
#
# Bulk Modulus (GPa) = 60.13086 65.02239 62.57662
# Shear Modulus (GPa) = -0.84717 23.27712 11.21498
#
# Velocity S-wave (km/s) = -0.65715 3.44465 2.39100
# Velocity P-wave (km/s) = 5.48417 6.99758 6.28658
#
# Compressibility (1/GPa) = 0.01663040
#
# Stress axis : x y z
#
# Youngs Moduli (GPa) = 83.21279 49.54207 64.44496
#
# Poissons Ratio (x) = 0.25728 0.30533
# Poissons Ratio (y) = 0.43214 0.36176
# Poissons Ratio (z) = 0.39425 0.27810
#
# Static dielectric constant tensor:
#      x y z
#    x 3.556590 0.000000 0.000000 
#    y 0.000000 3.592480 0.000000 
#    z 0.000000 0.000000 3.687890 
# 
# 
# High freq. dielectric constant tensor:
#      x y z
#    x 1.761450 0.000000 0.000000 
#    y 0.000000 1.767640 0.000000 
#    z 0.000000 0.000000 1.770440 
# 
# From -- ./inp_files/10696.got.cif
#   From: 2010.03.12/outbox.cif.g09.slc.cpg/sg39_6_cif.got.tgz:10696.got - 2010.04.14 02:53:20.
