data_PCOD8181157
_publ_section_title
;
Structure prediction by ZEFSAII (Michael W. Deem and Ramdas Pophale) SiO2 
 PCOD8181157
Probable space group: A B M 2
;
_chemical_formula_sum "Si O2"
_cell_formula_units_Z 64
_cell_length_a 23.994350
_cell_length_b 8.861151
_cell_length_c 15.375544
_cell_angle_alpha 90.000000
_cell_angle_beta 90.000000
_cell_angle_gamma 90.000000
_cell_volume 3269.110626
_symmetry_space_group_name_H-M "A B M 2"
_symmetry_group_IT_number 39
_symmetry_cell_setting 'orthorhombic'
loop_
_space_group_symop_operation_xyz
x,y,z
-x,-y,z
-x,1/2+y,z
x,1/2-y,z
x,1/2+y,1/2+z
-x,1/2-y,1/2+z
-x,y,1/2+z
x,-y,1/2+z
loop_
_atom_site_type_symbol
_atom_site_label
_atom_site_fract_x
_atom_site_fract_y
_atom_site_fract_z
Si Si1 0.556539 0.076236 0.544470
Si Si2 0.941022 0.071759 0.103501
Si Si3 0.444628 0.578232 0.338850
Si Si4 0.670364 0.426266 0.088481
Si Si5 0.672357 0.426526 0.282813
Si Si6 0.744115 0.428462 0.441140
Si Si7 0.137166 0.925331 0.943292
Si Si8 0.941000 0.571744 0.283075
O O1 0.557863 0.250000 0.573291
O O2 0.560711 0.058957 0.441572
O O3 0.500000 0.000000 0.579600
O O4 0.608075 0.989141 0.586191
O O5 0.948580 0.250000 0.114928
O O6 0.897635 0.031141 0.028492
O O7 0.000000 0.000000 0.077548
O O8 0.918666 0.000111 0.193317
O O9 0.500000 0.500000 0.302065
O O10 0.449961 0.750000 0.310086
O O11 0.389284 0.502254 0.297323
O O12 0.669250 0.250000 0.066289
O O13 0.693980 0.457361 0.185531
O O14 0.711447 0.509232 0.023673
O O15 0.666196 0.250000 0.301972
O O16 0.716238 0.493285 0.352506
O O17 0.740829 0.250000 0.445008
O O18 0.807595 0.477293 0.444043
O O19 0.153101 0.750000 0.943665
O O20 0.102493 0.969020 0.857990
O O21 0.948620 0.750000 0.271853
O O22 0.000000 0.500000 0.309072
#
# Coordination Sequence:
#
# PCOD8181157 Si02
#       8
#     8   8   8   8   8   8   8   8
#     4  10  19  34  57  84 116 149 186 230 283 345
#     4  10  20  36  59  87 122 156 191 233 283 338
#     4   9  17  33  55  79 110 142 179 223 273 336
#     4  11  22  38  61  85 113 148 188 235 290 344
#     4   9  20  39  59  80 110 148 185 231 285 340
#     4  11  23  42  62  81 111 151 195 241 286 337
#     4  10  23  40  58  84 117 153 193 239 285 337
#     4  10  20  36  59  88 123 155 191 236 283 337
#
# _framework density 19.577190000000002
#
# number of rings (size 3 to 8) (size 9 to 14) (size 15 to 20)
#    0.000    2.000    1.250    3.000    0.000    4.000 
#    0.000    8.750    0.000    0.000    0.000    0.000 
#    0.000    0.000    0.000    0.000    0.000    0.000 
#
# Total GULP energy -396837.631852 kJ/mol
# GULP energy per Si atom -12401.175995 kJ/mol
# Density = 1.953263 g / cm^3
# Si number density = 19.577190 Si / 1000 Ang^3
#
#
#
# Elastic Constant Matrix: (Units=GPa)
#
#
# Indices 1 2 3 4 5 6 
#
# 1 146.4517 64.3996 91.2442 0.0000 0.0000 0.0000
# 2 64.3996 90.1467 58.6667 0.0000 0.0000 0.0000
# 3 91.2442 58.6667 132.0908 0.0000 0.0000 0.0000
# 4 0.0000 0.0000 0.0000 20.8475 0.0000 0.0000
# 5 0.0000 0.0000 0.0000 0.0000 7.3910 0.0000
# 6 0.0000 0.0000 0.0000 0.0000 0.0000 37.3083
#
#
#
# Elastic Compliance Matrix: (Units=1/GPa)
#
#
# Indices 1 2 3 4 5 6 
#
# 1 0.013417 -0.004998 -0.007049 0.000000 0.000000 0.000000
# 2 -0.004998 0.017465 -0.004304 0.000000 0.000000 0.000000
# 3 -0.007049 -0.004304 0.014351 0.000000 0.000000 0.000000
# 4 0.000000 0.000000 0.000000 0.047967 0.000000 0.000000
# 5 0.000000 0.000000 0.000000 0.000000 0.135299 0.000000
# 6 0.000000 0.000000 0.000000 0.000000 0.000000 0.026804
#
#
# Mechanical properties :
#
#
# Convention : Reuss Voigt Hill
#
# Bulk Modulus (GPa) = 79.79818 88.59003 84.19411
# Shear Modulus (GPa) = 17.11257 23.40129 20.25693
#
# Velocity S-wave (km/s) = 2.95974 3.46111 3.22020
# Velocity P-wave (km/s) = 7.24771 7.83085 7.54492
#
# Compressibility (1/GPa) = 0.01253161
#
# Stress axis : x y z
#
# Youngs Moduli (GPa) = 74.52954 57.25804 69.68103
#
# Poissons Ratio (x) = 0.28619 0.49115
# Poissons Ratio (y) = 0.37251 0.29992
# Poissons Ratio (z) = 0.52532 0.24645
#
# Static dielectric constant tensor:
#      x y z
#    x 3.449070 0.000000 0.000000 
#    y 0.000000 3.528930 0.000000 
#    z 0.000000 0.000000 3.704880 
# 
# 
# High freq. dielectric constant tensor:
#      x y z
#    x 1.762860 0.000000 0.000000 
#    y 0.000000 1.757890 0.000000 
#    z 0.000000 0.000000 1.771050 
# 
# From -- ./inp_files/10682.got.cif
#   From: 2010.03.12/outbox.cif.g09.slc.cpg/sg39_6_cif.got.tgz:10682.got - 2010.04.14 02:53:20.
