data_PCOD8181454
_publ_section_title
;
Structure prediction by ZEFSAII (Michael W. Deem and Ramdas Pophale) SiO2 
 PCOD8181454
Probable space group: A B M 2
;
_chemical_formula_sum "Si O2"
_cell_formula_units_Z 64
_cell_length_a 20.554333
_cell_length_b 8.786072
_cell_length_c 18.375982
_cell_angle_alpha 90.000000
_cell_angle_beta 90.000000
_cell_angle_gamma 90.000000
_cell_volume 3318.552579
_symmetry_space_group_name_H-M "A B M 2"
_symmetry_group_IT_number 39
_symmetry_cell_setting 'orthorhombic'
loop_
_space_group_symop_operation_xyz
x,y,z
-x,-y,z
-x,1/2+y,z
x,1/2-y,z
x,1/2+y,1/2+z
-x,1/2-y,1/2+z
-x,y,1/2+z
x,-y,1/2+z
loop_
_atom_site_type_symbol
_atom_site_label
_atom_site_fract_x
_atom_site_fract_y
_atom_site_fract_z
Si Si1 0.813930 0.928384 0.721580
Si Si2 0.190706 0.930680 0.386564
Si Si3 0.569212 0.071177 0.721424
Si Si4 0.066684 0.570120 0.472974
Si Si5 0.933166 0.929065 0.138907
Si Si6 0.685647 0.430737 0.475208
Si Si7 0.314434 0.070986 0.632365
Si Si8 0.431406 0.072111 0.389020
O O1 0.828842 0.750000 0.718520
O O2 0.806513 0.987812 0.803884
O O3 0.747809 0.970332 0.680721
O O4 0.873496 0.016085 0.686583
O O5 0.190696 0.750000 0.390445
O O6 0.125826 0.995155 0.424933
O O7 0.253547 0.993798 0.428808
O O8 0.567885 0.250000 0.704829
O O9 0.586409 0.037234 0.805361
O O10 0.500000 0.000000 0.700806
O O11 0.621938 0.989232 0.672189
O O12 0.061748 0.750000 0.466932
O O13 0.078493 0.517487 0.555944
O O14 0.000000 0.500000 0.442191
O O15 0.939089 0.750000 0.144732
O O16 0.000000 0.000000 0.169372
O O17 0.682045 0.250000 0.473765
O O18 0.694587 0.486211 0.556809
O O19 0.620559 0.496732 0.441371
O O20 0.321342 0.250000 0.619376
O O21 0.434647 0.250000 0.404666
O O22 0.500000 0.000000 0.409912
#
# Coordination Sequence:
#
# PCOD8181454 Si02
#       8
#     8   8   8   8   8   8   8   8
#     4  10  21  37  57  81 111 146 183 227 279 334
#     4   9  19  36  57  80 108 143 182 225 276 333
#     4  10  21  38  61  87 116 150 188 231 280 337
#     4   9  18  34  55  78 106 140 179 221 266 320
#     4  10  20  35  56  81 110 145 184 227 275 329
#     4  11  22  38  60  83 111 149 191 234 283 337
#     4  11  23  38  57  83 116 151 190 236 284 335
#     4  10  21  38  60  87 117 148 185 229 278 335
#
# _framework density 19.285516000000001
#
# number of rings (size 3 to 8) (size 9 to 14) (size 15 to 20)
#    0.000    2.000    0.000    3.375    0.000    6.000 
#    0.000    6.875    0.000    0.000    0.000    0.000 
#    0.000    0.000    0.000    0.000    0.000    0.000 
#
# Total GULP energy -396933.573526 kJ/mol
# GULP energy per Si atom -12404.174173 kJ/mol
# Density = 1.924162 g / cm^3
# Si number density = 19.285516 Si / 1000 Ang^3
#
#
#
# Elastic Constant Matrix: (Units=GPa)
#
#
# Indices 1 2 3 4 5 6 
#
# 1 152.2221 48.2822 81.7372 0.0000 0.0000 0.0000
# 2 48.2822 63.9539 38.8647 0.0000 0.0000 0.0000
# 3 81.7372 38.8647 120.5556 0.0000 0.0000 0.0000
# 4 0.0000 0.0000 0.0000 42.8873 0.0000 0.0000
# 5 0.0000 0.0000 0.0000 0.0000 43.2161 0.0000
# 6 0.0000 0.0000 0.0000 0.0000 0.0000 33.7869
#
#
#
# Elastic Compliance Matrix: (Units=1/GPa)
#
#
# Indices 1 2 3 4 5 6 
#
# 1 0.011435 -0.004877 -0.006181 0.000000 0.000000 0.000000
# 2 -0.004877 0.021526 -0.003633 0.000000 0.000000 0.000000
# 3 -0.006181 -0.003633 0.013657 0.000000 0.000000 0.000000
# 4 0.000000 0.000000 0.000000 0.023317 0.000000 0.000000
# 5 0.000000 0.000000 0.000000 0.000000 0.023140 0.000000
# 6 0.000000 0.000000 0.000000 0.000000 0.000000 0.029597
#
#
# Mechanical properties :
#
#
# Convention : Reuss Voigt Hill
#
# Bulk Modulus (GPa) = 58.01694 74.94442 66.48068
# Shear Modulus (GPa) = 31.68606 35.16789 33.42697
#
# Velocity S-wave (km/s) = 4.05779 4.27492 4.16777
# Velocity P-wave (km/s) = 7.21822 7.95685 7.59652
#
# Compressibility (1/GPa) = 0.01723634
#
# Stress axis : x y z
#
# Youngs Moduli (GPa) = 87.45044 46.45584 73.22385
#
# Poissons Ratio (x) = 0.22656 0.45258
# Poissons Ratio (y) = 0.42648 0.26602
# Poissons Ratio (z) = 0.54052 0.16877
#
# Static dielectric constant tensor:
#      x y z
#    x 3.595000 0.000000 0.000000 
#    y 0.000000 3.359130 0.000000 
#    z 0.000000 0.000000 3.649600 
# 
# 
# High freq. dielectric constant tensor:
#      x y z
#    x 1.767320 0.000000 0.000000 
#    y 0.000000 1.745560 0.000000 
#    z 0.000000 0.000000 1.754220 
# 
# From -- ./inp_files/13184.got.cif
#   From: 2010.03.12/outbox.cif.g09.slc.cpg/sg39_7_cif.got.tgz:13184.got - 2010.04.14 02:53:20.
