data_PCOD8181607
_publ_section_title
;
Structure prediction by ZEFSAII (Michael W. Deem and Ramdas Pophale) SiO2 
 PCOD8181607
Probable space group: A B M 2
;
_chemical_formula_sum "Si O2"
_cell_formula_units_Z 52
_cell_length_a 15.609194
_cell_length_b 13.995867
_cell_length_c 12.048866
_cell_angle_alpha 90.000000
_cell_angle_beta 90.000000
_cell_angle_gamma 90.000000
_cell_volume 2632.245910
_symmetry_space_group_name_H-M "A B M 2"
_symmetry_group_IT_number 39
_symmetry_cell_setting 'orthorhombic'
loop_
_space_group_symop_operation_xyz
x,y,z
-x,-y,z
-x,1/2+y,z
x,1/2-y,z
x,1/2+y,1/2+z
-x,1/2-y,1/2+z
-x,y,1/2+z
x,-y,1/2+z
loop_
_atom_site_type_symbol
_atom_site_label
_atom_site_fract_x
_atom_site_fract_y
_atom_site_fract_z
Si Si1 0.313559 0.641025 0.952550
Si Si2 0.597875 0.523421 0.277580
Si Si3 0.852518 0.916850 0.696077
Si Si4 0.000000 0.000000 0.831866
Si Si5 0.122574 0.645301 0.952490
Si Si6 0.285911 0.641348 0.365343
Si Si7 0.282006 0.967584 0.591285
O O1 0.333104 0.750000 0.986668
O O2 0.387887 0.603807 0.871004
O O3 0.217728 0.629747 0.899388
O O4 0.314705 0.574516 0.060520
O O5 0.500000 0.500000 0.254855
O O6 0.640278 0.423491 0.313075
O O7 0.641419 0.570786 0.168631
O O8 0.868785 0.855231 0.585882
O O9 0.796958 0.859762 0.786872
O O10 0.805730 0.017052 0.661422
O O11 0.943326 0.935271 0.752173
O O12 0.941271 0.064640 0.910685
O O13 0.088076 0.750000 0.917962
O O14 0.318504 0.750000 0.377815
O O15 0.262892 0.600949 0.487819
#
# Coordination Sequence:
#
# PCOD8181607 Si02
#       7
#     8   8   8   4   8   8   8
#     4   9  19  38  60  77 102 146 191 226 266 324
#     4  10  21  36  55  83 116 144 176 225 281 331
#     4  10  20  37  58  80 111 148 183 227 277 325
#     4  12  22  36  56  84 116 146 182 228 278 328
#     4  10  21  37  57  81 109 146 189 228 273 327
#     4  10  21  38  60  83 109 145 188 229 271 324
#     4   9  19  36  56  82 111 145 184 227 275 326
#
# _framework density 19.754992999999999
#
# number of rings (size 3 to 8) (size 9 to 14) (size 15 to 20)
#    0.000    2.154    0.000    4.615    0.000    8.615 
#    0.000    0.769    0.000    0.000    0.000    0.000 
#    0.000    0.000    0.000    0.000    0.000    0.000 
#
# Total GULP energy -322267.577933 kJ/mol
# GULP energy per Si atom -12394.906844 kJ/mol
# Density = 1.971003 g / cm^3
# Si number density = 19.754993 Si / 1000 Ang^3
#
#
#
# Elastic Constant Matrix: (Units=GPa)
#
#
# Indices 1 2 3 4 5 6 
#
# 1 71.6860 -1.5649 10.3674 0.0000 0.0000 0.0000
# 2 -1.5649 76.0224 7.3451 0.0000 0.0000 0.0000
# 3 10.3674 7.3451 72.0605 0.0000 0.0000 0.0000
# 4 0.0000 0.0000 0.0000 13.9484 0.0000 0.0000
# 5 0.0000 0.0000 0.0000 0.0000 20.4450 0.0000
# 6 0.0000 0.0000 0.0000 0.0000 0.0000 18.8583
#
#
#
# Elastic Compliance Matrix: (Units=1/GPa)
#
#
# Indices 1 2 3 4 5 6 
#
# 1 0.014265 0.000497 -0.002103 0.000000 0.000000 0.000000
# 2 0.000497 0.013302 -0.001427 0.000000 0.000000 0.000000
# 3 -0.002103 -0.001427 0.014325 0.000000 0.000000 0.000000
# 4 0.000000 0.000000 0.000000 0.071693 0.000000 0.000000
# 5 0.000000 0.000000 0.000000 0.000000 0.048912 0.000000
# 6 0.000000 0.000000 0.000000 0.000000 0.000000 0.053027
#
#
# Mechanical properties :
#
#
# Convention : Reuss Voigt Hill
#
# Bulk Modulus (GPa) = 27.91329 28.00710 27.96019
# Shear Modulus (GPa) = 21.41035 24.22511 22.81773
#
# Velocity S-wave (km/s) = 3.29567 3.50562 3.40227
# Velocity P-wave (km/s) = 5.35186 5.53117 5.44225
#
# Compressibility (1/GPa) = 0.03582523
#
# Stress axis : x y z
#
# Youngs Moduli (GPa) = 70.10312 75.17576 69.80672
#
# Poissons Ratio (x) = -0.03735 0.14680
# Poissons Ratio (y) = -0.03483 0.09964
# Poissons Ratio (z) = 0.14742 0.10730
#
# Static dielectric constant tensor:
#      x y z
#    x 3.461690 0.000000 0.000000 
#    y 0.000000 3.442160 0.000000 
#    z 0.000000 0.000000 3.634560 
# 
# 
# High freq. dielectric constant tensor:
#      x y z
#    x 1.754530 0.000000 0.000000 
#    y 0.000000 1.757580 0.000000 
#    z 0.000000 0.000000 1.776470 
# 
# From -- ./inp_files/6514.got.cif
#   From: 2010.03.12/outbox.cif.g09.slc.cpg/sg39_4_cif.got.tgz:6514.got - 2010.04.14 02:53:20.
