data_PCOD8181217
_publ_section_title
;
Structure prediction by ZEFSAII (Michael W. Deem and Ramdas Pophale) SiO2 
 PCOD8181217
Probable space group: A B M 2
;
_chemical_formula_sum "Si O2"
_cell_formula_units_Z 52
_cell_length_a 8.772363
_cell_length_b 14.729947
_cell_length_c 21.124124
_cell_angle_alpha 90.000000
_cell_angle_beta 90.000000
_cell_angle_gamma 90.000000
_cell_volume 2729.584145
_symmetry_space_group_name_H-M "A B M 2"
_symmetry_group_IT_number 39
_symmetry_cell_setting 'orthorhombic'
loop_
_space_group_symop_operation_xyz
x,y,z
-x,-y,z
-x,1/2+y,z
x,1/2-y,z
x,1/2+y,1/2+z
-x,1/2-y,1/2+z
-x,y,1/2+z
x,-y,1/2+z
loop_
_atom_site_type_symbol
_atom_site_label
_atom_site_fract_x
_atom_site_fract_y
_atom_site_fract_z
Si Si1 0.095134 0.084226 0.812160
Si Si2 0.166591 0.517307 0.636740
Si Si3 0.000000 0.000000 0.016177
Si Si4 0.109682 0.148274 0.420892
Si Si5 0.292610 0.149946 0.697899
Si Si6 0.353123 0.355009 0.225437
Si Si7 0.662789 0.040314 0.855257
O O1 0.178885 0.140439 0.757479
O O2 0.985666 0.146443 0.855086
O O3 0.222525 0.044370 0.859524
O O4 0.000000 0.000000 0.782648
O O5 0.143027 0.530129 0.561087
O O6 0.262865 0.425253 0.645182
O O7 0.255619 0.602792 0.667324
O O8 0.000000 0.500000 0.668715
O O9 0.965646 0.087207 0.974366
O O10 0.117047 0.250000 0.446945
O O11 0.282755 0.114146 0.406994
O O12 0.265868 0.250000 0.668888
O O13 0.466861 0.138056 0.717472
O O14 0.302290 0.250000 0.234069
O O15 0.319326 0.415684 0.286172
O O16 0.500000 0.000000 0.872418
#
# Coordination Sequence:
#
# PCOD8181217 Si02
#       7
#     8   8   4   8   8   8   8
#     4  10  19  35  61  89 123 155 186 229 300 354
#     4  10  23  39  59  81 113 160 200 247 296 340
#     4  10  24  42  62  80 110 160 214 258 300 334
#     4  11  23  41  63  89 119 156 206 254 298 355
#     4  11  21  35  58  92 125 153 187 233 296 366
#     4  11  22  36  59  93 125 155 187 235 301 370
#     4  11  19  36  63  89 126 158 185 235 303 370
#
# _framework density 19.050521
#
# number of rings (size 3 to 8) (size 9 to 14) (size 15 to 20)
#    0.462    0.923    5.385    1.846    2.154    1.846 
#    0.000    1.538    0.000    0.000    0.000    0.000 
#    0.000    0.000    0.000    0.000    0.000    0.000 
#
# Total GULP energy -322200.580595 kJ/mol
# GULP energy per Si atom -12392.330023 kJ/mol
# Density = 1.900716 g / cm^3
# Si number density = 19.050521 Si / 1000 Ang^3
#
#
#
# Elastic Constant Matrix: (Units=GPa)
#
#
# Indices 1 2 3 4 5 6 
#
# 1 105.3523 44.5466 30.5070 0.0000 0.0000 0.0000
# 2 44.5466 133.0812 40.0592 0.0000 0.0000 0.0000
# 3 30.5070 40.0592 89.4358 0.0000 0.0000 0.0000
# 4 0.0000 0.0000 0.0000 9.7259 0.0000 0.0000
# 5 0.0000 0.0000 0.0000 0.0000 22.9104 0.0000
# 6 0.0000 0.0000 0.0000 0.0000 0.0000 27.7036
#
#
#
# Elastic Compliance Matrix: (Units=1/GPa)
#
#
# Indices 1 2 3 4 5 6 
#
# 1 0.011539 -0.003095 -0.002550 0.000000 0.000000 0.000000
# 2 -0.003095 0.009515 -0.003206 0.000000 0.000000 0.000000
# 3 -0.002550 -0.003206 0.013487 0.000000 0.000000 0.000000
# 4 0.000000 0.000000 0.000000 0.102818 0.000000 0.000000
# 5 0.000000 0.000000 0.000000 0.000000 0.043648 0.000000
# 6 0.000000 0.000000 0.000000 0.000000 0.000000 0.036096
#
#
# Mechanical properties :
#
#
# Convention : Reuss Voigt Hill
#
# Bulk Modulus (GPa) = 59.38469 62.01054 60.69762
# Shear Modulus (GPa) = 20.79697 26.25174 23.52436
#
# Velocity S-wave (km/s) = 3.30763 3.71618 3.51784
# Velocity P-wave (km/s) = 6.76958 7.14385 6.95923
#
# Compressibility (1/GPa) = 0.01683936
#
# Stress axis : x y z
#
# Youngs Moduli (GPa) = 86.66308 105.09350 74.14514
#
# Poissons Ratio (x) = 0.32526 0.18905
# Poissons Ratio (y) = 0.26822 0.23773
# Poissons Ratio (z) = 0.22097 0.33696
#
# Static dielectric constant tensor:
#      x y z
#    x 3.771480 0.000000 0.000000 
#    y 0.000000 3.592800 0.000000 
#    z 0.000000 0.000000 3.172720 
# 
# 
# High freq. dielectric constant tensor:
#      x y z
#    x 1.749610 0.000000 0.000000 
#    y 0.000000 1.744630 0.000000 
#    z 0.000000 0.000000 1.709450 
# 
# From -- ./inp_files/15624.got.cif
#   From: 2010.03.12/outbox.cif.g09.slc.cpg/sg39_8_cif.got.tgz:15624.got - 2010.04.14 02:53:20.
