data_PCOD8181618
_publ_section_title
;
Structure prediction by ZEFSAII (Michael W. Deem and Ramdas Pophale) SiO2 
 PCOD8181618
Probable space group: A B M 2
;
_chemical_formula_sum "Si O2"
_cell_formula_units_Z 64
_cell_length_a 8.847404
_cell_length_b 16.779693
_cell_length_c 20.930910
_cell_angle_alpha 90.000000
_cell_angle_beta 90.000000
_cell_angle_gamma 90.000000
_cell_volume 3107.334307
_symmetry_space_group_name_H-M "A B M 2"
_symmetry_group_IT_number 39
_symmetry_cell_setting 'orthorhombic'
loop_
_space_group_symop_operation_xyz
x,y,z
-x,-y,z
-x,1/2+y,z
x,1/2-y,z
x,1/2+y,1/2+z
-x,1/2-y,1/2+z
-x,y,1/2+z
x,-y,1/2+z
loop_
_atom_site_type_symbol
_atom_site_label
_atom_site_fract_x
_atom_site_fract_y
_atom_site_fract_z
Si Si1 0.418526 0.843508 0.724710
Si Si2 0.579494 0.344297 0.348357
Si Si3 0.576078 0.585764 0.607165
Si Si4 0.082219 0.155058 0.224036
Si Si5 0.916654 0.657064 0.847796
Si Si6 0.932043 0.585808 0.601448
Si Si7 0.563320 0.410516 0.481519
Si Si8 0.110531 0.842628 0.488070
O O1 0.405841 0.750000 0.733328
O O2 0.479892 0.880698 0.791020
O O3 0.534315 0.861690 0.668210
O O4 0.251284 0.878144 0.711694
O O5 0.582669 0.250000 0.345203
O O6 0.748466 0.379526 0.341089
O O7 0.508783 0.369209 0.416330
O O8 0.500000 0.500000 0.616431
O O9 0.753642 0.579008 0.599049
O O10 0.512561 0.629886 0.543803
O O11 0.076641 0.250000 0.220350
O O12 0.027220 0.121690 0.293338
O O13 0.974807 0.120041 0.170127
O O14 0.906671 0.750000 0.834189
O O15 0.974650 0.640306 0.920230
O O16 0.000000 0.500000 0.589478
O O17 0.994314 0.642718 0.545377
O O18 0.500000 0.500000 0.479878
O O19 0.744008 0.400860 0.491740
O O20 0.164947 0.750000 0.489824
#
# Coordination Sequence:
#
# PCOD8181618 Si02
#       8
#     8   8   8   8   8   8   8   8
#     4  10  21  36  58  86 117 151 192 240 291 346
#     4   9  18  34  55  82 115 154 195 240 291 347
#     4  11  24  40  57  80 115 153 192 240 295 354
#     4  10  20  37  59  84 115 152 192 239 290 348
#     4   8  16  33  58  84 113 149 195 244 290 342
#     4  12  24  39  59  84 116 153 196 247 298 354
#     4  10  20  37  59  86 120 157 195 239 296 353
#     4  10  21  40  64  90 120 159 201 245 296 352
#
# _framework density 20.596430999999999
#
# number of rings (size 3 to 8) (size 9 to 14) (size 15 to 20)
#    0.000    2.000    0.000    5.250    0.000    5.500 
#    0.000    4.375    0.000    0.000    0.000    0.000 
#    0.000    0.000    0.000    0.000    0.000    0.000 
#
# Total GULP energy -396664.013150 kJ/mol
# GULP energy per Si atom -12395.750411 kJ/mol
# Density = 2.054955 g / cm^3
# Si number density = 20.596431 Si / 1000 Ang^3
#
#
#
# Elastic Constant Matrix: (Units=GPa)
#
#
# Indices 1 2 3 4 5 6 
#
# 1 124.1379 24.6128 61.9935 0.0000 0.0000 0.0000
# 2 24.6128 32.0515 17.2026 0.0000 0.0000 0.0000
# 3 61.9935 17.2026 178.8221 0.0000 0.0000 0.0000
# 4 0.0000 0.0000 0.0000 18.0097 0.0000 0.0000
# 5 0.0000 0.0000 0.0000 0.0000 41.0618 0.0000
# 6 0.0000 0.0000 0.0000 0.0000 0.0000 25.1261
#
#
#
# Elastic Compliance Matrix: (Units=1/GPa)
#
#
# Indices 1 2 3 4 5 6 
#
# 1 0.010964 -0.006727 -0.003154 0.000000 0.000000 0.000000
# 2 -0.006727 0.037026 -0.001230 0.000000 0.000000 0.000000
# 3 -0.003154 -0.001230 0.006804 0.000000 0.000000 0.000000
# 4 0.000000 0.000000 0.000000 0.055526 0.000000 0.000000
# 5 0.000000 0.000000 0.000000 0.000000 0.024354 0.000000
# 6 0.000000 0.000000 0.000000 0.000000 0.000000 0.039799
#
#
# Mechanical properties :
#
#
# Convention : Reuss Voigt Hill
#
# Bulk Modulus (GPa) = 30.70078 60.29216 45.49647
# Shear Modulus (GPa) = 24.09046 32.25303 28.17174
#
# Velocity S-wave (km/s) = 3.42371 3.96150 3.70239
# Velocity P-wave (km/s) = 5.52877 7.08952 6.35723
#
# Compressibility (1/GPa) = 0.03257246
#
# Stress axis : x y z
#
# Youngs Moduli (GPa) = 91.20443 27.00838 146.97535
#
# Poissons Ratio (x) = 0.18168 0.46356
# Poissons Ratio (y) = 0.61353 0.18074
# Poissons Ratio (z) = 0.28766 0.03321
#
# Static dielectric constant tensor:
#      x y z
#    x 3.924570 0.000000 0.000000 
#    y 0.000000 3.426930 0.000000 
#    z 0.000000 0.000000 4.281310 
# 
# 
# High freq. dielectric constant tensor:
#      x y z
#    x 1.802360 0.000000 0.000000 
#    y 0.000000 1.775360 0.000000 
#    z 0.000000 0.000000 1.832190 
# 
# From -- ./inp_files/14176.got.cif
#   From: 2010.03.12/outbox.cif.g09.slc.cpg/sg39_8_cif.got.tgz:14176.got - 2010.04.14 02:53:20.
