data_PCOD8181201
_publ_section_title
;
Structure prediction by ZEFSAII (Michael W. Deem and Ramdas Pophale) SiO2 
 PCOD8181201
Probable space group: A B M 2
;
_chemical_formula_sum "Si O2"
_cell_formula_units_Z 48
_cell_length_a 13.998439
_cell_length_b 8.754241
_cell_length_c 20.584410
_cell_angle_alpha 90.000000
_cell_angle_beta 90.000000
_cell_angle_gamma 90.000000
_cell_volume 2522.531110
_symmetry_space_group_name_H-M "A B M 2"
_symmetry_group_IT_number 39
_symmetry_cell_setting 'orthorhombic'
loop_
_space_group_symop_operation_xyz
x,y,z
-x,-y,z
-x,1/2+y,z
x,1/2-y,z
x,1/2+y,1/2+z
-x,1/2-y,1/2+z
-x,y,1/2+z
x,-y,1/2+z
loop_
_atom_site_type_symbol
_atom_site_label
_atom_site_fract_x
_atom_site_fract_y
_atom_site_fract_z
Si Si1 0.397147 0.930134 0.897760
Si Si2 0.899555 0.431101 0.322319
Si Si3 0.604191 0.429413 0.645860
Si Si4 0.097810 0.071360 0.461434
Si Si5 0.707949 0.927429 0.526970
Si Si6 0.282539 0.930815 0.772413
O O1 0.405378 0.750000 0.896435
O O2 0.335265 0.987341 0.837217
O O3 0.500000 0.000000 0.891234
O O4 0.348885 0.986471 0.964035
O O5 0.906071 0.250000 0.323721
O O6 0.873100 0.492617 0.393881
O O7 0.819868 0.485848 0.270884
O O8 0.000000 0.500000 0.298834
O O9 0.500000 0.500000 0.637240
O O10 0.590580 0.250000 0.646540
O O11 0.673926 0.474533 0.587536
O O12 0.653850 0.486912 0.711906
O O13 0.084032 0.250000 0.446904
O O14 0.179592 0.043940 0.514970
O O15 0.000000 0.000000 0.489335
O O16 0.686784 0.750000 0.540402
O O17 0.266117 0.750000 0.770908
#
# Coordination Sequence:
#
# PCOD8181201 Si02
#       6
#     8   8   8   8   8   8
#     4  10  20  35  55  80 110 144 187 239 288 336
#     4  11  21  34  58  89 119 152 189 236 288 345
#     4  11  24  40  61  84 116 157 195 240 288 347
#     4  10  19  35  58  86 119 153 189 236 290 344
#     4  10  21  38  59  82 115 155 192 239 288 341
#     4  10  21  40  59  81 115 153 194 238 288 341
#
# _framework density 19.028506
#
# number of rings (size 3 to 8) (size 9 to 14) (size 15 to 20)
#    0.000    1.667    1.667    4.500    0.000    5.333 
#    0.000    0.833    0.000    2.000    0.000    0.000 
#    0.000    0.000    0.000    0.000    0.000    0.000 
#
# Total GULP energy -297674.709622 kJ/mol
# GULP energy per Si atom -12403.112901 kJ/mol
# Density = 1.898520 g / cm^3
# Si number density = 19.028506 Si / 1000 Ang^3
#
#
#
# Elastic Constant Matrix: (Units=GPa)
#
#
# Indices 1 2 3 4 5 6 
#
# 1 138.6613 46.6747 47.1811 0.0000 0.0000 0.0000
# 2 46.6747 77.4307 35.5885 0.0000 0.0000 0.0000
# 3 47.1811 35.5885 98.1810 0.0000 0.0000 0.0000
# 4 0.0000 0.0000 0.0000 26.9562 0.0000 0.0000
# 5 0.0000 0.0000 0.0000 0.0000 31.5129 0.0000
# 6 0.0000 0.0000 0.0000 0.0000 0.0000 38.2804
#
#
#
# Elastic Compliance Matrix: (Units=1/GPa)
#
#
# Indices 1 2 3 4 5 6 
#
# 1 0.009762 -0.004474 -0.003070 0.000000 0.000000 0.000000
# 2 -0.004474 0.017547 -0.004210 0.000000 0.000000 0.000000
# 3 -0.003070 -0.004210 0.013187 0.000000 0.000000 0.000000
# 4 0.000000 0.000000 0.000000 0.037097 0.000000 0.000000
# 5 0.000000 0.000000 0.000000 0.000000 0.031733 0.000000
# 6 0.000000 0.000000 0.000000 0.000000 0.000000 0.026123
#
#
# Mechanical properties :
#
#
# Convention : Reuss Voigt Hill
#
# Bulk Modulus (GPa) = 58.86543 63.68461 61.27502
# Shear Modulus (GPa) = 30.37317 31.67180 31.02248
#
# Velocity S-wave (km/s) = 3.99957 4.08418 4.04210
# Velocity P-wave (km/s) = 7.23404 7.46869 7.35230
#
# Compressibility (1/GPa) = 0.01698790
#
# Stress axis : x y z
#
# Youngs Moduli (GPa) = 102.43605 56.99078 75.83475
#
# Poissons Ratio (x) = 0.25496 0.23278
# Poissons Ratio (y) = 0.45827 0.31930
# Poissons Ratio (z) = 0.31444 0.23996
#
# Static dielectric constant tensor:
#      x y z
#    x 3.694700 0.000000 0.000000 
#    y 0.000000 3.439230 0.000000 
#    z 0.000000 0.000000 3.432890 
# 
# 
# High freq. dielectric constant tensor:
#      x y z
#    x 1.757870 0.000000 0.000000 
#    y 0.000000 1.740320 0.000000 
#    z 0.000000 0.000000 1.723470 
# 
# From -- ./inp_files/12641.got.cif
#   From: 2010.03.12/outbox.cif.g09.slc.cpg/sg39_7_cif.got.tgz:12641.got - 2010.04.14 02:53:20.
