data_PCOD8181566
_publ_section_title
;
Structure prediction by ZEFSAII (Michael W. Deem and Ramdas Pophale) SiO2 
 PCOD8181566
Probable space group: A B M 2
;
_chemical_formula_sum "Si O2"
_cell_formula_units_Z 64
_cell_length_a 24.147703
_cell_length_b 8.971927
_cell_length_c 14.905023
_cell_angle_alpha 90.000000
_cell_angle_beta 90.000000
_cell_angle_gamma 90.000000
_cell_volume 3229.194525
_symmetry_space_group_name_H-M "A B M 2"
_symmetry_group_IT_number 39
_symmetry_cell_setting 'orthorhombic'
loop_
_space_group_symop_operation_xyz
x,y,z
-x,-y,z
-x,1/2+y,z
x,1/2-y,z
x,1/2+y,1/2+z
-x,1/2-y,1/2+z
-x,y,1/2+z
x,-y,1/2+z
loop_
_atom_site_type_symbol
_atom_site_label
_atom_site_fract_x
_atom_site_fract_y
_atom_site_fract_z
Si Si1 0.554265 0.418231 0.472390
Si Si2 0.666137 0.425917 0.976177
Si Si3 0.553513 0.916661 0.186077
Si Si4 0.140671 0.578687 0.829334
Si Si5 0.337016 0.577162 0.180864
Si Si6 0.056653 0.425218 0.486512
Si Si7 0.056648 0.574774 0.672175
Si Si8 0.255785 0.923904 0.337807
O O1 0.500000 0.500000 0.432794
O O2 0.555947 0.250000 0.435521
O O3 0.609227 0.502965 0.439298
O O4 0.551742 0.420828 0.579170
O O5 0.661809 0.250000 0.965348
O O6 0.717352 0.486292 0.919465
O O7 0.677064 0.473198 0.079467
O O8 0.552717 0.750000 0.223539
O O9 0.500000 0.000000 0.226095
O O10 0.609436 0.993857 0.220370
O O11 0.160496 0.750000 0.829395
O O12 0.104728 0.542132 0.742299
O O13 0.192519 0.470018 0.828214
O O14 0.104950 0.542372 0.916710
O O15 0.351990 0.750000 0.182417
O O16 0.285340 0.537094 0.243757
O O17 0.046366 0.250000 0.499668
O O18 0.075325 0.499883 0.579374
O O19 0.000000 0.500000 0.451448
O O20 0.046413 0.750000 0.658948
O O21 0.000000 0.500000 0.707175
O O22 0.260173 0.750000 0.359879
#
# Coordination Sequence:
#
# PCOD8181566 Si02
#       8
#     8   8   8   8   8   8   8   8
#     4   9  16  28  49  79 110 140 178 222 274 334
#     4  10  20  37  59  80 108 145 182 226 280 333
#     4   9  16  27  49  79 108 139 175 219 272 330
#     4  10  23  40  57  80 113 151 188 228 274 324
#     4   9  20  38  57  78 107 143 181 224 276 331
#     4  10  20  36  59  87 118 150 184 224 272 325
#     4  10  20  36  59  88 119 150 185 226 273 325
#     4  11  24  40  58  81 109 144 189 235 275 324
#
# _framework density 19.819185000000001
#
# number of rings (size 3 to 8) (size 9 to 14) (size 15 to 20)
#    0.000    2.250    0.000    3.375    0.000    7.500 
#    0.000    4.375    0.000    3.000    0.000    0.000 
#    0.000    0.000    0.000    0.000    0.000    0.000 
#
# Total GULP energy -396890.900500 kJ/mol
# GULP energy per Si atom -12402.840641 kJ/mol
# Density = 1.977408 g / cm^3
# Si number density = 19.819185 Si / 1000 Ang^3
#
#
#
# Elastic Constant Matrix: (Units=GPa)
#
#
# Indices 1 2 3 4 5 6 
#
# 1 145.9001 71.0832 60.2102 0.0000 0.0000 0.0000
# 2 71.0832 121.5175 50.6605 0.0000 0.0000 0.0000
# 3 60.2102 50.6605 78.8372 0.0000 0.0000 0.0000
# 4 0.0000 0.0000 0.0000 22.1790 0.0000 0.0000
# 5 0.0000 0.0000 0.0000 0.0000 -1.1504 0.0000
# 6 0.0000 0.0000 0.0000 0.0000 0.0000 42.2759
#
#
#
# Elastic Compliance Matrix: (Units=1/GPa)
#
#
# Indices 1 2 3 4 5 6 
#
# 1 0.011348 -0.004132 -0.006012 0.000000 0.000000 0.000000
# 2 -0.004132 0.012745 -0.005034 0.000000 0.000000 0.000000
# 3 -0.006012 -0.005034 0.020511 0.000000 0.000000 0.000000
# 4 0.000000 0.000000 0.000000 0.045088 0.000000 0.000000
# 5 0.000000 0.000000 0.000000 0.000000 -0.869274 0.000000
# 6 0.000000 0.000000 0.000000 0.000000 0.000000 0.023654
#
#
# Mechanical properties :
#
#
# Convention : Reuss Voigt Hill
#
# Bulk Modulus (GPa) = 70.18503 78.90694 74.54598
# Shear Modulus (GPa) = -6.93651 23.61431 8.33890
#
# Velocity S-wave (km/s) = -1.87283 3.45554 2.05344
# Velocity P-wave (km/s) = 5.55094 7.47133 6.58155
#
# Compressibility (1/GPa) = 0.01424805
#
# Stress axis : x y z
#
# Youngs Moduli (GPa) = 88.12148 78.46185 48.75518
#
# Poissons Ratio (x) = 0.32420 0.29310
# Poissons Ratio (y) = 0.36411 0.24545
# Poissons Ratio (z) = 0.52975 0.39500
#
# Static dielectric constant tensor:
#      x y z
#    x 3.536700 0.000000 0.000000 
#    y 0.000000 3.711800 0.000000 
#    z 0.000000 0.000000 3.561120 
# 
# 
# High freq. dielectric constant tensor:
#      x y z
#    x 1.770270 0.000000 0.000000 
#    y 0.000000 1.783510 0.000000 
#    z 0.000000 0.000000 1.768090 
# 
# From -- ./inp_files/10662.got.cif
#   From: 2010.03.12/outbox.cif.g09.slc.cpg/sg39_6_cif.got.tgz:10662.got - 2010.04.14 02:53:20.
