data_PCOD8181056
_publ_section_title
;
Structure prediction by ZEFSAII (Michael W. Deem and Ramdas Pophale) SiO2 
 PCOD8181056
Probable space group: A B M 2
;
_chemical_formula_sum "Si O2"
_cell_formula_units_Z 64
_cell_length_a 14.569748
_cell_length_b 8.890656
_cell_length_c 24.572558
_cell_angle_alpha 90.000000
_cell_angle_beta 90.000000
_cell_angle_gamma 90.000000
_cell_volume 3182.996901
_symmetry_space_group_name_H-M "A B M 2"
_symmetry_group_IT_number 39
_symmetry_cell_setting 'orthorhombic'
loop_
_space_group_symop_operation_xyz
x,y,z
-x,-y,z
-x,1/2+y,z
x,1/2-y,z
x,1/2+y,1/2+z
-x,1/2-y,1/2+z
-x,y,1/2+z
x,-y,1/2+z
loop_
_atom_site_type_symbol
_atom_site_label
_atom_site_fract_x
_atom_site_fract_y
_atom_site_fract_z
Si Si1 0.138140 0.924346 0.983500
Si Si2 0.721795 0.423288 0.332557
Si Si3 0.320128 0.076706 0.953320
Si Si4 0.908211 0.927690 0.094394
Si Si5 0.271296 0.577348 0.134123
Si Si6 0.399736 0.428309 0.732154
Si Si7 0.585378 0.922344 0.541915
Si Si8 0.091560 0.574747 0.861678
O O1 0.130191 0.750000 0.000131
O O2 0.089866 0.960377 0.926145
O O3 0.243406 0.966360 0.976691
O O4 0.094783 0.023590 0.031156
O O5 0.746494 0.250000 0.322470
O O6 0.667431 0.446713 0.389009
O O7 0.653436 0.483665 0.286194
O O8 0.818198 0.510349 0.332349
O O9 0.296890 0.250000 0.966828
O O10 0.408798 0.018382 0.985672
O O11 0.914173 0.750000 0.097686
O O12 0.821613 0.981908 0.129950
O O13 0.000000 0.000000 0.120354
O O14 0.244546 0.750000 0.145330
O O15 0.337222 0.516418 0.181826
O O16 0.323443 0.559845 0.077274
O O17 0.500000 0.500000 0.729311
O O18 0.412844 0.250000 0.730943
O O19 0.563376 0.750000 0.529230
O O20 0.500000 0.000000 0.573690
O O21 0.089336 0.750000 0.849564
O O22 0.000000 0.500000 0.836484
#
# Coordination Sequence:
#
# PCOD8181056 Si02
#       8
#     8   8   8   8   8   8   8   8
#     4  10  19  33  53  81 118 158 199 239 285 343
#     4   9  20  38  59  85 118 153 195 244 294 346
#     4  10  19  33  54  82 118 157 194 237 291 348
#     4  12  24  37  58  86 119 158 198 241 290 349
#     4  10  22  41  62  85 117 152 193 246 296 347
#     4  10  22  42  67  91 115 150 195 247 299 350
#     4  11  22  35  55  82 116 153 192 238 292 357
#     4  10  20  33  54  84 119 159 200 241 288 345
#
# _framework density 20.106836999999999
#
# number of rings (size 3 to 8) (size 9 to 14) (size 15 to 20)
#    0.000    1.750    1.250    3.375    0.000    5.000 
#    0.000    1.875    0.000    0.000    0.000    0.000 
#    0.000    0.000    0.000    0.000    0.000    0.000 
#
# Total GULP energy -396778.888208 kJ/mol
# GULP energy per Si atom -12399.340256 kJ/mol
# Density = 2.006107 g / cm^3
# Si number density = 20.106837 Si / 1000 Ang^3
#
#
#
# Elastic Constant Matrix: (Units=GPa)
#
#
# Indices 1 2 3 4 5 6 
#
# 1 147.8180 74.5658 58.2405 0.0000 0.0000 0.0000
# 2 74.5658 103.4862 47.6347 0.0000 0.0000 0.0000
# 3 58.2405 47.6347 97.2298 0.0000 0.0000 0.0000
# 4 0.0000 0.0000 0.0000 21.8449 0.0000 0.0000
# 5 0.0000 0.0000 0.0000 0.0000 21.2831 0.0000
# 6 0.0000 0.0000 0.0000 0.0000 0.0000 39.2790
#
#
#
# Elastic Compliance Matrix: (Units=1/GPa)
#
#
# Indices 1 2 3 4 5 6 
#
# 1 0.011562 -0.006640 -0.003672 0.000000 0.000000 0.000000
# 2 -0.006640 0.016290 -0.004004 0.000000 0.000000 0.000000
# 3 -0.003672 -0.004004 0.014446 0.000000 0.000000 0.000000
# 4 0.000000 0.000000 0.000000 0.045777 0.000000 0.000000
# 5 0.000000 0.000000 0.000000 0.000000 0.046986 0.000000
# 6 0.000000 0.000000 0.000000 0.000000 0.000000 0.025459
#
#
# Mechanical properties :
#
#
# Convention : Reuss Voigt Hill
#
# Bulk Modulus (GPa) = 73.17371 78.82401 75.99886
# Shear Modulus (GPa) = 25.81217 27.68759 26.74988
#
# Velocity S-wave (km/s) = 3.58683 3.71485 3.65140
# Velocity P-wave (km/s) = 7.32293 7.59525 7.46033
#
# Compressibility (1/GPa) = 0.01366611
#
# Stress axis : x y z
#
# Youngs Moduli (GPa) = 86.49364 61.38548 69.22363
#
# Poissons Ratio (x) = 0.40761 0.25420
# Poissons Ratio (y) = 0.57434 0.27714
# Poissons Ratio (z) = 0.31762 0.24576
#
# Static dielectric constant tensor:
#      x y z
#    x 3.749100 0.000000 0.000000 
#    y 0.000000 3.582020 0.000000 
#    z 0.000000 0.000000 3.606140 
# 
# 
# High freq. dielectric constant tensor:
#      x y z
#    x 1.794980 0.000000 0.000000 
#    y 0.000000 1.786220 0.000000 
#    z 0.000000 0.000000 1.764920 
# 
# From -- ./inp_files/16204.got.cif
#   From: 2010.03.12/outbox.cif.g09.slc.cpg/sg39_9_cif.got.tgz:16204.got - 2010.04.14 02:53:20.
