data_PCOD8181467
_publ_section_title
;
Structure prediction by ZEFSAII (Michael W. Deem and Ramdas Pophale) SiO2 
 PCOD8181467
Probable space group: A B M 2
;
_chemical_formula_sum "Si O2"
_cell_formula_units_Z 64
_cell_length_a 14.645906
_cell_length_b 8.918895
_cell_length_c 24.163030
_cell_angle_alpha 90.000000
_cell_angle_beta 90.000000
_cell_angle_gamma 90.000000
_cell_volume 3156.302989
_symmetry_space_group_name_H-M "A B M 2"
_symmetry_group_IT_number 39
_symmetry_cell_setting 'orthorhombic'
loop_
_space_group_symop_operation_xyz
x,y,z
-x,-y,z
-x,1/2+y,z
x,1/2-y,z
x,1/2+y,1/2+z
-x,1/2-y,1/2+z
-x,y,1/2+z
x,-y,1/2+z
loop_
_atom_site_type_symbol
_atom_site_label
_atom_site_fract_x
_atom_site_fract_y
_atom_site_fract_z
Si Si1 0.671653 0.583721 0.379990
Si Si2 0.868067 0.082808 0.837004
Si Si3 0.410741 0.921799 0.769822
Si Si4 0.283787 0.924964 0.188628
Si Si5 0.089302 0.075536 0.725413
Si Si6 0.400103 0.928766 0.082228
Si Si7 0.092365 0.072153 0.461561
Si Si8 0.281161 0.926973 0.487188
O O1 0.663888 0.750000 0.407635
O O2 0.759457 0.579784 0.340598
O O3 0.590391 0.554359 0.336494
O O4 0.674911 0.457573 0.426899
O O5 0.902624 0.250000 0.822246
O O6 0.906504 0.031403 0.896621
O O7 0.901389 0.971426 0.789623
O O8 0.415382 0.750000 0.752990
O O9 0.500000 0.000000 0.745073
O O10 0.322712 0.992554 0.741837
O O11 0.296021 0.750000 0.198671
O O12 0.176460 0.969006 0.187537
O O13 0.335738 0.975954 0.133399
O O14 0.073248 0.250000 0.724580
O O15 0.000000 0.000000 0.698464
O O16 0.409169 0.750000 0.076096
O O17 0.500000 0.000000 0.089975
O O18 0.351213 0.997986 0.029231
O O19 0.094781 0.250000 0.471792
O O20 0.180664 0.000672 0.491764
O O21 0.000000 0.000000 0.487034
O O22 0.274123 0.750000 0.497325
#
# Coordination Sequence:
#
# PCOD8181467 Si02
#       8
#     8   8   8   8   8   8   8   8
#     4   9  19  36  56  82 120 163 199 243 300 354
#     4   9  17  32  53  80 116 160 204 243 288 343
#     4  11  22  36  58  87 121 158 196 241 298 363
#     4  10  23  42  63  88 119 156 200 251 303 356
#     4  11  22  35  55  85 120 158 200 244 293 352
#     4  11  24  45  69  91 117 151 199 255 309 366
#     4  10  20  35  56  86 125 165 208 251 298 358
#     4  11  23  39  62  91 121 158 203 251 307 362
#
# _framework density 20.276888
#
# number of rings (size 3 to 8) (size 9 to 14) (size 15 to 20)
#    0.000    1.750    1.250    4.125    0.000    7.500 
#    0.000    1.875    0.000    1.500    0.000    0.000 
#    0.000    0.000    0.000    0.000    0.000    0.000 
#
# Total GULP energy -396745.846598 kJ/mol
# GULP energy per Si atom -12398.307706 kJ/mol
# Density = 2.023074 g / cm^3
# Si number density = 20.276888 Si / 1000 Ang^3
#
#
#
# Elastic Constant Matrix: (Units=GPa)
#
#
# Indices 1 2 3 4 5 6 
#
# 1 149.8277 71.1990 53.3751 0.0000 0.0000 0.0000
# 2 71.1990 92.6942 40.2605 0.0000 0.0000 0.0000
# 3 53.3751 40.2605 71.2891 0.0000 0.0000 0.0000
# 4 0.0000 0.0000 0.0000 22.6421 0.0000 0.0000
# 5 0.0000 0.0000 0.0000 0.0000 23.8500 0.0000
# 6 0.0000 0.0000 0.0000 0.0000 0.0000 36.5532
#
#
#
# Elastic Compliance Matrix: (Units=1/GPa)
#
#
# Indices 1 2 3 4 5 6 
#
# 1 0.011659 -0.006842 -0.004865 0.000000 0.000000 0.000000
# 2 -0.006842 0.018310 -0.005218 0.000000 0.000000 0.000000
# 3 -0.004865 -0.005218 0.020617 0.000000 0.000000 0.000000
# 4 0.000000 0.000000 0.000000 0.044166 0.000000 0.000000
# 5 0.000000 0.000000 0.000000 0.000000 0.041929 0.000000
# 6 0.000000 0.000000 0.000000 0.000000 0.000000 0.027357
#
#
# Mechanical properties :
#
#
# Convention : Reuss Voigt Hill
#
# Bulk Modulus (GPa) = 59.75298 71.49782 65.62540
# Shear Modulus (GPa) = 24.57418 26.54081 25.55749
#
# Velocity S-wave (km/s) = 3.48506 3.62182 3.55410
# Velocity P-wave (km/s) = 6.76215 7.26825 7.01976
#
# Compressibility (1/GPa) = 0.01673557
#
# Stress axis : x y z
#
# Youngs Moduli (GPa) = 85.77094 54.61505 48.50461
#
# Poissons Ratio (x) = 0.37369 0.23598
# Poissons Ratio (y) = 0.58687 0.25308
# Poissons Ratio (z) = 0.41728 0.28496
#
# Static dielectric constant tensor:
#      x y z
#    x 3.927200 0.000000 0.000000 
#    y 0.000000 3.651160 0.000000 
#    z 0.000000 0.000000 3.426030 
# 
# 
# High freq. dielectric constant tensor:
#      x y z
#    x 1.806090 0.000000 0.000000 
#    y 0.000000 1.795880 0.000000 
#    z 0.000000 0.000000 1.765910 
# 
# From -- ./inp_files/16233.got.cif
#   From: 2010.03.12/outbox.cif.g09.slc.cpg/sg39_9_cif.got.tgz:16233.got - 2010.04.14 02:53:20.
