data_PCOD8181299
_publ_section_title
;
Structure prediction by ZEFSAII (Michael W. Deem and Ramdas Pophale) SiO2 
 PCOD8181299
Probable space group: A B M 2
;
_chemical_formula_sum "Si O2"
_cell_formula_units_Z 60
_cell_length_a 13.544954
_cell_length_b 28.560700
_cell_length_c 9.128384
_cell_angle_alpha 90.000000
_cell_angle_beta 90.000000
_cell_angle_gamma 90.000000
_cell_volume 3531.346092
_symmetry_space_group_name_H-M "A B M 2"
_symmetry_group_IT_number 39
_symmetry_cell_setting 'orthorhombic'
loop_
_space_group_symop_operation_xyz
x,y,z
-x,-y,z
-x,1/2+y,z
x,1/2-y,z
x,1/2+y,1/2+z
-x,1/2-y,1/2+z
-x,y,1/2+z
x,-y,1/2+z
loop_
_atom_site_type_symbol
_atom_site_label
_atom_site_fract_x
_atom_site_fract_y
_atom_site_fract_z
Si Si1 0.417721 0.696158 0.891120
Si Si2 0.000000 0.000000 0.132119
Si Si3 0.080082 0.363280 0.481386
Si Si4 0.388781 0.305099 0.732338
Si Si5 0.808720 0.640712 0.770794
Si Si6 0.786725 0.303742 0.776287
Si Si7 0.096109 0.302262 0.998296
Si Si8 0.068892 0.937869 0.387786
O O1 0.418889 0.750000 0.846602
O O2 0.518796 0.675584 0.825664
O O3 0.320644 0.674204 0.813255
O O4 0.414747 0.688138 0.063309
O O5 0.062222 0.965027 0.233830
O O6 0.921658 0.972659 0.026809
O O7 0.160255 0.373432 0.606880
O O8 0.128579 0.332715 0.355219
O O9 0.991427 0.334799 0.558027
O O10 0.034883 0.410116 0.409694
O O11 0.361729 0.250000 0.764330
O O12 0.303293 0.341629 0.774980
O O13 0.873446 0.683633 0.833523
O O14 0.834746 0.596074 0.876560
O O15 0.791928 0.250000 0.832566
O O16 0.807778 0.306973 0.603068
O O17 0.055022 0.250000 0.995294
#
# Coordination Sequence:
#
# PCOD8181299 Si02
#       8
#     8   4   8   8   8   8   8   8
#     4   9  19  33  49  68  96 142 194 232 265 298
#     4  10  20  38  58  74 108 138 170 196 264 328
#     4  11  20  33  49  73 106 139 175 216 255 309
#     4  10  20  34  51  71 102 144 186 232 270 305
#     4  11  21  33  50  76 105 135 175 221 264 311
#     4  10  20  33  48  69 104 149 190 222 259 303
#     4  10  21  30  44  69 103 146 182 213 251 306
#     4  10  21  36  55  81 105 140 162 212 254 327
#
# _framework density 16.990687999999999
#
# number of rings (size 3 to 8) (size 9 to 14) (size 15 to 20)
#    0.000    1.867    2.667    2.400    3.733    2.667 
#    0.000    0.000    0.000    0.000    0.000    0.000 
#    0.000   18.133    0.000    0.000    0.000    0.000 
#
# Total GULP energy -371813.071081 kJ/mol
# GULP energy per Si atom -12393.769036 kJ/mol
# Density = 1.695202 g / cm^3
# Si number density = 16.990688 Si / 1000 Ang^3
#
#
#
# Elastic Constant Matrix: (Units=GPa)
#
#
# Indices 1 2 3 4 5 6 
#
# 1 108.1337 40.0944 32.4041 0.0000 0.0000 0.0000
# 2 40.0944 75.5886 36.3580 0.0000 0.0000 0.0000
# 3 32.4041 36.3580 78.2616 0.0000 0.0000 0.0000
# 4 0.0000 0.0000 0.0000 22.8189 0.0000 0.0000
# 5 0.0000 0.0000 0.0000 0.0000 29.0700 0.0000
# 6 0.0000 0.0000 0.0000 0.0000 0.0000 17.8043
#
#
#
# Elastic Compliance Matrix: (Units=1/GPa)
#
#
# Indices 1 2 3 4 5 6 
#
# 1 0.011900 -0.005076 -0.002569 0.000000 0.000000 0.000000
# 2 -0.005076 0.019202 -0.006819 0.000000 0.000000 0.000000
# 3 -0.002569 -0.006819 0.017009 0.000000 0.000000 0.000000
# 4 0.000000 0.000000 0.000000 0.043823 0.000000 0.000000
# 5 0.000000 0.000000 0.000000 0.000000 0.034400 0.000000
# 6 0.000000 0.000000 0.000000 0.000000 0.000000 0.056166
#
#
# Mechanical properties :
#
#
# Convention : Reuss Voigt Hill
#
# Bulk Modulus (GPa) = 52.12963 53.29965 52.71464
# Shear Modulus (GPa) = 22.95448 24.14714 23.55081
#
# Velocity S-wave (km/s) = 3.67959 3.77397 3.72708
# Velocity P-wave (km/s) = 6.98573 7.10130 7.04375
#
# Compressibility (1/GPa) = 0.01918295
#
# Stress axis : x y z
#
# Youngs Moduli (GPa) = 84.03458 52.07783 58.79226
#
# Poissons Ratio (x) = 0.26437 0.15102
# Poissons Ratio (y) = 0.42660 0.40089
# Poissons Ratio (z) = 0.21586 0.35511
#
# Static dielectric constant tensor:
#      x y z
#    x 3.190910 0.000000 0.000000 
#    y 0.000000 3.108280 0.000000 
#    z 0.000000 0.000000 3.239070 
# 
# 
# High freq. dielectric constant tensor:
#      x y z
#    x 1.634580 0.000000 0.000000 
#    y 0.000000 1.624080 0.000000 
#    z 0.000000 0.000000 1.671170 
# 
# From -- ./inp_files/2870.got.cif
#   From: 2010.03.12/outbox.cif.g09.slc.cpg/sg39_2_cif.got.tgz:2870.got - 2010.04.14 02:53:20.
