data_PCOD8181643
_publ_section_title
;
Structure prediction by ZEFSAII (Michael W. Deem and Ramdas Pophale) SiO2 
 PCOD8181643
Probable space group: A B M 2
;
_chemical_formula_sum "Si O2"
_cell_formula_units_Z 64
_cell_length_a 23.980179
_cell_length_b 8.606264
_cell_length_c 15.249264
_cell_angle_alpha 90.000000
_cell_angle_beta 90.000000
_cell_angle_gamma 90.000000
_cell_volume 3147.139311
_symmetry_space_group_name_H-M "A B M 2"
_symmetry_group_IT_number 39
_symmetry_cell_setting 'orthorhombic'
loop_
_space_group_symop_operation_xyz
x,y,z
-x,-y,z
-x,1/2+y,z
x,1/2-y,z
x,1/2+y,1/2+z
-x,1/2-y,1/2+z
-x,y,1/2+z
x,-y,1/2+z
loop_
_atom_site_type_symbol
_atom_site_label
_atom_site_fract_x
_atom_site_fract_y
_atom_site_fract_z
Si Si1 0.825933 0.932499 0.479540
Si Si2 0.943663 0.433338 0.912972
Si Si3 0.760095 0.930987 0.820288
Si Si4 0.943823 0.932490 0.214893
Si Si5 0.361192 0.933788 0.818376
Si Si6 0.558732 0.568271 0.163981
Si Si7 0.176574 0.567959 0.659302
Si Si8 0.560238 0.565441 0.964292
O O1 0.823775 0.750000 0.498309
O O2 0.889285 0.991416 0.464573
O O3 0.788944 0.968247 0.395438
O O4 0.801518 0.025348 0.562625
O O5 0.946325 0.250000 0.913192
O O6 0.938863 0.497653 0.813844
O O7 0.000000 0.500000 0.957566
O O8 0.768140 0.750000 0.840561
O O9 0.695560 0.971848 0.817451
O O10 0.787163 0.972099 0.727589
O O11 0.949197 0.750000 0.214630
O O12 0.888190 0.985240 0.164260
O O13 0.000000 0.000000 0.169784
O O14 0.349763 0.750000 0.817989
O O15 0.394085 0.988830 0.731287
O O16 0.394373 0.980101 0.905380
O O17 0.500000 0.500000 0.194527
O O18 0.551805 0.750000 0.170017
O O19 0.574193 0.518565 0.064819
O O20 0.183973 0.750000 0.678977
O O21 0.500000 0.500000 0.937530
O O22 0.561877 0.750000 0.949604
#
# Coordination Sequence:
#
# PCOD8181643 Si02
#       8
#     8   8   8   8   8   8   8   8
#     4  11  23  42  64  89 120 157 202 252 306 367
#     4   9  18  34  57  85 118 154 192 240 300 362
#     4  12  26  44  64  88 118 160 208 257 310 364
#     4   9  18  34  57  85 118 155 192 240 300 360
#     4  11  23  40  62  88 120 161 203 252 305 357
#     4   9  20  37  60  89 124 161 196 238 292 347
#     4  11  23  42  64  89 121 158 201 251 306 366
#     4  10  20  37  60  91 127 162 202 246 296 359
#
# _framework density 20.335929
#
# number of rings (size 3 to 8) (size 9 to 14) (size 15 to 20)
#    0.000    1.750    1.250    3.000    0.000    6.000 
#    0.000    6.250    0.000    0.000    0.000    0.000 
#    0.000    0.000    0.000    0.000    0.000    0.000 
#
# Total GULP energy -396884.566513 kJ/mol
# GULP energy per Si atom -12402.642704 kJ/mol
# Density = 2.028964 g / cm^3
# Si number density = 20.335929 Si / 1000 Ang^3
#
#
#
# Elastic Constant Matrix: (Units=GPa)
#
#
# Indices 1 2 3 4 5 6 
#
# 1 123.6714 22.2528 47.9713 0.0000 0.0000 0.0000
# 2 22.2528 45.9573 14.0576 0.0000 0.0000 0.0000
# 3 47.9713 14.0576 101.9496 0.0000 0.0000 0.0000
# 4 0.0000 0.0000 0.0000 -9.1027 0.0000 0.0000
# 5 0.0000 0.0000 0.0000 0.0000 19.2706 0.0000
# 6 0.0000 0.0000 0.0000 0.0000 0.0000 36.4887
#
#
#
# Elastic Compliance Matrix: (Units=1/GPa)
#
#
# Indices 1 2 3 4 5 6 
#
# 1 0.010466 -0.003718 -0.004412 0.000000 0.000000 0.000000
# 2 -0.003718 0.024038 -0.001565 0.000000 0.000000 0.000000
# 3 -0.004412 -0.001565 0.012101 0.000000 0.000000 0.000000
# 4 0.000000 0.000000 0.000000 -0.109857 0.000000 0.000000
# 5 0.000000 0.000000 0.000000 0.000000 0.051892 0.000000
# 6 0.000000 0.000000 0.000000 0.000000 0.000000 0.027406
#
#
# Mechanical properties :
#
#
# Convention : Reuss Voigt Hill
#
# Bulk Modulus (GPa) = 36.74496 48.90463 42.82480
# Shear Modulus (GPa) = 112.33669 21.81776 67.07723
#
# Velocity S-wave (km/s) = 7.44046 3.27902 5.74945
# Velocity P-wave (km/s) = 9.58760 6.19972 8.07337
#
# Compressibility (1/GPa) = 0.02721462
#
# Stress axis : x y z
#
# Youngs Moduli (GPa) = 95.54339 41.60003 82.64013
#
# Poissons Ratio (x) = 0.15468 0.36462
# Poissons Ratio (y) = 0.35526 0.12933
# Poissons Ratio (z) = 0.42155 0.06510
#
# Static dielectric constant tensor:
#      x y z
#    x 3.814090 0.000000 0.000000 
#    y 0.000000 4.174410 0.000000 
#    z 0.000000 0.000000 3.817820 
# 
# 
# High freq. dielectric constant tensor:
#      x y z
#    x 1.795110 0.000000 0.000000 
#    y 0.000000 1.793360 0.000000 
#    z 0.000000 0.000000 1.799180 
# 
# From -- ./inp_files/10687.got.cif
#   From: 2010.03.12/outbox.cif.g09.slc.cpg/sg39_6_cif.got.tgz:10687.got - 2010.04.14 02:53:20.
