data_PCOD8181884
_publ_section_title
;
Structure prediction by ZEFSAII (Michael W. Deem and Ramdas Pophale) SiO2 
 PCOD8181884
Probable space group: A B M 2
;
_chemical_formula_sum "Si O2"
_cell_formula_units_Z 44
_cell_length_a 9.192018
_cell_length_b 13.500826
_cell_length_c 17.155989
_cell_angle_alpha 90.000000
_cell_angle_beta 90.000000
_cell_angle_gamma 90.000000
_cell_volume 2129.055415
_symmetry_space_group_name_H-M "A B M 2"
_symmetry_group_IT_number 39
_symmetry_cell_setting 'orthorhombic'
loop_
_space_group_symop_operation_xyz
x,y,z
-x,-y,z
-x,1/2+y,z
x,1/2-y,z
x,1/2+y,1/2+z
-x,1/2-y,1/2+z
-x,y,1/2+z
x,-y,1/2+z
loop_
_atom_site_type_symbol
_atom_site_label
_atom_site_fract_x
_atom_site_fract_y
_atom_site_fract_z
Si Si1 0.378629 0.921292 0.737250
Si Si2 0.256113 0.750000 0.456867
Si Si3 0.099329 0.250000 0.634067
Si Si4 0.022878 0.392308 0.902181
Si Si5 0.202589 0.750000 0.958936
Si Si6 0.254413 0.750000 0.631269
Si Si7 0.464782 0.250000 0.355752
Si Si8 0.877411 0.433666 0.234843
O O1 0.318367 0.849687 0.669631
O O2 0.436818 0.850639 0.806720
O O3 0.500000 0.000000 0.707284
O O4 0.250970 0.994883 0.764656
O O5 0.154969 0.845944 0.449914
O O6 0.319150 0.750000 0.543942
O O7 0.371205 0.750000 0.386705
O O8 0.173595 0.250000 0.550397
O O9 0.167282 0.153855 0.676546
O O10 0.922803 0.250000 0.633416
O O11 0.051479 0.383569 0.810492
O O12 0.000000 0.500000 0.935641
O O13 0.868418 0.343733 0.917807
O O14 0.371082 0.750000 0.935264
O O15 0.000000 0.500000 0.192010
#
# Coordination Sequence:
#
# PCOD8181884 Si02
#       8
#     8   4   4   8   4   4   4   8
#     4  11  25  44  68  98 129 172 222 271 324 391
#     4  11  23  43  66  94 134 180 208 263 342 387
#     4  12  23  40  66 100 134 175 214 275 328 386
#     4  10  21  38  63  93 127 168 225 270 313 377
#     4  11  24  38  60  97 130 170 216 264 324 382
#     4  11  24  45  67  95 137 171 216 273 330 393
#     4  11  24  44  69  92 137 174 218 269 322 394
#     4  11  22  38  67  94 126 172 225 269 318 379
#
# _framework density 20.666440999999999
#
# number of rings (size 3 to 8) (size 9 to 14) (size 15 to 20)
#    0.000    1.091    3.636    4.364    2.545    5.091 
#    0.000    2.727    0.000    0.000    0.000    0.000 
#    0.000    0.000    0.000    0.000    0.000    0.000 
#
# Total GULP energy -272672.906634 kJ/mol
# GULP energy per Si atom -12394.223029 kJ/mol
# Density = 2.061940 g / cm^3
# Si number density = 20.666441 Si / 1000 Ang^3
#
#
#
# Elastic Constant Matrix: (Units=GPa)
#
#
# Indices 1 2 3 4 5 6 
#
# 1 85.6338 41.6464 18.1582 0.0000 0.0000 0.0000
# 2 41.6464 159.6635 53.8119 0.0000 0.0000 0.0000
# 3 18.1582 53.8119 116.4223 0.0000 0.0000 0.0000
# 4 0.0000 0.0000 0.0000 1.8007 0.0000 0.0000
# 5 0.0000 0.0000 0.0000 0.0000 33.6483 0.0000
# 6 0.0000 0.0000 0.0000 0.0000 0.0000 11.3412
#
#
#
# Elastic Compliance Matrix: (Units=1/GPa)
#
#
# Indices 1 2 3 4 5 6 
#
# 1 0.013405 -0.003307 -0.000562 0.000000 0.000000 0.000000
# 2 -0.003307 0.008235 -0.003290 0.000000 0.000000 0.000000
# 3 -0.000562 -0.003290 0.010198 0.000000 0.000000 0.000000
# 4 0.000000 0.000000 0.000000 0.555338 0.000000 0.000000
# 5 0.000000 0.000000 0.000000 0.000000 0.029719 0.000000
# 6 0.000000 0.000000 0.000000 0.000000 0.000000 0.088174
#
#
# Mechanical properties :
#
#
# Convention : Reuss Voigt Hill
#
# Bulk Modulus (GPa) = 57.08253 65.43920 61.26086
# Shear Modulus (GPa) = 6.89438 25.89824 16.39631
#
# Velocity S-wave (km/s) = 1.82846 3.54383 2.81975
# Velocity P-wave (km/s) = 5.66909 6.96263 6.34889
#
# Compressibility (1/GPa) = 0.01751849
#
# Stress axis : x y z
#
# Youngs Moduli (GPa) = 74.59794 121.43624 98.05860
#
# Poissons Ratio (x) = 0.40160 0.05513
# Poissons Ratio (y) = 0.24670 0.32265
# Poissons Ratio (z) = 0.04194 0.39958
#
# Static dielectric constant tensor:
#      x y z
#    x 3.798560 0.000000 0.000000 
#    y 0.000000 4.174870 0.000000 
#    z 0.000000 0.000000 3.544260 
# 
# 
# High freq. dielectric constant tensor:
#      x y z
#    x 1.807580 0.000000 0.000000 
#    y 0.000000 1.828880 0.000000 
#    z 0.000000 0.000000 1.796670 
# 
# From -- ./inp_files/11575.got.cif
#   From: 2010.03.12/outbox.cif.g09.slc.cpg/sg39_6_cif.got.tgz:11575.got - 2010.04.14 02:53:20.
