data_PCOD8181039
_publ_section_title
;
Structure prediction by ZEFSAII (Michael W. Deem and Ramdas Pophale) SiO2 
 PCOD8181039
Probable space group: A B M 2
;
_chemical_formula_sum "Si O2"
_cell_formula_units_Z 48
_cell_length_a 5.109863
_cell_length_b 16.041489
_cell_length_c 26.773712
_cell_angle_alpha 90.000000
_cell_angle_beta 90.000000
_cell_angle_gamma 90.000000
_cell_volume 2194.636115
_symmetry_space_group_name_H-M "A B M 2"
_symmetry_group_IT_number 39
_symmetry_cell_setting 'orthorhombic'
loop_
_space_group_symop_operation_xyz
x,y,z
-x,-y,z
-x,1/2+y,z
x,1/2-y,z
x,1/2+y,1/2+z
-x,1/2-y,1/2+z
-x,y,1/2+z
x,-y,1/2+z
loop_
_atom_site_type_symbol
_atom_site_label
_atom_site_fract_x
_atom_site_fract_y
_atom_site_fract_z
Si Si1 0.261514 0.150836 0.242580
Si Si2 0.297005 0.651085 0.973787
Si Si3 0.384166 0.909003 0.082404
Si Si4 0.873231 0.654624 0.133061
Si Si5 0.760215 0.150452 0.301287
Si Si6 0.798867 0.151206 0.413025
O O1 0.274034 0.250000 0.242332
O O2 0.230178 0.118718 0.185925
O O3 0.520205 0.114107 0.268856
O O4 0.020713 0.117928 0.275016
O O5 0.280554 0.750000 0.982083
O O6 0.062144 0.617995 0.939005
O O7 0.560342 0.622039 0.947079
O O8 0.282216 0.606096 0.026720
O O9 0.627448 0.848189 0.095014
O O10 0.129056 0.897439 0.117093
O O11 0.500000 0.000000 0.090295
O O12 0.967571 0.750000 0.137417
O O13 0.745856 0.250000 0.302637
O O14 0.760567 0.114136 0.357540
O O15 0.811124 0.250000 0.408958
#
# Coordination Sequence:
#
# PCOD8181039 Si02
#       6
#     8   8   8   8   8   8
#     4   9  17  28  48  77 110 143 179 225 282 335
#     4  10  19  33  52  77 107 146 190 233 280 338
#     4  12  25  40  58  84 117 155 199 250 303 354
#     4  11  22  39  61  86 115 154 199 246 296 355
#     4   9  15  26  44  75 113 141 170 224 285 335
#     4   9  17  28  48  77 110 143 179 224 280 335
#
# _framework density 21.871507999999999
#
# number of rings (size 3 to 8) (size 9 to 14) (size 15 to 20)
#    0.000    2.000    0.000    5.000    0.000    8.000 
#    0.000    0.000    0.000    0.000    0.000   17.500 
#    0.000    0.000    0.000    0.000    0.000    0.000 
#
# Total GULP energy -297616.432297 kJ/mol
# GULP energy per Si atom -12400.684679 kJ/mol
# Density = 2.182173 g / cm^3
# Si number density = 21.871508 Si / 1000 Ang^3
#
#
#
# Elastic Constant Matrix: (Units=GPa)
#
#
# Indices 1 2 3 4 5 6 
#
# 1 170.5297 13.6745 61.4307 0.0000 0.0000 0.0000
# 2 13.6745 25.3414 23.2817 0.0000 0.0000 0.0000
# 3 61.4307 23.2817 154.5270 0.0000 0.0000 0.0000
# 4 0.0000 0.0000 0.0000 2.2596 0.0000 0.0000
# 5 0.0000 0.0000 0.0000 0.0000 48.2438 0.0000
# 6 0.0000 0.0000 0.0000 0.0000 0.0000 2.5497
#
#
#
# Elastic Compliance Matrix: (Units=1/GPa)
#
#
# Indices 1 2 3 4 5 6 
#
# 1 0.006886 -0.001394 -0.002528 0.000000 0.000000 0.000000
# 2 -0.001394 0.046083 -0.006389 0.000000 0.000000 0.000000
# 3 -0.002528 -0.006389 0.008439 0.000000 0.000000 0.000000
# 4 0.000000 0.000000 0.000000 0.442552 0.000000 0.000000
# 5 0.000000 0.000000 0.000000 0.000000 0.020728 0.000000
# 6 0.000000 0.000000 0.000000 0.000000 0.000000 0.392208
#
#
# Mechanical properties :
#
#
# Convention : Reuss Voigt Hill
#
# Bulk Modulus (GPa) = 24.51741 60.79687 42.65714
# Shear Modulus (GPa) = 5.25700 27.41137 16.33419
#
# Velocity S-wave (km/s) = 1.55203 3.54403 2.73577
# Velocity P-wave (km/s) = 3.80077 6.67866 5.43370
#
# Compressibility (1/GPa) = 0.04078735
#
# Stress axis : x y z
#
# Youngs Moduli (GPa) = 145.21419 21.70001 118.50048
#
# Poissons Ratio (x) = 0.03024 0.29952
# Poissons Ratio (y) = 0.20240 0.75710
# Poissons Ratio (z) = 0.36705 0.13864
#
# Static dielectric constant tensor:
#      x y z
#    x 4.176360 0.000000 0.000000 
#    y 0.000000 3.302360 0.000000 
#    z 0.000000 0.000000 4.143280 
# 
# 
# High freq. dielectric constant tensor:
#      x y z
#    x 1.878650 0.000000 0.000000 
#    y 0.000000 1.801910 0.000000 
#    z 0.000000 0.000000 1.875770 
# 
# From -- ./inp_files/15253.got.cif
#   From: 2010.03.12/outbox.cif.g09.slc.cpg/sg39_8_cif.got.tgz:15253.got - 2010.04.14 02:53:20.
