data_PCOD8181790
_publ_section_title
;
Structure prediction by ZEFSAII (Michael W. Deem and Ramdas Pophale) SiO2 
 PCOD8181790
Probable space group: A B M 2
;
_chemical_formula_sum "Si O2"
_cell_formula_units_Z 56
_cell_length_a 13.804604
_cell_length_b 19.956381
_cell_length_c 9.645233
_cell_angle_alpha 90.000000
_cell_angle_beta 90.000000
_cell_angle_gamma 90.000000
_cell_volume 2657.164631
_symmetry_space_group_name_H-M "A B M 2"
_symmetry_group_IT_number 39
_symmetry_cell_setting 'orthorhombic'
loop_
_space_group_symop_operation_xyz
x,y,z
-x,-y,z
-x,1/2+y,z
x,1/2-y,z
x,1/2+y,1/2+z
-x,1/2-y,1/2+z
-x,y,1/2+z
x,-y,1/2+z
loop_
_atom_site_type_symbol
_atom_site_label
_atom_site_fract_x
_atom_site_fract_y
_atom_site_fract_z
Si Si1 0.586521 0.675165 0.136890
Si Si2 0.510940 0.397678 0.900467
Si Si3 0.711284 0.435937 0.028827
Si Si4 0.244532 0.175189 0.959457
Si Si5 0.043126 0.326073 0.854905
Si Si6 0.683565 0.046182 0.332280
Si Si7 0.879281 0.831028 0.558221
O O1 0.563734 0.750000 0.187097
O O2 0.547935 0.624228 0.249802
O O3 0.537994 0.662502 0.986971
O O4 0.702842 0.664981 0.109256
O O5 0.430867 0.456549 0.875179
O O6 0.602664 0.418018 0.988882
O O7 0.703414 0.473628 0.174993
O O8 0.746680 0.493949 0.923151
O O9 0.779057 0.370280 0.030606
O O10 0.268468 0.250000 0.902477
O O11 0.128846 0.166530 0.969286
O O12 0.282359 0.122721 0.846631
O O13 0.018504 0.250000 0.822273
O O14 0.074133 0.356678 0.705028
O O15 0.948716 0.355693 0.931959
O O16 0.861459 0.750000 0.559425
#
# Coordination Sequence:
#
# PCOD8181790 Si02
#       7
#     8   8   8   8   8   8   8
#     4  10  21  36  59  96 132 167 213 273 335 383
#     4  11  23  41  62  91 127 176 223 270 321 396
#     4  12  26  43  67  93 131 173 223 273 323 393
#     4   9  19  39  68  94 126 167 213 267 326 389
#     4   9  18  38  69  99 131 165 211 265 327 394
#     4  11  25  43  65  92 128 174 220 265 328 387
#     4  10  22  42  70 103 129 168 218 273 331 392
#
# _framework density 21.075095000000001
#
# number of rings (size 3 to 8) (size 9 to 14) (size 15 to 20)
#    0.000    1.714    2.857    0.857    4.000    4.000 
#    0.000    3.571    0.000    0.000    0.000    0.000 
#    0.000    0.000    0.000    0.000    0.000    0.000 
#
# Total GULP energy -346892.556660 kJ/mol
# GULP energy per Si atom -12389.019881 kJ/mol
# Density = 2.102713 g / cm^3
# Si number density = 21.075095 Si / 1000 Ang^3
#
#
#
# Elastic Constant Matrix: (Units=GPa)
#
#
# Indices 1 2 3 4 5 6 
#
# 1 97.6073 40.8731 46.2161 0.0000 0.0000 0.0000
# 2 40.8731 75.1162 46.6806 0.0000 0.0000 0.0000
# 3 46.2161 46.6806 123.8210 0.0000 0.0000 0.0000
# 4 0.0000 0.0000 0.0000 27.5181 0.0000 0.0000
# 5 0.0000 0.0000 0.0000 0.0000 33.4400 0.0000
# 6 0.0000 0.0000 0.0000 0.0000 0.0000 25.8422
#
#
#
# Elastic Compliance Matrix: (Units=1/GPa)
#
#
# Indices 1 2 3 4 5 6 
#
# 1 0.014125 -0.005759 -0.003101 0.000000 0.000000 0.000000
# 2 -0.005759 0.019734 -0.005290 0.000000 0.000000 0.000000
# 3 -0.003101 -0.005290 0.011228 0.000000 0.000000 0.000000
# 4 0.000000 0.000000 0.000000 0.036340 0.000000 0.000000
# 5 0.000000 0.000000 0.000000 0.000000 0.029904 0.000000
# 6 0.000000 0.000000 0.000000 0.000000 0.000000 0.038696
#
#
# Mechanical properties :
#
#
# Convention : Reuss Voigt Hill
#
# Bulk Modulus (GPa) = 59.57063 62.67600 61.12332
# Shear Modulus (GPa) = 27.18533 28.21171 27.69852
#
# Velocity S-wave (km/s) = 3.59545 3.66270 3.62923
# Velocity P-wave (km/s) = 6.75008 6.90587 6.82842
#
# Compressibility (1/GPa) = 0.01678680
#
# Stress axis : x y z
#
# Youngs Moduli (GPa) = 70.79689 50.67455 89.06243
#
# Poissons Ratio (x) = 0.29182 0.27619
# Poissons Ratio (y) = 0.40770 0.47116
# Poissons Ratio (z) = 0.21955 0.26808
#
# Static dielectric constant tensor:
#      x y z
#    x 3.958170 0.000000 0.000000 
#    y 0.000000 3.714860 0.000000 
#    z 0.000000 0.000000 3.919850 
# 
# 
# High freq. dielectric constant tensor:
#      x y z
#    x 1.822480 0.000000 0.000000 
#    y 0.000000 1.808570 0.000000 
#    z 0.000000 0.000000 1.825790 
# 
# From -- ./inp_files/3403.got.cif
#   From: 2010.03.12/outbox.cif.g09.slc.cpg/sg39_2_cif.got.tgz:3403.got - 2010.04.14 02:53:20.
