data_PCOD8181491
_publ_section_title
;
Structure prediction by ZEFSAII (Michael W. Deem and Ramdas Pophale) SiO2 
 PCOD8181491
Probable space group: A B M 2
;
_chemical_formula_sum "Si O2"
_cell_formula_units_Z 64
_cell_length_a 23.823551
_cell_length_b 8.529511
_cell_length_c 15.502522
_cell_angle_alpha 90.000000
_cell_angle_beta 90.000000
_cell_angle_gamma 90.000000
_cell_volume 3150.162703
_symmetry_space_group_name_H-M "A B M 2"
_symmetry_group_IT_number 39
_symmetry_cell_setting 'orthorhombic'
loop_
_space_group_symop_operation_xyz
x,y,z
-x,-y,z
-x,1/2+y,z
x,1/2-y,z
x,1/2+y,1/2+z
-x,1/2-y,1/2+z
-x,y,1/2+z
x,-y,1/2+z
loop_
_atom_site_type_symbol
_atom_site_label
_atom_site_fract_x
_atom_site_fract_y
_atom_site_fract_z
Si Si1 0.672422 0.565209 0.640190
Si Si2 0.327562 0.565194 0.817978
Si Si3 0.558753 0.934296 0.078461
Si Si4 0.129913 0.064512 0.481554
Si Si5 0.939180 0.935250 0.138661
Si Si6 0.441246 0.934296 0.379572
Si Si7 0.258184 0.563891 0.979001
Si Si8 0.937990 0.936189 0.822697
O O1 0.675479 0.750000 0.640733
O O2 0.697835 0.499859 0.729042
O O3 0.608225 0.512305 0.632295
O O4 0.710274 0.495535 0.562964
O O5 0.324506 0.750000 0.817623
O O6 0.391773 0.512295 0.825734
O O7 0.289776 0.494986 0.895177
O O8 0.560636 0.750000 0.091604
O O9 0.500000 0.000000 0.114436
O O10 0.566101 0.983708 0.979019
O O11 0.123561 0.250000 0.494621
O O12 0.194141 0.008367 0.478842
O O13 0.102585 0.975512 0.561735
O O14 0.102865 0.014127 0.391659
O O15 0.942894 0.750000 0.152875
O O16 0.917651 0.014945 0.227109
O O17 0.000000 0.000000 0.112697
O O18 0.439374 0.750000 0.366433
O O19 0.500000 0.000000 0.343599
O O20 0.261875 0.750000 0.978451
O O21 0.937165 0.750000 0.832631
O O22 0.000000 0.000000 0.840227
#
# Coordination Sequence:
#
# PCOD8181491 Si02
#       8
#     8   8   8   8   8   8   8   8
#     4  11  22  40  62  87 116 153 196 243 296 353
#     4  11  22  40  62  87 116 153 196 243 296 353
#     4  10  20  35  58  88 118 151 189 236 294 355
#     4  11  22  40  63  90 123 162 205 251 300 357
#     4  11  22  39  62  93 127 164 203 248 301 356
#     4  10  20  35  58  88 118 151 189 236 294 355
#     4   9  22  42  63  84 117 158 200 247 298 347
#     4  11  22  39  62  93 127 164 203 248 301 356
#
# _framework density 20.316410999999999
#
# number of rings (size 3 to 8) (size 9 to 14) (size 15 to 20)
#    0.000    1.500    1.250    5.250    0.000    2.500 
#    0.000   10.000    0.000    0.000    0.000    0.000 
#    0.000    0.000    0.000    0.000    0.000    0.000 
#
# Total GULP energy -396954.762983 kJ/mol
# GULP energy per Si atom -12404.836343 kJ/mol
# Density = 2.027017 g / cm^3
# Si number density = 20.316411 Si / 1000 Ang^3
#
#
#
# Elastic Constant Matrix: (Units=GPa)
#
#
# Indices 1 2 3 4 5 6 
#
# 1 127.0901 16.7379 74.1731 0.0000 0.0000 0.0000
# 2 16.7379 70.0451 18.5116 0.0000 0.0000 0.0000
# 3 74.1731 18.5116 146.1837 0.0000 0.0000 0.0000
# 4 0.0000 0.0000 0.0000 35.5105 0.0000 0.0000
# 5 0.0000 0.0000 0.0000 0.0000 10.9936 0.0000
# 6 0.0000 0.0000 0.0000 0.0000 0.0000 23.7317
#
#
#
# Elastic Compliance Matrix: (Units=1/GPa)
#
#
# Indices 1 2 3 4 5 6 
#
# 1 0.011279 -0.001224 -0.005568 0.000000 0.000000 0.000000
# 2 -0.001224 0.014904 -0.001266 0.000000 0.000000 0.000000
# 3 -0.005568 -0.001266 0.009826 0.000000 0.000000 0.000000
# 4 0.000000 0.000000 0.000000 0.028161 0.000000 0.000000
# 5 0.000000 0.000000 0.000000 0.000000 0.090962 0.000000
# 6 0.000000 0.000000 0.000000 0.000000 0.000000 0.042138
#
#
# Mechanical properties :
#
#
# Convention : Reuss Voigt Hill
#
# Bulk Modulus (GPa) = 50.26945 62.46267 56.36606
# Shear Modulus (GPa) = 22.72546 29.64021 26.18284
#
# Velocity S-wave (km/s) = 3.34814 3.82374 3.59382
# Velocity P-wave (km/s) = 6.30426 7.09269 6.71007
#
# Compressibility (1/GPa) = 0.01989280
#
# Stress axis : x y z
#
# Youngs Moduli (GPa) = 88.65801 67.09777 101.76760
#
# Poissons Ratio (x) = 0.08211 0.56665
# Poissons Ratio (y) = 0.10850 0.12887
# Poissons Ratio (z) = 0.49366 0.08497
#
# Static dielectric constant tensor:
#      x y z
#    x 3.463720 0.000000 0.000000 
#    y 0.000000 3.614840 0.000000 
#    z 0.000000 0.000000 3.937950 
# 
# 
# High freq. dielectric constant tensor:
#      x y z
#    x 1.789370 0.000000 0.000000 
#    y 0.000000 1.795100 0.000000 
#    z 0.000000 0.000000 1.805770 
# 
# From -- ./inp_files/10622.got.cif
#   From: 2010.03.12/outbox.cif.g09.slc.cpg/sg39_6_cif.got.tgz:10622.got - 2010.04.14 02:53:20.
