data_PCOD8181063
_publ_section_title
;
Structure prediction by ZEFSAII (Michael W. Deem and Ramdas Pophale) SiO2 
 PCOD8181063
Probable space group: A B M 2
;
_chemical_formula_sum "Si O2"
_cell_formula_units_Z 48
_cell_length_a 9.111037
_cell_length_b 9.000453
_cell_length_c 31.320891
_cell_angle_alpha 90.000000
_cell_angle_beta 90.000000
_cell_angle_gamma 90.000000
_cell_volume 2568.421442
_symmetry_space_group_name_H-M "A B M 2"
_symmetry_group_IT_number 39
_symmetry_cell_setting 'orthorhombic'
loop_
_space_group_symop_operation_xyz
x,y,z
-x,-y,z
-x,1/2+y,z
x,1/2-y,z
x,1/2+y,1/2+z
-x,1/2-y,1/2+z
-x,y,1/2+z
x,-y,1/2+z
loop_
_atom_site_type_symbol
_atom_site_label
_atom_site_fract_x
_atom_site_fract_y
_atom_site_fract_z
Si Si1 0.655522 0.925643 0.577050
Si Si2 0.343877 0.925894 0.239812
Si Si3 0.844505 0.423434 0.159478
Si Si4 0.848600 0.920128 0.911366
Si Si5 0.840289 0.925536 0.004236
Si Si6 0.157389 0.575403 0.319209
O O1 0.637079 0.750000 0.570595
O O2 0.755511 0.965634 0.617285
O O3 0.500000 0.000000 0.585435
O O4 0.727003 0.996846 0.535406
O O5 0.364916 0.750000 0.239325
O O6 0.243939 0.980685 0.200621
O O7 0.269386 0.983546 0.283549
O O8 0.500000 0.000000 0.234861
O O9 0.872735 0.250000 0.162828
O O10 0.000000 0.500000 0.157304
O O11 0.890358 0.750000 0.909086
O O12 0.770595 0.963399 0.866213
O O13 0.768778 0.953213 0.956620
O O14 0.000000 0.000000 0.913381
O O15 0.854702 0.750000 0.014234
O O16 0.000000 0.000000 0.009055
O O17 0.132929 0.750000 0.313115
O O18 0.000000 0.500000 0.313257
#
# Coordination Sequence:
#
# PCOD8181063 Si02
#       6
#     8   8   8   8   8   8
#     4  11  23  38  55  77 106 139 175 214 261 313
#     4  10  21  36  53  76 106 138 171 208 253 305
#     4  10  22  38  57  81 105 132 169 212 256 305
#     4   8  15  28  48  74 103 134 169 213 258 299
#     4  10  19  33  54  79 107 139 177 219 262 308
#     4   9  17  31  52  77 104 134 172 214 255 302
#
# _framework density 18.688521999999999
#
# number of rings (size 3 to 8) (size 9 to 14) (size 15 to 20)
#    0.000    2.333    0.000    2.500    0.000    4.667 
#    0.000    0.833    0.000    2.000    0.000    0.000 
#    0.000    0.000    0.000    0.000    0.000    0.000 
#
# Total GULP energy -297408.834767 kJ/mol
# GULP energy per Si atom -12392.034782 kJ/mol
# Density = 1.864599 g / cm^3
# Si number density = 18.688522 Si / 1000 Ang^3
#
#
#
# Elastic Constant Matrix: (Units=GPa)
#
#
# Indices 1 2 3 4 5 6 
#
# 1 133.8983 51.9757 83.8772 0.0000 0.0000 0.0000
# 2 51.9757 56.6710 59.1229 0.0000 0.0000 0.0000
# 3 83.8772 59.1229 183.2332 0.0000 0.0000 0.0000
# 4 0.0000 0.0000 0.0000 26.4575 0.0000 0.0000
# 5 0.0000 0.0000 0.0000 0.0000 6.6671 0.0000
# 6 0.0000 0.0000 0.0000 0.0000 0.0000 33.5021
#
#
#
# Elastic Compliance Matrix: (Units=1/GPa)
#
#
# Indices 1 2 3 4 5 6 
#
# 1 0.012659 -0.008388 -0.003088 0.000000 0.000000 0.000000
# 2 -0.008388 0.032158 -0.006536 0.000000 0.000000 0.000000
# 3 -0.003088 -0.006536 0.008980 0.000000 0.000000 0.000000
# 4 0.000000 0.000000 0.000000 0.037796 0.000000 0.000000
# 5 0.000000 0.000000 0.000000 0.000000 0.149991 0.000000
# 6 0.000000 0.000000 0.000000 0.000000 0.000000 0.029849
#
#
# Mechanical properties :
#
#
# Convention : Reuss Voigt Hill
#
# Bulk Modulus (GPa) = 56.26971 84.86155 70.56563
# Shear Modulus (GPa) = 15.95489 25.24712 20.60101
#
# Velocity S-wave (km/s) = 2.92503 3.67950 3.32374
# Velocity P-wave (km/s) = 6.44844 7.97237 7.25055
#
# Compressibility (1/GPa) = 0.01777155
#
# Stress axis : x y z
#
# Youngs Moduli (GPa) = 78.99513 31.09612 111.35524
#
# Poissons Ratio (x) = 0.26085 0.34389
# Poissons Ratio (y) = 0.66264 0.72787
# Poissons Ratio (z) = 0.24395 0.20326
#
# Static dielectric constant tensor:
#      x y z
#    x 3.113910 0.000000 0.000000 
#    y 0.000000 3.427800 0.000000 
#    z 0.000000 0.000000 4.299910 
# 
# 
# High freq. dielectric constant tensor:
#      x y z
#    x 1.699140 0.000000 0.000000 
#    y 0.000000 1.726820 0.000000 
#    z 0.000000 0.000000 1.757230 
# 
# From -- ./inp_files/17577.got.cif
#   From: 2010.03.12/outbox.cif.g09.slc.cpg/sg39_9_cif.got.tgz:17577.got - 2010.04.14 02:53:20.
