data_PCOD8181738
_publ_section_title
;
Structure prediction by ZEFSAII (Michael W. Deem and Ramdas Pophale) SiO2 
 PCOD8181738
Probable space group: A B M 2
;
_chemical_formula_sum "Si O2"
_cell_formula_units_Z 64
_cell_length_a 12.077342
_cell_length_b 17.452667
_cell_length_c 14.369236
_cell_angle_alpha 90.000000
_cell_angle_beta 90.000000
_cell_angle_gamma 90.000000
_cell_volume 3028.773834
_symmetry_space_group_name_H-M "A B M 2"
_symmetry_group_IT_number 39
_symmetry_cell_setting 'orthorhombic'
loop_
_space_group_symop_operation_xyz
x,y,z
-x,-y,z
-x,1/2+y,z
x,1/2-y,z
x,1/2+y,1/2+z
-x,1/2-y,1/2+z
-x,y,1/2+z
x,-y,1/2+z
loop_
_atom_site_type_symbol
_atom_site_label
_atom_site_fract_x
_atom_site_fract_y
_atom_site_fract_z
Si Si1 0.991547 0.909512 0.637650
Si Si2 0.137533 0.839919 0.294260
Si Si3 0.606618 0.836937 0.442805
Si Si4 0.607777 0.661677 0.045931
Si Si5 0.215324 0.562729 0.029483
Si Si6 0.834889 0.100670 0.487858
Si Si7 0.575312 0.106792 0.744094
Si Si8 0.332792 0.053314 0.717865
O O1 0.970386 0.862598 0.732865
O O2 0.887590 0.890643 0.571340
O O3 0.100746 0.879401 0.584173
O O4 0.000000 0.000000 0.660570
O O5 0.166355 0.750000 0.280246
O O6 0.105739 0.857435 0.401224
O O7 0.241704 0.894470 0.269070
O O8 0.627309 0.750000 0.473981
O O9 0.505776 0.873572 0.503115
O O10 0.718805 0.882958 0.460244
O O11 0.580586 0.839412 0.333561
O O12 0.606553 0.750000 0.021542
O O13 0.627262 0.648551 0.155123
O O14 0.708625 0.626284 0.989678
O O15 0.295164 0.534269 0.112898
O O16 0.165929 0.490852 0.972746
O O17 0.447579 0.097798 0.716600
O O18 0.642813 0.028511 0.766871
#
# Coordination Sequence:
#
# PCOD8181738 Si02
#       8
#     8   8   8   8   8   8   8   8
#     4   9  23  44  68  93 121 165 215 268 319 378
#     4  11  24  41  67  98 127 169 213 262 325 385
#     4  11  24  39  60  95 133 172 214 259 324 387
#     4  11  23  38  61  92 133 171 205 265 322 377
#     4  10  20  41  67  90 121 166 215 267 319 374
#     4  11  22  42  66  94 129 163 216 262 319 389
#     4  11  21  39  61  92 129 169 213 263 317 378
#     4  10  21  39  63  92 124 166 218 262 310 384
#
# _framework density 21.130662999999998
#
# number of rings (size 3 to 8) (size 9 to 14) (size 15 to 20)
#    0.000    1.500    2.500    2.250    0.000    8.000 
#    2.250    0.000    0.000    0.000    0.000    0.000 
#    0.000    0.000    0.000    0.000    0.000    0.000 
#
# Total GULP energy -396778.900879 kJ/mol
# GULP energy per Si atom -12399.340652 kJ/mol
# Density = 2.108257 g / cm^3
# Si number density = 21.130663 Si / 1000 Ang^3
#
#
#
# Elastic Constant Matrix: (Units=GPa)
#
#
# Indices 1 2 3 4 5 6 
#
# 1 78.3998 24.4907 23.2441 0.0000 0.0000 0.0000
# 2 24.4907 68.1502 32.5744 0.0000 0.0000 0.0000
# 3 23.2441 32.5744 110.4033 0.0000 0.0000 0.0000
# 4 0.0000 0.0000 0.0000 26.1500 0.0000 0.0000
# 5 0.0000 0.0000 0.0000 0.0000 29.3666 0.0000
# 6 0.0000 0.0000 0.0000 0.0000 0.0000 24.9390
#
#
#
# Elastic Compliance Matrix: (Units=1/GPa)
#
#
# Indices 1 2 3 4 5 6 
#
# 1 0.014664 -0.004417 -0.001784 0.000000 0.000000 0.000000
# 2 -0.004417 0.018413 -0.004503 0.000000 0.000000 0.000000
# 3 -0.001784 -0.004503 0.010762 0.000000 0.000000 0.000000
# 4 0.000000 0.000000 0.000000 0.038241 0.000000 0.000000
# 5 0.000000 0.000000 0.000000 0.000000 0.034052 0.000000
# 6 0.000000 0.000000 0.000000 0.000000 0.000000 0.040098
#
#
# Mechanical properties :
#
#
# Convention : Reuss Voigt Hill
#
# Bulk Modulus (GPa) = 44.58095 46.39686 45.48890
# Shear Modulus (GPa) = 27.01032 27.86740 27.43886
#
# Velocity S-wave (km/s) = 3.57914 3.63549 3.60743
# Velocity P-wave (km/s) = 6.18255 6.29501 6.23903
#
# Compressibility (1/GPa) = 0.02243111
#
# Stress axis : x y z
#
# Youngs Moduli (GPa) = 68.19499 54.30945 92.92065
#
# Poissons Ratio (x) = 0.23988 0.16578
# Poissons Ratio (y) = 0.30121 0.41841
# Poissons Ratio (z) = 0.12167 0.24455
#
# Static dielectric constant tensor:
#      x y z
#    x 3.860030 0.000000 0.000000 
#    y 0.000000 3.640500 0.000000 
#    z 0.000000 0.000000 3.920760 
# 
# 
# High freq. dielectric constant tensor:
#      x y z
#    x 1.826050 0.000000 0.000000 
#    y 0.000000 1.817220 0.000000 
#    z 0.000000 0.000000 1.827320 
# 
# From -- ./inp_files/9463.got.cif
#   From: 2010.03.12/outbox.cif.g09.slc.cpg/sg39_5_cif.got.tgz:9463.got - 2010.04.14 02:53:20.
