data_PCOD8181576
_publ_section_title
;
Structure prediction by ZEFSAII (Michael W. Deem and Ramdas Pophale) SiO2 
 PCOD8181576
Probable space group: A B M 2
;
_chemical_formula_sum "Si O2"
_cell_formula_units_Z 64
_cell_length_a 20.472690
_cell_length_b 8.677335
_cell_length_c 18.229061
_cell_angle_alpha 90.000000
_cell_angle_beta 90.000000
_cell_angle_gamma 90.000000
_cell_volume 3238.363328
_symmetry_space_group_name_H-M "A B M 2"
_symmetry_group_IT_number 39
_symmetry_cell_setting 'orthorhombic'
loop_
_space_group_symop_operation_xyz
x,y,z
-x,-y,z
-x,1/2+y,z
x,1/2-y,z
x,1/2+y,1/2+z
-x,1/2-y,1/2+z
-x,y,1/2+z
x,-y,1/2+z
loop_
_atom_site_type_symbol
_atom_site_label
_atom_site_fract_x
_atom_site_fract_y
_atom_site_fract_z
Si Si1 0.930396 0.931626 0.672910
Si Si2 0.188273 0.927758 0.930416
Si Si3 0.931032 0.431089 0.828144
Si Si4 0.184560 0.070716 0.085376
Si Si5 0.695641 0.930760 0.670048
Si Si6 0.309942 0.070267 0.326791
Si Si7 0.567102 0.568145 0.420794
Si Si8 0.432806 0.568230 0.086643
O O1 0.936726 0.750000 0.678443
O O2 0.907498 0.996140 0.751567
O O3 0.878272 0.975935 0.611514
O O4 0.000000 0.000000 0.649482
O O5 0.189034 0.750000 0.955461
O O6 0.120925 0.971469 0.890590
O O7 0.246984 0.962212 0.875618
O O8 0.197360 0.034745 0.000585
O O9 0.937993 0.250000 0.815818
O O10 0.000000 0.500000 0.853875
O O11 0.170552 0.250000 0.096434
O O12 0.247156 0.024984 0.132157
O O13 0.706754 0.750000 0.655890
O O14 0.627255 0.988651 0.636102
O O15 0.695755 0.965285 0.755711
O O16 0.314918 0.250000 0.305239
O O17 0.373250 0.012158 0.370908
O O18 0.500000 0.500000 0.388270
O O19 0.562337 0.750000 0.420378
O O20 0.578491 0.507581 0.503690
O O21 0.500000 0.500000 0.119173
O O22 0.438451 0.750000 0.088547
#
# Coordination Sequence:
#
# PCOD8181576 Si02
#       8
#     8   8   8   8   8   8   8   8
#     4  11  22  39  63  89 120 155 193 236 284 339
#     4  10  22  40  60  82 112 150 191 237 287 338
#     4  10  20  36  60  88 119 154 191 233 283 338
#     4  12  25  40  60  86 116 151 194 240 288 343
#     4  11  23  39  59  84 116 152 193 239 288 342
#     4  10  21  38  59  82 112 149 190 236 286 340
#     4   9  18  34  56  80 109 146 186 231 283 338
#     4   9  19  36  58  83 112 149 190 234 285 340
#
# _framework density 19.763069000000002
#
# number of rings (size 3 to 8) (size 9 to 14) (size 15 to 20)
#    0.000    1.750    0.000    5.250    0.000    7.000 
#    0.000    6.250    0.000    0.000    0.000    0.000 
#    0.000    0.000    0.000    0.000    0.000    0.000 
#
# Total GULP energy -396965.457247 kJ/mol
# GULP energy per Si atom -12405.170539 kJ/mol
# Density = 1.971809 g / cm^3
# Si number density = 19.763069 Si / 1000 Ang^3
#
#
#
# Elastic Constant Matrix: (Units=GPa)
#
#
# Indices 1 2 3 4 5 6 
#
# 1 137.2622 39.1791 61.0170 0.0000 0.0000 0.0000
# 2 39.1791 73.5307 29.9769 0.0000 0.0000 0.0000
# 3 61.0170 29.9769 100.4568 0.0000 0.0000 0.0000
# 4 0.0000 0.0000 0.0000 31.4570 0.0000 0.0000
# 5 0.0000 0.0000 0.0000 0.0000 35.0631 0.0000
# 6 0.0000 0.0000 0.0000 0.0000 0.0000 31.8989
#
#
#
# Elastic Compliance Matrix: (Units=1/GPa)
#
#
# Indices 1 2 3 4 5 6 
#
# 1 0.010708 -0.003477 -0.005466 0.000000 0.000000 0.000000
# 2 -0.003477 0.016612 -0.002845 0.000000 0.000000 0.000000
# 3 -0.005466 -0.002845 0.014124 0.000000 0.000000 0.000000
# 4 0.000000 0.000000 0.000000 0.031789 0.000000 0.000000
# 5 0.000000 0.000000 0.000000 0.000000 0.028520 0.000000
# 6 0.000000 0.000000 0.000000 0.000000 0.000000 0.031349
#
#
# Mechanical properties :
#
#
# Convention : Reuss Voigt Hill
#
# Bulk Modulus (GPa) = 55.96985 63.51063 59.74024
# Shear Modulus (GPa) = 30.74372 31.75558 31.24965
#
# Velocity S-wave (km/s) = 3.94841 4.01286 3.98076
# Velocity P-wave (km/s) = 7.01202 7.32642 7.17095
#
# Compressibility (1/GPa) = 0.01786676
#
# Stress axis : x y z
#
# Youngs Moduli (GPa) = 93.39130 60.19629 70.80246
#
# Poissons Ratio (x) = 0.20929 0.38703
# Poissons Ratio (y) = 0.32471 0.20146
# Poissons Ratio (z) = 0.51050 0.17128
#
# Static dielectric constant tensor:
#      x y z
#    x 3.837480 0.000000 0.000000 
#    y 0.000000 3.530700 0.000000 
#    z 0.000000 0.000000 3.603820 
# 
# 
# High freq. dielectric constant tensor:
#      x y z
#    x 1.787280 0.000000 0.000000 
#    y 0.000000 1.769200 0.000000 
#    z 0.000000 0.000000 1.768970 
# 
# From -- ./inp_files/13237.got.cif
#   From: 2010.03.12/outbox.cif.g09.slc.cpg/sg39_7_cif.got.tgz:13237.got - 2010.04.14 02:53:20.
