data_PCOD8181393
_publ_section_title
;
Structure prediction by ZEFSAII (Michael W. Deem and Ramdas Pophale) SiO2 
 PCOD8181393
Probable space group: A B M 2
;
_chemical_formula_sum "Si O2"
_cell_formula_units_Z 56
_cell_length_a 23.440701
_cell_length_b 9.032888
_cell_length_c 14.243668
_cell_angle_alpha 90.000000
_cell_angle_beta 90.000000
_cell_angle_gamma 90.000000
_cell_volume 3015.914761
_symmetry_space_group_name_H-M "A B M 2"
_symmetry_group_IT_number 39
_symmetry_cell_setting 'orthorhombic'
loop_
_space_group_symop_operation_xyz
x,y,z
-x,-y,z
-x,1/2+y,z
x,1/2-y,z
x,1/2+y,1/2+z
-x,1/2-y,1/2+z
-x,y,1/2+z
x,-y,1/2+z
loop_
_atom_site_type_symbol
_atom_site_label
_atom_site_fract_x
_atom_site_fract_y
_atom_site_fract_z
Si Si1 0.855431 0.575966 0.706180
Si Si2 0.638355 0.078859 0.567439
Si Si3 0.263798 0.578007 0.714788
Si Si4 0.440928 0.578290 0.206833
Si Si5 0.942301 0.575125 0.338117
Si Si6 0.055233 0.079706 0.552633
Si Si7 0.343487 0.578106 0.354053
O O1 0.853733 0.750000 0.727827
O O2 0.792444 0.514400 0.694296
O O3 0.886804 0.492071 0.789994
O O4 0.888324 0.538955 0.610044
O O5 0.620370 0.250000 0.570577
O O6 0.696014 0.050594 0.625264
O O7 0.647656 0.025387 0.460866
O O8 0.586986 0.985968 0.612207
O O9 0.249171 0.750000 0.728510
O O10 0.292914 0.518861 0.809860
O O11 0.500000 0.500000 0.229239
O O12 0.451980 0.750000 0.189810
O O13 0.401337 0.548632 0.296896
O O14 0.945768 0.750000 0.321162
O O15 0.934285 0.530570 0.446240
O O16 0.000000 0.500000 0.298256
O O17 0.040346 0.250000 0.559772
O O18 0.000000 0.000000 0.596242
O O19 0.325645 0.750000 0.349318
#
# Coordination Sequence:
#
# PCOD8181393 Si02
#       7
#     8   8   8   8   8   8   8
#     4  11  22  36  54  77 105 139 176 216 262 312
#     4   9  19  37  58  79 106 140 179 219 264 313
#     4  10  21  36  54  78 106 137 175 221 265 311
#     4  10  20  34  54  81 113 144 177 217 260 306
#     4  10  20  36  55  78 106 136 172 214 263 318
#     4   9  20  36  54  76 104 136 170 211 260 314
#     4   9  19  37  58  79 106 142 178 216 262 312
#
# _framework density 18.568162999999998
#
# number of rings (size 3 to 8) (size 9 to 14) (size 15 to 20)
#    0.000    2.286    0.000    2.143    0.000    6.286 
#    0.000    4.286    0.000    0.000    0.000    0.000 
#    0.000    0.000    0.000    0.000    0.000    0.000 
#
# Total GULP energy -347303.189993 kJ/mol
# GULP energy per Si atom -12403.685357 kJ/mol
# Density = 1.852590 g / cm^3
# Si number density = 18.568163 Si / 1000 Ang^3
#
#
#
# Elastic Constant Matrix: (Units=GPa)
#
#
# Indices 1 2 3 4 5 6 
#
# 1 112.2252 56.1964 42.8993 0.0000 0.0000 0.0000
# 2 56.1964 90.7137 45.7425 0.0000 0.0000 0.0000
# 3 42.8993 45.7425 117.1884 0.0000 0.0000 0.0000
# 4 0.0000 0.0000 0.0000 26.7324 0.0000 0.0000
# 5 0.0000 0.0000 0.0000 0.0000 17.5085 0.0000
# 6 0.0000 0.0000 0.0000 0.0000 0.0000 40.0096
#
#
#
# Elastic Compliance Matrix: (Units=1/GPa)
#
#
# Indices 1 2 3 4 5 6 
#
# 1 0.013305 -0.007204 -0.002059 0.000000 0.000000 0.000000
# 2 -0.007204 0.017626 -0.004243 0.000000 0.000000 0.000000
# 3 -0.002059 -0.004243 0.010943 0.000000 0.000000 0.000000
# 4 0.000000 0.000000 0.000000 0.037408 0.000000 0.000000
# 5 0.000000 0.000000 0.000000 0.000000 0.057115 0.000000
# 6 0.000000 0.000000 0.000000 0.000000 0.000000 0.024994
#
#
# Mechanical properties :
#
#
# Convention : Reuss Voigt Hill
#
# Bulk Modulus (GPa) = 67.28171 67.75598 67.51884
# Shear Modulus (GPa) = 25.85891 28.53602 27.19746
#
# Velocity S-wave (km/s) = 3.73587 3.92449 3.83134
# Velocity P-wave (km/s) = 7.41098 7.55679 7.48424
#
# Compressibility (1/GPa) = 0.01486288
#
# Stress axis : x y z
#
# Youngs Moduli (GPa) = 75.15896 56.73379 91.38332
#
# Poissons Ratio (x) = 0.40873 0.18811
# Poissons Ratio (y) = 0.54148 0.38772
# Poissons Ratio (z) = 0.15472 0.24071
#
# Static dielectric constant tensor:
#      x y z
#    x 3.369720 0.000000 0.000000 
#    y 0.000000 3.483360 0.000000 
#    z 0.000000 0.000000 3.571480 
# 
# 
# High freq. dielectric constant tensor:
#      x y z
#    x 1.719590 0.000000 0.000000 
#    y 0.000000 1.728610 0.000000 
#    z 0.000000 0.000000 1.724900 
# 
# From -- ./inp_files/10330.got.cif
#   From: 2010.03.12/outbox.cif.g09.slc.cpg/sg39_6_cif.got.tgz:10330.got - 2010.04.14 02:53:20.
