data_PCOD8181461
_publ_section_title
;
Structure prediction by ZEFSAII (Michael W. Deem and Ramdas Pophale) SiO2 
 PCOD8181461
Probable space group: A B M 2
;
_chemical_formula_sum "Si O2"
_cell_formula_units_Z 64
_cell_length_a 14.187145
_cell_length_b 8.719871
_cell_length_c 25.881920
_cell_angle_alpha 90.000000
_cell_angle_beta 90.000000
_cell_angle_gamma 90.000000
_cell_volume 3201.854245
_symmetry_space_group_name_H-M "A B M 2"
_symmetry_group_IT_number 39
_symmetry_cell_setting 'orthorhombic'
loop_
_space_group_symop_operation_xyz
x,y,z
-x,-y,z
-x,1/2+y,z
x,1/2-y,z
x,1/2+y,1/2+z
-x,1/2-y,1/2+z
-x,y,1/2+z
x,-y,1/2+z
loop_
_atom_site_type_symbol
_atom_site_label
_atom_site_fract_x
_atom_site_fract_y
_atom_site_fract_z
Si Si1 0.795852 0.569798 0.978340
Si Si2 0.102852 0.069531 0.081934
Si Si3 0.401417 0.072219 0.830120
Si Si4 0.603910 0.069431 0.218329
Si Si5 0.896750 0.568119 0.776490
Si Si6 0.216165 0.569052 0.682894
Si Si7 0.599067 0.071567 0.442596
Si Si8 0.102308 0.568860 0.882574
O O1 0.814194 0.750000 0.968339
O O2 0.683357 0.535792 0.982656
O O3 0.833576 0.472302 0.930827
O O4 0.845507 0.510433 0.030233
O O5 0.091950 0.250000 0.079959
O O6 0.165494 0.017808 0.130245
O O7 0.000000 0.000000 0.086596
O O8 0.415386 0.250000 0.837406
O O9 0.347964 0.039407 0.775834
O O10 0.365003 0.008580 0.885644
O O11 0.500000 0.000000 0.817536
O O12 0.598638 0.250000 0.206625
O O13 0.500000 0.000000 0.210993
O O14 0.675034 0.985054 0.178982
O O15 0.902539 0.750000 0.780135
O O16 0.832902 0.520276 0.729091
O O17 0.853567 0.503859 0.830305
O O18 0.000000 0.500000 0.767757
O O19 0.209479 0.750000 0.691919
O O20 0.579068 0.250000 0.439768
O O21 0.500000 0.000000 0.460622
O O22 0.094781 0.750000 0.875752
O O23 0.000000 0.500000 0.893106
#
# Coordination Sequence:
#
# PCOD8181461 Si02
#       8
#     8   8   8   8   8   8   8   8
#     4  10  21  38  60  86 117 157 198 243 297 352
#     4  10  23  42  64  87 115 152 198 249 302 356
#     4   8  15  28  47  74 106 145 185 227 276 332
#     4  10  20  35  56  84 118 157 201 244 296 354
#     4  11  22  38  59  85 118 154 192 239 299 366
#     4  11  23  39  59  86 118 154 200 250 302 361
#     4   9  18  33  54  80 115 153 193 237 285 339
#     4  11  22  37  57  86 119 154 191 237 295 358
#
# _framework density 19.988417999999999
#
# number of rings (size 3 to 8) (size 9 to 14) (size 15 to 20)
#    0.000    2.000    0.000    4.500    1.750    4.500 
#    0.000    0.625    0.000    1.500    0.000    0.000 
#    0.000    0.000    0.000    0.000    0.000    0.000 
#
# Total GULP energy -396559.805018 kJ/mol
# GULP energy per Si atom -12392.493907 kJ/mol
# Density = 1.994292 g / cm^3
# Si number density = 19.988418 Si / 1000 Ang^3
#
#
#
# Elastic Constant Matrix: (Units=GPa)
#
#
# Indices 1 2 3 4 5 6 
#
# 1 113.1477 44.5355 75.0075 0.0000 0.0000 0.0000
# 2 44.5355 88.8031 44.2620 0.0000 0.0000 0.0000
# 3 75.0075 44.2620 114.4960 0.0000 0.0000 0.0000
# 4 0.0000 0.0000 0.0000 14.9345 0.0000 0.0000
# 5 0.0000 0.0000 0.0000 0.0000 37.4293 0.0000
# 6 0.0000 0.0000 0.0000 0.0000 0.0000 32.8240
#
#
#
# Elastic Compliance Matrix: (Units=1/GPa)
#
#
# Indices 1 2 3 4 5 6 
#
# 1 0.016490 -0.003574 -0.009421 0.000000 0.000000 0.000000
# 2 -0.003574 0.014723 -0.003350 0.000000 0.000000 0.000000
# 3 -0.009421 -0.003350 0.016201 0.000000 0.000000 0.000000
# 4 0.000000 0.000000 0.000000 0.066959 0.000000 0.000000
# 5 0.000000 0.000000 0.000000 0.000000 0.026717 0.000000
# 6 0.000000 0.000000 0.000000 0.000000 0.000000 0.030466
#
#
# Mechanical properties :
#
#
# Convention : Reuss Voigt Hill
#
# Bulk Modulus (GPa) = 67.92006 71.56187 69.74097
# Shear Modulus (GPa) = 23.90569 27.21368 25.55969
#
# Velocity S-wave (km/s) = 3.46204 3.69382 3.57981
# Velocity P-wave (km/s) = 7.07350 7.35335 7.21478
#
# Compressibility (1/GPa) = 0.01472319
#
# Stress axis : x y z
#
# Youngs Moduli (GPa) = 60.64158 67.91996 61.72452
#
# Poissons Ratio (x) = 0.24276 0.58152
# Poissons Ratio (y) = 0.21675 0.20679
# Poissons Ratio (z) = 0.57132 0.22755
#
# Static dielectric constant tensor:
#      x y z
#    x 3.551350 0.000000 0.000000 
#    y 0.000000 3.653770 0.000000 
#    z 0.000000 0.000000 3.836210 
# 
# 
# High freq. dielectric constant tensor:
#      x y z
#    x 1.783650 0.000000 0.000000 
#    y 0.000000 1.778680 0.000000 
#    z 0.000000 0.000000 1.771750 
# 
# From -- ./inp_files/16247.got.cif
#   From: 2010.03.12/outbox.cif.g09.slc.cpg/sg39_9_cif.got.tgz:16247.got - 2010.04.14 02:53:20.
