data_PCOD8181069
_publ_section_title
;
Structure prediction by ZEFSAII (Michael W. Deem and Ramdas Pophale) SiO2 
 PCOD8181069
Probable space group: A B M 2
;
_chemical_formula_sum "Si O2"
_cell_formula_units_Z 48
_cell_length_a 9.089563
_cell_length_b 8.685875
_cell_length_c 31.038145
_cell_angle_alpha 90.000000
_cell_angle_beta 90.000000
_cell_angle_gamma 90.000000
_cell_volume 2450.486627
_symmetry_space_group_name_H-M "A B M 2"
_symmetry_group_IT_number 39
_symmetry_cell_setting 'orthorhombic'
loop_
_space_group_symop_operation_xyz
x,y,z
-x,-y,z
-x,1/2+y,z
x,1/2-y,z
x,1/2+y,1/2+z
-x,1/2-y,1/2+z
-x,y,1/2+z
x,-y,1/2+z
loop_
_atom_site_type_symbol
_atom_site_label
_atom_site_fract_x
_atom_site_fract_y
_atom_site_fract_z
Si Si1 0.337381 0.931894 0.882800
Si Si2 0.658794 0.927784 0.967587
Si Si3 0.337674 0.429676 0.063100
Si Si4 0.839496 0.067716 0.139058
Si Si5 0.660167 0.067395 0.717114
Si Si6 0.839999 0.931476 0.300716
O O1 0.347111 0.750000 0.881723
O O2 0.242346 0.995776 0.843010
O O3 0.500000 0.000000 0.879185
O O4 0.259369 0.986896 0.927735
O O5 0.646066 0.750000 0.955373
O O6 0.500000 0.000000 0.971396
O O7 0.729865 0.951385 0.014806
O O8 0.500000 0.500000 0.068520
O O9 0.347722 0.250000 0.075236
O O10 0.221583 0.515952 0.092958
O O11 0.848781 0.250000 0.141243
O O12 0.729546 0.006030 0.174908
O O13 0.000000 0.000000 0.147274
O O14 0.653634 0.250000 0.711723
O O15 0.753143 0.015341 0.758446
O O16 0.500000 0.000000 0.723850
O O17 0.852312 0.750000 0.302941
O O18 0.000000 0.000000 0.298334
#
# Coordination Sequence:
#
# PCOD8181069 Si02
#       6
#     8   8   8   8   8   8
#     4  10  19  33  54  82 112 145 187 232 278 328
#     4   9  17  30  52  81 111 145 185 230 278 326
#     4  10  20  36  58  85 115 149 191 235 281 333
#     4  12  25  41  60  84 115 150 187 230 282 337
#     4  11  23  41  63  88 115 146 187 231 278 331
#     4  10  23  39  57  82 113 149 187 228 277 333
#
# _framework density 19.587945999999999
#
# number of rings (size 3 to 8) (size 9 to 14) (size 15 to 20)
#    0.000    1.667    0.000    6.000    0.000    6.000 
#    0.000    0.833    0.000    2.000    0.000    0.000 
#    0.000    0.000    0.000    0.000    0.000    0.000 
#
# Total GULP energy -297575.100242 kJ/mol
# GULP energy per Si atom -12398.962510 kJ/mol
# Density = 1.954336 g / cm^3
# Si number density = 19.587946 Si / 1000 Ang^3
#
#
#
# Elastic Constant Matrix: (Units=GPa)
#
#
# Indices 1 2 3 4 5 6 
#
# 1 103.4358 38.9724 54.8009 0.0000 0.0000 0.0000
# 2 38.9724 108.3189 52.6039 0.0000 0.0000 0.0000
# 3 54.8009 52.6039 154.1865 0.0000 0.0000 0.0000
# 4 0.0000 0.0000 0.0000 36.0543 0.0000 0.0000
# 5 0.0000 0.0000 0.0000 0.0000 7.5138 0.0000
# 6 0.0000 0.0000 0.0000 0.0000 0.0000 32.9499
#
#
#
# Elastic Compliance Matrix: (Units=1/GPa)
#
#
# Indices 1 2 3 4 5 6 
#
# 1 0.012593 -0.002825 -0.003512 0.000000 0.000000 0.000000
# 2 -0.002825 0.011699 -0.002987 0.000000 0.000000 0.000000
# 3 -0.003512 -0.002987 0.008753 0.000000 0.000000 0.000000
# 4 0.000000 0.000000 0.000000 0.027736 0.000000 0.000000
# 5 0.000000 0.000000 0.000000 0.000000 0.133088 0.000000
# 6 0.000000 0.000000 0.000000 0.000000 0.000000 0.030349
#
#
# Mechanical properties :
#
#
# Convention : Reuss Voigt Hill
#
# Bulk Modulus (GPa) = 69.46237 73.18839 71.32538
# Shear Modulus (GPa) = 20.18846 29.94120 25.06483
#
# Velocity S-wave (km/s) = 3.21387 3.91391 3.58104
# Velocity P-wave (km/s) = 7.02216 7.60724 7.32054
#
# Compressibility (1/GPa) = 0.01439628
#
# Stress axis : x y z
#
# Youngs Moduli (GPa) = 79.40938 85.47539 114.24661
#
# Poissons Ratio (x) = 0.24150 0.40122
# Poissons Ratio (y) = 0.22436 0.34128
# Poissons Ratio (z) = 0.27887 0.25534
#
# Static dielectric constant tensor:
#      x y z
#    x 3.371290 0.000000 0.000000 
#    y 0.000000 3.667370 0.000000 
#    z 0.000000 0.000000 4.400060 
# 
# 
# High freq. dielectric constant tensor:
#      x y z
#    x 1.739520 0.000000 0.000000 
#    y 0.000000 1.776230 0.000000 
#    z 0.000000 0.000000 1.791150 
# 
# From -- ./inp_files/17597.got.cif
#   From: 2010.03.12/outbox.cif.g09.slc.cpg/sg39_9_cif.got.tgz:17597.got - 2010.04.14 02:53:20.
