data_PCOD8181648
_publ_section_title
;
Structure prediction by ZEFSAII (Michael W. Deem and Ramdas Pophale) SiO2 
 PCOD8181648
Probable space group: A B M 2
;
_chemical_formula_sum "Si O2"
_cell_formula_units_Z 64
_cell_length_a 19.879600
_cell_length_b 17.847373
_cell_length_c 8.825626
_cell_angle_alpha 90.000000
_cell_angle_beta 90.000000
_cell_angle_gamma 90.000000
_cell_volume 3131.320069
_symmetry_space_group_name_H-M "A B M 2"
_symmetry_group_IT_number 39
_symmetry_cell_setting 'orthorhombic'
loop_
_space_group_symop_operation_xyz
x,y,z
-x,-y,z
-x,1/2+y,z
x,1/2-y,z
x,1/2+y,1/2+z
-x,1/2-y,1/2+z
-x,y,1/2+z
x,-y,1/2+z
loop_
_atom_site_type_symbol
_atom_site_label
_atom_site_fract_x
_atom_site_fract_y
_atom_site_fract_z
Si Si1 0.455167 0.077076 0.991110
Si Si2 0.961699 0.574231 0.178036
Si Si3 0.329442 0.543002 0.689929
Si Si4 0.953557 0.166609 0.961992
Si Si5 0.670108 0.895885 0.521615
Si Si6 0.552271 0.834504 0.686995
Si Si7 0.181548 0.029650 0.216314
Si Si8 0.816690 0.395258 0.027124
O O1 0.443964 0.103721 0.819598
O O2 0.500000 0.000000 0.997003
O O3 0.381951 0.074271 0.068355
O O4 0.490637 0.143536 0.080998
O O5 0.959542 0.645801 0.287461
O O6 0.884431 0.560056 0.129770
O O7 0.000000 0.500000 0.242288
O O8 0.002733 0.601545 0.034798
O O9 0.328446 0.454253 0.661294
O O10 0.351803 0.563617 0.862482
O O11 0.251588 0.569629 0.660925
O O12 0.981567 0.250000 0.988762
O O13 0.876112 0.165193 0.020484
O O14 0.616768 0.834463 0.574563
O O15 0.743470 0.856869 0.504201
O O16 0.543078 0.750000 0.749671
O O17 0.172691 0.042003 0.395772
O O18 0.182964 0.940340 0.185443
#
# Coordination Sequence:
#
# PCOD8181648 Si02
#       8
#     8   8   8   8   8   8   8   8
#     4  12  24  41  66  92 119 161 206 246 294 360
#     4  11  21  37  61  86 114 156 206 245 290 354
#     4  10  20  37  63  94 119 151 202 258 298 347
#     4  11  23  37  56  86 123 158 194 248 303 350
#     4  10  20  37  61  91 120 156 198 247 303 356
#     4  12  26  42  62  91 127 161 198 249 303 356
#     4   9  19  34  58  91 116 148 196 254 294 340
#     4   9  19  35  57  85 118 153 194 241 295 357
#
# _framework density 20.438663999999999
#
# number of rings (size 3 to 8) (size 9 to 14) (size 15 to 20)
#    0.000    1.500    2.500    3.000    1.750    1.500 
#    0.000    0.625    0.000    9.000    0.000    0.000 
#    0.000    0.000    0.000    0.000    0.000    0.000 
#
# Total GULP energy -396429.957483 kJ/mol
# GULP energy per Si atom -12388.436171 kJ/mol
# Density = 2.039214 g / cm^3
# Si number density = 20.438664 Si / 1000 Ang^3
#
#
#
# Elastic Constant Matrix: (Units=GPa)
#
#
# Indices 1 2 3 4 5 6 
#
# 1 145.0590 32.0655 35.5141 0.0000 0.0000 0.0000
# 2 32.0655 85.9266 21.2277 0.0000 0.0000 0.0000
# 3 35.5141 21.2277 69.5312 0.0000 0.0000 0.0000
# 4 0.0000 0.0000 0.0000 20.7621 0.0000 0.0000
# 5 0.0000 0.0000 0.0000 0.0000 26.1707 0.0000
# 6 0.0000 0.0000 0.0000 0.0000 0.0000 17.1736
#
#
#
# Elastic Compliance Matrix: (Units=1/GPa)
#
#
# Indices 1 2 3 4 5 6 
#
# 1 0.008247 -0.002203 -0.003540 0.000000 0.000000 0.000000
# 2 -0.002203 0.013176 -0.002897 0.000000 0.000000 0.000000
# 3 -0.003540 -0.002897 0.017075 0.000000 0.000000 0.000000
# 4 0.000000 0.000000 0.000000 0.048165 0.000000 0.000000
# 5 0.000000 0.000000 0.000000 0.000000 0.038211 0.000000
# 6 0.000000 0.000000 0.000000 0.000000 0.000000 0.058229
#
#
# Mechanical properties :
#
#
# Convention : Reuss Voigt Hill
#
# Bulk Modulus (GPa) = 47.13154 53.12571 50.12862
# Shear Modulus (GPa) = 24.10163 26.93525 25.51844
#
# Velocity S-wave (km/s) = 3.43770 3.63417 3.53730
# Velocity P-wave (km/s) = 6.23435 6.60748 6.42362
#
# Compressibility (1/GPa) = 0.02121722
#
# Stress axis : x y z
#
# Youngs Moduli (GPa) = 121.25008 75.89694 58.56658
#
# Poissons Ratio (x) = 0.16722 0.20732
# Poissons Ratio (y) = 0.26714 0.16968
# Poissons Ratio (z) = 0.42921 0.21989
#
# Static dielectric constant tensor:
#      x y z
#    x 4.175490 0.000000 0.000000 
#    y 0.000000 3.219990 0.000000 
#    z 0.000000 0.000000 3.609820 
# 
# 
# High freq. dielectric constant tensor:
#      x y z
#    x 1.824380 0.000000 0.000000 
#    y 0.000000 1.755940 0.000000 
#    z 0.000000 0.000000 1.795280 
# 
# From -- ./inp_files/4011.got.cif
#   From: 2010.03.12/outbox.cif.g09.slc.cpg/sg39_3_cif.got.tgz:4011.got - 2010.04.14 02:53:20.
