data_PCOD8181654
_publ_section_title
;
Structure prediction by ZEFSAII (Michael W. Deem and Ramdas Pophale) SiO2 
 PCOD8181654
Probable space group: A B M 2
;
_chemical_formula_sum "Si O2"
_cell_formula_units_Z 56
_cell_length_a 11.015459
_cell_length_b 14.905936
_cell_length_c 17.201978
_cell_angle_alpha 90.000000
_cell_angle_beta 90.000000
_cell_angle_gamma 90.000000
_cell_volume 2824.491281
_symmetry_space_group_name_H-M "A B M 2"
_symmetry_group_IT_number 39
_symmetry_cell_setting 'orthorhombic'
loop_
_space_group_symop_operation_xyz
x,y,z
-x,-y,z
-x,1/2+y,z
x,1/2-y,z
x,1/2+y,1/2+z
-x,1/2-y,1/2+z
-x,y,1/2+z
x,-y,1/2+z
loop_
_atom_site_type_symbol
_atom_site_label
_atom_site_fract_x
_atom_site_fract_y
_atom_site_fract_z
Si Si1 0.247140 0.350111 0.848040
Si Si2 0.437468 0.648733 0.212192
Si Si3 0.356085 0.006568 0.446823
Si Si4 0.659973 0.849924 0.314235
Si Si5 0.934186 0.908616 0.720878
Si Si6 0.276815 0.027818 0.615852
Si Si7 0.181545 0.347194 0.179720
O O1 0.234089 0.250000 0.883636
O O2 0.353530 0.354600 0.786772
O O3 0.287436 0.416958 0.917093
O O4 0.122577 0.373006 0.801817
O O5 0.435702 0.750000 0.175720
O O6 0.569082 0.622058 0.244494
O O7 0.399608 0.572180 0.150666
O O8 0.339380 0.083573 0.384690
O O9 0.285534 0.038315 0.523537
O O10 0.500000 0.000000 0.463452
O O11 0.629291 0.750000 0.345129
O O12 0.789524 0.856029 0.271939
O O13 0.833721 0.917234 0.653403
O O14 0.035216 0.847560 0.678913
O O15 0.000000 0.000000 0.743449
O O16 0.253957 0.922598 0.631895
O O17 0.225152 0.250000 0.147388
#
# Coordination Sequence:
#
# PCOD8181654 Si02
#       7
#     8   8   8   8   8   8   8
#     4  10  20  37  62  88 117 157 202 244 295 352
#     4   9  18  36  60  84 111 150 196 246 291 341
#     4  12  24  36  56  88 127 163 186 237 303 368
#     4  10  21  38  60  87 117 151 198 248 295 347
#     4   9  18  39  63  87 114 152 207 257 293 344
#     4  10  23  36  57  89 120 156 197 238 294 359
#     4  10  21  38  63  88 115 154 202 251 289 338
#
# _framework density 19.826578999999999
#
# number of rings (size 3 to 8) (size 9 to 14) (size 15 to 20)
#    0.000    2.000    1.429    3.000    2.000    1.714 
#    0.000    6.429    0.000    1.714    0.000    0.000 
#    0.000    0.000    0.000    0.000    0.000    0.000 
#
# Total GULP energy -346945.896717 kJ/mol
# GULP energy per Si atom -12390.924883 kJ/mol
# Density = 1.978145 g / cm^3
# Si number density = 19.826579 Si / 1000 Ang^3
#
#
#
# Elastic Constant Matrix: (Units=GPa)
#
#
# Indices 1 2 3 4 5 6 
#
# 1 70.5497 48.8482 48.1242 0.0000 0.0000 0.0000
# 2 48.8482 123.2392 60.5674 0.0000 0.0000 0.0000
# 3 48.1242 60.5674 97.9099 0.0000 0.0000 0.0000
# 4 0.0000 0.0000 0.0000 6.1961 0.0000 0.0000
# 5 0.0000 0.0000 0.0000 0.0000 13.7327 0.0000
# 6 0.0000 0.0000 0.0000 0.0000 0.0000 20.4353
#
#
#
# Elastic Compliance Matrix: (Units=1/GPa)
#
#
# Indices 1 2 3 4 5 6 
#
# 1 0.023445 -0.005215 -0.008298 0.000000 0.000000 0.000000
# 2 -0.005215 0.012819 -0.005366 0.000000 0.000000 0.000000
# 3 -0.008298 -0.005366 0.017612 0.000000 0.000000 0.000000
# 4 0.000000 0.000000 0.000000 0.161392 0.000000 0.000000
# 5 0.000000 0.000000 0.000000 0.000000 0.072819 0.000000
# 6 0.000000 0.000000 0.000000 0.000000 0.000000 0.048935
#
#
# Mechanical properties :
#
#
# Convention : Reuss Voigt Hill
#
# Bulk Modulus (GPa) = 62.04486 67.41983 64.73234
# Shear Modulus (GPa) = 13.15260 17.01674 15.08467
#
# Velocity S-wave (km/s) = 2.57842 2.93282 2.76131
# Velocity P-wave (km/s) = 6.34240 6.74886 6.54879
#
# Compressibility (1/GPa) = 0.01611737
#
# Stress axis : x y z
#
# Youngs Moduli (GPa) = 42.65223 78.01042 56.78052
#
# Poissons Ratio (x) = 0.40683 0.47115
# Poissons Ratio (y) = 0.22243 0.30471
# Poissons Ratio (z) = 0.35392 0.41864
#
# Static dielectric constant tensor:
#      x y z
#    x 4.158060 0.000000 0.000000 
#    y 0.000000 4.086550 0.000000 
#    z 0.000000 0.000000 3.243180 
# 
# 
# High freq. dielectric constant tensor:
#      x y z
#    x 1.782290 0.000000 0.000000 
#    y 0.000000 1.788780 0.000000 
#    z 0.000000 0.000000 1.734790 
# 
# From -- ./inp_files/9295.got.cif
#   From: 2010.03.12/outbox.cif.g09.slc.cpg/sg39_5_cif.got.tgz:9295.got - 2010.04.14 02:53:20.
