data_PCOD8181803
_publ_section_title
;
Structure prediction by ZEFSAII (Michael W. Deem and Ramdas Pophale) SiO2 
 PCOD8181803
Probable space group: A B M 2
;
_chemical_formula_sum "Si O2"
_cell_formula_units_Z 56
_cell_length_a 19.576708
_cell_length_b 8.898395
_cell_length_c 15.716224
_cell_angle_alpha 90.000000
_cell_angle_beta 90.000000
_cell_angle_gamma 90.000000
_cell_volume 2737.786347
_symmetry_space_group_name_H-M "A B M 2"
_symmetry_group_IT_number 39
_symmetry_cell_setting 'orthorhombic'
loop_
_space_group_symop_operation_xyz
x,y,z
-x,-y,z
-x,1/2+y,z
x,1/2-y,z
x,1/2+y,1/2+z
-x,1/2-y,1/2+z
-x,y,1/2+z
x,-y,1/2+z
loop_
_atom_site_type_symbol
_atom_site_label
_atom_site_fract_x
_atom_site_fract_y
_atom_site_fract_z
Si Si1 0.573275 0.928001 0.748110
Si Si2 0.798887 0.927515 0.655895
Si Si3 0.197613 0.577928 0.833625
Si Si4 0.342941 0.428145 0.586785
Si Si5 0.654593 0.077853 0.897573
Si Si6 0.933955 0.417332 0.398692
Si Si7 0.934690 0.415739 0.597849
O O1 0.566389 0.750000 0.746838
O O2 0.605847 0.989473 0.659711
O O3 0.500000 0.000000 0.760159
O O4 0.619952 0.972827 0.827860
O O5 0.804232 0.750000 0.650980
O O6 0.733339 0.989496 0.604353
O O7 0.788979 0.976402 0.752329
O O8 0.866642 0.993914 0.616100
O O9 0.184477 0.750000 0.806711
O O10 0.263465 0.564944 0.894046
O O11 0.132578 0.517105 0.883769
O O12 0.340768 0.250000 0.592316
O O13 0.367308 0.477866 0.492409
O O14 0.631430 0.250000 0.881961
O O15 0.926158 0.250000 0.358329
O O16 0.945626 0.401058 0.498171
O O17 0.000000 0.500000 0.357737
O O18 0.929606 0.250000 0.639151
O O19 0.000000 0.500000 0.638840
#
# Coordination Sequence:
#
# PCOD8181803 Si02
#       7
#     8   8   8   8   8   8   8
#     4  11  23  42  65  93 128 163 202 248 300 360
#     4  11  21  37  60  85 118 158 201 251 308 364
#     4  11  22  36  58  87 121 156 201 254 307 363
#     4   9  20  39  64  91 124 163 204 247 301 363
#     4  10  21  40  65  93 125 163 205 250 302 363
#     4  10  21  37  57  81 114 154 201 254 309 369
#     4  10  21  37  56  82 114 152 200 253 308 367
#
# _framework density 20.454481999999999
#
# number of rings (size 3 to 8) (size 9 to 14) (size 15 to 20)
#    0.000    1.714    1.429    3.000    0.000    4.571 
#    0.000    7.143    0.000    0.000    0.000    0.000 
#    0.000    0.000    0.000    0.000    0.000    0.000 
#
# Total GULP energy -347209.105306 kJ/mol
# GULP energy per Si atom -12400.325189 kJ/mol
# Density = 2.040793 g / cm^3
# Si number density = 20.454482 Si / 1000 Ang^3
#
#
#
# Elastic Constant Matrix: (Units=GPa)
#
#
# Indices 1 2 3 4 5 6 
#
# 1 127.0966 48.9630 35.8185 0.0000 0.0000 0.0000
# 2 48.9630 100.5059 23.6532 0.0000 0.0000 0.0000
# 3 35.8185 23.6532 91.0320 0.0000 0.0000 0.0000
# 4 0.0000 0.0000 0.0000 28.9349 0.0000 0.0000
# 5 0.0000 0.0000 0.0000 0.0000 24.4627 0.0000
# 6 0.0000 0.0000 0.0000 0.0000 0.0000 32.2517
#
#
#
# Elastic Compliance Matrix: (Units=1/GPa)
#
#
# Indices 1 2 3 4 5 6 
#
# 1 0.010380 -0.004362 -0.002951 0.000000 0.000000 0.000000
# 2 -0.004362 0.012431 -0.001514 0.000000 0.000000 0.000000
# 3 -0.002951 -0.001514 0.012539 0.000000 0.000000 0.000000
# 4 0.000000 0.000000 0.000000 0.034560 0.000000 0.000000
# 5 0.000000 0.000000 0.000000 0.000000 0.040879 0.000000
# 6 0.000000 0.000000 0.000000 0.000000 0.000000 0.031006
#
#
# Mechanical properties :
#
#
# Convention : Reuss Voigt Hill
#
# Bulk Modulus (GPa) = 56.50598 59.50042 58.00320
# Shear Modulus (GPa) = 30.23917 31.14318 30.69117
#
# Velocity S-wave (km/s) = 3.84912 3.90623 3.87778
# Velocity P-wave (km/s) = 6.88763 7.03543 6.96192
#
# Compressibility (1/GPa) = 0.01769724
#
# Stress axis : x y z
#
# Youngs Moduli (GPa) = 96.33690 80.44341 79.74821
#
# Poissons Ratio (x) = 0.35093 0.23532
# Poissons Ratio (y) = 0.42027 0.12070
# Poissons Ratio (z) = 0.28427 0.12175
#
# Static dielectric constant tensor:
#      x y z
#    x 3.854310 0.000000 0.000000 
#    y 0.000000 3.810100 0.000000 
#    z 0.000000 0.000000 3.735960 
# 
# 
# High freq. dielectric constant tensor:
#      x y z
#    x 1.804890 0.000000 0.000000 
#    y 0.000000 1.795980 0.000000 
#    z 0.000000 0.000000 1.798540 
# 
# From -- ./inp_files/10325.got.cif
#   From: 2010.03.12/outbox.cif.g09.slc.cpg/sg39_6_cif.got.tgz:10325.got - 2010.04.14 02:53:20.
