data_PCOD8181714
_publ_section_title
;
Structure prediction by ZEFSAII (Michael W. Deem and Ramdas Pophale) SiO2 
 PCOD8181714
Probable space group: A B M 2
;
_chemical_formula_sum "Si O2"
_cell_formula_units_Z 64
_cell_length_a 11.844149
_cell_length_b 27.012503
_cell_length_c 9.437167
_cell_angle_alpha 90.000000
_cell_angle_beta 90.000000
_cell_angle_gamma 90.000000
_cell_volume 3019.328252
_symmetry_space_group_name_H-M "A B M 2"
_symmetry_group_IT_number 39
_symmetry_cell_setting 'orthorhombic'
loop_
_space_group_symop_operation_xyz
x,y,z
-x,-y,z
-x,1/2+y,z
x,1/2-y,z
x,1/2+y,1/2+z
-x,1/2-y,1/2+z
-x,y,1/2+z
x,-y,1/2+z
loop_
_atom_site_type_symbol
_atom_site_label
_atom_site_fract_x
_atom_site_fract_y
_atom_site_fract_z
Si Si1 0.262387 0.025158 0.602340
Si Si2 0.618909 0.926542 0.060661
Si Si3 0.413079 0.397316 0.745966
Si Si4 0.885322 0.474271 0.827379
Si Si5 0.831542 0.622826 0.183973
Si Si6 0.920741 0.305924 0.459804
Si Si7 0.820932 0.194491 0.916128
Si Si8 0.734806 0.307074 0.226652
O O1 0.318312 0.075778 0.652606
O O2 0.203834 0.033482 0.452101
O O3 0.362524 0.984619 0.591956
O O4 0.166467 0.011294 0.713537
O O5 0.533272 0.902203 0.171190
O O6 0.738681 0.899842 0.079366
O O7 0.574598 0.920551 0.901529
O O8 0.376299 0.339875 0.756975
O O9 0.906349 0.420664 0.755865
O O10 0.000000 0.500000 0.883360
O O11 0.768466 0.655972 0.303751
O O12 0.913290 0.656990 0.091454
O O13 0.899239 0.250000 0.515330
O O14 0.831760 0.320208 0.338844
O O15 0.044807 0.310324 0.395796
O O16 0.780114 0.250000 0.879825
O O17 0.783926 0.180086 0.073115
O O18 0.697515 0.250000 0.238614
#
# Coordination Sequence:
#
# PCOD8181714 Si02
#       8
#     8   8   8   8   8   8   8   8
#     4  11  24  45  68  95 133 169 218 270 315 384
#     4  11  27  43  68  97 122 166 223 270 329 383
#     4  12  25  46  70  92 128 168 217 279 329 381
#     4  11  25  42  63  98 138 175 211 255 322 397
#     4  11  23  41  63  95 132 172 217 262 329 388
#     4  10  20  39  65  95 132 174 219 267 318 386
#     4  10  21  37  63  98 130 168 219 265 314 384
#     4  10  22  41  64  96 135 170 212 268 330 393
#
# _framework density 21.196767999999999
#
# number of rings (size 3 to 8) (size 9 to 14) (size 15 to 20)
#    0.000    1.250    2.500    2.625    5.250    8.000 
#    0.000    1.875    0.000    0.000    0.000    0.000 
#    0.000    0.000    0.000    0.000    0.000    0.000 
#
# Total GULP energy -396938.530754 kJ/mol
# GULP energy per Si atom -12404.329086 kJ/mol
# Density = 2.114852 g / cm^3
# Si number density = 21.196768 Si / 1000 Ang^3
#
#
#
# Elastic Constant Matrix: (Units=GPa)
#
#
# Indices 1 2 3 4 5 6 
#
# 1 57.8626 20.6388 12.6716 0.0000 0.0000 0.0000
# 2 20.6388 81.5510 27.2976 0.0000 0.0000 0.0000
# 3 12.6716 27.2976 96.2162 0.0000 0.0000 0.0000
# 4 0.0000 0.0000 0.0000 32.7062 0.0000 0.0000
# 5 0.0000 0.0000 0.0000 0.0000 33.3038 0.0000
# 6 0.0000 0.0000 0.0000 0.0000 0.0000 23.2955
#
#
#
# Elastic Compliance Matrix: (Units=1/GPa)
#
#
# Indices 1 2 3 4 5 6 
#
# 1 0.019136 -0.004419 -0.001266 0.000000 0.000000 0.000000
# 2 -0.004419 0.014569 -0.003552 0.000000 0.000000 0.000000
# 3 -0.001266 -0.003552 0.011568 0.000000 0.000000 0.000000
# 4 0.000000 0.000000 0.000000 0.030575 0.000000 0.000000
# 5 0.000000 0.000000 0.000000 0.000000 0.030027 0.000000
# 6 0.000000 0.000000 0.000000 0.000000 0.000000 0.042927
#
#
# Mechanical properties :
#
#
# Convention : Reuss Voigt Hill
#
# Bulk Modulus (GPa) = 37.31478 39.64952 38.48215
# Shear Modulus (GPa) = 28.37549 29.52923 28.95236
#
# Velocity S-wave (km/s) = 3.66275 3.73648 3.69980
# Velocity P-wave (km/s) = 5.96070 6.11237 6.03701
#
# Compressibility (1/GPa) = 0.02679904
#
# Stress axis : x y z
#
# Youngs Moduli (GPa) = 52.25791 68.63694 86.44793
#
# Poissons Ratio (x) = 0.30330 0.10948
# Poissons Ratio (y) = 0.23093 0.30702
# Poissons Ratio (z) = 0.06618 0.24377
#
# Static dielectric constant tensor:
#      x y z
#    x 3.519070 0.000000 0.000000 
#    y 0.000000 4.014210 0.000000 
#    z 0.000000 0.000000 3.913540 
# 
# 
# High freq. dielectric constant tensor:
#      x y z
#    x 1.806730 0.000000 0.000000 
#    y 0.000000 1.842510 0.000000 
#    z 0.000000 0.000000 1.846900 
# 
# From -- ./inp_files/2899.got.cif
#   From: 2010.03.12/outbox.cif.g09.slc.cpg/sg39_2_cif.got.tgz:2899.got - 2010.04.14 02:53:20.
