data_PCOD8181593
_publ_section_title
;
Structure prediction by ZEFSAII (Michael W. Deem and Ramdas Pophale) SiO2 
 PCOD8181593
Probable space group: A B M 2
;
_chemical_formula_sum "Si O2"
_cell_formula_units_Z 60
_cell_length_a 22.612052
_cell_length_b 13.808862
_cell_length_c 9.433020
_cell_angle_alpha 90.000000
_cell_angle_beta 90.000000
_cell_angle_gamma 90.000000
_cell_volume 2945.429419
_symmetry_space_group_name_H-M "A B M 2"
_symmetry_group_IT_number 39
_symmetry_cell_setting 'orthorhombic'
loop_
_space_group_symop_operation_xyz
x,y,z
-x,-y,z
-x,1/2+y,z
x,1/2-y,z
x,1/2+y,1/2+z
-x,1/2-y,1/2+z
-x,y,1/2+z
x,-y,1/2+z
loop_
_atom_site_type_symbol
_atom_site_label
_atom_site_fract_x
_atom_site_fract_y
_atom_site_fract_z
Si Si1 0.921521 0.542840 0.464310
Si Si2 0.558010 0.139775 0.172270
Si Si3 0.153616 0.862075 0.405396
Si Si4 0.265348 0.030730 0.995059
Si Si5 0.000000 0.500000 0.715985
Si Si6 0.813436 0.639467 0.581813
Si Si7 0.550980 0.139913 0.848620
Si Si8 0.654313 0.011280 0.740309
O O1 0.900439 0.429996 0.456787
O O2 0.958624 0.561772 0.609163
O O3 0.865471 0.613856 0.469691
O O4 0.960158 0.566363 0.322941
O O5 0.571361 0.250000 0.216624
O O6 0.505167 0.094937 0.266591
O O7 0.618482 0.082924 0.192941
O O8 0.535428 0.131456 0.012627
O O9 0.138112 0.750000 0.436572
O O10 0.212576 0.891107 0.492473
O O11 0.163961 0.881465 0.239732
O O12 0.292792 0.022895 0.840205
O O13 0.242994 0.925395 0.045577
O O14 0.316233 0.063799 0.104558
O O15 0.794128 0.750000 0.561204
O O16 0.560139 0.250000 0.799232
O O17 0.611749 0.086332 0.816790
#
# Coordination Sequence:
#
# PCOD8181593 Si02
#       8
#     8   8   8   8   4   8   8   8
#     4  10  20  39  60  91 122 165 191 244 289 352
#     4  10  23  41  61  85 117 156 192 236 297 363
#     4  10  21  40  63  87 120 160 201 243 294 352
#     4  11  24  39  60  90 119 152 199 250 295 347
#     4  10  20  36  62  90 132 154 192 246 300 324
#     4  10  21  40  64  86 119 163 201 239 295 355
#     4  10  23  41  60  85 118 154 193 238 296 361
#     4  12  23  39  61  87 117 154 196 246 296 351
#
# _framework density 20.370543999999999
#
# number of rings (size 3 to 8) (size 9 to 14) (size 15 to 20)
#    0.000    1.600    4.000    0.400    1.867    3.200 
#    0.000    6.000    0.000    0.000    0.000    0.000 
#    0.000    0.000    0.000    0.000    0.000    0.000 
#
# Total GULP energy -372021.181974 kJ/mol
# GULP energy per Si atom -12400.706066 kJ/mol
# Density = 2.032418 g / cm^3
# Si number density = 20.370544 Si / 1000 Ang^3
#
#
#
# Elastic Constant Matrix: (Units=GPa)
#
#
# Indices 1 2 3 4 5 6 
#
# 1 90.6956 23.5477 31.3339 0.0000 0.0000 0.0000
# 2 23.5477 68.2105 24.3588 0.0000 0.0000 0.0000
# 3 31.3339 24.3588 100.6717 0.0000 0.0000 0.0000
# 4 0.0000 0.0000 0.0000 23.5616 0.0000 0.0000
# 5 0.0000 0.0000 0.0000 0.0000 48.5533 0.0000
# 6 0.0000 0.0000 0.0000 0.0000 0.0000 19.8368
#
#
#
# Elastic Compliance Matrix: (Units=1/GPa)
#
#
# Indices 1 2 3 4 5 6 
#
# 1 0.013012 -0.003334 -0.003243 0.000000 0.000000 0.000000
# 2 -0.003334 0.016901 -0.003052 0.000000 0.000000 0.000000
# 3 -0.003243 -0.003052 0.011681 0.000000 0.000000 0.000000
# 4 0.000000 0.000000 0.000000 0.042442 0.000000 0.000000
# 5 0.000000 0.000000 0.000000 0.000000 0.020596 0.000000
# 6 0.000000 0.000000 0.000000 0.000000 0.000000 0.050411
#
#
# Mechanical properties :
#
#
# Convention : Reuss Voigt Hill
#
# Bulk Modulus (GPa) = 44.76969 46.45096 45.61033
# Shear Modulus (GPa) = 27.51079 30.41284 28.96182
#
# Velocity S-wave (km/s) = 3.67893 3.86810 3.77470
# Velocity P-wave (km/s) = 6.33020 6.54233 6.43714
#
# Compressibility (1/GPa) = 0.02233654
#
# Stress axis : x y z
#
# Youngs Moduli (GPa) = 76.85226 59.16729 85.60777
#
# Poissons Ratio (x) = 0.19725 0.27765
# Poissons Ratio (y) = 0.25621 0.26126
# Poissons Ratio (z) = 0.24926 0.18057
#
# Static dielectric constant tensor:
#      x y z
#    x 3.762760 0.000000 0.000000 
#    y 0.000000 3.457280 0.000000 
#    z 0.000000 0.000000 3.783760 
# 
# 
# High freq. dielectric constant tensor:
#      x y z
#    x 1.808660 0.000000 0.000000 
#    y 0.000000 1.770290 0.000000 
#    z 0.000000 0.000000 1.804990 
# 
# From -- ./inp_files/4072.got.cif
#   From: 2010.03.12/outbox.cif.g09.slc.cpg/sg39_3_cif.got.tgz:4072.got - 2010.04.14 02:53:20.
