data_PCOD8181161
_publ_section_title
;
Structure prediction by ZEFSAII (Michael W. Deem and Ramdas Pophale) SiO2 
 PCOD8181161
Probable space group: A B M 2
;
_chemical_formula_sum "Si O2"
_cell_formula_units_Z 48
_cell_length_a 14.115488
_cell_length_b 8.822116
_cell_length_c 20.454956
_cell_angle_alpha 90.000000
_cell_angle_beta 90.000000
_cell_angle_gamma 90.000000
_cell_volume 2547.224426
_symmetry_space_group_name_H-M "A B M 2"
_symmetry_group_IT_number 39
_symmetry_cell_setting 'orthorhombic'
loop_
_space_group_symop_operation_xyz
x,y,z
-x,-y,z
-x,1/2+y,z
x,1/2-y,z
x,1/2+y,1/2+z
-x,1/2-y,1/2+z
-x,y,1/2+z
x,-y,1/2+z
loop_
_atom_site_type_symbol
_atom_site_label
_atom_site_fract_x
_atom_site_fract_y
_atom_site_fract_z
Si Si1 0.100605 0.570668 0.142270
Si Si2 0.792200 0.929918 0.514851
Si Si3 0.597062 0.572201 0.570754
Si Si4 0.401991 0.571111 0.222352
Si Si5 0.103197 0.929019 0.886686
Si Si6 0.215365 0.570673 0.757504
O O1 0.093567 0.750000 0.147219
O O2 0.136071 0.515860 0.071409
O O3 0.174420 0.513016 0.194974
O O4 0.000000 0.500000 0.158127
O O5 0.786717 0.750000 0.515132
O O6 0.686070 0.992361 0.528996
O O7 0.832534 0.991909 0.446370
O O8 0.500000 0.500000 0.544024
O O9 0.587068 0.750000 0.562067
O O10 0.614416 0.529910 0.646346
O O11 0.500000 0.500000 0.246998
O O12 0.401231 0.750000 0.234529
O O13 0.321805 0.490471 0.266046
O O14 0.091802 0.750000 0.892215
O O15 0.154604 0.977771 0.820332
O O16 0.000000 0.000000 0.889623
O O17 0.214743 0.750000 0.747252
#
# Coordination Sequence:
#
# PCOD8181161 Si02
#       6
#     8   8   8   8   8   8
#     4  11  21  35  55  80 108 141 182 234 285 330
#     4   9  18  36  57  78 108 144 182 225 279 330
#     4   9  17  32  54  81 109 140 175 219 273 323
#     4  10  19  34  57  85 114 147 183 228 279 329
#     4  10  22  39  58  78 108 149 188 229 277 332
#     4  11  22  36  55  82 112 148 187 226 276 333
#
# _framework density 18.844042000000002
#
# number of rings (size 3 to 8) (size 9 to 14) (size 15 to 20)
#    0.000    2.000    1.667    2.500    0.000    3.333 
#    0.000    2.500    0.000    2.000    0.000    0.000 
#    0.000    0.000    0.000    0.000    0.000    0.000 
#
# Total GULP energy -297634.738405 kJ/mol
# GULP energy per Si atom -12401.447434 kJ/mol
# Density = 1.880115 g / cm^3
# Si number density = 18.844042 Si / 1000 Ang^3
#
#
#
# Elastic Constant Matrix: (Units=GPa)
#
#
# Indices 1 2 3 4 5 6 
#
# 1 154.0476 34.8443 38.2861 0.0000 0.0000 0.0000
# 2 34.8443 49.0717 28.7880 0.0000 0.0000 0.0000
# 3 38.2861 28.7880 81.0521 0.0000 0.0000 0.0000
# 4 0.0000 0.0000 0.0000 19.9144 0.0000 0.0000
# 5 0.0000 0.0000 0.0000 0.0000 35.8439 0.0000
# 6 0.0000 0.0000 0.0000 0.0000 0.0000 37.3947
#
#
#
# Elastic Compliance Matrix: (Units=1/GPa)
#
#
# Indices 1 2 3 4 5 6 
#
# 1 0.008042 -0.004398 -0.002237 0.000000 0.000000 0.000000
# 2 -0.004398 0.028148 -0.007920 0.000000 0.000000 0.000000
# 3 -0.002237 -0.007920 0.016207 0.000000 0.000000 0.000000
# 4 0.000000 0.000000 0.000000 0.050215 0.000000 0.000000
# 5 0.000000 0.000000 0.000000 0.000000 0.027899 0.000000
# 6 0.000000 0.000000 0.000000 0.000000 0.000000 0.026742
#
#
# Mechanical properties :
#
#
# Convention : Reuss Voigt Hill
#
# Bulk Modulus (GPa) = 42.94167 54.22313 48.58240
# Shear Modulus (GPa) = 25.75665 30.78083 28.26874
#
# Velocity S-wave (km/s) = 3.70108 4.04598 3.87737
# Velocity P-wave (km/s) = 6.41104 7.11785 6.77367
#
# Compressibility (1/GPa) = 0.02328740
#
# Stress axis : x y z
#
# Youngs Moduli (GPa) = 124.34300 35.52692 61.70103
#
# Poissons Ratio (x) = 0.15626 0.13800
# Poissons Ratio (y) = 0.54691 0.48866
# Poissons Ratio (z) = 0.27811 0.28137
#
# Static dielectric constant tensor:
#      x y z
#    x 3.733540 0.000000 0.000000 
#    y 0.000000 3.282770 0.000000 
#    z 0.000000 0.000000 3.485380 
# 
# 
# High freq. dielectric constant tensor:
#      x y z
#    x 1.752810 0.000000 0.000000 
#    y 0.000000 1.719490 0.000000 
#    z 0.000000 0.000000 1.715040 
# 
# From -- ./inp_files/12632.got.cif
#   From: 2010.03.12/outbox.cif.g09.slc.cpg/sg39_7_cif.got.tgz:12632.got - 2010.04.14 02:53:20.
