data_PCOD8181228
_publ_section_title
;
Structure prediction by ZEFSAII (Michael W. Deem and Ramdas Pophale) SiO2 
 PCOD8181228
Probable space group: A B M 2
;
_chemical_formula_sum "Si O2"
_cell_formula_units_Z 64
_cell_length_a 15.272610
_cell_length_b 22.535038
_cell_length_c 9.331887
_cell_angle_alpha 90.000000
_cell_angle_beta 90.000000
_cell_angle_gamma 90.000000
_cell_volume 3211.744786
_symmetry_space_group_name_H-M "A B M 2"
_symmetry_group_IT_number 39
_symmetry_cell_setting 'orthorhombic'
loop_
_space_group_symop_operation_xyz
x,y,z
-x,-y,z
-x,1/2+y,z
x,1/2-y,z
x,1/2+y,1/2+z
-x,1/2-y,1/2+z
-x,y,1/2+z
x,-y,1/2+z
loop_
_atom_site_type_symbol
_atom_site_label
_atom_site_fract_x
_atom_site_fract_y
_atom_site_fract_z
Si Si1 0.525602 0.133062 0.398810
Si Si2 0.725493 0.896401 0.589413
Si Si3 0.548440 0.940779 0.639813
Si Si4 0.097033 0.545363 0.012307
Si Si5 0.345050 0.181699 0.346574
Si Si6 0.806193 0.181653 0.640057
Si Si7 0.288364 0.683727 0.350496
Si Si8 0.068263 0.428695 0.180748
O O1 0.496613 0.114102 0.557060
O O2 0.542080 0.073177 0.307936
O O3 0.446876 0.167785 0.318915
O O4 0.612588 0.172774 0.406166
O O5 0.651170 0.947551 0.600148
O O6 0.810585 0.922929 0.518171
O O7 0.686807 0.844696 0.494504
O O8 0.743826 0.866456 0.741712
O O9 0.500000 0.000000 0.597557
O O10 0.109462 0.478222 0.072707
O O11 0.029958 0.579876 0.118270
O O12 0.066447 0.547235 0.845338
O O13 0.331415 0.250000 0.362734
O O14 0.281616 0.159013 0.220014
O O15 0.833359 0.250000 0.682857
O O16 0.783398 0.179594 0.474015
O O17 0.883609 0.134935 0.673560
O O18 0.286518 0.750000 0.284270
#
# Coordination Sequence:
#
# PCOD8181228 Si02
#       8
#     8   8   8   8   8   8   8   8
#     4  10  20  34  56  80 114 159 208 252 300 364
#     4  10  22  38  59  88 121 161 206 249 319 363
#     4  10  21  37  52  81 120 160 199 252 305 365
#     4  11  24  43  69  97 123 164 198 267 303 375
#     4  10  19  36  59  84 118 160 206 256 307 369
#     4  10  22  40  63  91 128 164 203 261 317 378
#     4  10  21  36  57  88 122 163 208 258 305 366
#     4  11  24  44  69  97 126 157 211 249 318 370
#
# _framework density 19.926863000000001
#
# number of rings (size 3 to 8) (size 9 to 14) (size 15 to 20)
#    0.000    1.750    1.250    3.375    3.500    2.000 
#    2.250    5.625    0.000    0.000    0.000    0.000 
#    0.000    0.000    0.000    0.000    0.000    0.000 
#
# Total GULP energy -396578.087121 kJ/mol
# GULP energy per Si atom -12393.065223 kJ/mol
# Density = 1.988151 g / cm^3
# Si number density = 19.926863 Si / 1000 Ang^3
#
#
#
# Elastic Constant Matrix: (Units=GPa)
#
#
# Indices 1 2 3 4 5 6 
#
# 1 90.4122 32.7748 21.6845 0.0000 0.0000 0.0000
# 2 32.7748 78.8042 22.5880 0.0000 0.0000 0.0000
# 3 21.6845 22.5880 96.5792 0.0000 0.0000 0.0000
# 4 0.0000 0.0000 0.0000 20.2937 0.0000 0.0000
# 5 0.0000 0.0000 0.0000 0.0000 28.2061 0.0000
# 6 0.0000 0.0000 0.0000 0.0000 0.0000 31.7773
#
#
#
# Elastic Compliance Matrix: (Units=1/GPa)
#
#
# Indices 1 2 3 4 5 6 
#
# 1 0.013315 -0.005017 -0.001816 0.000000 0.000000 0.000000
# 2 -0.005017 0.015492 -0.002497 0.000000 0.000000 0.000000
# 3 -0.001816 -0.002497 0.011346 0.000000 0.000000 0.000000
# 4 0.000000 0.000000 0.000000 0.049276 0.000000 0.000000
# 5 0.000000 0.000000 0.000000 0.000000 0.035453 0.000000
# 6 0.000000 0.000000 0.000000 0.000000 0.000000 0.031469
#
#
# Mechanical properties :
#
#
# Convention : Reuss Voigt Hill
#
# Bulk Modulus (GPa) = 46.52753 46.65447 46.59100
# Shear Modulus (GPa) = 27.44606 28.63865 28.04236
#
# Velocity S-wave (km/s) = 3.71528 3.79514 3.75542
# Velocity P-wave (km/s) = 6.46562 6.53206 6.49892
#
# Compressibility (1/GPa) = 0.02149265
#
# Stress axis : x y z
#
# Youngs Moduli (GPa) = 75.10476 64.54968 88.13747
#
# Poissons Ratio (x) = 0.32385 0.16007
# Poissons Ratio (y) = 0.37681 0.22006
# Poissons Ratio (z) = 0.13640 0.16117
#
# Static dielectric constant tensor:
#      x y z
#    x 3.827000 0.000000 0.000000 
#    y 0.000000 3.486420 0.000000 
#    z 0.000000 0.000000 3.798380 
# 
# 
# High freq. dielectric constant tensor:
#      x y z
#    x 1.773570 0.000000 0.000000 
#    y 0.000000 1.767770 0.000000 
#    z 0.000000 0.000000 1.789450 
# 
# From -- ./inp_files/3529.got.cif
#   From: 2010.03.12/outbox.cif.g09.slc.cpg/sg39_2_cif.got.tgz:3529.got - 2010.04.14 02:53:20.
