data_PCOD8181267
_publ_section_title
;
Structure prediction by ZEFSAII (Michael W. Deem and Ramdas Pophale) SiO2 
 PCOD8181267
Probable space group: A B M 2
;
_chemical_formula_sum "Si O2"
_cell_formula_units_Z 48
_cell_length_a 18.831172
_cell_length_b 8.834813
_cell_length_c 14.886374
_cell_angle_alpha 90.000000
_cell_angle_beta 90.000000
_cell_angle_gamma 90.000000
_cell_volume 2476.644304
_symmetry_space_group_name_H-M "A B M 2"
_symmetry_group_IT_number 39
_symmetry_cell_setting 'orthorhombic'
loop_
_space_group_symop_operation_xyz
x,y,z
-x,-y,z
-x,1/2+y,z
x,1/2-y,z
x,1/2+y,1/2+z
-x,1/2-y,1/2+z
-x,y,1/2+z
x,-y,1/2+z
loop_
_atom_site_type_symbol
_atom_site_label
_atom_site_fract_x
_atom_site_fract_y
_atom_site_fract_z
Si Si1 0.184385 0.429012 0.676120
Si Si2 0.686209 0.075204 0.429936
Si Si3 0.167918 0.071586 0.473408
Si Si4 0.924011 0.570146 0.826198
Si Si5 0.425477 0.927942 0.579658
Si Si6 0.338920 0.925150 0.227943
O O1 0.187662 0.250000 0.684513
O O2 0.161994 0.480989 0.576815
O O3 0.127668 0.491426 0.747626
O O4 0.262360 0.493210 0.699329
O O5 0.708642 0.250000 0.443244
O O6 0.631690 0.019790 0.505591
O O7 0.649008 0.052114 0.333811
O O8 0.756133 0.973733 0.433605
O O9 0.157590 0.250000 0.463103
O O10 0.105104 0.986601 0.421666
O O11 0.929413 0.750000 0.827273
O O12 0.000000 0.500000 0.806599
O O13 0.434859 0.750000 0.580939
O O14 0.500000 0.000000 0.553044
O O15 0.400433 0.983775 0.677268
O O16 0.344830 0.750000 0.200205
#
# Coordination Sequence:
#
# PCOD8181267 Si02
#       6
#     8   8   8   8   8   8
#     4   9  19  36  61  87 118 155 194 238 292 349
#     4  10  21  38  61  88 119 156 197 242 293 349
#     4  11  21  36  61  92 119 154 198 242 292 351
#     4  11  23  42  61  86 122 159 196 243 298 350
#     4  11  24  40  59  88 122 157 196 244 298 351
#     4  10  19  38  63  87 117 156 195 242 295 348
#
# _framework density 19.381063000000001
#
# number of rings (size 3 to 8) (size 9 to 14) (size 15 to 20)
#    0.000    1.667    3.333    1.500    0.000    2.667 
#    0.000    6.667    0.000    0.000    0.000    0.000 
#    0.000    0.000    0.000    0.000    0.000    0.000 
#
# Total GULP energy -297714.051599 kJ/mol
# GULP energy per Si atom -12404.752150 kJ/mol
# Density = 1.933695 g / cm^3
# Si number density = 19.381063 Si / 1000 Ang^3
#
#
#
# Elastic Constant Matrix: (Units=GPa)
#
#
# Indices 1 2 3 4 5 6 
#
# 1 91.7668 26.8924 21.7830 0.0000 0.0000 0.0000
# 2 26.8924 59.6097 23.6079 0.0000 0.0000 0.0000
# 3 21.7830 23.6079 100.5972 0.0000 0.0000 0.0000
# 4 0.0000 0.0000 0.0000 26.5399 0.0000 0.0000
# 5 0.0000 0.0000 0.0000 0.0000 32.1676 0.0000
# 6 0.0000 0.0000 0.0000 0.0000 0.0000 35.7860
#
#
#
# Elastic Compliance Matrix: (Units=1/GPa)
#
#
# Indices 1 2 3 4 5 6 
#
# 1 0.012775 -0.005146 -0.001559 0.000000 0.000000 0.000000
# 2 -0.005146 0.020568 -0.003712 0.000000 0.000000 0.000000
# 3 -0.001559 -0.003712 0.011149 0.000000 0.000000 0.000000
# 4 0.000000 0.000000 0.000000 0.037679 0.000000 0.000000
# 5 0.000000 0.000000 0.000000 0.000000 0.031087 0.000000
# 6 0.000000 0.000000 0.000000 0.000000 0.000000 0.027944
#
#
# Mechanical properties :
#
#
# Convention : Reuss Voigt Hill
#
# Bulk Modulus (GPa) = 42.26923 44.06002 43.16463
# Shear Modulus (GPa) = 29.42508 30.87804 30.15156
#
# Velocity S-wave (km/s) = 3.90069 3.99583 3.94854
# Velocity P-wave (km/s) = 6.49184 6.63866 6.56566
#
# Compressibility (1/GPa) = 0.02365787
#
# Stress axis : x y z
#
# Youngs Moduli (GPa) = 78.27631 48.61983 89.69116
#
# Poissons Ratio (x) = 0.25021 0.13979
# Poissons Ratio (y) = 0.40282 0.33297
# Poissons Ratio (z) = 0.12200 0.18050
#
# Static dielectric constant tensor:
#      x y z
#    x 3.522400 0.000000 0.000000 
#    y 0.000000 3.379060 0.000000 
#    z 0.000000 0.000000 3.736310 
# 
# 
# High freq. dielectric constant tensor:
#      x y z
#    x 1.751600 0.000000 0.000000 
#    y 0.000000 1.741430 0.000000 
#    z 0.000000 0.000000 1.768010 
# 
# From -- ./inp_files/10024.got.cif
#   From: 2010.03.12/outbox.cif.g09.slc.cpg/sg39_6_cif.got.tgz:10024.got - 2010.04.14 02:53:20.
