data_PCOD8181904
_publ_section_title
;
Structure prediction by ZEFSAII (Michael W. Deem and Ramdas Pophale) SiO2 
 PCOD8181904
Probable space group: A B M 2
;
_chemical_formula_sum "Si O2"
_cell_formula_units_Z 56
_cell_length_a 4.996234
_cell_length_b 17.273906
_cell_length_c 30.821452
_cell_angle_alpha 90.000000
_cell_angle_beta 90.000000
_cell_angle_gamma 90.000000
_cell_volume 2660.029279
_symmetry_space_group_name_H-M "A B M 2"
_symmetry_group_IT_number 39
_symmetry_cell_setting 'orthorhombic'
loop_
_space_group_symop_operation_xyz
x,y,z
-x,-y,z
-x,1/2+y,z
x,1/2-y,z
x,1/2+y,1/2+z
-x,1/2-y,1/2+z
-x,y,1/2+z
x,-y,1/2+z
loop_
_atom_site_type_symbol
_atom_site_label
_atom_site_fract_x
_atom_site_fract_y
_atom_site_fract_z
Si Si1 0.709263 0.161426 0.785920
Si Si2 0.215597 0.661056 0.342543
Si Si3 0.564089 0.161101 0.973499
Si Si4 0.754980 0.948655 0.207003
Si Si5 0.088870 0.086604 0.113266
Si Si6 0.591324 0.161574 0.072726
Si Si7 0.934658 0.089207 0.431404
O O1 0.657205 0.250000 0.772617
O O2 0.501587 0.136406 0.823253
O O3 0.663434 0.111489 0.743189
O O4 0.004270 0.148251 0.804218
O O5 0.214834 0.750000 0.358745
O O6 0.157122 0.605220 0.382480
O O7 0.486573 0.250000 0.965149
O O8 0.302540 0.110145 0.964358
O O9 0.803050 0.139356 0.941218
O O10 0.660621 0.146540 0.022486
O O11 0.852324 0.903304 0.164272
O O12 0.500000 0.000000 0.193867
O O13 0.000000 0.000000 0.225104
O O14 0.352384 0.105286 0.086075
O O15 0.853595 0.145362 0.101028
O O16 0.000000 0.000000 0.101608
O O17 0.502445 0.250000 0.080578
O O18 0.000000 0.000000 0.437614
#
# Coordination Sequence:
#
# PCOD8181904 Si02
#       7
#     8   8   8   8   8   8   8
#     4  10  22  39  62  90 118 156 204 249 297 357
#     4  10  21  39  61  87 122 161 199 244 305 366
#     4  11  24  43  64  88 124 167 206 251 313 371
#     4  11  23  41  62  89 124 161 200 244 304 368
#     4  11  23  41  63  90 126 166 202 248 312 373
#     4  11  24  41  64  93 122 160 211 259 304 361
#     4  12  25  40  63  95 125 159 209 259 304 360
#
# _framework density 21.052398
#
# number of rings (size 3 to 8) (size 9 to 14) (size 15 to 20)
#    0.000    1.143    0.000    6.857    0.000    9.714 
#    0.000    1.429    0.000    0.000    0.000    0.000 
#    0.000    0.000    0.000    0.000    0.000    0.000 
#
# Total GULP energy -347430.398001 kJ/mol
# GULP energy per Si atom -12408.228500 kJ/mol
# Density = 2.100448 g / cm^3
# Si number density = 21.052398 Si / 1000 Ang^3
#
#
#
# Elastic Constant Matrix: (Units=GPa)
#
#
# Indices 1 2 3 4 5 6 
#
# 1 118.2695 36.3751 32.9249 0.0000 0.0000 0.0000
# 2 36.3751 89.1994 70.1275 0.0000 0.0000 0.0000
# 3 32.9249 70.1275 109.7561 0.0000 0.0000 0.0000
# 4 0.0000 0.0000 0.0000 34.6737 0.0000 0.0000
# 5 0.0000 0.0000 0.0000 0.0000 31.2925 0.0000
# 6 0.0000 0.0000 0.0000 0.0000 0.0000 38.4106
#
#
#
# Elastic Compliance Matrix: (Units=1/GPa)
#
#
# Indices 1 2 3 4 5 6 
#
# 1 0.009700 -0.003351 -0.000768 0.000000 0.000000 0.000000
# 2 -0.003351 0.023684 -0.014128 0.000000 0.000000 0.000000
# 3 -0.000768 -0.014128 0.018368 0.000000 0.000000 0.000000
# 4 0.000000 0.000000 0.000000 0.028840 0.000000 0.000000
# 5 0.000000 0.000000 0.000000 0.000000 0.031957 0.000000
# 6 0.000000 0.000000 0.000000 0.000000 0.000000 0.026034
#
#
# Mechanical properties :
#
#
# Convention : Reuss Voigt Hill
#
# Bulk Modulus (GPa) = 65.54026 66.23111 65.88569
# Shear Modulus (GPa) = 27.75236 32.72855 30.24046
#
# Velocity S-wave (km/s) = 3.63471 3.94715 3.79415
# Velocity P-wave (km/s) = 6.98673 7.23199 7.11042
#
# Compressibility (1/GPa) = 0.01525780
#
# Stress axis : x y z
#
# Youngs Moduli (GPa) = 103.09308 42.22173 54.44164
#
# Poissons Ratio (x) = 0.14150 0.04183
# Poissons Ratio (y) = 0.34551 0.76913
# Poissons Ratio (z) = 0.07922 0.59649
#
# Static dielectric constant tensor:
#      x y z
#    x 4.150600 0.000000 0.000000 
#    y 0.000000 3.751430 0.000000 
#    z 0.000000 0.000000 3.700900 
# 
# 
# High freq. dielectric constant tensor:
#      x y z
#    x 1.844270 0.000000 0.000000 
#    y 0.000000 1.821790 0.000000 
#    z 0.000000 0.000000 1.828840 
# 
# From -- ./inp_files/17279.got.cif
#   From: 2010.03.12/outbox.cif.g09.slc.cpg/sg39_9_cif.got.tgz:17279.got - 2010.04.14 02:53:20.
