data_PCOD8181268
_publ_section_title
;
Structure prediction by ZEFSAII (Michael W. Deem and Ramdas Pophale) SiO2 
 PCOD8181268
Probable space group: A B M 2
;
_chemical_formula_sum "Si O2"
_cell_formula_units_Z 64
_cell_length_a 15.607015
_cell_length_b 19.156129
_cell_length_c 9.534804
_cell_angle_alpha 90.000000
_cell_angle_beta 90.000000
_cell_angle_gamma 90.000000
_cell_volume 2850.620282
_symmetry_space_group_name_H-M "A B M 2"
_symmetry_group_IT_number 39
_symmetry_cell_setting 'orthorhombic'
loop_
_space_group_symop_operation_xyz
x,y,z
-x,-y,z
-x,1/2+y,z
x,1/2-y,z
x,1/2+y,1/2+z
-x,1/2-y,1/2+z
-x,y,1/2+z
x,-y,1/2+z
loop_
_atom_site_type_symbol
_atom_site_label
_atom_site_fract_x
_atom_site_fract_y
_atom_site_fract_z
Si Si1 0.818616 0.465993 0.063170
Si Si2 0.991664 0.671499 0.756399
Si Si3 0.907531 0.398955 0.509049
Si Si4 0.412084 0.889743 0.675376
Si Si5 0.705383 0.005579 0.312029
Si Si6 0.541537 0.574048 0.879235
Si Si7 0.244505 0.327727 0.153655
Si Si8 0.160906 0.826048 0.931212
O O1 0.899511 0.516502 0.024241
O O2 0.789452 0.473979 0.223722
O O3 0.736844 0.479459 0.963287
O O4 0.848028 0.384980 0.050427
O O5 0.955233 0.750000 0.719921
O O6 0.019744 0.631834 0.613462
O O7 0.072734 0.682086 0.852195
O O8 0.925397 0.624783 0.848482
O O9 0.810600 0.375126 0.548255
O O10 0.483489 0.869865 0.792939
O O11 0.468889 0.912027 0.542954
O O12 0.347472 0.827851 0.628341
O O13 0.345468 0.947755 0.726105
O O14 0.641705 0.072084 0.334716
O O15 0.500000 0.500000 0.840316
O O16 0.208646 0.250000 0.132513
O O17 0.230122 0.351377 0.315558
O O18 0.186108 0.750000 0.996182
#
# Coordination Sequence:
#
# PCOD8181268 Si02
#       8
#     8   8   8   8   8   8   8   8
#     4  12  22  38  65  94 128 161 211 271 319 384
#     4  10  21  41  65  91 125 166 211 258 316 392
#     4  11  22  39  64  96 127 165 217 270 325 380
#     4  11  20  36  56  90 122 163 211 259 314 379
#     4  11  20  36  58  91 126 158 204 264 322 370
#     4  10  21  32  56  86 122 160 205 262 316 374
#     4  10  19  38  64  88 122 170 216 260 320 386
#     4   9  20  38  61  88 121 164 207 253 321 392
#
# _framework density 22.451253000000001
#
# number of rings (size 3 to 8) (size 9 to 14) (size 15 to 20)
#    0.000    1.500    3.750    3.750    1.750    1.500 
#    0.000    3.125    0.000    4.500    0.000    0.000 
#    0.000    0.000    0.000    0.000    0.000    0.000 
#
# Total GULP energy -396580.145431 kJ/mol
# GULP energy per Si atom -12393.129545 kJ/mol
# Density = 2.240015 g / cm^3
# Si number density = 22.451253 Si / 1000 Ang^3
#
#
#
# Elastic Constant Matrix: (Units=GPa)
#
#
# Indices 1 2 3 4 5 6 
#
# 1 74.0837 17.7995 27.8126 0.0000 0.0000 0.0000
# 2 17.7995 90.8136 10.1521 0.0000 0.0000 0.0000
# 3 27.8126 10.1521 79.1110 0.0000 0.0000 0.0000
# 4 0.0000 0.0000 0.0000 12.0814 0.0000 0.0000
# 5 0.0000 0.0000 0.0000 0.0000 44.4382 0.0000
# 6 0.0000 0.0000 0.0000 0.0000 0.0000 22.0769
#
#
#
# Elastic Compliance Matrix: (Units=1/GPa)
#
#
# Indices 1 2 3 4 5 6 
#
# 1 0.016118 -0.002562 -0.005338 0.000000 0.000000 0.000000
# 2 -0.002562 0.011579 -0.000585 0.000000 0.000000 0.000000
# 3 -0.005338 -0.000585 0.014592 0.000000 0.000000 0.000000
# 4 0.000000 0.000000 0.000000 0.082772 0.000000 0.000000
# 5 0.000000 0.000000 0.000000 0.000000 0.022503 0.000000
# 6 0.000000 0.000000 0.000000 0.000000 0.000000 0.045296
#
#
# Mechanical properties :
#
#
# Convention : Reuss Voigt Hill
#
# Bulk Modulus (GPa) = 39.49625 39.50408 39.50016
# Shear Modulus (GPa) = 22.90741 28.26890 25.58815
#
# Velocity S-wave (km/s) = 3.19771 3.55226 3.37964
# Velocity P-wave (km/s) = 5.59142 5.87013 5.73247
#
# Compressibility (1/GPa) = 0.02531886
#
# Stress axis : x y z
#
# Youngs Moduli (GPa) = 62.04343 86.36174 68.53049
#
# Poissons Ratio (x) = 0.22129 0.36579
# Poissons Ratio (y) = 0.15898 0.04010
# Poissons Ratio (z) = 0.33116 0.05053
#
# Static dielectric constant tensor:
#      x y z
#    x 4.319520 0.000000 0.000000 
#    y 0.000000 4.106980 0.000000 
#    z 0.000000 0.000000 4.135050 
# 
# 
# High freq. dielectric constant tensor:
#      x y z
#    x 1.882700 0.000000 0.000000 
#    y 0.000000 1.859270 0.000000 
#    z 0.000000 0.000000 1.881870 
# 
# From -- ./inp_files/3841.got.cif
#   From: 2010.03.12/outbox.cif.g09.slc.cpg/sg39_2_cif.got.tgz:3841.got - 2010.04.14 02:53:20.
