data_PCOD8181221
_publ_section_title
;
Structure prediction by ZEFSAII (Michael W. Deem and Ramdas Pophale) SiO2 
 PCOD8181221
Probable space group: A B M 2
;
_chemical_formula_sum "Si O2"
_cell_formula_units_Z 56
_cell_length_a 9.098629
_cell_length_b 18.825728
_cell_length_c 14.823156
_cell_angle_alpha 90.000000
_cell_angle_beta 90.000000
_cell_angle_gamma 90.000000
_cell_volume 2539.033410
_symmetry_space_group_name_H-M "A B M 2"
_symmetry_group_IT_number 39
_symmetry_cell_setting 'orthorhombic'
loop_
_space_group_symop_operation_xyz
x,y,z
-x,-y,z
-x,1/2+y,z
x,1/2-y,z
x,1/2+y,1/2+z
-x,1/2-y,1/2+z
-x,y,1/2+z
x,-y,1/2+z
loop_
_atom_site_type_symbol
_atom_site_label
_atom_site_fract_x
_atom_site_fract_y
_atom_site_fract_z
Si Si1 0.300899 0.553214 0.078720
Si Si2 0.992122 0.330405 0.714685
Si Si3 0.531090 0.664151 0.482841
Si Si4 0.205851 0.328356 0.366259
Si Si5 0.839482 0.461350 0.256203
Si Si6 0.012175 0.874230 0.020597
Si Si7 0.278560 0.063699 0.946706
O O1 0.279737 0.518601 0.178415
O O2 0.136027 0.570717 0.048971
O O3 0.410296 0.622548 0.073200
O O4 0.361539 0.492847 0.010690
O O5 0.021972 0.250000 0.747534
O O6 0.133607 0.377014 0.740057
O O7 0.854426 0.363748 0.773263
O O8 0.959138 0.329586 0.608002
O O9 0.530010 0.750000 0.498831
O O10 0.647730 0.636565 0.406950
O O11 0.374250 0.636389 0.447531
O O12 0.254387 0.250000 0.340158
O O13 0.075140 0.325170 0.440676
O O14 0.751872 0.471943 0.349306
O O15 0.000000 0.500000 0.250777
O O16 0.879191 0.919888 0.985773
#
# Coordination Sequence:
#
# PCOD8181221 Si02
#       7
#     8   8   8   8   8   8   8
#     4  10  22  43  65  94 127 173 219 272 334 403
#     4  10  20  35  60  95 126 165 214 266 326 386
#     4  10  24  44  64  89 134 181 219 265 326 398
#     4   9  18  36  58  85 126 170 209 257 319 385
#     4  11  23  40  69 101 131 168 221 289 341 395
#     4  10  19  35  64  94 124 159 214 274 331 379
#     4  12  23  41  66  98 130 169 220 277 336 400
#
# _framework density 22.055637000000001
#
# number of rings (size 3 to 8) (size 9 to 14) (size 15 to 20)
#    0.000    1.714    1.429    3.857    2.000    5.143 
#    2.571    1.429    0.000    0.000    0.000    0.000 
#    0.000    0.000    0.000    0.000    0.000    0.000 
#
# Total GULP energy -346867.423598 kJ/mol
# GULP energy per Si atom -12388.122271 kJ/mol
# Density = 2.200544 g / cm^3
# Si number density = 22.055637 Si / 1000 Ang^3
#
#
#
# Elastic Constant Matrix: (Units=GPa)
#
#
# Indices 1 2 3 4 5 6 
#
# 1 70.5357 22.3090 31.8501 0.0000 0.0000 0.0000
# 2 22.3090 83.5890 29.8444 0.0000 0.0000 0.0000
# 3 31.8501 29.8444 140.9950 0.0000 0.0000 0.0000
# 4 0.0000 0.0000 0.0000 16.2445 0.0000 0.0000
# 5 0.0000 0.0000 0.0000 0.0000 18.5064 0.0000
# 6 0.0000 0.0000 0.0000 0.0000 0.0000 31.6674
#
#
#
# Elastic Compliance Matrix: (Units=1/GPa)
#
#
# Indices 1 2 3 4 5 6 
#
# 1 0.016610 -0.003346 -0.003044 0.000000 0.000000 0.000000
# 2 -0.003346 0.013615 -0.002126 0.000000 0.000000 0.000000
# 3 -0.003044 -0.002126 0.008230 0.000000 0.000000 0.000000
# 4 0.000000 0.000000 0.000000 0.061559 0.000000 0.000000
# 5 0.000000 0.000000 0.000000 0.000000 0.054035 0.000000
# 6 0.000000 0.000000 0.000000 0.000000 0.000000 0.031578
#
#
# Mechanical properties :
#
#
# Convention : Reuss Voigt Hill
#
# Bulk Modulus (GPa) = 46.67838 51.45853 49.06845
# Shear Modulus (GPa) = 23.83200 27.35806 25.59503
#
# Velocity S-wave (km/s) = 3.29072 3.52577 3.41027
# Velocity P-wave (km/s) = 5.97062 6.32112 6.14837
#
# Compressibility (1/GPa) = 0.02142320
#
# Stress axis : x y z
#
# Youngs Moduli (GPa) = 60.20466 73.44582 121.50576
#
# Poissons Ratio (x) = 0.24577 0.36984
# Poissons Ratio (y) = 0.20146 0.25833
# Poissons Ratio (z) = 0.18325 0.15615
#
# Static dielectric constant tensor:
#      x y z
#    x 3.786210 0.000000 0.000000 
#    y 0.000000 3.948520 0.000000 
#    z 0.000000 0.000000 4.540540 
# 
# 
# High freq. dielectric constant tensor:
#      x y z
#    x 1.846470 0.000000 0.000000 
#    y 0.000000 1.867100 0.000000 
#    z 0.000000 0.000000 1.866740 
# 
# From -- ./inp_files/8604.got.cif
#   From: 2010.03.12/outbox.cif.g09.slc.cpg/sg39_5_cif.got.tgz:8604.got - 2010.04.14 02:53:20.
