data_PCOD8181994
_publ_section_title
;
Structure prediction by ZEFSAII (Michael W. Deem and Ramdas Pophale) SiO2 
 PCOD8181994
Probable space group: A B M 2
;
_chemical_formula_sum "Si O2"
_cell_formula_units_Z 48
_cell_length_a 14.698590
_cell_length_b 17.885734
_cell_length_c 8.435685
_cell_angle_alpha 90.000000
_cell_angle_beta 90.000000
_cell_angle_gamma 90.000000
_cell_volume 2217.700006
_symmetry_space_group_name_H-M "A B M 2"
_symmetry_group_IT_number 39
_symmetry_cell_setting 'orthorhombic'
loop_
_space_group_symop_operation_xyz
x,y,z
-x,-y,z
-x,1/2+y,z
x,1/2-y,z
x,1/2+y,1/2+z
-x,1/2-y,1/2+z
-x,y,1/2+z
x,-y,1/2+z
loop_
_atom_site_type_symbol
_atom_site_label
_atom_site_fract_x
_atom_site_fract_y
_atom_site_fract_z
Si Si1 0.900064 0.836132 0.582150
Si Si2 0.733786 0.592847 0.431544
Si Si3 0.379916 0.337782 0.917500
Si Si4 0.228458 0.435261 0.067959
Si Si5 0.434583 0.662171 0.065154
Si Si6 0.954649 0.919974 0.891818
O O1 0.914384 0.750000 0.630356
O O2 0.799352 0.845948 0.511791
O O3 0.910213 0.890743 0.730952
O O4 0.972270 0.859487 0.448736
O O5 0.735927 0.517341 0.531728
O O6 0.631414 0.623987 0.436535
O O7 0.764394 0.579269 0.253306
O O8 0.362622 0.250000 0.926950
O O9 0.286766 0.376042 0.968739
O O10 0.462031 0.363657 0.032254
O O11 0.405546 0.362721 0.740166
O O12 0.122762 0.427945 0.024498
O O13 0.427953 0.750000 0.038268
O O14 0.000000 0.000000 0.858665
#
# Coordination Sequence:
#
# PCOD8181994 Si02
#       6
#     8   8   8   8   8   8
#     4  12  26  44  69 102 136 177 230 287 342 412
#     4  12  25  43  66  98 135 177 230 282 346 411
#     4  10  22  41  68 100 137 180 229 282 343 413
#     4  12  26  43  68  97 131 181 229 282 348 415
#     4  10  21  41  67  98 138 181 224 283 347 407
#     4  12  25  45  71  98 135 183 226 283 349 416
#
# _framework density 21.644043
#
# number of rings (size 3 to 8) (size 9 to 14) (size 15 to 20)
#    0.000    0.667    1.667    6.500    0.000    6.000 
#    0.000    3.333    0.000    0.000    0.000    0.000 
#    0.000    0.000    0.000    0.000    0.000    0.000 
#
# Total GULP energy -297795.867730 kJ/mol
# GULP energy per Si atom -12408.161155 kJ/mol
# Density = 2.159478 g / cm^3
# Si number density = 21.644043 Si / 1000 Ang^3
#
#
#
# Elastic Constant Matrix: (Units=GPa)
#
#
# Indices 1 2 3 4 5 6 
#
# 1 95.6330 45.4558 17.0065 0.0000 0.0000 0.0000
# 2 45.4558 99.5314 47.1312 0.0000 0.0000 0.0000
# 3 17.0065 47.1312 110.2301 0.0000 0.0000 0.0000
# 4 0.0000 0.0000 0.0000 30.3879 0.0000 0.0000
# 5 0.0000 0.0000 0.0000 0.0000 39.8539 0.0000
# 6 0.0000 0.0000 0.0000 0.0000 0.0000 29.9671
#
#
#
# Elastic Compliance Matrix: (Units=1/GPa)
#
#
# Indices 1 2 3 4 5 6 
#
# 1 0.013397 -0.006445 0.000689 0.000000 0.000000 0.000000
# 2 -0.006445 0.015698 -0.005718 0.000000 0.000000 0.000000
# 3 0.000689 -0.005718 0.011410 0.000000 0.000000 0.000000
# 4 0.000000 0.000000 0.000000 0.032908 0.000000 0.000000
# 5 0.000000 0.000000 0.000000 0.000000 0.025092 0.000000
# 6 0.000000 0.000000 0.000000 0.000000 0.000000 0.033370
#
#
# Mechanical properties :
#
#
# Convention : Reuss Voigt Hill
#
# Bulk Modulus (GPa) = 56.95343 58.28684 57.62014
# Shear Modulus (GPa) = 31.11866 33.09516 32.10691
#
# Velocity S-wave (km/s) = 3.79588 3.91457 3.85568
# Velocity P-wave (km/s) = 6.75147 6.88622 6.81918
#
# Compressibility (1/GPa) = 0.01755820
#
# Stress axis : x y z
#
# Youngs Moduli (GPa) = 74.64123 63.70308 87.63933
#
# Poissons Ratio (x) = 0.41054 -0.06035
# Poissons Ratio (y) = 0.48104 0.50109
# Poissons Ratio (z) = -0.05140 0.36423
#
# Static dielectric constant tensor:
#      x y z
#    x 4.118460 0.000000 0.000000 
#    y 0.000000 3.810360 0.000000 
#    z 0.000000 0.000000 3.996720 
# 
# 
# High freq. dielectric constant tensor:
#      x y z
#    x 1.866410 0.000000 0.000000 
#    y 0.000000 1.848180 0.000000 
#    z 0.000000 0.000000 1.862070 
# 
# From -- ./inp_files/3223.got.cif
#   From: 2010.03.12/outbox.cif.g09.slc.cpg/sg39_2_cif.got.tgz:3223.got - 2010.04.14 02:53:20.
