data_PCOD8181204
_publ_section_title
;
Structure prediction by ZEFSAII (Michael W. Deem and Ramdas Pophale) SiO2 
 PCOD8181204
Probable space group: A B M 2
;
_chemical_formula_sum "Si O2"
_cell_formula_units_Z 32
_cell_length_a 9.129630
_cell_length_b 14.951174
_cell_length_c 13.380956
_cell_angle_alpha 90.000000
_cell_angle_beta 90.000000
_cell_angle_gamma 90.000000
_cell_volume 1826.482921
_symmetry_space_group_name_H-M "A B M 2"
_symmetry_group_IT_number 39
_symmetry_cell_setting 'orthorhombic'
loop_
_space_group_symop_operation_xyz
x,y,z
-x,-y,z
-x,1/2+y,z
x,1/2-y,z
x,1/2+y,1/2+z
-x,1/2-y,1/2+z
-x,y,1/2+z
x,-y,1/2+z
loop_
_atom_site_type_symbol
_atom_site_label
_atom_site_fract_x
_atom_site_fract_y
_atom_site_fract_z
Si Si1 0.863708 0.940746 0.714550
Si Si2 0.327369 0.494535 0.049967
Si Si3 0.130386 0.351067 0.516645
Si Si4 0.176632 0.146408 0.919116
O O1 0.918348 0.868246 0.631925
O O2 0.793899 0.889993 0.808215
O O3 0.738271 0.002709 0.662800
O O4 0.000000 0.000000 0.750146
O O5 0.500000 0.500000 0.054594
O O6 0.260165 0.579371 0.987658
O O7 0.281934 0.402942 0.996974
O O8 0.187775 0.250000 0.503532
O O9 0.992805 0.370268 0.445784
O O10 0.218388 0.250000 0.924539
#
# Coordination Sequence:
#
# PCOD8181204 Si02
#       4
#     8   8   8   8
#     4  10  19  35  59  81 115 143 187 231 283 328
#     4  10  21  37  56  84 118 152 183 231 282 340
#     4   9  18  35  58  84 110 143 187 236 279 323
#     4  11  21  37  60  87 111 147 191 237 282 331
#
# _framework density 17.520009999999999
#
# number of rings (size 3 to 8) (size 9 to 14) (size 15 to 20)
#    1.500    0.500    2.500    3.000    0.000    2.000 
#    0.000    0.000    0.000    0.000    0.000    0.000 
#    0.000    0.000    0.000    0.000    0.000    0.000 
#
# Total GULP energy -198302.470355 kJ/mol
# GULP energy per Si atom -12393.904397 kJ/mol
# Density = 1.748013 g / cm^3
# Si number density = 17.520010 Si / 1000 Ang^3
#
#
#
# Elastic Constant Matrix: (Units=GPa)
#
#
# Indices 1 2 3 4 5 6 
#
# 1 115.1594 64.7990 33.6271 0.0000 0.0000 0.0000
# 2 64.7990 120.7934 53.0566 0.0000 0.0000 0.0000
# 3 33.6271 53.0566 107.0594 0.0000 0.0000 0.0000
# 4 0.0000 0.0000 0.0000 28.8775 0.0000 0.0000
# 5 0.0000 0.0000 0.0000 0.0000 5.9299 0.0000
# 6 0.0000 0.0000 0.0000 0.0000 0.0000 17.5375
#
#
#
# Elastic Compliance Matrix: (Units=1/GPa)
#
#
# Indices 1 2 3 4 5 6 
#
# 1 0.012488 -0.006361 -0.000770 0.000000 0.000000 0.000000
# 2 -0.006361 0.013822 -0.004852 0.000000 0.000000 0.000000
# 3 -0.000770 -0.004852 0.011987 0.000000 0.000000 0.000000
# 4 0.000000 0.000000 0.000000 0.034629 0.000000 0.000000
# 5 0.000000 0.000000 0.000000 0.000000 0.168637 0.000000
# 6 0.000000 0.000000 0.000000 0.000000 0.000000 0.057021
#
#
# Mechanical properties :
#
#
# Convention : Reuss Voigt Hill
#
# Bulk Modulus (GPa) = 69.77869 71.77529 70.77699
# Shear Modulus (GPa) = 15.27530 23.23761 19.25645
#
# Velocity S-wave (km/s) = 2.95596 3.64586 3.31888
# Velocity P-wave (km/s) = 7.18086 7.66678 7.42780
#
# Compressibility (1/GPa) = 0.01433102
#
# Stress axis : x y z
#
# Youngs Moduli (GPa) = 80.07974 72.34902 83.42330
#
# Poissons Ratio (x) = 0.46018 0.06425
# Poissons Ratio (y) = 0.50936 0.40477
# Poissons Ratio (z) = 0.06167 0.35104
#
# Static dielectric constant tensor:
#      x y z
#    x 2.881360 0.000000 0.000000 
#    y 0.000000 3.286820 0.000000 
#    z 0.000000 0.000000 3.105860 
# 
# 
# High freq. dielectric constant tensor:
#      x y z
#    x 1.649530 0.000000 0.000000 
#    y 0.000000 1.681620 0.000000 
#    z 0.000000 0.000000 1.670540 
# 
# From -- ./inp_files/4791.got.cif
#   From: 2010.03.12/outbox.cif.g09.slc.cpg/sg39_3_cif.got.tgz:4791.got - 2010.04.14 02:53:20.
