data_PCOD8181297
_publ_section_title
;
Structure prediction by ZEFSAII (Michael W. Deem and Ramdas Pophale) SiO2 
 PCOD8181297
Probable space group: A B M 2
;
_chemical_formula_sum "Si O2"
_cell_formula_units_Z 64
_cell_length_a 15.282140
_cell_length_b 8.916341
_cell_length_c 30.835052
_cell_angle_alpha 90.000000
_cell_angle_beta 90.000000
_cell_angle_gamma 90.000000
_cell_volume 4201.607973
_symmetry_space_group_name_H-M "A B M 2"
_symmetry_group_IT_number 39
_symmetry_cell_setting 'orthorhombic'
loop_
_space_group_symop_operation_xyz
x,y,z
-x,-y,z
-x,1/2+y,z
x,1/2-y,z
x,1/2+y,1/2+z
-x,1/2-y,1/2+z
-x,y,1/2+z
x,-y,1/2+z
loop_
_atom_site_type_symbol
_atom_site_label
_atom_site_fract_x
_atom_site_fract_y
_atom_site_fract_z
Si Si1 0.906914 0.425097 0.503160
Si Si2 0.228062 0.070260 0.931196
Si Si3 0.233235 0.571216 0.839242
Si Si4 0.585267 0.917826 0.834804
Si Si5 0.581870 0.913592 0.937417
Si Si6 0.093245 0.077504 0.679519
Si Si7 0.905464 0.574769 0.098442
Si Si8 0.904848 0.074314 0.275796
O O1 0.922289 0.250000 0.497383
O O2 0.840988 0.485279 0.466749
O O3 0.864759 0.458841 0.550812
O O4 0.000000 0.500000 0.495956
O O5 0.228999 0.250000 0.924082
O O6 0.323488 0.014563 0.948101
O O7 0.205526 0.991001 0.886145
O O8 0.235974 0.750000 0.840251
O O9 0.327466 0.510613 0.823676
O O10 0.160211 0.514258 0.806513
O O11 0.593191 0.750000 0.815106
O O12 0.572431 0.906052 0.885945
O O13 0.500000 0.000000 0.814481
O O14 0.577335 0.750000 0.958385
O O15 0.500000 0.000000 0.958368
O O16 0.081622 0.250000 0.667613
O O17 0.135541 0.057110 0.727086
O O18 0.147134 0.999267 0.639419
O O19 0.000000 0.000000 0.682153
O O20 0.912954 0.750000 0.106944
O O21 0.000000 0.500000 0.097821
O O22 0.911401 0.250000 0.288456
O O23 0.000000 0.000000 0.280030
#
# Coordination Sequence:
#
# PCOD8181297 Si02
#       8
#     8   8   8   8   8   8   8   8
#     4   9  18  30  43  59  81 111 144 174 206 245
#     4   9  18  32  44  56  81 115 146 176 210 247
#     4  11  21  31  44  63  86 115 149 181 215 254
#     4   9  16  28  45  64  85 109 138 175 217 257
#     4   8  14  24  40  58  76 100 129 166 209 247
#     4   9  16  26  42  61  80 103 132 168 212 256
#     4   9  15  24  40  60  80 102 130 166 208 251
#     4  10  20  33  46  61  83 113 147 180 214 253
#
# _framework density 15.232264000000001
#
# number of rings (size 3 to 8) (size 9 to 14) (size 15 to 20)
#    0.000    2.750    0.000    4.125    0.000    6.000 
#    0.000    1.250    0.000    0.000    0.000    0.000 
#    0.000    1.000    0.000    9.250    0.000    3.250 
#
# Total GULP energy -396439.200820 kJ/mol
# GULP energy per Si atom -12388.725026 kJ/mol
# Density = 1.519759 g / cm^3
# Si number density = 15.232264 Si / 1000 Ang^3
#
#
#
# Elastic Constant Matrix: (Units=GPa)
#
#
# Indices 1 2 3 4 5 6 
#
# 1 85.2753 39.8134 55.1351 0.0000 0.0000 0.0000
# 2 39.8134 97.0656 48.0261 0.0000 0.0000 0.0000
# 3 55.1351 48.0261 93.7659 0.0000 0.0000 0.0000
# 4 0.0000 0.0000 0.0000 14.4154 0.0000 0.0000
# 5 0.0000 0.0000 0.0000 0.0000 -0.4783 0.0000
# 6 0.0000 0.0000 0.0000 0.0000 0.0000 22.5663
#
#
#
# Elastic Compliance Matrix: (Units=1/GPa)
#
#
# Indices 1 2 3 4 5 6 
#
# 1 0.019605 -0.003131 -0.009924 0.000000 0.000000 0.000000
# 2 -0.003131 0.014299 -0.005483 0.000000 0.000000 0.000000
# 3 -0.009924 -0.005483 0.019309 0.000000 0.000000 0.000000
# 4 0.000000 0.000000 0.000000 0.069370 0.000000 0.000000
# 5 0.000000 0.000000 0.000000 0.000000 -2.090641 0.000000
# 6 0.000000 0.000000 0.000000 0.000000 0.000000 0.044314
#
#
# Mechanical properties :
#
#
# Convention : Reuss Voigt Hill
#
# Bulk Modulus (GPa) = 61.97055 62.45066 62.21061
# Shear Modulus (GPa) = -2.65775 16.17615 6.75920
#
# Velocity S-wave (km/s) = -1.32235 3.26232 2.10880
# Velocity P-wave (km/s) = 6.20005 7.43493 6.84539
#
# Compressibility (1/GPa) = 0.01613670
#
# Stress axis : x y z
#
# Youngs Moduli (GPa) = 51.00700 69.93276 51.79018
#
# Poissons Ratio (x) = 0.21897 0.51398
# Poissons Ratio (y) = 0.15971 0.28396
# Poissons Ratio (z) = 0.50621 0.38344
#
# Static dielectric constant tensor:
#      x y z
#    x 2.840900 0.000000 0.000000 
#    y 0.000000 3.142220 0.000000 
#    z 0.000000 0.000000 3.435880 
# 
# 
# High freq. dielectric constant tensor:
#      x y z
#    x 1.552280 0.000000 0.000000 
#    y 0.000000 1.597980 0.000000 
#    z 0.000000 0.000000 1.563210 
# 
# From -- ./inp_files/17211.got.cif
#   From: 2010.03.12/outbox.cif.g09.slc.cpg/sg39_9_cif.got.tgz:17211.got - 2010.04.14 02:53:20.
