data_PCOD8181477
_publ_section_title
;
Structure prediction by ZEFSAII (Michael W. Deem and Ramdas Pophale) SiO2 
 PCOD8181477
Probable space group: A B M 2
;
_chemical_formula_sum "Si O2"
_cell_formula_units_Z 56
_cell_length_a 19.359423
_cell_length_b 8.752071
_cell_length_c 15.886072
_cell_angle_alpha 90.000000
_cell_angle_beta 90.000000
_cell_angle_gamma 90.000000
_cell_volume 2691.657318
_symmetry_space_group_name_H-M "A B M 2"
_symmetry_group_IT_number 39
_symmetry_cell_setting 'orthorhombic'
loop_
_space_group_symop_operation_xyz
x,y,z
-x,-y,z
-x,1/2+y,z
x,1/2-y,z
x,1/2+y,1/2+z
-x,1/2-y,1/2+z
-x,y,1/2+z
x,-y,1/2+z
loop_
_atom_site_type_symbol
_atom_site_label
_atom_site_fract_x
_atom_site_fract_y
_atom_site_fract_z
Si Si1 0.424786 0.930897 0.778520
Si Si2 0.336487 0.930020 0.938844
Si Si3 0.929408 0.430526 0.930563
Si Si4 0.930696 0.429520 0.612349
Si Si5 0.652209 0.426009 0.610140
Si Si6 0.788838 0.575342 0.199605
Si Si7 0.793724 0.927698 0.867987
O O1 0.429333 0.750000 0.779417
O O2 0.383241 0.987590 0.861009
O O3 0.387963 0.987288 0.692715
O O4 0.500000 0.000000 0.783008
O O5 0.325935 0.750000 0.935855
O O6 0.261963 0.011171 0.934606
O O7 0.370795 0.978535 0.027836
O O8 0.935121 0.250000 0.929081
O O9 0.865836 0.483739 0.874255
O O10 0.000000 0.500000 0.892673
O O11 0.917222 0.489069 0.024411
O O12 0.940243 0.250000 0.597154
O O13 0.865769 0.465893 0.670688
O O14 0.000000 0.500000 0.654535
O O15 0.633642 0.250000 0.593441
O O16 0.734373 0.448423 0.624349
O O17 0.784049 0.750000 0.232275
O O18 0.766335 0.462783 0.274392
O O19 0.805399 0.750000 0.884183
#
# Coordination Sequence:
#
# PCOD8181477 Si02
#       7
#     8   8   8   8   8   8   8
#     4  10  23  43  67  94 132 170 207 258 314 374
#     4  11  23  42  66  95 129 169 214 260 314 374
#     4  11  22  38  59  83 117 158 205 259 315 375
#     4  10  20  35  57  83 116 158 202 255 314 372
#     4  10  21  41  66  93 127 167 211 260 314 372
#     4  10  21  39  60  83 119 161 205 257 315 368
#     4  12  24  38  60  89 121 160 209 261 315 374
#
# _framework density 20.805026000000002
#
# number of rings (size 3 to 8) (size 9 to 14) (size 15 to 20)
#    0.000    1.429    1.429    5.143    0.000    5.714 
#    0.000    4.286    0.000    0.000    0.000    0.000 
#    0.000    0.000    0.000    0.000    0.000    0.000 
#
# Total GULP energy -347284.905604 kJ/mol
# GULP energy per Si atom -12403.032343 kJ/mol
# Density = 2.075767 g / cm^3
# Si number density = 20.805026 Si / 1000 Ang^3
#
#
#
# Elastic Constant Matrix: (Units=GPa)
#
#
# Indices 1 2 3 4 5 6 
#
# 1 123.9765 41.2009 50.5104 0.0000 0.0000 0.0000
# 2 41.2009 102.4418 40.5302 0.0000 0.0000 0.0000
# 3 50.5104 40.5302 128.5592 0.0000 0.0000 0.0000
# 4 0.0000 0.0000 0.0000 36.5577 0.0000 0.0000
# 5 0.0000 0.0000 0.0000 0.0000 29.9548 0.0000
# 6 0.0000 0.0000 0.0000 0.0000 0.0000 34.1301
#
#
#
# Elastic Compliance Matrix: (Units=1/GPa)
#
#
# Indices 1 2 3 4 5 6 
#
# 1 0.010309 -0.002906 -0.003134 0.000000 0.000000 0.000000
# 2 -0.002906 0.011972 -0.002633 0.000000 0.000000 0.000000
# 3 -0.003134 -0.002633 0.009840 0.000000 0.000000 0.000000
# 4 0.000000 0.000000 0.000000 0.027354 0.000000 0.000000
# 5 0.000000 0.000000 0.000000 0.000000 0.033384 0.000000
# 6 0.000000 0.000000 0.000000 0.000000 0.000000 0.029300
#
#
# Mechanical properties :
#
#
# Convention : Reuss Voigt Hill
#
# Bulk Modulus (GPa) = 67.68137 68.82895 68.25516
# Shear Modulus (GPa) = 34.61927 34.97759 34.79843
#
# Velocity S-wave (km/s) = 4.08362 4.10470 4.09418
# Velocity P-wave (km/s) = 7.40517 7.45784 7.43155
#
# Compressibility (1/GPa) = 0.01477511
#
# Stress axis : x y z
#
# Youngs Moduli (GPa) = 97.00551 83.52833 101.62779
#
# Poissons Ratio (x) = 0.24274 0.31851
# Poissons Ratio (y) = 0.28191 0.26754
# Poissons Ratio (z) = 0.30402 0.21989
#
# Static dielectric constant tensor:
#      x y z
#    x 3.683970 0.000000 0.000000 
#    y 0.000000 3.653920 0.000000 
#    z 0.000000 0.000000 3.749130 
# 
# 
# High freq. dielectric constant tensor:
#      x y z
#    x 1.818150 0.000000 0.000000 
#    y 0.000000 1.810690 0.000000 
#    z 0.000000 0.000000 1.816050 
# 
# From -- ./inp_files/10391.got.cif
#   From: 2010.03.12/outbox.cif.g09.slc.cpg/sg39_6_cif.got.tgz:10391.got - 2010.04.14 02:53:20.
