data_PCOD8181740
_publ_section_title
;
Structure prediction by ZEFSAII (Michael W. Deem and Ramdas Pophale) SiO2 
 PCOD8181740
Probable space group: A B M 2
;
_chemical_formula_sum "Si O2"
_cell_formula_units_Z 64
_cell_length_a 8.721237
_cell_length_b 23.203702
_cell_length_c 13.845938
_cell_angle_alpha 90.000000
_cell_angle_beta 90.000000
_cell_angle_gamma 90.000000
_cell_volume 2801.933028
_symmetry_space_group_name_H-M "A B M 2"
_symmetry_group_IT_number 39
_symmetry_cell_setting 'orthorhombic'
loop_
_space_group_symop_operation_xyz
x,y,z
-x,-y,z
-x,1/2+y,z
x,1/2-y,z
x,1/2+y,1/2+z
-x,1/2-y,1/2+z
-x,y,1/2+z
x,-y,1/2+z
loop_
_atom_site_type_symbol
_atom_site_label
_atom_site_fract_x
_atom_site_fract_y
_atom_site_fract_z
Si Si1 0.085591 0.922341 0.649200
Si Si2 0.909227 0.315602 0.229894
Si Si3 0.400716 0.867511 0.168163
Si Si4 0.043428 0.815167 0.452176
Si Si5 0.663410 0.630915 0.033747
Si Si6 0.579313 0.437704 0.351600
Si Si7 0.825608 0.585444 0.522794
Si Si8 0.158305 0.014735 0.346593
O O1 0.242915 0.919585 0.588801
O O2 0.122172 0.956309 0.745291
O O3 0.020043 0.857570 0.669987
O O4 0.950950 0.951974 0.584365
O O5 0.954838 0.250000 0.204929
O O6 0.727326 0.322972 0.206099
O O7 0.936657 0.330498 0.340716
O O8 0.543220 0.839213 0.108884
O O9 0.477004 0.902597 0.257680
O O10 0.321578 0.909622 0.090763
O O11 0.989349 0.750000 0.468769
O O12 0.212399 0.822837 0.498350
O O13 0.908561 0.854200 0.496024
O O14 0.567619 0.602042 0.946127
O O15 0.500000 0.500000 0.360869
O O16 0.756929 0.454010 0.331606
O O17 0.759445 0.556657 0.424168
O O18 0.000000 0.000000 0.399192
#
# Coordination Sequence:
#
# PCOD8181740 Si02
#       8
#     8   8   8   8   8   8   8   8
#     4  10  22  37  61  91 123 160 207 253 308 366
#     4  10  20  41  69  93 125 163 201 253 319 375
#     4  11  24  42  63  92 126 164 211 254 307 374
#     4  10  20  41  69  93 125 163 201 253 319 375
#     4  11  24  42  63  92 126 164 211 254 307 374
#     4  12  26  42  62  85 128 173 208 254 314 361
#     4  10  22  37  61  91 123 160 207 253 308 366
#     4  12  22  36  58  87 122 157 210 262 302 351
#
# _framework density 22.841376
#
# number of rings (size 3 to 8) (size 9 to 14) (size 15 to 20)
#    0.000    1.250    2.500    4.500    0.000   11.000 
#    0.000    0.000    0.000    3.000    0.000    0.000 
#    0.000    0.000    0.000    0.000    0.000    0.000 
#
# Total GULP energy -396571.718921 kJ/mol
# GULP energy per Si atom -12392.866216 kJ/mol
# Density = 2.278939 g / cm^3
# Si number density = 22.841376 Si / 1000 Ang^3
#
#
#
# Elastic Constant Matrix: (Units=GPa)
#
#
# Indices 1 2 3 4 5 6 
#
# 1 50.4319 -13.3248 8.5776 0.0000 0.0000 0.0000
# 2 -13.3248 50.2300 20.8950 0.0000 0.0000 0.0000
# 3 8.5776 20.8950 137.6035 0.0000 0.0000 0.0000
# 4 0.0000 0.0000 0.0000 12.6051 0.0000 0.0000
# 5 0.0000 0.0000 0.0000 0.0000 39.9177 0.0000
# 6 0.0000 0.0000 0.0000 0.0000 0.0000 28.4956
#
#
#
# Elastic Compliance Matrix: (Units=1/GPa)
#
#
# Indices 1 2 3 4 5 6 
#
# 1 0.022050 0.006854 -0.002415 0.000000 0.000000 0.000000
# 2 0.006854 0.023381 -0.003978 0.000000 0.000000 0.000000
# 3 -0.002415 -0.003978 0.008022 0.000000 0.000000 0.000000
# 4 0.000000 0.000000 0.000000 0.079333 0.000000 0.000000
# 5 0.000000 0.000000 0.000000 0.000000 0.025052 0.000000
# 6 0.000000 0.000000 0.000000 0.000000 0.000000 0.035093
#
#
# Mechanical properties :
#
#
# Convention : Reuss Voigt Hill
#
# Bulk Modulus (GPa) = 18.39048 30.06234 24.22641
# Shear Modulus (GPa) = 23.79429 31.01151 27.40290
#
# Velocity S-wave (km/s) = 3.23107 3.68868 3.46743
# Velocity P-wave (km/s) = 4.68920 5.59748 5.16335
#
# Compressibility (1/GPa) = 0.05437596
#
# Stress axis : x y z
#
# Youngs Moduli (GPa) = 45.35049 42.76913 124.65977
#
# Poissons Ratio (x) = -0.29315 0.30109
# Poissons Ratio (y) = -0.31084 0.49586
# Poissons Ratio (z) = 0.10954 0.17012
#
# Static dielectric constant tensor:
#      x y z
#    x 4.360220 0.000000 0.000000 
#    y 0.000000 4.194180 0.000000 
#    z 0.000000 0.000000 4.472650 
# 
# 
# High freq. dielectric constant tensor:
#      x y z
#    x 1.899250 0.000000 0.000000 
#    y 0.000000 1.870520 0.000000 
#    z 0.000000 0.000000 1.936370 
# 
# From -- ./inp_files/8788.got.cif
#   From: 2010.03.12/outbox.cif.g09.slc.cpg/sg39_5_cif.got.tgz:8788.got - 2010.04.14 02:53:20.
