data_PCOD8181084
_publ_section_title
;
Structure prediction by ZEFSAII (Michael W. Deem and Ramdas Pophale) SiO2 
 PCOD8181084
Probable space group: A B M 2
;
_chemical_formula_sum "Si O2"
_cell_formula_units_Z 64
_cell_length_a 23.964367
_cell_length_b 9.282746
_cell_length_c 15.054186
_cell_angle_alpha 90.000000
_cell_angle_beta 90.000000
_cell_angle_gamma 90.000000
_cell_volume 3348.880932
_symmetry_space_group_name_H-M "A B M 2"
_symmetry_group_IT_number 39
_symmetry_cell_setting 'orthorhombic'
loop_
_space_group_symop_operation_xyz
x,y,z
-x,-y,z
-x,1/2+y,z
x,1/2-y,z
x,1/2+y,1/2+z
-x,1/2-y,1/2+z
-x,y,1/2+z
x,-y,1/2+z
loop_
_atom_site_type_symbol
_atom_site_label
_atom_site_fract_x
_atom_site_fract_y
_atom_site_fract_z
Si Si1 0.838591 0.085543 0.449660
Si Si2 0.946458 0.415220 0.910355
Si Si3 0.760202 0.918370 0.790605
Si Si4 0.946863 0.913886 0.200377
Si Si5 0.367988 0.082117 0.799265
Si Si6 0.556899 0.579711 0.163285
Si Si7 0.173649 0.585582 0.647741
Si Si8 0.554579 0.584248 0.960368
O O1 0.857337 0.250000 0.430177
O O2 0.795345 0.029820 0.375884
O O3 0.808433 0.075039 0.545004
O O4 0.892073 0.984453 0.453168
O O5 0.950951 0.250000 0.940013
O O6 0.942441 0.431953 0.805280
O O7 0.000000 0.500000 0.947516
O O8 0.767348 0.750000 0.775023
O O9 0.696437 0.960331 0.807624
O O10 0.781670 0.995990 0.702650
O O11 0.955778 0.750000 0.170966
O O12 0.889305 0.975791 0.159844
O O13 0.000000 0.000000 0.162231
O O14 0.376349 0.250000 0.774848
O O15 0.395029 0.045034 0.894572
O O16 0.393666 0.983754 0.722373
O O17 0.500000 0.500000 0.190976
O O18 0.550354 0.750000 0.180213
O O19 0.572045 0.544531 0.060917
O O20 0.174785 0.750000 0.682222
O O21 0.500000 0.500000 0.928815
O O22 0.538167 0.750000 0.954008
#
# Coordination Sequence:
#
# PCOD8181084 Si02
#       8
#     8   8   8   8   8   8   8   8
#     4  10  21  37  58  81 108 144 184 227 279 334
#     4  10  19  33  55  81 111 143 177 221 275 333
#     4  10  22  39  57  79 109 146 187 231 277 321
#     4   9  18  32  52  78 106 138 172 215 268 324
#     4  10  21  37  56  80 112 148 187 230 272 322
#     4  10  20  35  57  86 116 149 184 223 273 325
#     4  10  21  38  58  81 109 142 182 227 275 329
#     4   9  19  35  56  82 115 148 180 220 268 322
#
# _framework density 19.110862000000001
#
# number of rings (size 3 to 8) (size 9 to 14) (size 15 to 20)
#    0.000    2.250    1.250    1.125    0.000    5.500 
#    0.000    3.750    0.000    0.000    0.000    0.000 
#    0.000    0.000    0.000    0.000    0.000    0.000 
#
# Total GULP energy -396893.250276 kJ/mol
# GULP energy per Si atom -12402.914071 kJ/mol
# Density = 1.906737 g / cm^3
# Si number density = 19.110862 Si / 1000 Ang^3
#
#
#
# Elastic Constant Matrix: (Units=GPa)
#
#
# Indices 1 2 3 4 5 6 
#
# 1 136.8922 59.1234 60.9078 0.0000 0.0000 0.0000
# 2 59.1234 76.8760 46.1719 0.0000 0.0000 0.0000
# 3 60.9078 46.1719 87.1526 0.0000 0.0000 0.0000
# 4 0.0000 0.0000 0.0000 25.3406 0.0000 0.0000
# 5 0.0000 0.0000 0.0000 0.0000 11.5621 0.0000
# 6 0.0000 0.0000 0.0000 0.0000 0.0000 33.1842
#
#
#
# Elastic Compliance Matrix: (Units=1/GPa)
#
#
# Indices 1 2 3 4 5 6 
#
# 1 0.012412 -0.006360 -0.005305 0.000000 0.000000 0.000000
# 2 -0.006360 0.022337 -0.007389 0.000000 0.000000 0.000000
# 3 -0.005305 -0.007389 0.019096 0.000000 0.000000 0.000000
# 4 0.000000 0.000000 0.000000 0.039462 0.000000 0.000000
# 5 0.000000 0.000000 0.000000 0.000000 0.086489 0.000000
# 6 0.000000 0.000000 0.000000 0.000000 0.000000 0.030135
#
#
# Mechanical properties :
#
#
# Convention : Reuss Voigt Hill
#
# Bulk Modulus (GPa) = 63.54256 70.36966 66.95611
# Shear Modulus (GPa) = 19.74053 22.99858 21.36956
#
# Velocity S-wave (km/s) = 3.21744 3.47281 3.34756
# Velocity P-wave (km/s) = 6.86470 7.27889 7.07483
#
# Compressibility (1/GPa) = 0.01573748
#
# Stress axis : x y z
#
# Youngs Moduli (GPa) = 80.56613 44.76898 52.36578
#
# Poissons Ratio (x) = 0.28471 0.27781
# Poissons Ratio (y) = 0.51236 0.38694
# Poissons Ratio (z) = 0.42742 0.33081
#
# Static dielectric constant tensor:
#      x y z
#    x 3.461530 0.000000 0.000000 
#    y 0.000000 3.488210 0.000000 
#    z 0.000000 0.000000 3.515440 
# 
# 
# High freq. dielectric constant tensor:
#      x y z
#    x 1.736960 0.000000 0.000000 
#    y 0.000000 1.739140 0.000000 
#    z 0.000000 0.000000 1.747290 
# 
# From -- ./inp_files/10563.got.cif
#   From: 2010.03.12/outbox.cif.g09.slc.cpg/sg39_6_cif.got.tgz:10563.got - 2010.04.14 02:53:20.
