data_PCOD8181374
_publ_section_title
;
Structure prediction by ZEFSAII (Michael W. Deem and Ramdas Pophale) SiO2 
 PCOD8181374
Probable space group: A B M 2
;
_chemical_formula_sum "Si O2"
_cell_formula_units_Z 64
_cell_length_a 13.809091
_cell_length_b 8.992917
_cell_length_c 28.023323
_cell_angle_alpha 90.000000
_cell_angle_beta 90.000000
_cell_angle_gamma 90.000000
_cell_volume 3480.048601
_symmetry_space_group_name_H-M "A B M 2"
_symmetry_group_IT_number 39
_symmetry_cell_setting 'orthorhombic'
loop_
_space_group_symop_operation_xyz
x,y,z
-x,-y,z
-x,1/2+y,z
x,1/2-y,z
x,1/2+y,1/2+z
-x,1/2-y,1/2+z
-x,y,1/2+z
x,-y,1/2+z
loop_
_atom_site_type_symbol
_atom_site_label
_atom_site_fract_x
_atom_site_fract_y
_atom_site_fract_z
Si Si1 0.098530 0.423208 0.016890
Si Si2 0.739415 0.077250 0.687433
Si Si3 0.216761 0.923375 0.939356
Si Si4 0.599558 0.075926 0.000991
Si Si5 0.282576 0.922833 0.578929
Si Si6 0.101514 0.073053 0.749516
Si Si7 0.399964 0.079929 0.270420
Si Si8 0.217591 0.425586 0.329499
O O1 0.079707 0.250000 0.010866
O O2 0.177622 0.459395 0.057182
O O3 0.000000 0.500000 0.033726
O O4 0.132883 0.486748 0.966067
O O5 0.771686 0.250000 0.690289
O O6 0.717894 0.026873 0.633718
O O7 0.641252 0.051217 0.717357
O O8 0.824122 0.975759 0.708434
O O9 0.195297 0.750000 0.946192
O O10 0.213339 0.971371 0.884489
O O11 0.321742 0.964604 0.960608
O O12 0.582368 0.250000 0.005522
O O13 0.500000 0.000000 0.985201
O O14 0.634621 0.015406 0.052175
O O15 0.308079 0.750000 0.573117
O O16 0.092844 0.250000 0.750808
O O17 0.134258 0.013352 0.801358
O O18 0.000000 0.000000 0.735998
O O19 0.422613 0.250000 0.279400
O O20 0.321561 0.023909 0.309041
O O21 0.500000 0.000000 0.278790
O O22 0.201847 0.250000 0.321253
#
# Coordination Sequence:
#
# PCOD8181374 Si02
#       8
#     8   8   8   8   8   8   8   8
#     4  10  20  34  53  77 105 135 169 210 257 309
#     4   9  19  37  56  76 105 138 173 216 262 305
#     4   9  19  36  56  76 101 135 175 217 260 307
#     4  10  20  34  53  78 108 141 177 217 261 310
#     4   9  19  36  56  77 103 137 176 218 262 306
#     4  11  22  36  55  79 106 137 173 213 259 311
#     4   9  18  32  51  74 102 133 165 206 253 301
#     4   9  19  37  56  75 102 136 174 217 262 305
#
# _framework density 18.390547999999999
#
# number of rings (size 3 to 8) (size 9 to 14) (size 15 to 20)
#    0.000    2.500    0.000    2.625    0.000    6.000 
#    0.000    2.500    0.000    0.000    0.000    0.000 
#    0.000    0.000    0.000    0.000    0.000    0.000 
#
# Total GULP energy -396882.773441 kJ/mol
# GULP energy per Si atom -12402.586670 kJ/mol
# Density = 1.834869 g / cm^3
# Si number density = 18.390548 Si / 1000 Ang^3
#
#
#
# Elastic Constant Matrix: (Units=GPa)
#
#
# Indices 1 2 3 4 5 6 
#
# 1 51.7623 18.4550 -25.1161 0.0000 0.0000 0.0000
# 2 18.4550 62.6658 5.5429 0.0000 0.0000 0.0000
# 3 -25.1161 5.5429 64.6575 0.0000 0.0000 0.0000
# 4 0.0000 0.0000 0.0000 27.3347 0.0000 0.0000
# 5 0.0000 0.0000 0.0000 0.0000 13.0286 0.0000
# 6 0.0000 0.0000 0.0000 0.0000 0.0000 38.6745
#
#
#
# Elastic Compliance Matrix: (Units=1/GPa)
#
#
# Indices 1 2 3 4 5 6 
#
# 1 0.028428 -0.009420 0.011850 0.000000 0.000000 0.000000
# 2 -0.009420 0.019201 -0.005305 0.000000 0.000000 0.000000
# 3 0.011850 -0.005305 0.020524 0.000000 0.000000 0.000000
# 4 0.000000 0.000000 0.000000 0.036583 0.000000 0.000000
# 5 0.000000 0.000000 0.000000 0.000000 0.076754 0.000000
# 6 0.000000 0.000000 0.000000 0.000000 0.000000 0.025857
#
#
# Mechanical properties :
#
#
# Convention : Reuss Voigt Hill
#
# Bulk Modulus (GPa) = 16.02496 19.64991 17.83743
# Shear Modulus (GPa) = 21.37682 27.82117 24.59899
#
# Velocity S-wave (km/s) = 3.41307 3.89369 3.66127
# Velocity P-wave (km/s) = 4.92592 5.56079 5.25295
#
# Compressibility (1/GPa) = 0.06240266
#
# Stress axis : x y z
#
# Youngs Moduli (GPa) = 35.17700 52.08029 48.72318
#
# Poissons Ratio (x) = 0.49060 -0.57738
# Poissons Ratio (y) = 0.33137 0.25849
# Poissons Ratio (z) = -0.41686 0.27630
#
# Static dielectric constant tensor:
#      x y z
#    x 3.386300 0.000000 0.000000 
#    y 0.000000 3.358950 0.000000 
#    z 0.000000 0.000000 3.446660 
# 
# 
# High freq. dielectric constant tensor:
#      x y z
#    x 1.713980 0.000000 0.000000 
#    y 0.000000 1.712180 0.000000 
#    z 0.000000 0.000000 1.712910 
# 
# From -- ./inp_files/17861.got.cif
#   From: 2010.03.12/outbox.cif.g09.slc.cpg/sg39_9_cif.got.tgz:17861.got - 2010.04.14 02:53:20.
