data_PCOD8181616
_publ_section_title
;
Structure prediction by ZEFSAII (Michael W. Deem and Ramdas Pophale) SiO2 
 PCOD8181616
Probable space group: A B M 2
;
_chemical_formula_sum "Si O2"
_cell_formula_units_Z 64
_cell_length_a 19.280547
_cell_length_b 8.512890
_cell_length_c 20.224210
_cell_angle_alpha 90.000000
_cell_angle_beta 90.000000
_cell_angle_gamma 90.000000
_cell_volume 3319.463814
_symmetry_space_group_name_H-M "A B M 2"
_symmetry_group_IT_number 39
_symmetry_cell_setting 'orthorhombic'
loop_
_space_group_symop_operation_xyz
x,y,z
-x,-y,z
-x,1/2+y,z
x,1/2-y,z
x,1/2+y,1/2+z
-x,1/2-y,1/2+z
-x,y,1/2+z
x,-y,1/2+z
loop_
_atom_site_type_symbol
_atom_site_label
_atom_site_fract_x
_atom_site_fract_y
_atom_site_fract_z
Si Si1 0.281697 0.432716 0.510590
Si Si2 0.716172 0.933593 0.264150
Si Si3 0.570532 0.433997 0.815334
Si Si4 0.791255 0.431975 0.386605
Si Si5 0.571547 0.564525 0.464113
Si Si6 0.925528 0.435652 0.835472
Si Si7 0.204734 0.568637 0.633257
Si Si8 0.072779 0.934269 0.191630
O O1 0.275941 0.250000 0.528619
O O2 0.248410 0.461229 0.439198
O O3 0.362246 0.488347 0.507714
O O4 0.241286 0.533744 0.564263
O O5 0.727230 0.750000 0.281185
O O6 0.635470 0.982382 0.269783
O O7 0.741091 0.975804 0.190769
O O8 0.759900 0.037499 0.314543
O O9 0.500000 0.500000 0.782846
O O10 0.563429 0.250000 0.819728
O O11 0.580436 0.503447 0.889538
O O12 0.784722 0.250000 0.405828
O O13 0.871505 0.482753 0.384955
O O14 0.500000 0.500000 0.495909
O O15 0.568372 0.750000 0.461872
O O16 0.921856 0.250000 0.843767
O O17 0.908270 0.479048 0.759814
O O18 0.000000 0.500000 0.856644
O O19 0.183789 0.750000 0.636266
O O20 0.134004 0.468640 0.639593
O O21 0.065491 0.750000 0.205148
O O22 0.000000 0.000000 0.163262
#
# Coordination Sequence:
#
# PCOD8181616 Si02
#       8
#     8   8   8   8   8   8   8   8
#     4  11  23  41  60  83 119 159 197 244 298 352
#     4  10  20  37  59  82 116 153 190 238 295 345
#     4   9  17  32  53  82 113 148 189 238 293 347
#     4  12  23  36  59  89 117 149 195 241 290 350
#     4   9  18  33  56  82 111 148 192 239 292 350
#     4  11  21  36  58  87 121 155 193 242 295 344
#     4  11  23  39  60  87 119 158 199 243 295 350
#     4  11  21  36  59  88 118 154 197 241 290 346
#
# _framework density 19.280221999999998
#
# number of rings (size 3 to 8) (size 9 to 14) (size 15 to 20)
#    0.000    1.500    2.500    4.875    0.000    2.000 
#    0.000    1.250    0.000    3.000    0.000    0.000 
#    0.000    0.000    0.000    0.000    0.000    0.000 
#
# Total GULP energy -396892.628082 kJ/mol
# GULP energy per Si atom -12402.894628 kJ/mol
# Density = 1.923634 g / cm^3
# Si number density = 19.280222 Si / 1000 Ang^3
#
#
#
# Elastic Constant Matrix: (Units=GPa)
#
#
# Indices 1 2 3 4 5 6 
#
# 1 153.0945 27.3344 32.2903 0.0000 0.0000 0.0000
# 2 27.3344 60.5494 9.2630 0.0000 0.0000 0.0000
# 3 32.2903 9.2630 50.9593 0.0000 0.0000 0.0000
# 4 0.0000 0.0000 0.0000 24.3125 0.0000 0.0000
# 5 0.0000 0.0000 0.0000 0.0000 24.9116 0.0000
# 6 0.0000 0.0000 0.0000 0.0000 0.0000 35.0203
#
#
#
# Elastic Compliance Matrix: (Units=1/GPa)
#
#
# Indices 1 2 3 4 5 6 
#
# 1 0.008012 -0.002922 -0.004546 0.000000 0.000000 0.000000
# 2 -0.002922 0.018053 -0.001430 0.000000 0.000000 0.000000
# 3 -0.004546 -0.001430 0.022764 0.000000 0.000000 0.000000
# 4 0.000000 0.000000 0.000000 0.041131 0.000000 0.000000
# 5 0.000000 0.000000 0.000000 0.000000 0.040142 0.000000
# 6 0.000000 0.000000 0.000000 0.000000 0.000000 0.028555
#
#
# Mechanical properties :
#
#
# Convention : Reuss Voigt Hill
#
# Bulk Modulus (GPa) = 32.22290 44.70872 38.46581
# Shear Modulus (GPa) = 26.76689 29.89658 28.33174
#
# Velocity S-wave (km/s) = 3.73004 3.94208 3.83753
# Velocity P-wave (km/s) = 5.94139 6.63018 6.29521
#
# Compressibility (1/GPa) = 0.03103383
#
# Stress axis : x y z
#
# Youngs Moduli (GPa) = 124.80682 55.39187 43.92891
#
# Poissons Ratio (x) = 0.16184 0.19970
# Poissons Ratio (y) = 0.36464 0.06283
# Poissons Ratio (z) = 0.56737 0.07923
#
# Static dielectric constant tensor:
#      x y z
#    x 3.967290 0.000000 0.000000 
#    y 0.000000 3.425510 0.000000 
#    z 0.000000 0.000000 3.187520 
# 
# 
# High freq. dielectric constant tensor:
#      x y z
#    x 1.771030 0.000000 0.000000 
#    y 0.000000 1.753390 0.000000 
#    z 0.000000 0.000000 1.710820 
# 
# From -- ./inp_files/13178.got.cif
#   From: 2010.03.12/outbox.cif.g09.slc.cpg/sg39_7_cif.got.tgz:13178.got - 2010.04.14 02:53:20.
