data_PCOD8181534
_publ_section_title
;
Structure prediction by ZEFSAII (Michael W. Deem and Ramdas Pophale) SiO2 
 PCOD8181534
Probable space group: A B M 2
;
_chemical_formula_sum "Si O2"
_cell_formula_units_Z 60
_cell_length_a 18.731089
_cell_length_b 18.763540
_cell_length_c 9.112060
_cell_angle_alpha 90.000000
_cell_angle_beta 90.000000
_cell_angle_gamma 90.000000
_cell_volume 3202.538619
_symmetry_space_group_name_H-M "A B M 2"
_symmetry_group_IT_number 39
_symmetry_cell_setting 'orthorhombic'
loop_
_space_group_symop_operation_xyz
x,y,z
-x,-y,z
-x,1/2+y,z
x,1/2-y,z
x,1/2+y,1/2+z
-x,1/2-y,1/2+z
-x,y,1/2+z
x,-y,1/2+z
loop_
_atom_site_type_symbol
_atom_site_label
_atom_site_fract_x
_atom_site_fract_y
_atom_site_fract_z
Si Si1 0.233839 0.456719 0.867940
Si Si2 0.276580 0.331825 0.682961
Si Si3 0.000000 0.000000 0.673375
Si Si4 0.569770 0.833584 0.783826
Si Si5 0.429416 0.664987 0.622133
Si Si6 0.903454 0.550925 0.419557
Si Si7 0.798820 0.169880 0.884464
Si Si8 0.290420 0.917898 0.681375
O O1 0.223997 0.384266 0.773244
O O2 0.155812 0.488820 0.901040
O O3 0.284503 0.512148 0.782101
O O4 0.274990 0.438491 0.015520
O O5 0.266178 0.250000 0.738280
O O6 0.356938 0.360246 0.709851
O O7 0.261319 0.337466 0.510364
O O8 0.044218 0.947445 0.779425
O O9 0.945587 0.957157 0.571211
O O10 0.566342 0.750000 0.767634
O O11 0.501719 0.863878 0.696936
O O12 0.566594 0.856519 0.952393
O O13 0.416532 0.750000 0.643976
O O14 0.366568 0.620275 0.698070
O O15 0.868955 0.628111 0.433287
O O16 0.822863 0.250000 0.858032
O O17 0.768696 0.138934 0.733065
#
# Coordination Sequence:
#
# PCOD8181534 Si02
#       8
#     8   8   4   8   8   8   8   8
#     4  11  21  38  60  84 115 148 189 238 292 334
#     4  10  20  36  59  85 114 149 193 243 291 341
#     4  10  20  36  62  84 112 146 192 222 268 342
#     4   9  19  34  55  81 111 147 190 238 286 342
#     4  10  20  36  57  82 110 149 197 240 289 346
#     4  10  20  37  59  87 112 150 186 228 274 338
#     4  10  21  36  58  88 119 150 190 236 286 334
#     4  11  22  36  58  81 113 154 193 247 287 340
#
# _framework density 18.735137999999999
#
# number of rings (size 3 to 8) (size 9 to 14) (size 15 to 20)
#    0.000    1.867    1.333    4.400    1.867    0.533 
#    0.000    1.333    0.000    3.200    0.000    0.000 
#    0.000    0.000    0.000    0.000    0.000    0.000 
#
# Total GULP energy -371992.303618 kJ/mol
# GULP energy per Si atom -12399.743454 kJ/mol
# Density = 1.869250 g / cm^3
# Si number density = 18.735138 Si / 1000 Ang^3
#
#
#
# Elastic Constant Matrix: (Units=GPa)
#
#
# Indices 1 2 3 4 5 6 
#
# 1 91.1480 44.5357 28.9346 0.0000 0.0000 0.0000
# 2 44.5357 108.9571 41.7110 0.0000 0.0000 0.0000
# 3 28.9346 41.7110 95.3670 0.0000 0.0000 0.0000
# 4 0.0000 0.0000 0.0000 23.4327 0.0000 0.0000
# 5 0.0000 0.0000 0.0000 0.0000 28.1630 0.0000
# 6 0.0000 0.0000 0.0000 0.0000 0.0000 24.7943
#
#
#
# Elastic Compliance Matrix: (Units=1/GPa)
#
#
# Indices 1 2 3 4 5 6 
#
# 1 0.014052 -0.004938 -0.002103 0.000000 0.000000 0.000000
# 2 -0.004938 0.012759 -0.004082 0.000000 0.000000 0.000000
# 3 -0.002103 -0.004082 0.012909 0.000000 0.000000 0.000000
# 4 0.000000 0.000000 0.000000 0.042675 0.000000 0.000000
# 5 0.000000 0.000000 0.000000 0.000000 0.035508 0.000000
# 6 0.000000 0.000000 0.000000 0.000000 0.000000 0.040332
#
#
# Mechanical properties :
#
#
# Convention : Reuss Voigt Hill
#
# Bulk Modulus (GPa) = 57.23311 58.42608 57.82959
# Shear Modulus (GPa) = 26.83735 27.29740 27.06738
#
# Velocity S-wave (km/s) = 3.78889 3.82123 3.80510
# Velocity P-wave (km/s) = 7.05378 7.12194 7.08794
#
# Compressibility (1/GPa) = 0.01747240
#
# Stress axis : x y z
#
# Youngs Moduli (GPa) = 71.16511 78.37471 77.46262
#
# Poissons Ratio (x) = 0.38704 0.16294
# Poissons Ratio (y) = 0.35144 0.31622
# Poissons Ratio (z) = 0.14969 0.31994
#
# Static dielectric constant tensor:
#      x y z
#    x 3.554740 0.000000 0.000000 
#    y 0.000000 3.410640 0.000000 
#    z 0.000000 0.000000 3.564390 
# 
# 
# High freq. dielectric constant tensor:
#      x y z
#    x 1.724310 0.000000 0.000000 
#    y 0.000000 1.712740 0.000000 
#    z 0.000000 0.000000 1.740900 
# 
# From -- ./inp_files/3814.got.cif
#   From: 2010.03.12/outbox.cif.g09.slc.cpg/sg39_2_cif.got.tgz:3814.got - 2010.04.14 02:53:20.
