data_PCOD8181774
_publ_section_title
;
Structure prediction by ZEFSAII (Michael W. Deem and Ramdas Pophale) SiO2 
 PCOD8181774
Probable space group: A B M 2
;
_chemical_formula_sum "Si O2"
_cell_formula_units_Z 56
_cell_length_a 32.572413
_cell_length_b 17.248720
_cell_length_c 5.077275
_cell_angle_alpha 90.000000
_cell_angle_beta 90.000000
_cell_angle_gamma 90.000000
_cell_volume 2852.577759
_symmetry_space_group_name_H-M "A B M 2"
_symmetry_group_IT_number 39
_symmetry_cell_setting 'orthorhombic'
loop_
_space_group_symop_operation_xyz
x,y,z
-x,-y,z
-x,1/2+y,z
x,1/2-y,z
x,1/2+y,1/2+z
-x,1/2-y,1/2+z
-x,y,1/2+z
x,-y,1/2+z
loop_
_atom_site_type_symbol
_atom_site_label
_atom_site_fract_x
_atom_site_fract_y
_atom_site_fract_z
Si Si1 0.766479 0.339516 0.242170
Si Si2 0.525586 0.841105 0.637683
Si Si3 0.599954 0.449809 0.216853
Si Si4 0.307522 0.049812 0.660950
Si Si5 0.973169 0.338174 0.661516
Si Si6 0.181315 0.840283 0.749947
Si Si7 0.103777 0.052418 0.237258
O O1 0.757144 0.250000 0.195004
O O2 0.723130 0.380824 0.218082
O O3 0.785210 0.356800 0.526350
O O4 0.799011 0.368323 0.024259
O O5 0.533000 0.750000 0.648596
O O6 0.504841 0.868579 0.367785
O O7 0.569975 0.878754 0.664466
O O8 0.592054 0.481480 0.509330
O O9 0.646279 0.417712 0.190186
O O10 0.299908 0.019691 0.366178
O O11 0.956597 0.250000 0.688934
O O12 0.937177 0.398201 0.708512
O O13 0.990888 0.353200 0.371649
O O14 0.168486 0.750000 0.756578
O O15 0.141522 0.890388 0.690213
O O16 0.105210 0.016826 0.527943
#
# Coordination Sequence:
#
# PCOD8181774 Si02
#       7
#     8   8   8   8   8   8   8
#     4  10  21  37  59  83 107 143 187 226 268 320
#     4  10  21  36  54  78 107 139 177 223 273 319
#     4  10  21  36  54  79 108 141 181 219 265 324
#     4  10  21  36  55  80 111 143 176 222 273 322
#     4  10  22  41  63  84 111 151 190 223 270 329
#     4  10  22  40  58  80 113 148 184 225 268 324
#     4  12  25  38  58  88 117 146 183 229 278 322
#
# _framework density 19.631367999999998
#
# number of rings (size 3 to 8) (size 9 to 14) (size 15 to 20)
#    0.000    1.714    0.000    3.857    0.000    7.429 
#    0.000    5.714    0.000   10.286    0.000    0.000 
#    0.000    0.000    0.000    0.000    0.000    0.000 
#
# Total GULP energy -347354.246712 kJ/mol
# GULP energy per Si atom -12405.508811 kJ/mol
# Density = 1.958669 g / cm^3
# Si number density = 19.631368 Si / 1000 Ang^3
#
#
#
# Elastic Constant Matrix: (Units=GPa)
#
#
# Indices 1 2 3 4 5 6 
#
# 1 105.3482 59.8657 5.4336 0.0000 0.0000 0.0000
# 2 59.8657 63.9842 14.0473 0.0000 0.0000 0.0000
# 3 5.4336 14.0473 74.0738 0.0000 0.0000 0.0000
# 4 0.0000 0.0000 0.0000 22.4912 0.0000 0.0000
# 5 0.0000 0.0000 0.0000 0.0000 24.0983 0.0000
# 6 0.0000 0.0000 0.0000 0.0000 0.0000 29.3332
#
#
#
# Elastic Compliance Matrix: (Units=1/GPa)
#
#
# Indices 1 2 3 4 5 6 
#
# 1 0.020619 -0.019784 0.002239 0.000000 0.000000 0.000000
# 2 -0.019784 0.035290 -0.005241 0.000000 0.000000 0.000000
# 3 0.002239 -0.005241 0.014330 0.000000 0.000000 0.000000
# 4 0.000000 0.000000 0.000000 0.044462 0.000000 0.000000
# 5 0.000000 0.000000 0.000000 0.000000 0.041497 0.000000
# 6 0.000000 0.000000 0.000000 0.000000 0.000000 0.034091
#
#
# Mechanical properties :
#
#
# Convention : Reuss Voigt Hill
#
# Bulk Modulus (GPa) = 40.53889 44.67771 42.60830
# Shear Modulus (GPa) = 20.48497 26.12185 23.30341
#
# Velocity S-wave (km/s) = 3.23380 3.65172 3.44910
# Velocity P-wave (km/s) = 5.88542 6.37086 6.13294
#
# Compressibility (1/GPa) = 0.02466767
#
# Stress axis : x y z
#
# Youngs Moduli (GPa) = 48.49864 28.33694 69.78503
#
# Poissons Ratio (x) = 0.56061 -0.15627
# Poissons Ratio (y) = 0.95947 0.36575
# Poissons Ratio (z) = -0.10860 0.14852
#
# Static dielectric constant tensor:
#      x y z
#    x 3.540300 0.000000 0.000000 
#    y 0.000000 3.444430 0.000000 
#    z 0.000000 0.000000 3.929490 
# 
# 
# High freq. dielectric constant tensor:
#      x y z
#    x 1.771120 0.000000 0.000000 
#    y 0.000000 1.756470 0.000000 
#    z 0.000000 0.000000 1.786800 
# 
# From -- ./inp_files/1487.got.cif
#   From: 2010.03.12/outbox.cif.g09.slc.cpg/sg39_1_cif.got.tgz:1487.got - 2010.04.14 02:53:20.
