data_PCOD8181301
_publ_section_title
;
Structure prediction by ZEFSAII (Michael W. Deem and Ramdas Pophale) SiO2 
 PCOD8181301
Probable space group: A B M 2
;
_chemical_formula_sum "Si O2"
_cell_formula_units_Z 64
_cell_length_a 20.662839
_cell_length_b 9.281808
_cell_length_c 19.354080
_cell_angle_alpha 90.000000
_cell_angle_beta 90.000000
_cell_angle_gamma 90.000000
_cell_volume 3711.890056
_symmetry_space_group_name_H-M "A B M 2"
_symmetry_group_IT_number 39
_symmetry_cell_setting 'orthorhombic'
loop_
_space_group_symop_operation_xyz
x,y,z
-x,-y,z
-x,1/2+y,z
x,1/2-y,z
x,1/2+y,1/2+z
-x,1/2-y,1/2+z
-x,y,1/2+z
x,-y,1/2+z
loop_
_atom_site_type_symbol
_atom_site_label
_atom_site_fract_x
_atom_site_fract_y
_atom_site_fract_z
Si Si1 0.828043 0.420058 0.398460
Si Si2 0.561450 0.411958 0.736303
Si Si3 0.682161 0.909055 0.900425
Si Si4 0.561791 0.588101 0.401192
Si Si5 0.063508 0.082667 0.644950
Si Si6 0.823117 0.421087 0.242075
Si Si7 0.681945 0.910712 0.736345
Si Si8 0.064982 0.918831 0.984471
O O1 0.842241 0.250000 0.407374
O O2 0.754588 0.457242 0.421594
O O3 0.839762 0.471333 0.319654
O O4 0.874540 0.514531 0.445321
O O5 0.500000 0.500000 0.708217
O O6 0.557546 0.250000 0.707522
O O7 0.562085 0.412234 0.818748
O O8 0.626427 0.485531 0.706471
O O9 0.667602 0.750000 0.930462
O O10 0.677390 0.901675 0.818405
O O11 0.628231 0.018014 0.930056
O O12 0.500000 0.500000 0.429116
O O13 0.557388 0.750000 0.430006
O O14 0.052492 0.250000 0.660471
O O15 0.123213 0.020146 0.689250
O O16 0.077992 0.053702 0.565052
O O17 0.000000 0.000000 0.670074
O O18 0.819045 0.250000 0.241794
O O19 0.752446 0.476861 0.217180
O O20 0.672198 0.750000 0.705445
O O21 0.057897 0.750000 0.967503
O O22 0.000000 0.000000 0.960357
#
# Coordination Sequence:
#
# PCOD8181301 Si02
#       8
#     8   8   8   8   8   8   8   8
#     4   9  17  30  48  68  91 118 147 182 223 266
#     4   9  15  21  30  47  73 106 142 176 209 248
#     4   8  14  24  37  54  78 108 139 172 213 257
#     4   9  15  21  31  48  73 107 144 179 212 250
#     4   9  18  33  50  67  88 115 147 181 218 261
#     4   8  15  29  48  67  88 116 148 181 220 265
#     4   8  13  23  38  54  75 105 138 172 212 255
#     4  10  20  33  49  67  89 117 147 181 219 262
#
# _framework density 17.241890999999999
#
# number of rings (size 3 to 8) (size 9 to 14) (size 15 to 20)
#    0.000    3.250    0.000    2.625    0.000    4.500 
#    0.000    4.375    0.000    0.000    0.000    0.000 
#    0.000    1.000    0.000    8.750    0.000   12.375 
#
# Total GULP energy -396644.542107 kJ/mol
# GULP energy per Si atom -12395.141941 kJ/mol
# Density = 1.720265 g / cm^3
# Si number density = 17.241891 Si / 1000 Ang^3
#
#
#
# Elastic Constant Matrix: (Units=GPa)
#
#
# Indices 1 2 3 4 5 6 
#
# 1 181.5584 87.1914 44.7736 0.0000 0.0000 0.0000
# 2 87.1914 110.7094 26.2629 0.0000 0.0000 0.0000
# 3 44.7736 26.2629 28.7221 0.0000 0.0000 0.0000
# 4 0.0000 0.0000 0.0000 9.9783 0.0000 0.0000
# 5 0.0000 0.0000 0.0000 0.0000 0.2735 0.0000
# 6 0.0000 0.0000 0.0000 0.0000 0.0000 35.1088
#
#
#
# Elastic Compliance Matrix: (Units=1/GPa)
#
#
# Indices 1 2 3 4 5 6 
#
# 1 0.011483 -0.006126 -0.012298 0.000000 0.000000 0.000000
# 2 -0.006126 0.014803 -0.003986 0.000000 0.000000 0.000000
# 3 -0.012298 -0.003986 0.057632 0.000000 0.000000 0.000000
# 4 0.000000 0.000000 0.000000 0.100217 0.000000 0.000000
# 5 0.000000 0.000000 0.000000 0.000000 3.656448 0.000000
# 6 0.000000 0.000000 0.000000 0.000000 0.000000 0.028483
#
#
# Mechanical properties :
#
#
# Convention : Reuss Voigt Hill
#
# Bulk Modulus (GPa) = 25.57714 70.82731 48.20222
# Shear Modulus (GPa) = 1.27326 19.92292 10.59809
#
# Velocity S-wave (km/s) = 0.86028 3.40294 2.48195
# Velocity P-wave (km/s) = 3.98162 7.52382 6.01918
#
# Compressibility (1/GPa) = 0.03909741
#
# Stress axis : x y z
#
# Youngs Moduli (GPa) = 87.08812 67.55475 17.35133
#
# Poissons Ratio (x) = 0.41383 0.21339
# Poissons Ratio (y) = 0.53349 0.06916
# Poissons Ratio (z) = 1.07104 0.26927
#
# Static dielectric constant tensor:
#      x y z
#    x 3.586870 0.000000 0.000000 
#    y 0.000000 3.265940 0.000000 
#    z 0.000000 0.000000 2.695280 
# 
# 
# High freq. dielectric constant tensor:
#      x y z
#    x 1.684030 0.000000 0.000000 
#    y 0.000000 1.659260 0.000000 
#    z 0.000000 0.000000 1.598180 
# 
# From -- ./inp_files/13140.got.cif
#   From: 2010.03.12/outbox.cif.g09.slc.cpg/sg39_7_cif.got.tgz:13140.got - 2010.04.14 02:53:20.
