data_PCOD8181698
_publ_section_title
;
Structure prediction by ZEFSAII (Michael W. Deem and Ramdas Pophale) SiO2 
 PCOD8181698
Probable space group: A B M 2
;
_chemical_formula_sum "Si O2"
_cell_formula_units_Z 52
_cell_length_a 14.469218
_cell_length_b 21.541438
_cell_length_c 8.920501
_cell_angle_alpha 90.000000
_cell_angle_beta 90.000000
_cell_angle_gamma 90.000000
_cell_volume 2780.410997
_symmetry_space_group_name_H-M "A B M 2"
_symmetry_group_IT_number 39
_symmetry_cell_setting 'orthorhombic'
loop_
_space_group_symop_operation_xyz
x,y,z
-x,-y,z
-x,1/2+y,z
x,1/2-y,z
x,1/2+y,1/2+z
-x,1/2-y,1/2+z
-x,y,1/2+z
x,-y,1/2+z
loop_
_atom_site_type_symbol
_atom_site_label
_atom_site_fract_x
_atom_site_fract_y
_atom_site_fract_z
Si Si1 0.585631 0.116773 0.510960
Si Si2 0.000000 0.000000 0.325057
Si Si3 0.636290 0.250000 0.920729
Si Si4 0.876463 0.450948 0.082488
Si Si5 0.271784 0.874502 0.965712
Si Si6 0.286677 0.038989 0.182912
Si Si7 0.532987 0.750000 0.117096
Si Si8 0.582996 0.425280 0.182724
O O1 0.685962 0.089875 0.557105
O O2 0.580210 0.188934 0.549843
O O3 0.567177 0.111263 0.336127
O O4 0.515909 0.071934 0.602476
O O5 0.925884 0.964766 0.425561
O O6 0.049718 0.948594 0.218046
O O7 0.709521 0.193688 0.901333
O O8 0.555538 0.250000 0.794767
O O9 0.577519 0.250000 0.077317
O O10 0.803614 0.505217 0.120549
O O11 0.823430 0.384789 0.060974
O O12 0.267797 0.927208 0.839139
O O13 0.356477 0.883008 0.075933
O O14 0.370942 0.991553 0.213035
#
# Coordination Sequence:
#
# PCOD8181698 Si02
#       8
#     8   4   4   8   8   8   4   8
#     4  12  23  37  55  78 116 163 210 255 290 346
#     4  10  20  38  66  94 124 146 178 244 314 382
#     4  12  24  42  58  78 120 173 215 261 286 341
#     4  10  21  38  63  96 121 150 186 239 312 379
#     4  11  22  39  60  86 121 160 202 250 294 359
#     4  11  22  38  56  87 122 149 195 244 309 360
#     4  12  24  40  56  76 114 171 231 247 286 335
#     4  11  23  36  55  79 115 158 200 256 306 346
#
# _framework density 18.702271
#
# number of rings (size 3 to 8) (size 9 to 14) (size 15 to 20)
#    0.000    0.923    4.615    4.154    2.154    1.231 
#    0.000    0.000    0.000    0.923    0.000    0.000 
#    0.000    0.000    0.000    0.000    0.000    0.000 
#
# Total GULP energy -322267.814185 kJ/mol
# GULP energy per Si atom -12394.915930 kJ/mol
# Density = 1.865970 g / cm^3
# Si number density = 18.702271 Si / 1000 Ang^3
#
#
#
# Elastic Constant Matrix: (Units=GPa)
#
#
# Indices 1 2 3 4 5 6 
#
# 1 90.4734 47.3314 48.2265 0.0000 0.0000 0.0000
# 2 47.3314 111.0534 24.4450 0.0000 0.0000 0.0000
# 3 48.2265 24.4450 114.6768 0.0000 0.0000 0.0000
# 4 0.0000 0.0000 0.0000 20.4134 0.0000 0.0000
# 5 0.0000 0.0000 0.0000 0.0000 35.8058 0.0000
# 6 0.0000 0.0000 0.0000 0.0000 0.0000 121.0077
#
#
#
# Elastic Compliance Matrix: (Units=1/GPa)
#
#
# Indices 1 2 3 4 5 6 
#
# 1 0.017476 -0.006118 -0.006045 0.000000 0.000000 0.000000
# 2 -0.006118 0.011590 0.000102 0.000000 0.000000 0.000000
# 3 -0.006045 0.000102 0.011241 0.000000 0.000000 0.000000
# 4 0.000000 0.000000 0.000000 0.048987 0.000000 0.000000
# 5 0.000000 0.000000 0.000000 0.000000 0.027928 0.000000
# 6 0.000000 0.000000 0.000000 0.000000 0.000000 0.008264
#
#
# Mechanical properties :
#
#
# Convention : Reuss Voigt Hill
#
# Bulk Modulus (GPa) = 61.78661 61.80107 61.79384
# Shear Modulus (GPa) = 32.25768 48.52543 40.39155
#
# Velocity S-wave (km/s) = 4.15758 5.09928 4.65231
# Velocity P-wave (km/s) = 7.49373 8.23326 7.87218
#
# Compressibility (1/GPa) = 0.01618474
#
# Stress axis : x y z
#
# Youngs Moduli (GPa) = 57.22198 86.28498 88.96266
#
# Poissons Ratio (x) = 0.52785 0.53780
# Poissons Ratio (y) = 0.35006 -0.00909
# Poissons Ratio (z) = 0.34592 -0.00882
#
# Static dielectric constant tensor:
#      x y z
#    x 3.503740 0.000000 0.000000 
#    y 0.000000 3.340650 0.000000 
#    z 0.000000 0.000000 3.642110 
# 
# 
# High freq. dielectric constant tensor:
#      x y z
#    x 1.713860 0.000000 0.000000 
#    y 0.000000 1.707960 0.000000 
#    z 0.000000 0.000000 1.744600 
# 
# From -- ./inp_files/3370.got.cif
#   From: 2010.03.12/outbox.cif.g09.slc.cpg/sg39_2_cif.got.tgz:3370.got - 2010.04.14 02:53:20.
