data_PCOD8181044
_publ_section_title
;
Structure prediction by ZEFSAII (Michael W. Deem and Ramdas Pophale) SiO2 
 PCOD8181044
Probable space group: A B M 2
;
_chemical_formula_sum "Si O2"
_cell_formula_units_Z 32
_cell_length_a 16.360317
_cell_length_b 18.691614
_cell_length_c 5.237047
_cell_angle_alpha 90.000000
_cell_angle_beta 90.000000
_cell_angle_gamma 90.000000
_cell_volume 1601.492797
_symmetry_space_group_name_H-M "A B M 2"
_symmetry_group_IT_number 39
_symmetry_cell_setting 'orthorhombic'
loop_
_space_group_symop_operation_xyz
x,y,z
-x,-y,z
-x,1/2+y,z
x,1/2-y,z
x,1/2+y,1/2+z
-x,1/2-y,1/2+z
-x,y,1/2+z
x,-y,1/2+z
loop_
_atom_site_type_symbol
_atom_site_label
_atom_site_fract_x
_atom_site_fract_y
_atom_site_fract_z
Si Si1 0.453495 0.835445 0.099420
Si Si2 0.172440 0.832520 0.570520
Si Si3 0.728455 0.167173 0.081218
Si Si4 0.090883 0.969800 0.669081
O O1 0.451666 0.750000 0.092849
O O2 0.498223 0.864233 0.352327
O O3 0.361601 0.867702 0.094210
O O4 0.142505 0.750000 0.557310
O O5 0.213233 0.860882 0.308625
O O6 0.094131 0.884003 0.621321
O O7 0.235536 0.845285 0.800439
O O8 0.717980 0.250000 0.141100
O O9 0.136008 0.010915 0.435689
O O10 0.000000 0.000000 0.713741
#
# Coordination Sequence:
#
# PCOD8181044 Si02
#       4
#     8   8   8   8
#     4   9  15  23  37  61  99 141 170 199 251 309
#     4  10  19  33  53  76 104 137 174 216 262 308
#     4   9  17  28  45  72 104 137 174 215 256 304
#     4  10  21  38  56  77 105 135 167 214 265 313
#
# _framework density 19.981358
#
# number of rings (size 3 to 8) (size 9 to 14) (size 15 to 20)
#    0.000    2.500    0.000    3.000    0.000    6.000 
#    0.000    5.000    0.000    0.000    0.000    0.000 
#    0.000   70.000    0.000    0.000    0.000    0.000 
#
# Total GULP energy -198242.253582 kJ/mol
# GULP energy per Si atom -12390.140849 kJ/mol
# Density = 1.993588 g / cm^3
# Si number density = 19.981358 Si / 1000 Ang^3
#
#
#
# Elastic Constant Matrix: (Units=GPa)
#
#
# Indices 1 2 3 4 5 6 
#
# 1 63.7942 20.9564 3.9224 0.0000 0.0000 0.0000
# 2 20.9564 56.7518 9.3903 0.0000 0.0000 0.0000
# 3 3.9224 9.3903 150.2667 0.0000 0.0000 0.0000
# 4 0.0000 0.0000 0.0000 17.2459 0.0000 0.0000
# 5 0.0000 0.0000 0.0000 0.0000 6.1230 0.0000
# 6 0.0000 0.0000 0.0000 0.0000 0.0000 8.4612
#
#
#
# Elastic Compliance Matrix: (Units=1/GPa)
#
#
# Indices 1 2 3 4 5 6 
#
# 1 0.017840 -0.006579 -0.000055 0.000000 0.000000 0.000000
# 2 -0.006579 0.020231 -0.001093 0.000000 0.000000 0.000000
# 3 -0.000055 -0.001093 0.006725 0.000000 0.000000 0.000000
# 4 0.000000 0.000000 0.000000 0.057985 0.000000 0.000000
# 5 0.000000 0.000000 0.000000 0.000000 0.163320 0.000000
# 6 0.000000 0.000000 0.000000 0.000000 0.000000 0.118186
#
#
# Mechanical properties :
#
#
# Convention : Reuss Voigt Hill
#
# Bulk Modulus (GPa) = 34.07893 37.70564 35.89229
# Shear Modulus (GPa) = 12.20947 22.13559 17.17253
#
# Velocity S-wave (km/s) = 2.47461 3.33199 2.93478
# Velocity P-wave (km/s) = 5.02567 5.80640 5.43008
#
# Compressibility (1/GPa) = 0.02934365
#
# Stress axis : x y z
#
# Youngs Moduli (GPa) = 56.05433 49.43010 148.70927
#
# Poissons Ratio (x) = 0.32518 0.00811
# Poissons Ratio (y) = 0.36876 0.16247
# Poissons Ratio (z) = 0.00306 0.05400
#
# Static dielectric constant tensor:
#      x y z
#    x 3.525390 0.000000 0.000000 
#    y 0.000000 3.227080 0.000000 
#    z 0.000000 0.000000 4.388950 
# 
# 
# High freq. dielectric constant tensor:
#      x y z
#    x 1.754270 0.000000 0.000000 
#    y 0.000000 1.724790 0.000000 
#    z 0.000000 0.000000 1.816000 
# 
# From -- ./inp_files/247.got.cif
#   From: 2010.03.12/outbox.cif.g09.slc.cpg/sg39_1_cif.got.tgz:247.got - 2010.04.14 02:53:20.
