data_PCOD8181257
_publ_section_title
;
Structure prediction by ZEFSAII (Michael W. Deem and Ramdas Pophale) SiO2 
 PCOD8181257
Probable space group: A B M 2
;
_chemical_formula_sum "Si O2"
_cell_formula_units_Z 64
_cell_length_a 9.675248
_cell_length_b 16.326034
_cell_length_c 19.036377
_cell_angle_alpha 90.000000
_cell_angle_beta 90.000000
_cell_angle_gamma 90.000000
_cell_volume 3006.956182
_symmetry_space_group_name_H-M "A B M 2"
_symmetry_group_IT_number 39
_symmetry_cell_setting 'orthorhombic'
loop_
_space_group_symop_operation_xyz
x,y,z
-x,-y,z
-x,1/2+y,z
x,1/2-y,z
x,1/2+y,1/2+z
-x,1/2-y,1/2+z
-x,y,1/2+z
x,-y,1/2+z
loop_
_atom_site_type_symbol
_atom_site_label
_atom_site_fract_x
_atom_site_fract_y
_atom_site_fract_z
Si Si1 0.856684 0.653286 0.341850
Si Si2 0.664450 0.656681 0.805227
Si Si3 0.760584 0.344808 0.565790
Si Si4 0.744614 0.152939 0.156220
Si Si5 0.869353 0.153618 0.419557
Si Si6 0.948288 0.152957 0.688048
Si Si7 0.534667 0.405929 0.045059
Si Si8 0.571554 0.411754 0.885303
O O1 0.816281 0.750000 0.341364
O O2 0.915922 0.623190 0.266913
O O3 0.729305 0.593963 0.360219
O O4 0.971298 0.635844 0.401777
O O5 0.711984 0.750000 0.796441
O O6 0.670839 0.619160 0.727074
O O7 0.771987 0.613692 0.859223
O O8 0.510768 0.650968 0.835673
O O9 0.798446 0.250000 0.564567
O O10 0.823112 0.385557 0.494400
O O11 0.834521 0.383711 0.634185
O O12 0.596435 0.355239 0.572837
O O13 0.732724 0.250000 0.146899
O O14 0.671027 0.112234 0.089711
O O15 0.902765 0.122727 0.160801
O O16 0.839468 0.250000 0.422127
O O17 0.946489 0.250000 0.689562
O O18 0.500000 0.500000 0.051482
O O19 0.563999 0.380860 0.965059
O O20 0.500000 0.500000 0.874741
#
# Coordination Sequence:
#
# PCOD8181257 Si02
#       8
#     8   8   8   8   8   8   8   8
#     4  10  20  37  63  93 121 153 202 261 312 363
#     4  10  19  37  63  88 116 153 194 248 305 357
#     4  10  20  36  61  88 117 154 199 251 308 362
#     4  10  21  38  64  92 120 156 199 249 310 368
#     4   9  17  33  60  89 115 148 193 251 309 355
#     4   9  19  36  59  92 123 145 189 256 313 366
#     4  11  25  42  58  82 125 168 206 246 294 361
#     4  11  25  41  58  84 125 165 206 248 297 356
#
# _framework density 21.283982000000002
#
# number of rings (size 3 to 8) (size 9 to 14) (size 15 to 20)
#    0.000    2.000    2.500    0.750    3.500    2.000 
#    0.000    1.250    0.000    0.000    0.000    0.000 
#    0.000    0.000    0.000    0.000    0.000    0.000 
#
# Total GULP energy -396736.868804 kJ/mol
# GULP energy per Si atom -12398.027150 kJ/mol
# Density = 2.123554 g / cm^3
# Si number density = 21.283982 Si / 1000 Ang^3
#
#
#
# Elastic Constant Matrix: (Units=GPa)
#
#
# Indices 1 2 3 4 5 6 
#
# 1 147.5979 9.4552 54.1009 0.0000 0.0000 0.0000
# 2 9.4552 18.0005 11.2491 0.0000 0.0000 0.0000
# 3 54.1009 11.2491 117.0179 0.0000 0.0000 0.0000
# 4 0.0000 0.0000 0.0000 10.6767 0.0000 0.0000
# 5 0.0000 0.0000 0.0000 0.0000 48.0282 0.0000
# 6 0.0000 0.0000 0.0000 0.0000 0.0000 17.4973
#
#
#
# Elastic Compliance Matrix: (Units=1/GPa)
#
#
# Indices 1 2 3 4 5 6 
#
# 1 0.008229 -0.002069 -0.003606 0.000000 0.000000 0.000000
# 2 -0.002069 0.059625 -0.004775 0.000000 0.000000 0.000000
# 3 -0.003606 -0.004775 0.010672 0.000000 0.000000 0.000000
# 4 0.000000 0.000000 0.000000 0.093662 0.000000 0.000000
# 5 0.000000 0.000000 0.000000 0.000000 0.020821 0.000000
# 6 0.000000 0.000000 0.000000 0.000000 0.000000 0.057152
#
#
# Mechanical properties :
#
#
# Convention : Reuss Voigt Hill
#
# Bulk Modulus (GPa) = 17.35334 48.02520 32.68927
# Shear Modulus (GPa) = 17.22535 29.09452 23.15994
#
# Velocity S-wave (km/s) = 2.84792 3.70126 3.30227
# Velocity P-wave (km/s) = 4.35720 6.39365 5.47101
#
# Compressibility (1/GPa) = 0.05762581
#
# Stress axis : x y z
#
# Youngs Moduli (GPa) = 121.51563 16.77147 93.70487
#
# Poissons Ratio (x) = 0.03471 0.33788
# Poissons Ratio (y) = 0.25145 0.44745
# Poissons Ratio (z) = 0.43816 0.08009
#
# Static dielectric constant tensor:
#      x y z
#    x 3.896790 0.000000 0.000000 
#    y 0.000000 3.379320 0.000000 
#    z 0.000000 0.000000 4.233110 
# 
# 
# High freq. dielectric constant tensor:
#      x y z
#    x 1.841320 0.000000 0.000000 
#    y 0.000000 1.787020 0.000000 
#    z 0.000000 0.000000 1.849890 
# 
# From -- ./inp_files/11927.got.cif
#   From: 2010.03.12/outbox.cif.g09.slc.cpg/sg39_6_cif.got.tgz:11927.got - 2010.04.14 02:53:20.
