data_PCOD8181622
_publ_section_title
;
Structure prediction by ZEFSAII (Michael W. Deem and Ramdas Pophale) SiO2 
 PCOD8181622
Probable space group: A B M 2
;
_chemical_formula_sum "Si O2"
_cell_formula_units_Z 64
_cell_length_a 24.413537
_cell_length_b 8.886999
_cell_length_c 14.803675
_cell_angle_alpha 90.000000
_cell_angle_beta 90.000000
_cell_angle_gamma 90.000000
_cell_volume 3211.850907
_symmetry_space_group_name_H-M "A B M 2"
_symmetry_group_IT_number 39
_symmetry_cell_setting 'orthorhombic'
loop_
_space_group_symop_operation_xyz
x,y,z
-x,-y,z
-x,1/2+y,z
x,1/2-y,z
x,1/2+y,1/2+z
-x,1/2-y,1/2+z
-x,y,1/2+z
x,-y,1/2+z
loop_
_atom_site_type_symbol
_atom_site_label
_atom_site_fract_x
_atom_site_fract_y
_atom_site_fract_z
Si Si1 0.742519 0.923806 0.550630
Si Si2 0.868918 0.571863 0.726287
Si Si3 0.638954 0.575751 0.256561
Si Si4 0.558093 0.924448 0.893216
Si Si5 0.860816 0.076882 0.021259
Si Si6 0.362692 0.424637 0.048222
Si Si7 0.239930 0.923810 0.736845
Si Si8 0.058506 0.429837 0.369902
O O1 0.738800 0.750000 0.582757
O O2 0.797230 0.944319 0.489460
O O3 0.686496 0.976373 0.502446
O O4 0.748662 0.036615 0.633585
O O5 0.875100 0.750000 0.734130
O O6 0.869577 0.513002 0.622534
O O7 0.811153 0.522648 0.772874
O O8 0.919540 0.490665 0.774492
O O9 0.624277 0.750000 0.270400
O O10 0.599549 0.475590 0.316079
O O11 0.628420 0.529071 0.152243
O O12 0.702200 0.545101 0.287265
O O13 0.548539 0.750000 0.880495
O O14 0.500000 0.000000 0.881674
O O15 0.582701 0.962785 0.991929
O O16 0.876575 0.250000 0.025386
O O17 0.901248 0.003879 0.947892
O O18 0.346910 0.250000 0.039288
O O19 0.223145 0.750000 0.746349
O O20 0.055336 0.250000 0.367086
O O21 0.000000 0.500000 0.390482
#
# Coordination Sequence:
#
# PCOD8181622 Si02
#       8
#     8   8   8   8   8   8   8   8
#     4   9  16  30  55  85 112 142 180 223 271 329
#     4  10  20  37  59  85 114 146 183 226 274 328
#     4   9  19  37  59  82 112 146 181 221 272 327
#     4  11  24  40  57  79 109 144 189 235 276 325
#     4   8  18  36  57  80 111 145 179 221 272 326
#     4   9  20  38  57  81 113 146 177 220 275 331
#     4   9  17  32  55  84 116 148 179 219 272 331
#     4  11  23  40  57  78 108 145 189 233 275 325
#
# _framework density 19.926206000000001
#
# number of rings (size 3 to 8) (size 9 to 14) (size 15 to 20)
#    0.000    2.500    0.000    3.375    0.000    5.500 
#    0.000   13.750    0.000    0.000    0.000    0.000 
#    0.000    0.000    0.000    0.000    0.000    0.000 
#
# Total GULP energy -396620.128488 kJ/mol
# GULP energy per Si atom -12394.379015 kJ/mol
# Density = 1.988085 g / cm^3
# Si number density = 19.926206 Si / 1000 Ang^3
#
#
#
# Elastic Constant Matrix: (Units=GPa)
#
#
# Indices 1 2 3 4 5 6 
#
# 1 106.9780 45.7289 17.7904 0.0000 0.0000 0.0000
# 2 45.7289 70.5163 24.9499 0.0000 0.0000 0.0000
# 3 17.7904 24.9499 46.6327 0.0000 0.0000 0.0000
# 4 0.0000 0.0000 0.0000 21.8367 0.0000 0.0000
# 5 0.0000 0.0000 0.0000 0.0000 29.5601 0.0000
# 6 0.0000 0.0000 0.0000 0.0000 0.0000 38.5954
#
#
#
# Elastic Compliance Matrix: (Units=1/GPa)
#
#
# Indices 1 2 3 4 5 6 
#
# 1 0.012944 -0.008199 -0.000552 0.000000 0.000000 0.000000
# 2 -0.008199 0.022686 -0.009010 0.000000 0.000000 0.000000
# 3 -0.000552 -0.009010 0.026475 0.000000 0.000000 0.000000
# 4 0.000000 0.000000 0.000000 0.045794 0.000000 0.000000
# 5 0.000000 0.000000 0.000000 0.000000 0.033829 0.000000
# 6 0.000000 0.000000 0.000000 0.000000 0.000000 0.025910
#
#
# Mechanical properties :
#
#
# Convention : Reuss Voigt Hill
#
# Bulk Modulus (GPa) = 37.61563 44.56282 41.08923
# Shear Modulus (GPa) = 23.58263 27.04232 25.31247
#
# Velocity S-wave (km/s) = 3.44393 3.68791 3.56801
# Velocity P-wave (km/s) = 5.89344 6.36763 6.13512
#
# Compressibility (1/GPa) = 0.02658469
#
# Stress axis : x y z
#
# Youngs Moduli (GPa) = 77.25481 44.08035 37.77145
#
# Poissons Ratio (x) = 0.36141 0.02083
# Poissons Ratio (y) = 0.63341 0.34031
# Poissons Ratio (z) = 0.04261 0.39715
#
# Static dielectric constant tensor:
#      x y z
#    x 3.900840 0.000000 0.000000 
#    y 0.000000 3.517720 0.000000 
#    z 0.000000 0.000000 3.585720 
# 
# 
# High freq. dielectric constant tensor:
#      x y z
#    x 1.784210 0.000000 0.000000 
#    y 0.000000 1.770320 0.000000 
#    z 0.000000 0.000000 1.761500 
# 
# From -- ./inp_files/10576.got.cif
#   From: 2010.03.12/outbox.cif.g09.slc.cpg/sg39_6_cif.got.tgz:10576.got - 2010.04.14 02:53:20.
