data_PCOD8181365
_publ_section_title
;
Structure prediction by ZEFSAII (Michael W. Deem and Ramdas Pophale) SiO2 
 PCOD8181365
Probable space group: A B M 2
;
_chemical_formula_sum "Si O2"
_cell_formula_units_Z 56
_cell_length_a 23.711562
_cell_length_b 8.472898
_cell_length_c 14.397524
_cell_angle_alpha 90.000000
_cell_angle_beta 90.000000
_cell_angle_gamma 90.000000
_cell_volume 2892.543864
_symmetry_space_group_name_H-M "A B M 2"
_symmetry_group_IT_number 39
_symmetry_cell_setting 'orthorhombic'
loop_
_space_group_symop_operation_xyz
x,y,z
-x,-y,z
-x,1/2+y,z
x,1/2-y,z
x,1/2+y,1/2+z
-x,1/2-y,1/2+z
-x,y,1/2+z
x,-y,1/2+z
loop_
_atom_site_type_symbol
_atom_site_label
_atom_site_fract_x
_atom_site_fract_y
_atom_site_fract_z
Si Si1 0.561817 0.563655 0.406610
Si Si2 0.266561 0.935911 0.403114
Si Si3 0.653033 0.563523 0.259262
Si Si4 0.939564 0.434915 0.064135
Si Si5 0.643044 0.437192 0.550840
Si Si6 0.861936 0.565583 0.913702
Si Si7 0.941968 0.065682 0.764381
O O1 0.500000 0.500000 0.388104
O O2 0.560848 0.750000 0.411050
O O3 0.600778 0.502214 0.321658
O O4 0.585490 0.499110 0.504342
O O5 0.271523 0.750000 0.395535
O O6 0.303734 0.998040 0.490077
O O7 0.202650 0.990074 0.419260
O O8 0.288754 0.007907 0.306360
O O9 0.653164 0.750000 0.254211
O O10 0.648217 0.493171 0.155130
O O11 0.936094 0.250000 0.041670
O O12 0.929801 0.466313 0.172205
O O13 0.000000 0.500000 0.030908
O O14 0.890389 0.528281 0.011807
O O15 0.640968 0.250000 0.553798
O O16 0.867300 0.750000 0.890028
O O17 0.891294 0.461557 0.834780
O O18 0.947938 0.250000 0.740232
O O19 0.000000 0.000000 0.809459
#
# Coordination Sequence:
#
# PCOD8181365 Si02
#       7
#     8   8   8   8   8   8   8
#     4  10  20  34  52  79 110 141 175 218 262 310
#     4   9  20  36  55  78 107 140 178 222 267 312
#     4   9  19  35  56  79 107 141 179 218 264 315
#     4  11  22  38  58  82 110 143 180 224 276 333
#     4   9  18  36  57  78 105 141 178 217 263 313
#     4  11  22  37  55  81 113 146 184 226 272 327
#     4  11  22  38  58  81 108 142 180 225 278 332
#
# _framework density 19.360119999999998
#
# number of rings (size 3 to 8) (size 9 to 14) (size 15 to 20)
#    0.000    2.000    0.000    4.714    0.000    4.000 
#    0.000    2.857    0.000    0.000    0.000    0.000 
#    0.000    0.000    0.000    0.000    0.000    0.000 
#
# Total GULP energy -347279.349723 kJ/mol
# GULP energy per Si atom -12402.833919 kJ/mol
# Density = 1.931606 g / cm^3
# Si number density = 19.360120 Si / 1000 Ang^3
#
#
#
# Elastic Constant Matrix: (Units=GPa)
#
#
# Indices 1 2 3 4 5 6 
#
# 1 137.2803 21.3477 58.2635 0.0000 0.0000 0.0000
# 2 21.3477 43.0163 15.8197 0.0000 0.0000 0.0000
# 3 58.2635 15.8197 127.7796 0.0000 0.0000 0.0000
# 4 0.0000 0.0000 0.0000 28.9968 0.0000 0.0000
# 5 0.0000 0.0000 0.0000 0.0000 -51.5218 0.0000
# 6 0.0000 0.0000 0.0000 0.0000 0.0000 28.7625
#
#
#
# Elastic Compliance Matrix: (Units=1/GPa)
#
#
# Indices 1 2 3 4 5 6 
#
# 1 0.009447 -0.003252 -0.003905 0.000000 0.000000 0.000000
# 2 -0.003252 0.025476 -0.001671 0.000000 0.000000 0.000000
# 3 -0.003905 -0.001671 0.009813 0.000000 0.000000 0.000000
# 4 0.000000 0.000000 0.000000 0.034487 0.000000 0.000000
# 5 0.000000 0.000000 0.000000 0.000000 -0.019409 0.000000
# 6 0.000000 0.000000 0.000000 0.000000 0.000000 0.034767
#
#
# Mechanical properties :
#
#
# Convention : Reuss Voigt Hill
#
# Bulk Modulus (GPa) = 36.92823 55.43756 46.18289
# Shear Modulus (GPa) = 41.23210 15.42386 28.32798
#
# Velocity S-wave (km/s) = 4.61992 2.82562 3.82935
# Velocity P-wave (km/s) = 6.89739 6.27237 6.59229
#
# Compressibility (1/GPa) = 0.02707956
#
# Stress axis : x y z
#
# Youngs Moduli (GPa) = 105.84812 39.25331 101.90082
#
# Poissons Ratio (x) = 0.12767 0.39793
# Poissons Ratio (y) = 0.34426 0.17028
# Poissons Ratio (z) = 0.41335 0.06559
#
# Static dielectric constant tensor:
#      x y z
#    x 3.662050 0.000000 0.000000 
#    y 0.000000 3.430290 0.000000 
#    z 0.000000 0.000000 3.696350 
# 
# 
# High freq. dielectric constant tensor:
#      x y z
#    x 1.751790 0.000000 0.000000 
#    y 0.000000 1.753450 0.000000 
#    z 0.000000 0.000000 1.757920 
# 
# From -- ./inp_files/10341.got.cif
#   From: 2010.03.12/outbox.cif.g09.slc.cpg/sg39_6_cif.got.tgz:10341.got - 2010.04.14 02:53:20.
