data_PCOD8181755
_publ_section_title
;
Structure prediction by ZEFSAII (Michael W. Deem and Ramdas Pophale) SiO2 
 PCOD8181755
Probable space group: A B M 2
;
_chemical_formula_sum "Si O2"
_cell_formula_units_Z 56
_cell_length_a 34.422129
_cell_length_b 13.829473
_cell_length_c 5.251377
_cell_angle_alpha 90.000000
_cell_angle_beta 90.000000
_cell_angle_gamma 90.000000
_cell_volume 2499.865001
_symmetry_space_group_name_H-M "A B M 2"
_symmetry_group_IT_number 39
_symmetry_cell_setting 'orthorhombic'
loop_
_space_group_symop_operation_xyz
x,y,z
-x,-y,z
-x,1/2+y,z
x,1/2-y,z
x,1/2+y,1/2+z
-x,1/2-y,1/2+z
-x,y,1/2+z
x,-y,1/2+z
loop_
_atom_site_type_symbol
_atom_site_label
_atom_site_fract_x
_atom_site_fract_y
_atom_site_fract_z
Si Si1 0.109692 0.401569 0.102980
Si Si2 0.401372 0.058660 0.125847
Si Si3 0.211599 0.250000 0.571067
Si Si4 0.142230 0.885625 0.102993
Si Si5 0.738374 0.250000 0.571482
Si Si6 0.518543 0.360205 0.544630
Si Si7 0.023800 0.136400 0.099807
Si Si8 0.314309 0.563166 0.580338
O O1 0.136170 0.498746 0.104646
O O2 0.120734 0.341441 0.355029
O O3 0.121369 0.341190 0.852688
O O4 0.063827 0.423955 0.100529
O O5 0.434837 0.136105 0.068567
O O6 0.358506 0.103319 0.088413
O O7 0.406292 0.026750 0.419081
O O8 0.186534 0.348764 0.600924
O O9 0.229183 0.250000 0.289349
O O10 0.243828 0.250000 0.789421
O O11 0.713055 0.345276 0.606210
O O12 0.504941 0.250000 0.531841
O O13 0.502994 0.411074 0.285520
O O14 0.033774 0.250000 0.100203
O O15 0.000147 0.106308 0.849218
O O16 0.306095 0.509180 0.314375
#
# Coordination Sequence:
#
# PCOD8181755 Si02
#       8
#     8   8   4   8   4   8   8   8
#     4  10  21  42  63  92 125 174 208 250 325 363
#     4  10  21  37  61  88 121 165 216 269 323 392
#     4  12  26  46  68 104 130 160 226 258 330 416
#     4  10  23  41  62  91 123 159 208 259 302 390
#     4  12  26  48  74 104 134 182 206 282 356 404
#     4  10  21  35  52  83 123 167 218 268 326 381
#     4  10  21  36  59  93 126 164 214 268 311 358
#     4  10  23  46  69 103 137 174 227 275 339 421
#
# _framework density 22.401208
#
# number of rings (size 3 to 8) (size 9 to 14) (size 15 to 20)
#    0.000    1.714    0.000    3.429    3.000    1.714 
#   15.429    8.571    0.000    0.000    0.000    0.000 
#    0.000    0.000    0.000    0.000    0.000    0.000 
#
# Total GULP energy -347036.466283 kJ/mol
# GULP energy per Si atom -12394.159510 kJ/mol
# Density = 2.235022 g / cm^3
# Si number density = 22.401208 Si / 1000 Ang^3
#
#
#
# Elastic Constant Matrix: (Units=GPa)
#
#
# Indices 1 2 3 4 5 6 
#
# 1 130.1259 40.2595 41.4569 0.0000 0.0000 0.0000
# 2 40.2595 75.3836 5.1494 0.0000 0.0000 0.0000
# 3 41.4569 5.1494 197.5424 0.0000 0.0000 0.0000
# 4 0.0000 0.0000 0.0000 -3.7968 0.0000 0.0000
# 5 0.0000 0.0000 0.0000 0.0000 42.8626 0.0000
# 6 0.0000 0.0000 0.0000 0.0000 0.0000 23.8810
#
#
#
# Elastic Compliance Matrix: (Units=1/GPa)
#
#
# Indices 1 2 3 4 5 6 
#
# 1 0.009898 -0.005154 -0.001943 0.000000 0.000000 0.000000
# 2 -0.005154 0.015972 0.000665 0.000000 0.000000 0.000000
# 3 -0.001943 0.000665 0.005453 0.000000 0.000000 0.000000
# 4 0.000000 0.000000 0.000000 -0.263378 0.000000 0.000000
# 5 0.000000 0.000000 0.000000 0.000000 0.023330 0.000000
# 6 0.000000 0.000000 0.000000 0.000000 0.000000 0.041874
#
#
# Mechanical properties :
#
#
# Convention : Reuss Voigt Hill
#
# Bulk Modulus (GPa) = 54.16937 64.08704 59.12821
# Shear Modulus (GPa) = -33.82175 33.66844 -0.07665
#
# Velocity S-wave (km/s) = -3.88985 3.88103 -0.18518
# Velocity P-wave (km/s) = 2.01478 6.98241 5.13874
#
# Compressibility (1/GPa) = 0.01846062
#
# Stress axis : x y z
#
# Youngs Moduli (GPa) = 101.02705 62.60807 183.39812
#
# Poissons Ratio (x) = 0.32266 0.35633
# Poissons Ratio (y) = 0.52065 -0.12200
# Poissons Ratio (z) = 0.19629 -0.04165
#
# Static dielectric constant tensor:
#      x y z
#    x 3.981790 0.000000 0.000000 
#    y 0.000000 3.619460 0.000000 
#    z 0.000000 0.000000 5.403430 
# 
# 
# High freq. dielectric constant tensor:
#      x y z
#    x 1.878940 0.000000 0.000000 
#    y 0.000000 1.863830 0.000000 
#    z 0.000000 0.000000 1.919960 
# 
# From -- ./inp_files/1505.got.cif
#   From: 2010.03.12/outbox.cif.g09.slc.cpg/sg39_1_cif.got.tgz:1505.got - 2010.04.14 02:53:20.
