data_PCOD8181816
_publ_section_title
;
Structure prediction by ZEFSAII (Michael W. Deem and Ramdas Pophale) SiO2 
 PCOD8181816
Probable space group: A B M 2
;
_chemical_formula_sum "Si O2"
_cell_formula_units_Z 64
_cell_length_a 19.984489
_cell_length_b 8.652232
_cell_length_c 19.539750
_cell_angle_alpha 90.000000
_cell_angle_beta 90.000000
_cell_angle_gamma 90.000000
_cell_volume 3378.626677
_symmetry_space_group_name_H-M "A B M 2"
_symmetry_group_IT_number 39
_symmetry_cell_setting 'orthorhombic'
loop_
_space_group_symop_operation_xyz
x,y,z
-x,-y,z
-x,1/2+y,z
x,1/2-y,z
x,1/2+y,1/2+z
-x,1/2-y,1/2+z
-x,y,1/2+z
x,-y,1/2+z
loop_
_atom_site_type_symbol
_atom_site_label
_atom_site_fract_x
_atom_site_fract_y
_atom_site_fract_z
Si Si1 0.825238 0.069071 0.321410
Si Si2 0.327251 0.925688 0.329359
Si Si3 0.570409 0.930721 0.072923
Si Si4 0.929090 0.929492 0.582879
Si Si5 0.929351 0.928873 0.422721
Si Si6 0.324405 0.427060 0.671462
Si Si7 0.430001 0.430015 0.427964
Si Si8 0.818836 0.068862 0.678143
O O1 0.832098 0.250000 0.305781
O O2 0.749537 0.027661 0.342493
O O3 0.871690 0.019828 0.383641
O O4 0.846087 0.978308 0.252880
O O5 0.340586 0.750000 0.352819
O O6 0.345243 0.947294 0.250081
O O7 0.373101 0.040156 0.372329
O O8 0.561345 0.750000 0.065257
O O9 0.500000 0.000000 0.098027
O O10 0.627164 0.966400 0.127660
O O11 0.592373 0.997976 0.999901
O O12 0.926872 0.750000 0.603633
O O13 0.916246 0.953025 0.502681
O O14 0.873002 0.025106 0.621786
O O15 0.000000 0.000000 0.604581
O O16 0.928287 0.750000 0.401995
O O17 0.000000 0.000000 0.400424
O O18 0.331428 0.250000 0.647846
O O19 0.248441 0.477963 0.659713
O O20 0.500000 0.500000 0.401905
O O21 0.440047 0.250000 0.438441
O O22 0.804390 0.250000 0.676005
#
# Coordination Sequence:
#
# PCOD8181816 Si02
#       8
#     8   8   8   8   8   8   8   8
#     4  10  21  38  59  82 112 147 184 228 275 326
#     4   9  20  38  58  81 111 145 182 227 275 325
#     4  11  22  38  59  83 113 147 186 230 277 329
#     4  10  21  38  58  82 113 147 186 231 279 330
#     4  10  21  37  58  83 112 145 183 228 275 328
#     4  10  21  39  60  83 113 147 185 229 277 328
#     4  11  22  37  58  82 112 147 185 229 275 327
#     4  11  22  37  58  84 114 147 185 228 277 331
#
# _framework density 18.942608
#
# number of rings (size 3 to 8) (size 9 to 14) (size 15 to 20)
#    0.000    1.750    0.000    6.375    0.000    6.500 
#    0.000    5.000    0.000    0.000    0.000    0.000 
#    0.000    0.000    0.000    0.000    0.000    0.000 
#
# Total GULP energy -396979.773527 kJ/mol
# GULP energy per Si atom -12405.617923 kJ/mol
# Density = 1.889949 g / cm^3
# Si number density = 18.942608 Si / 1000 Ang^3
#
#
#
# Elastic Constant Matrix: (Units=GPa)
#
#
# Indices 1 2 3 4 5 6 
#
# 1 96.8798 37.2515 59.7643 0.0000 0.0000 0.0000
# 2 37.2515 119.3816 36.3099 0.0000 0.0000 0.0000
# 3 59.7643 36.3099 72.0382 0.0000 0.0000 0.0000
# 4 0.0000 0.0000 0.0000 33.3250 0.0000 0.0000
# 5 0.0000 0.0000 0.0000 0.0000 27.4122 0.0000
# 6 0.0000 0.0000 0.0000 0.0000 0.0000 36.0731
#
#
#
# Elastic Compliance Matrix: (Units=1/GPa)
#
#
# Indices 1 2 3 4 5 6 
#
# 1 0.021370 -0.001507 -0.016969 0.000000 0.000000 0.000000
# 2 -0.001507 0.009999 -0.003790 0.000000 0.000000 0.000000
# 3 -0.016969 -0.003790 0.029870 0.000000 0.000000 0.000000
# 4 0.000000 0.000000 0.000000 0.030008 0.000000 0.000000
# 5 0.000000 0.000000 0.000000 0.000000 0.036480 0.000000
# 6 0.000000 0.000000 0.000000 0.000000 0.000000 0.027722
#
#
# Mechanical properties :
#
#
# Convention : Reuss Voigt Hill
#
# Bulk Modulus (GPa) = 59.85574 61.66123 60.75849
# Shear Modulus (GPa) = 24.32517 29.69364 27.00940
#
# Velocity S-wave (km/s) = 3.58739 3.96354 3.78015
# Velocity P-wave (km/s) = 6.98758 7.31905 7.15523
#
# Compressibility (1/GPa) = 0.01670684
#
# Stress axis : x y z
#
# Youngs Moduli (GPa) = 46.79550 100.00584 33.47887
#
# Poissons Ratio (x) = 0.15071 0.56810
# Poissons Ratio (y) = 0.07052 0.12688
# Poissons Ratio (z) = 0.79408 0.37901
#
# Static dielectric constant tensor:
#      x y z
#    x 3.439030 0.000000 0.000000 
#    y 0.000000 3.606330 0.000000 
#    z 0.000000 0.000000 3.399700 
# 
# 
# High freq. dielectric constant tensor:
#      x y z
#    x 1.740650 0.000000 0.000000 
#    y 0.000000 1.753450 0.000000 
#    z 0.000000 0.000000 1.734270 
# 
# From -- ./inp_files/13233.got.cif
#   From: 2010.03.12/outbox.cif.g09.slc.cpg/sg39_7_cif.got.tgz:13233.got - 2010.04.14 02:53:20.
