data_PCOD8181730
_publ_section_title
;
Structure prediction by ZEFSAII (Michael W. Deem and Ramdas Pophale) SiO2 
 PCOD8181730
Probable space group: A B M 2
;
_chemical_formula_sum "Si O2"
_cell_formula_units_Z 44
_cell_length_a 14.850828
_cell_length_b 16.410031
_cell_length_c 8.898365
_cell_angle_alpha 90.000000
_cell_angle_beta 90.000000
_cell_angle_gamma 90.000000
_cell_volume 2168.554222
_symmetry_space_group_name_H-M "A B M 2"
_symmetry_group_IT_number 39
_symmetry_cell_setting 'orthorhombic'
loop_
_space_group_symop_operation_xyz
x,y,z
-x,-y,z
-x,1/2+y,z
x,1/2-y,z
x,1/2+y,1/2+z
-x,1/2-y,1/2+z
-x,y,1/2+z
x,-y,1/2+z
loop_
_atom_site_type_symbol
_atom_site_label
_atom_site_fract_x
_atom_site_fract_y
_atom_site_fract_z
Si Si1 0.910649 0.893507 0.013120
Si Si2 0.763958 0.839119 0.804208
Si Si3 0.917746 0.155688 0.850132
Si Si4 0.500000 0.500000 0.675561
Si Si5 0.212275 0.449099 0.518535
Si Si6 0.623993 0.057017 0.431375
O O1 0.926220 0.851171 0.172333
O O2 0.862573 0.980459 0.034025
O O3 0.852141 0.835038 0.907032
O O4 0.007345 0.899817 0.932742
O O5 0.749642 0.750000 0.731115
O O6 0.773418 0.909984 0.681810
O O7 0.680208 0.859854 0.914450
O O8 0.925892 0.250000 0.898993
O O9 0.821569 0.120024 0.903266
O O10 0.445973 0.563577 0.569137
O O11 0.570583 0.548208 0.776047
O O12 0.307370 0.481626 0.456870
#
# Coordination Sequence:
#
# PCOD8181730 Si02
#       6
#     8   8   8   4   8   8
#     4  11  24  41  60  86 123 169 214 248 298 374
#     4  11  22  40  63  94 129 162 201 260 316 367
#     4  12  24  39  59  88 124 164 203 257 309 354
#     4  10  20  40  68  92 120 158 210 252 304 372
#     4  11  23  40  63  91 121 162 211 251 301 368
#     4  10  21  39  66  93 119 163 204 253 302 377
#
# _framework density 20.290016000000001
#
# number of rings (size 3 to 8) (size 9 to 14) (size 15 to 20)
#    0.000    1.091    1.818    6.000    2.545    1.455 
#    0.000    0.909    0.000    0.000    0.000    0.000 
#    0.000    0.000    0.000    0.000    0.000    0.000 
#
# Total GULP energy -272808.331391 kJ/mol
# GULP energy per Si atom -12400.378700 kJ/mol
# Density = 2.024384 g / cm^3
# Si number density = 20.290016 Si / 1000 Ang^3
#
#
#
# Elastic Constant Matrix: (Units=GPa)
#
#
# Indices 1 2 3 4 5 6 
#
# 1 115.3261 41.4885 52.4683 0.0000 0.0000 0.0000
# 2 41.4885 112.9579 31.8853 0.0000 0.0000 0.0000
# 3 52.4683 31.8853 121.3230 0.0000 0.0000 0.0000
# 4 0.0000 0.0000 0.0000 26.9224 0.0000 0.0000
# 5 0.0000 0.0000 0.0000 0.0000 41.1480 0.0000
# 6 0.0000 0.0000 0.0000 0.0000 0.0000 12.4770
#
#
#
# Elastic Compliance Matrix: (Units=1/GPa)
#
#
# Indices 1 2 3 4 5 6 
#
# 1 0.011724 -0.003105 -0.004254 0.000000 0.000000 0.000000
# 2 -0.003105 0.010385 -0.001386 0.000000 0.000000 0.000000
# 3 -0.004254 -0.001386 0.010447 0.000000 0.000000 0.000000
# 4 0.000000 0.000000 0.000000 0.037144 0.000000 0.000000
# 5 0.000000 0.000000 0.000000 0.000000 0.024303 0.000000
# 6 0.000000 0.000000 0.000000 0.000000 0.000000 0.080148
#
#
# Mechanical properties :
#
#
# Convention : Reuss Voigt Hill
#
# Bulk Modulus (GPa) = 66.38449 66.81014 66.59732
# Shear Modulus (GPa) = 25.42449 31.02714 28.22581
#
# Velocity S-wave (km/s) = 3.54369 3.91472 3.73382
# Velocity P-wave (km/s) = 7.03793 7.30975 7.17513
#
# Compressibility (1/GPa) = 0.01506376
#
# Stress axis : x y z
#
# Youngs Moduli (GPa) = 85.29868 96.29565 95.72573
#
# Poissons Ratio (x) = 0.29901 0.40721
# Poissons Ratio (y) = 0.26487 0.13271
# Poissons Ratio (z) = 0.36286 0.13350
#
# Static dielectric constant tensor:
#      x y z
#    x 3.912010 0.000000 0.000000 
#    y 0.000000 3.427000 0.000000 
#    z 0.000000 0.000000 3.752670 
# 
# 
# High freq. dielectric constant tensor:
#      x y z
#    x 1.801800 0.000000 0.000000 
#    y 0.000000 1.771610 0.000000 
#    z 0.000000 0.000000 1.805510 
# 
# From -- ./inp_files/3179.got.cif
#   From: 2010.03.12/outbox.cif.g09.slc.cpg/sg39_2_cif.got.tgz:3179.got - 2010.04.14 02:53:20.
