data_PCOD8181351
_publ_section_title
;
Structure prediction by ZEFSAII (Michael W. Deem and Ramdas Pophale) SiO2 
 PCOD8181351
Probable space group: A B M 2
;
_chemical_formula_sum "Si O2"
_cell_formula_units_Z 64
_cell_length_a 20.652813
_cell_length_b 9.029377
_cell_length_c 19.452901
_cell_angle_alpha 90.000000
_cell_angle_beta 90.000000
_cell_angle_gamma 90.000000
_cell_volume 3627.616559
_symmetry_space_group_name_H-M "A B M 2"
_symmetry_group_IT_number 39
_symmetry_cell_setting 'orthorhombic'
loop_
_space_group_symop_operation_xyz
x,y,z
-x,-y,z
-x,1/2+y,z
x,1/2-y,z
x,1/2+y,1/2+z
-x,1/2-y,1/2+z
-x,y,1/2+z
x,-y,1/2+z
loop_
_atom_site_type_symbol
_atom_site_label
_atom_site_fract_x
_atom_site_fract_y
_atom_site_fract_z
Si Si1 0.682510 0.422169 0.888060
Si Si2 0.936545 0.916984 0.227511
Si Si3 0.566651 0.074033 0.988106
Si Si4 0.063455 0.916984 0.891521
Si Si5 0.682513 0.422164 0.730979
Si Si6 0.810317 0.916829 0.891391
Si Si7 0.566648 0.925964 0.130929
Si Si8 0.189683 0.416828 0.727641
O O1 0.698939 0.250000 0.893929
O O2 0.620019 0.465993 0.931729
O O3 0.668111 0.467921 0.809519
O O4 0.744435 0.508288 0.918222
O O5 0.937570 0.750000 0.199620
O O6 0.936190 0.919713 0.309516
O O7 0.872517 0.996739 0.198184
O O8 0.000000 0.000000 0.199128
O O9 0.557686 0.250000 0.997383
O O10 0.500000 0.000000 0.962675
O O11 0.588393 0.000019 0.059522
O O12 0.062431 0.750000 0.919411
O O13 0.127481 0.996744 0.920847
O O14 0.000000 0.000000 0.919903
O O15 0.698957 0.250000 0.725119
O O16 0.620016 0.465947 0.687311
O O17 0.744431 0.508302 0.700812
O O18 0.813028 0.750000 0.919259
O O19 0.811610 0.921853 0.809516
O O20 0.557675 0.750000 0.121629
O O21 0.500000 0.000000 0.156363
O O22 0.186968 0.250000 0.699772
#
# Coordination Sequence:
#
# PCOD8181351 Si02
#       8
#     8   8   8   8   8   8   8   8
#     4   9  18  32  48  67  92 122 154 188 229 275
#     4   9  15  22  33  50  76 112 151 188 225 268
#     4  10  20  34  52  71  93 121 152 188 229 274
#     4   9  15  22  33  50  76 112 151 188 225 268
#     4   9  18  32  48  67  92 122 154 188 229 275
#     4   9  16  25  38  58  84 114 148 186 228 272
#     4  10  20  34  52  71  93 121 152 188 229 274
#     4   9  16  25  38  58  84 114 148 186 228 272
#
# _framework density 17.642437999999999
#
# number of rings (size 3 to 8) (size 9 to 14) (size 15 to 20)
#    0.000    2.750    0.000    3.000    0.000    8.500 
#    0.000    0.000    0.000    0.000    0.000    0.000 
#    0.000    1.000    0.000   10.500    0.000   15.750 
#
# Total GULP energy -396771.396258 kJ/mol
# GULP energy per Si atom -12399.106133 kJ/mol
# Density = 1.760228 g / cm^3
# Si number density = 17.642438 Si / 1000 Ang^3
#
#
#
# Elastic Constant Matrix: (Units=GPa)
#
#
# Indices 1 2 3 4 5 6 
#
# 1 182.3041 96.2688 55.6070 0.0000 0.0000 0.0000
# 2 96.2688 138.1084 33.2577 0.0000 0.0000 0.0000
# 3 55.6070 33.2577 36.0420 0.0000 0.0000 0.0000
# 4 0.0000 0.0000 0.0000 13.7854 0.0000 0.0000
# 5 0.0000 0.0000 0.0000 0.0000 0.7221 0.0000
# 6 0.0000 0.0000 0.0000 0.0000 0.0000 39.4474
#
#
#
# Elastic Compliance Matrix: (Units=1/GPa)
#
#
# Indices 1 2 3 4 5 6 
#
# 1 0.012871 -0.005387 -0.014887 0.000000 0.000000 0.000000
# 2 -0.005387 0.011564 -0.002360 0.000000 0.000000 0.000000
# 3 -0.014887 -0.002360 0.052891 0.000000 0.000000 0.000000
# 4 0.000000 0.000000 0.000000 0.072541 0.000000 0.000000
# 5 0.000000 0.000000 0.000000 0.000000 1.384904 0.000000
# 6 0.000000 0.000000 0.000000 0.000000 0.000000 0.025350
#
#
# Mechanical properties :
#
#
# Convention : Reuss Voigt Hill
#
# Bulk Modulus (GPa) = 31.19258 80.74684 55.96971
# Shear Modulus (GPa) = 3.09392 22.21236 12.65314
#
# Velocity S-wave (km/s) = 1.32570 3.55213 2.68096
# Velocity P-wave (km/s) = 4.47908 7.91779 6.43248
#
# Compressibility (1/GPa) = 0.03205891
#
# Stress axis : x y z
#
# Youngs Moduli (GPa) = 77.69576 86.47746 18.90684
#
# Poissons Ratio (x) = 0.46583 0.28146
# Poissons Ratio (y) = 0.41852 0.04461
# Poissons Ratio (z) = 1.15665 0.20406
#
# Static dielectric constant tensor:
#      x y z
#    x 3.453100 0.000000 0.000000 
#    y 0.000000 3.445020 0.000000 
#    z 0.000000 0.000000 2.715620 
# 
# 
# High freq. dielectric constant tensor:
#      x y z
#    x 1.699090 0.000000 0.000000 
#    y 0.000000 1.697690 0.000000 
#    z 0.000000 0.000000 1.612500 
# 
# From -- ./inp_files/4005.got.cif
#   From: 2010.03.12/outbox.cif.g09.slc.cpg/sg39_3_cif.got.tgz:4005.got - 2010.04.14 02:53:20.
