data_PCOD8181852
_publ_section_title
;
Structure prediction by ZEFSAII (Michael W. Deem and Ramdas Pophale) SiO2 
 PCOD8181852
Probable space group: A B M 2
;
_chemical_formula_sum "Si O2"
_cell_formula_units_Z 64
_cell_length_a 9.687468
_cell_length_b 23.094115
_cell_length_c 14.149070
_cell_angle_alpha 90.000000
_cell_angle_beta 90.000000
_cell_angle_gamma 90.000000
_cell_volume 3165.479463
_symmetry_space_group_name_H-M "A B M 2"
_symmetry_group_IT_number 39
_symmetry_cell_setting 'orthorhombic'
loop_
_space_group_symop_operation_xyz
x,y,z
-x,-y,z
-x,1/2+y,z
x,1/2-y,z
x,1/2+y,1/2+z
-x,1/2-y,1/2+z
-x,y,1/2+z
x,-y,1/2+z
loop_
_atom_site_type_symbol
_atom_site_label
_atom_site_fract_x
_atom_site_fract_y
_atom_site_fract_z
Si Si1 0.081558 0.871864 0.108490
Si Si2 0.254799 0.081750 0.299869
Si Si3 0.819448 0.956673 0.758875
Si Si4 0.620909 0.315905 0.489324
Si Si5 0.183977 0.683329 0.661240
Si Si6 0.983290 0.563467 0.432775
Si Si7 0.626845 0.184060 0.126514
Si Si8 0.438762 0.887065 0.305298
O O1 0.102379 0.929871 0.169689
O O2 0.230642 0.844364 0.093913
O O3 0.981339 0.824506 0.155604
O O4 0.997571 0.889230 0.014150
O O5 0.234019 0.141200 0.243748
O O6 0.416850 0.080505 0.324732
O O7 0.170946 0.079113 0.397257
O O8 0.194496 0.025796 0.243015
O O9 0.905782 0.934310 0.848972
O O10 0.663950 0.936594 0.771805
O O11 0.643349 0.250000 0.455441
O O12 0.740712 0.333479 0.563135
O O13 0.473147 0.323376 0.538041
O O14 0.623274 0.357002 0.398529
O O15 0.217952 0.750000 0.688428
O O16 0.000000 0.500000 0.478563
O O17 0.656063 0.250000 0.151413
O O18 0.553076 0.158229 0.219257
#
# Coordination Sequence:
#
# PCOD8181852 Si02
#       8
#     8   8   8   8   8   8   8   8
#     4  11  22  39  64  86 124 162 202 253 310 356
#     4  11  22  41  62  88 128 155 206 251 304 361
#     4  10  23  40  62  91 121 165 200 256 304 367
#     4  10  21  38  62  92 122 161 207 250 303 363
#     4  11  23  39  62  89 121 161 203 251 301 361
#     4  10  22  38  62  93 117 158 204 246 303 368
#     4  10  21  38  59  89 124 164 207 249 305 363
#     4  11  21  38  63  88 125 163 204 254 306 356
#
# _framework density 20.218108000000001
#
# number of rings (size 3 to 8) (size 9 to 14) (size 15 to 20)
#    0.000    1.500    2.500    2.625    1.750    0.500 
#    0.000    1.250    2.750    0.000    0.000    0.000 
#    0.000    0.000    0.000    0.000    0.000    0.000 
#
# Total GULP energy -396623.076997 kJ/mol
# GULP energy per Si atom -12394.471156 kJ/mol
# Density = 2.017209 g / cm^3
# Si number density = 20.218108 Si / 1000 Ang^3
#
#
#
# Elastic Constant Matrix: (Units=GPa)
#
#
# Indices 1 2 3 4 5 6 
#
# 1 99.7686 31.0934 24.6191 0.0000 0.0000 0.0000
# 2 31.0934 97.4214 32.5677 0.0000 0.0000 0.0000
# 3 24.6191 32.5677 53.5755 0.0000 0.0000 0.0000
# 4 0.0000 0.0000 0.0000 16.6441 0.0000 0.0000
# 5 0.0000 0.0000 0.0000 0.0000 21.5768 0.0000
# 6 0.0000 0.0000 0.0000 0.0000 0.0000 26.6074
#
#
#
# Elastic Compliance Matrix: (Units=1/GPa)
#
#
# Indices 1 2 3 4 5 6 
#
# 1 0.011750 -0.002441 -0.003915 0.000000 0.000000 0.000000
# 2 -0.002441 0.013390 -0.007018 0.000000 0.000000 0.000000
# 3 -0.003915 -0.007018 0.024730 0.000000 0.000000 0.000000
# 4 0.000000 0.000000 0.000000 0.060081 0.000000 0.000000
# 5 0.000000 0.000000 0.000000 0.000000 0.046346 0.000000
# 6 0.000000 0.000000 0.000000 0.000000 0.000000 0.037584
#
#
# Mechanical properties :
#
#
# Convention : Reuss Voigt Hill
#
# Bulk Modulus (GPa) = 43.24948 47.48066 45.36507
# Shear Modulus (GPa) = 21.89744 23.79803 22.84773
#
# Velocity S-wave (km/s) = 3.29456 3.43456 3.36529
# Velocity P-wave (km/s) = 5.99250 6.26606 6.13080
#
# Compressibility (1/GPa) = 0.02312167
#
# Stress axis : x y z
#
# Youngs Moduli (GPa) = 85.10477 74.68344 40.43608
#
# Poissons Ratio (x) = 0.18233 0.15832
# Poissons Ratio (y) = 0.20777 0.28377
# Poissons Ratio (z) = 0.33322 0.52410
#
# Static dielectric constant tensor:
#      x y z
#    x 3.796770 0.000000 0.000000 
#    y 0.000000 3.678910 0.000000 
#    z 0.000000 0.000000 3.466750 
# 
# 
# High freq. dielectric constant tensor:
#      x y z
#    x 1.808400 0.000000 0.000000 
#    y 0.000000 1.790520 0.000000 
#    z 0.000000 0.000000 1.777330 
# 
# From -- ./inp_files/8759.got.cif
#   From: 2010.03.12/outbox.cif.g09.slc.cpg/sg39_5_cif.got.tgz:8759.got - 2010.04.14 02:53:20.
