data_PCOD8181375
_publ_section_title
;
Structure prediction by ZEFSAII (Michael W. Deem and Ramdas Pophale) SiO2 
 PCOD8181375
Probable space group: A B M 2
;
_chemical_formula_sum "Si O2"
_cell_formula_units_Z 48
_cell_length_a 16.497031
_cell_length_b 8.838385
_cell_length_c 18.006777
_cell_angle_alpha 90.000000
_cell_angle_beta 90.000000
_cell_angle_gamma 90.000000
_cell_volume 2625.516139
_symmetry_space_group_name_H-M "A B M 2"
_symmetry_group_IT_number 39
_symmetry_cell_setting 'orthorhombic'
loop_
_space_group_symop_operation_xyz
x,y,z
-x,-y,z
-x,1/2+y,z
x,1/2-y,z
x,1/2+y,1/2+z
-x,1/2-y,1/2+z
-x,y,1/2+z
x,-y,1/2+z
loop_
_atom_site_type_symbol
_atom_site_label
_atom_site_fract_x
_atom_site_fract_y
_atom_site_fract_z
Si Si1 0.081452 0.926229 0.412620
Si Si2 0.326138 0.917323 0.883441
Si Si3 0.585094 0.429392 0.741384
Si Si4 0.167053 0.581305 0.784710
Si Si5 0.736697 0.928214 0.662771
Si Si6 0.239913 0.575250 0.507459
O O1 0.068246 0.750000 0.401591
O O2 0.153959 0.960225 0.469499
O O3 0.097818 0.997382 0.331582
O O4 0.000000 0.000000 0.446011
O O5 0.344877 0.750000 0.915934
O O6 0.397541 0.971900 0.827961
O O7 0.246962 0.909220 0.833442
O O8 0.313084 0.034547 0.950620
O O9 0.500000 0.500000 0.717485
O O10 0.584239 0.250000 0.730531
O O11 0.652685 0.496567 0.687171
O O12 0.137196 0.750000 0.763526
O O13 0.186977 0.489268 0.709985
O O14 0.729982 0.750000 0.673710
O O15 0.753410 0.967905 0.577795
O O16 0.248467 0.750000 0.530249
#
# Coordination Sequence:
#
# PCOD8181375 Si02
#       6
#     8   8   8   8   8   8
#     4  10  20  34  54  79 106 137 174 217 264 312
#     4   8  16  31  51  74  99 130 167 207 252 304
#     4  10  20  35  55  79 107 137 173 217 264 311
#     4   9  17  32  53  75 101 132 170 212 253 303
#     4  11  21  34  54  78 106 140 178 216 261 316
#     4  10  20  34  53  77 105 138 177 217 260 312
#
# _framework density 18.282119000000002
#
# number of rings (size 3 to 8) (size 9 to 14) (size 15 to 20)
#    0.000    2.333    0.000    4.500    0.000    6.667 
#    0.000    1.667    0.000    4.000    0.000    0.000 
#    0.000    0.000    0.000    0.000    0.000    0.000 
#
# Total GULP energy -297579.008921 kJ/mol
# GULP energy per Si atom -12399.125372 kJ/mol
# Density = 1.824051 g / cm^3
# Si number density = 18.282119 Si / 1000 Ang^3
#
#
#
# Elastic Constant Matrix: (Units=GPa)
#
#
# Indices 1 2 3 4 5 6 
#
# 1 78.7934 45.7586 32.6886 0.0000 0.0000 0.0000
# 2 45.7586 129.4066 52.5175 0.0000 0.0000 0.0000
# 3 32.6886 52.5175 95.1356 0.0000 0.0000 0.0000
# 4 0.0000 0.0000 0.0000 33.1147 0.0000 0.0000
# 5 0.0000 0.0000 0.0000 0.0000 16.4284 0.0000
# 6 0.0000 0.0000 0.0000 0.0000 0.0000 29.8492
#
#
#
# Elastic Compliance Matrix: (Units=1/GPa)
#
#
# Indices 1 2 3 4 5 6 
#
# 1 0.016691 -0.004606 -0.003192 0.000000 0.000000 0.000000
# 2 -0.004606 0.011230 -0.004616 0.000000 0.000000 0.000000
# 3 -0.003192 -0.004616 0.014157 0.000000 0.000000 0.000000
# 4 0.000000 0.000000 0.000000 0.030198 0.000000 0.000000
# 5 0.000000 0.000000 0.000000 0.000000 0.060870 0.000000
# 6 0.000000 0.000000 0.000000 0.000000 0.000000 0.033502
#
#
# Mechanical properties :
#
#
# Convention : Reuss Voigt Hill
#
# Bulk Modulus (GPa) = 57.98008 62.80723 60.39366
# Shear Modulus (GPa) = 25.35158 27.36987 26.36073
#
# Velocity S-wave (km/s) = 3.72786 3.87341 3.80134
# Velocity P-wave (km/s) = 7.09311 7.37791 7.23691
#
# Compressibility (1/GPa) = 0.01724730
#
# Stress axis : x y z
#
# Youngs Moduli (GPa) = 59.91298 89.04749 70.63884
#
# Poissons Ratio (x) = 0.41020 0.22548
# Poissons Ratio (y) = 0.27599 0.32610
# Poissons Ratio (z) = 0.19125 0.41108
#
# Static dielectric constant tensor:
#      x y z
#    x 3.358270 0.000000 0.000000 
#    y 0.000000 3.504670 0.000000 
#    z 0.000000 0.000000 3.321880 
# 
# 
# High freq. dielectric constant tensor:
#      x y z
#    x 1.688340 0.000000 0.000000 
#    y 0.000000 1.723980 0.000000 
#    z 0.000000 0.000000 1.696480 
# 
# From -- ./inp_files/12648.got.cif
#   From: 2010.03.12/outbox.cif.g09.slc.cpg/sg39_7_cif.got.tgz:12648.got - 2010.04.14 02:53:20.
