data_PCOD8181334
_publ_section_title
;
Structure prediction by ZEFSAII (Michael W. Deem and Ramdas Pophale) SiO2 
 PCOD8181334
Probable space group: A B M 2
;
_chemical_formula_sum "Si O2"
_cell_formula_units_Z 44
_cell_length_a 13.427421
_cell_length_b 13.305537
_cell_length_c 13.512430
_cell_angle_alpha 90.000000
_cell_angle_beta 90.000000
_cell_angle_gamma 90.000000
_cell_volume 2414.117866
_symmetry_space_group_name_H-M "A B M 2"
_symmetry_group_IT_number 39
_symmetry_cell_setting 'orthorhombic'
loop_
_space_group_symop_operation_xyz
x,y,z
-x,-y,z
-x,1/2+y,z
x,1/2-y,z
x,1/2+y,1/2+z
-x,1/2-y,1/2+z
-x,y,1/2+z
x,-y,1/2+z
loop_
_atom_site_type_symbol
_atom_site_label
_atom_site_fract_x
_atom_site_fract_y
_atom_site_fract_z
Si Si1 0.633631 0.864005 0.881590
Si Si2 0.500000 0.500000 0.244413
Si Si3 0.359398 0.132265 0.110579
Si Si4 0.948072 0.636056 0.693996
Si Si5 0.140420 0.135913 0.899048
Si Si6 0.141243 0.550993 0.606453
O O1 0.602386 0.750000 0.856073
O O2 0.573830 0.939483 0.813888
O O3 0.749113 0.882491 0.857378
O O4 0.612281 0.886581 0.996680
O O5 0.559079 0.578190 0.177036
O O6 0.357920 0.250000 0.135957
O O7 0.251124 0.086839 0.134430
O O8 0.918825 0.750000 0.668091
O O9 0.936226 0.614483 0.810874
O O10 0.873359 0.566619 0.630549
O O11 0.063093 0.614992 0.670746
O O12 0.132388 0.250000 0.939363
O O13 0.116767 0.063404 0.990474
#
# Coordination Sequence:
#
# PCOD8181334 Si02
#       6
#     8   4   8   8   8   8
#     4   9  19  35  53  74 104 140 172 206 260 324
#     4  12  20  32  56  82 102 128 174 230 264 292
#     4  10  21  37  56  78 105 139 176 213 261 318
#     4  10  20  33  54  82 106 135 179 219 251 300
#     4   9  18  35  55  74 103 142 175 206 257 319
#     4  10  20  35  56  77 107 143 175 211 259 312
#
# _framework density 18.226120000000002
#
# number of rings (size 3 to 8) (size 9 to 14) (size 15 to 20)
#    0.000    2.182    0.000    4.909    0.000    2.909 
#    0.000    0.909    0.000   17.455    0.000    0.000 
#    0.000    0.000    0.000    0.000    0.000    0.000 
#
# Total GULP energy -272820.922154 kJ/mol
# GULP energy per Si atom -12400.951007 kJ/mol
# Density = 1.818464 g / cm^3
# Si number density = 18.226120 Si / 1000 Ang^3
#
#
#
# Elastic Constant Matrix: (Units=GPa)
#
#
# Indices 1 2 3 4 5 6 
#
# 1 77.8818 39.3272 46.5491 0.0000 0.0000 0.0000
# 2 39.3272 124.2335 56.4130 0.0000 0.0000 0.0000
# 3 46.5491 56.4130 91.4386 0.0000 0.0000 0.0000
# 4 0.0000 0.0000 0.0000 33.1996 0.0000 0.0000
# 5 0.0000 0.0000 0.0000 0.0000 28.9751 0.0000
# 6 0.0000 0.0000 0.0000 0.0000 0.0000 28.7338
#
#
#
# Elastic Compliance Matrix: (Units=1/GPa)
#
#
# Indices 1 2 3 4 5 6 
#
# 1 0.018894 -0.002241 -0.008236 0.000000 0.000000 0.000000
# 2 -0.002241 0.011448 -0.005922 0.000000 0.000000 0.000000
# 3 -0.008236 -0.005922 0.018782 0.000000 0.000000 0.000000
# 4 0.000000 0.000000 0.000000 0.030121 0.000000 0.000000
# 5 0.000000 0.000000 0.000000 0.000000 0.034512 0.000000
# 6 0.000000 0.000000 0.000000 0.000000 0.000000 0.034802
#
#
# Mechanical properties :
#
#
# Convention : Reuss Voigt Hill
#
# Bulk Modulus (GPa) = 61.24939 64.23694 62.74317
# Shear Modulus (GPa) = 26.76664 28.26602 27.51633
#
# Velocity S-wave (km/s) = 3.83637 3.94236 3.88973
# Velocity P-wave (km/s) = 7.30082 7.48625 7.39411
#
# Compressibility (1/GPa) = 0.01632669
#
# Stress axis : x y z
#
# Youngs Moduli (GPa) = 52.92630 87.35252 53.24158
#
# Poissons Ratio (x) = 0.19579 0.43848
# Poissons Ratio (y) = 0.11863 0.31528
# Poissons Ratio (z) = 0.43589 0.51728
#
# Static dielectric constant tensor:
#      x y z
#    x 3.498450 0.000000 0.000000 
#    y 0.000000 3.442940 0.000000 
#    z 0.000000 0.000000 3.332120 
# 
# 
# High freq. dielectric constant tensor:
#      x y z
#    x 1.703610 0.000000 0.000000 
#    y 0.000000 1.712130 0.000000 
#    z 0.000000 0.000000 1.709190 
# 
# From -- ./inp_files/6361.got.cif
#   From: 2010.03.12/outbox.cif.g09.slc.cpg/sg39_4_cif.got.tgz:6361.got - 2010.04.14 02:53:20.
