data_PCOD8181839
_publ_section_title
;
Structure prediction by ZEFSAII (Michael W. Deem and Ramdas Pophale) SiO2 
 PCOD8181839
Probable space group: A B M 2
;
_chemical_formula_sum "Si O2"
_cell_formula_units_Z 36
_cell_length_a 16.651619
_cell_length_b 21.083557
_cell_length_c 5.208610
_cell_angle_alpha 90.000000
_cell_angle_beta 90.000000
_cell_angle_gamma 90.000000
_cell_volume 1828.614622
_symmetry_space_group_name_H-M "A B M 2"
_symmetry_group_IT_number 39
_symmetry_cell_setting 'orthorhombic'
loop_
_space_group_symop_operation_xyz
x,y,z
-x,-y,z
-x,1/2+y,z
x,1/2-y,z
x,1/2+y,1/2+z
-x,1/2-y,1/2+z
-x,y,1/2+z
x,-y,1/2+z
loop_
_atom_site_type_symbol
_atom_site_label
_atom_site_fract_x
_atom_site_fract_y
_atom_site_fract_z
Si Si1 0.051513 0.250000 0.714980
Si Si2 0.728321 0.825184 0.253800
Si Si3 0.034845 0.929677 0.341603
Si Si4 0.455412 0.674622 0.777109
Si Si5 0.820844 0.359898 0.250741
O O1 0.107039 0.189581 0.762567
O O2 0.019347 0.250000 0.424127
O O3 0.738358 0.750000 0.291314
O O4 0.636573 0.847276 0.276619
O O5 0.777074 0.860540 0.477128
O O6 0.757037 0.846379 0.973592
O O7 0.131764 0.926852 0.296223
O O8 0.011669 0.894390 0.607844
O O9 0.000000 0.000000 0.386294
O O10 0.460600 0.750000 0.773603
O O11 0.500703 0.646833 0.528197
#
# Coordination Sequence:
#
# PCOD8181839 Si02
#       5
#     4   8   8   8   8
#     4  12  22  32  46  66  96 132 172 210 254 314
#     4  11  20  33  48  73 107 140 174 217 264 304
#     4  10  21  38  56  72  94 133 177 221 273 311
#     4   9  17  29  46  67  95 138 181 207 239 304
#     4  12  21  34  50  73 102 136 175 225 266 303
#
# _framework density 19.687034000000001
#
# number of rings (size 3 to 8) (size 9 to 14) (size 15 to 20)
#    0.000    1.333    2.222    5.333    0.000    3.556 
#    0.000    0.000    0.000    0.000    0.000    0.000 
#    0.000    0.000    0.000  280.000    0.000    0.000 
#
# Total GULP energy -223126.485291 kJ/mol
# GULP energy per Si atom -12395.915850 kJ/mol
# Density = 1.964223 g / cm^3
# Si number density = 19.687034 Si / 1000 Ang^3
#
#
#
# Elastic Constant Matrix: (Units=GPa)
#
#
# Indices 1 2 3 4 5 6 
#
# 1 123.0811 18.0289 35.5037 0.0000 0.0000 0.0000
# 2 18.0289 28.4908 -6.8930 0.0000 0.0000 0.0000
# 3 35.5037 -6.8930 141.9523 0.0000 0.0000 0.0000
# 4 0.0000 0.0000 0.0000 1.4039 0.0000 0.0000
# 5 0.0000 0.0000 0.0000 0.0000 50.8853 0.0000
# 6 0.0000 0.0000 0.0000 0.0000 0.0000 18.1417
#
#
#
# Elastic Compliance Matrix: (Units=1/GPa)
#
#
# Indices 1 2 3 4 5 6 
#
# 1 0.009966 -0.006991 -0.002832 0.000000 0.000000 0.000000
# 2 -0.006991 0.040421 0.003711 0.000000 0.000000 0.000000
# 3 -0.002832 0.003711 0.007933 0.000000 0.000000 0.000000
# 4 0.000000 0.000000 0.000000 0.712309 0.000000 0.000000
# 5 0.000000 0.000000 0.000000 0.000000 0.019652 0.000000
# 6 0.000000 0.000000 0.000000 0.000000 0.000000 0.055122
#
#
# Mechanical properties :
#
#
# Convention : Reuss Voigt Hill
#
# Bulk Modulus (GPa) = 21.69388 42.97816 32.33602
# Shear Modulus (GPa) = 5.72743 30.54515 18.13629
#
# Velocity S-wave (km/s) = 1.70750 3.94323 3.03847
# Velocity P-wave (km/s) = 3.86403 6.52764 5.36381
#
# Compressibility (1/GPa) = 0.04609595
#
# Stress axis : x y z
#
# Youngs Moduli (GPa) = 100.34355 24.73950 126.05310
#
# Poissons Ratio (x) = 0.17297 0.35699
# Poissons Ratio (y) = 0.70155 -0.46784
# Poissons Ratio (z) = 0.28418 -0.09182
#
# Static dielectric constant tensor:
#      x y z
#    x 3.747190 0.000000 0.000000 
#    y 0.000000 3.421980 0.000000 
#    z 0.000000 0.000000 4.312410 
# 
# 
# High freq. dielectric constant tensor:
#      x y z
#    x 1.771800 0.000000 0.000000 
#    y 0.000000 1.705320 0.000000 
#    z 0.000000 0.000000 1.801900 
# 
# From -- ./inp_files/315.got.cif
#   From: 2010.03.12/outbox.cif.g09.slc.cpg/sg39_1_cif.got.tgz:315.got - 2010.04.14 02:53:20.
