data_PCOD8181264
_publ_section_title
;
Structure prediction by ZEFSAII (Michael W. Deem and Ramdas Pophale) SiO2 
 PCOD8181264
Probable space group: A B M 2
;
_chemical_formula_sum "Si O2"
_cell_formula_units_Z 48
_cell_length_a 9.206304
_cell_length_b 14.371143
_cell_length_c 18.167279
_cell_angle_alpha 90.000000
_cell_angle_beta 90.000000
_cell_angle_gamma 90.000000
_cell_volume 2403.623870
_symmetry_space_group_name_H-M "A B M 2"
_symmetry_group_IT_number 39
_symmetry_cell_setting 'orthorhombic'
loop_
_space_group_symop_operation_xyz
x,y,z
-x,-y,z
-x,1/2+y,z
x,1/2-y,z
x,1/2+y,1/2+z
-x,1/2-y,1/2+z
-x,y,1/2+z
x,-y,1/2+z
loop_
_atom_site_type_symbol
_atom_site_label
_atom_site_fract_x
_atom_site_fract_y
_atom_site_fract_z
Si Si1 0.863596 0.061850 0.090000
Si Si2 0.374679 0.250000 0.788087
Si Si3 0.864356 0.102460 0.262424
Si Si4 0.367884 0.436262 0.139912
Si Si5 0.347807 0.750000 0.873669
Si Si6 0.817213 0.601000 0.282399
Si Si7 0.227080 0.750000 0.033188
Si Si8 0.493814 0.750000 0.130640
O O1 0.864188 0.088987 0.175177
O O2 0.866600 0.154745 0.039211
O O3 0.719482 0.997653 0.079429
O O4 0.000000 0.000000 0.066510
O O5 0.270780 0.338259 0.789242
O O6 0.478970 0.250000 0.859398
O O7 0.485609 0.250000 0.719353
O O8 0.021830 0.147697 0.279582
O O9 0.841191 0.005794 0.305812
O O10 0.500000 0.500000 0.171654
O O11 0.261982 0.399037 0.203669
O O12 0.427463 0.342886 0.100982
O O13 0.277567 0.843381 0.840844
O O14 0.323182 0.750000 0.960331
O O15 0.329302 0.750000 0.104081
#
# Coordination Sequence:
#
# PCOD8181264 Si02
#       8
#     8   4   8   8   4   8   4   4
#     4  11  21  40  67 101 126 170 218 282 344 393
#     4  12  21  36  65  95 123 174 223 268 336 388
#     4  10  19  37  67  98 124 155 215 286 323 385
#     4  11  19  33  65 100 125 159 221 278 333 385
#     4  12  27  40  59  94 130 181 214 261 330 415
#     4  10  20  37  60  93 130 157 211 270 330 383
#     4  12  26  45  61  90 146 179 215 269 346 412
#     4  12  20  35  63  91 125 166 214 280 322 379
#
# _framework density 19.969846
#
# number of rings (size 3 to 8) (size 9 to 14) (size 15 to 20)
#    0.000    1.000    8.333    1.500    0.000    0.667 
#    3.000    3.333    3.667    0.000    0.000    0.000 
#    0.000    0.000    0.000    0.000    0.000    0.000 
#
# Total GULP energy -297479.119181 kJ/mol
# GULP energy per Si atom -12394.963299 kJ/mol
# Density = 1.992439 g / cm^3
# Si number density = 19.969846 Si / 1000 Ang^3
#
#
#
# Elastic Constant Matrix: (Units=GPa)
#
#
# Indices 1 2 3 4 5 6 
#
# 1 142.5587 67.1888 20.7735 0.0000 0.0000 0.0000
# 2 67.1888 143.4071 28.3827 0.0000 0.0000 0.0000
# 3 20.7735 28.3827 48.6807 0.0000 0.0000 0.0000
# 4 0.0000 0.0000 0.0000 9.0752 0.0000 0.0000
# 5 0.0000 0.0000 0.0000 0.0000 12.2626 0.0000
# 6 0.0000 0.0000 0.0000 0.0000 0.0000 44.6585
#
#
#
# Elastic Compliance Matrix: (Units=1/GPa)
#
#
# Indices 1 2 3 4 5 6 
#
# 1 0.009109 -0.003955 -0.001581 0.000000 0.000000 0.000000
# 2 -0.003955 0.009600 -0.003909 0.000000 0.000000 0.000000
# 3 -0.001581 -0.003909 0.023496 0.000000 0.000000 0.000000
# 4 0.000000 0.000000 0.000000 0.110190 0.000000 0.000000
# 5 0.000000 0.000000 0.000000 0.000000 0.081549 0.000000
# 6 0.000000 0.000000 0.000000 0.000000 0.000000 0.022392
#
#
# Mechanical properties :
#
#
# Convention : Reuss Voigt Hill
#
# Bulk Modulus (GPa) = 42.89278 63.03739 52.96508
# Shear Modulus (GPa) = 17.66798 27.75270 22.71034
#
# Velocity S-wave (km/s) = 2.97767 3.73195 3.37594
# Velocity P-wave (km/s) = 5.77473 7.08553 6.46344
#
# Compressibility (1/GPa) = 0.02331395
#
# Stress axis : x y z
#
# Youngs Moduli (GPa) = 109.78174 104.16912 42.56018
#
# Poissons Ratio (x) = 0.41196 0.06730
# Poissons Ratio (y) = 0.43416 0.16639
# Poissons Ratio (z) = 0.17360 0.40724
#
# Static dielectric constant tensor:
#      x y z
#    x 3.977830 0.000000 0.000000 
#    y 0.000000 4.788890 0.000000 
#    z 0.000000 0.000000 2.995600 
# 
# 
# High freq. dielectric constant tensor:
#      x y z
#    x 1.798750 0.000000 0.000000 
#    y 0.000000 1.801020 0.000000 
#    z 0.000000 0.000000 1.706350 
# 
# From -- ./inp_files/13967.got.cif
#   From: 2010.03.12/outbox.cif.g09.slc.cpg/sg39_7_cif.got.tgz:13967.got - 2010.04.14 02:53:20.
