data_PCOD8181811
_publ_section_title
;
Structure prediction by ZEFSAII (Michael W. Deem and Ramdas Pophale) SiO2 
 PCOD8181811
Probable space group: A B M 2
;
_chemical_formula_sum "Si O2"
_cell_formula_units_Z 56
_cell_length_a 19.361578
_cell_length_b 8.840833
_cell_length_c 15.789792
_cell_angle_alpha 90.000000
_cell_angle_beta 90.000000
_cell_angle_gamma 90.000000
_cell_volume 2702.777819
_symmetry_space_group_name_H-M "A B M 2"
_symmetry_group_IT_number 39
_symmetry_cell_setting 'orthorhombic'
loop_
_space_group_symop_operation_xyz
x,y,z
-x,-y,z
-x,1/2+y,z
x,1/2-y,z
x,1/2+y,1/2+z
-x,1/2-y,1/2+z
-x,y,1/2+z
x,-y,1/2+z
loop_
_atom_site_type_symbol
_atom_site_label
_atom_site_fract_x
_atom_site_fract_y
_atom_site_fract_z
Si Si1 0.294123 0.575418 0.584330
Si Si2 0.846772 0.076114 0.667421
Si Si3 0.162539 0.428411 0.838210
Si Si4 0.570279 0.577167 0.654356
Si Si5 0.291334 0.071768 0.411326
Si Si6 0.074823 0.070733 0.999371
Si Si7 0.430146 0.077683 0.854935
O O1 0.301238 0.750000 0.557144
O O2 0.235550 0.555996 0.655487
O O3 0.366592 0.516457 0.617647
O O4 0.268289 0.479668 0.504355
O O5 0.866032 0.250000 0.683819
O O6 0.886370 0.015290 0.584242
O O7 0.870932 0.980763 0.749213
O O8 0.170732 0.250000 0.839329
O O9 0.238393 0.501595 0.843976
O O10 0.115715 0.486034 0.916161
O O11 0.500000 0.500000 0.621415
O O12 0.573255 0.750000 0.622128
O O13 0.574693 0.568828 0.754599
O O14 0.289640 0.250000 0.401960
O O15 0.368091 0.013702 0.395723
O O16 0.069305 0.250000 0.998015
O O17 0.000000 0.000000 0.997258
O O18 0.428269 0.250000 0.886889
O O19 0.500000 0.000000 0.887891
#
# Coordination Sequence:
#
# PCOD8181811 Si02
#       7
#     8   8   8   8   8   8   8
#     4  11  22  39  61  85 121 161 203 260 318 370
#     4  10  22  42  66  94 129 168 211 258 314 376
#     4  11  23  42  66  95 130 169 213 261 315 374
#     4  10  21  37  57  84 116 155 204 255 311 375
#     4  12  24  38  60  89 121 160 210 261 315 375
#     4  10  23  44  67  95 133 170 208 256 312 372
#     4  10  21  38  59  84 118 158 204 258 316 375
#
# _framework density 20.719424
#
# number of rings (size 3 to 8) (size 9 to 14) (size 15 to 20)
#    0.000    1.429    1.429    3.857    0.000    8.000 
#    0.000    5.714    0.000    0.000    0.000    0.000 
#    0.000    0.000    0.000    0.000    0.000    0.000 
#
# Total GULP energy -347331.381987 kJ/mol
# GULP energy per Si atom -12404.692214 kJ/mol
# Density = 2.067227 g / cm^3
# Si number density = 20.719424 Si / 1000 Ang^3
#
#
#
# Elastic Constant Matrix: (Units=GPa)
#
#
# Indices 1 2 3 4 5 6 
#
# 1 120.9899 49.9724 59.2164 0.0000 0.0000 0.0000
# 2 49.9724 113.2606 51.0675 0.0000 0.0000 0.0000
# 3 59.2164 51.0675 119.5888 0.0000 0.0000 0.0000
# 4 0.0000 0.0000 0.0000 36.6777 0.0000 0.0000
# 5 0.0000 0.0000 0.0000 0.0000 6.9641 0.0000
# 6 0.0000 0.0000 0.0000 0.0000 0.0000 38.2102
#
#
#
# Elastic Compliance Matrix: (Units=1/GPa)
#
#
# Indices 1 2 3 4 5 6 
#
# 1 0.011764 -0.003175 -0.004469 0.000000 0.000000 0.000000
# 2 -0.003175 0.011792 -0.003463 0.000000 0.000000 0.000000
# 3 -0.004469 -0.003463 0.012054 0.000000 0.000000 0.000000
# 4 0.000000 0.000000 0.000000 0.027265 0.000000 0.000000
# 5 0.000000 0.000000 0.000000 0.000000 0.143593 0.000000
# 6 0.000000 0.000000 0.000000 0.000000 0.000000 0.026171
#
#
# Mechanical properties :
#
#
# Convention : Reuss Voigt Hill
#
# Bulk Modulus (GPa) = 74.65854 74.92798 74.79326
# Shear Modulus (GPa) = 19.28137 29.27594 24.27866
#
# Velocity S-wave (km/s) = 3.05387 3.76303 3.42684
# Velocity P-wave (km/s) = 6.96751 7.42443 7.19960
#
# Compressibility (1/GPa) = 0.01339432
#
# Stress axis : x y z
#
# Youngs Moduli (GPa) = 85.00469 84.80590 82.96162
#
# Poissons Ratio (x) = 0.26929 0.37077
# Poissons Ratio (y) = 0.26992 0.28729
# Poissons Ratio (z) = 0.37990 0.29368
#
# Static dielectric constant tensor:
#      x y z
#    x 3.819490 0.000000 0.000000 
#    y 0.000000 3.769120 0.000000 
#    z 0.000000 0.000000 3.861400 
# 
# 
# High freq. dielectric constant tensor:
#      x y z
#    x 1.812730 0.000000 0.000000 
#    y 0.000000 1.814090 0.000000 
#    z 0.000000 0.000000 1.816340 
# 
# From -- ./inp_files/10386.got.cif
#   From: 2010.03.12/outbox.cif.g09.slc.cpg/sg39_6_cif.got.tgz:10386.got - 2010.04.14 02:53:20.
