data_PCOD8181138
_publ_section_title
;
Structure prediction by ZEFSAII (Michael W. Deem and Ramdas Pophale) SiO2 
 PCOD8181138
Probable space group: A B M 2
;
_chemical_formula_sum "Si O2"
_cell_formula_units_Z 60
_cell_length_a 15.558932
_cell_length_b 9.359212
_cell_length_c 21.526092
_cell_angle_alpha 90.000000
_cell_angle_beta 90.000000
_cell_angle_gamma 90.000000
_cell_volume 3134.615376
_symmetry_space_group_name_H-M "A B M 2"
_symmetry_group_IT_number 39
_symmetry_cell_setting 'orthorhombic'
loop_
_space_group_symop_operation_xyz
x,y,z
-x,-y,z
-x,1/2+y,z
x,1/2-y,z
x,1/2+y,1/2+z
-x,1/2-y,1/2+z
-x,y,1/2+z
x,-y,1/2+z
loop_
_atom_site_type_symbol
_atom_site_label
_atom_site_fract_x
_atom_site_fract_y
_atom_site_fract_z
Si Si1 0.917746 0.582419 0.872740
Si Si2 0.500000 0.000000 0.991253
Si Si3 0.760533 0.910527 0.950662
Si Si4 0.274037 0.081678 0.689901
Si Si5 0.670622 0.912108 0.553453
Si Si6 0.404195 0.402843 0.877717
Si Si7 0.581893 0.920670 0.261575
Si Si8 0.914911 0.416558 0.230446
O O1 0.932343 0.750000 0.878660
O O2 0.845935 0.526780 0.920007
O O3 0.896099 0.541727 0.801733
O O4 0.000000 0.500000 0.896600
O O5 0.546904 0.891847 0.944057
O O6 0.429845 0.927772 0.036118
O O7 0.773052 0.750000 0.975189
O O8 0.695281 0.916541 0.893338
O O9 0.733458 0.002389 0.009144
O O10 0.286880 0.250000 0.704451
O O11 0.312031 0.036555 0.623345
O O12 0.172567 0.041713 0.693455
O O13 0.328707 0.988076 0.738627
O O14 0.698739 0.750000 0.546367
O O15 0.421168 0.250000 0.842816
O O16 0.427512 0.540177 0.835241
O O17 0.579823 0.750000 0.251323
O O18 0.500000 0.000000 0.228319
O O19 0.935411 0.250000 0.222284
O O20 0.000000 0.500000 0.205611
#
# Coordination Sequence:
#
# PCOD8181138 Si02
#       8
#     8   4   8   8   8   8   8   8
#     4   9  17  31  53  82 112 143 179 224 282 341
#     4  10  20  34  56  82 108 144 188 238 282 334
#     4   9  19  35  55  80 111 146 182 227 281 334
#     4  10  22  41  60  82 116 155 194 240 290 338
#     4  10  22  38  58  82 109 148 196 237 276 330
#     4  10  19  34  56  79 109 143 180 228 286 340
#     4  12  25  38  56  83 116 151 190 235 284 341
#     4   9  18  35  60  86 114 147 186 235 291 347
#
# _framework density 19.141105
#
# number of rings (size 3 to 8) (size 9 to 14) (size 15 to 20)
#    0.000    2.133    0.667    2.400    0.933    6.400 
#    0.000    3.333    0.000    3.200    0.000    0.000 
#    0.000    0.000    0.000    0.000    0.000    0.000 
#
# Total GULP energy -371800.848797 kJ/mol
# GULP energy per Si atom -12393.361627 kJ/mol
# Density = 1.909754 g / cm^3
# Si number density = 19.141105 Si / 1000 Ang^3
#
#
#
# Elastic Constant Matrix: (Units=GPa)
#
#
# Indices 1 2 3 4 5 6 
#
# 1 146.8473 45.4748 53.6199 0.0000 0.0000 0.0000
# 2 45.4748 85.2698 32.2917 0.0000 0.0000 0.0000
# 3 53.6199 32.2917 82.1857 0.0000 0.0000 0.0000
# 4 0.0000 0.0000 0.0000 24.7622 0.0000 0.0000
# 5 0.0000 0.0000 0.0000 0.0000 28.7359 0.0000
# 6 0.0000 0.0000 0.0000 0.0000 0.0000 28.7646
#
#
#
# Elastic Compliance Matrix: (Units=1/GPa)
#
#
# Indices 1 2 3 4 5 6 
#
# 1 0.009647 -0.003244 -0.005019 0.000000 0.000000 0.000000
# 2 -0.003244 0.014868 -0.003725 0.000000 0.000000 0.000000
# 3 -0.005019 -0.003725 0.016906 0.000000 0.000000 0.000000
# 4 0.000000 0.000000 0.000000 0.040384 0.000000 0.000000
# 5 0.000000 0.000000 0.000000 0.000000 0.034800 0.000000
# 6 0.000000 0.000000 0.000000 0.000000 0.000000 0.034765
#
#
# Mechanical properties :
#
#
# Convention : Reuss Voigt Hill
#
# Bulk Modulus (GPa) = 57.32687 64.11951 60.72319
# Shear Modulus (GPa) = 27.59946 28.64697 28.12322
#
# Velocity S-wave (km/s) = 3.80135 3.87282 3.83725
# Velocity P-wave (km/s) = 7.02009 7.31911 7.17116
#
# Compressibility (1/GPa) = 0.01744383
#
# Stress axis : x y z
#
# Youngs Moduli (GPa) = 103.65723 67.25683 59.15008
#
# Poissons Ratio (x) = 0.21818 0.29690
# Poissons Ratio (y) = 0.33627 0.22036
# Poissons Ratio (z) = 0.52030 0.25056
#
# Static dielectric constant tensor:
#      x y z
#    x 3.716600 0.000000 0.000000 
#    y 0.000000 3.419150 0.000000 
#    z 0.000000 0.000000 3.320920 
# 
# 
# High freq. dielectric constant tensor:
#      x y z
#    x 1.756230 0.000000 0.000000 
#    y 0.000000 1.737430 0.000000 
#    z 0.000000 0.000000 1.724510 
# 
# From -- ./inp_files/16110.got.cif
#   From: 2010.03.12/outbox.cif.g09.slc.cpg/sg39_9_cif.got.tgz:16110.got - 2010.04.14 02:53:20.
