data_PCOD8181633
_publ_section_title
;
Structure prediction by ZEFSAII (Michael W. Deem and Ramdas Pophale) SiO2 
 PCOD8181633
Probable space group: A B M 2
;
_chemical_formula_sum "Si O2"
_cell_formula_units_Z 48
_cell_length_a 8.581604
_cell_length_b 16.599376
_cell_length_c 16.032045
_cell_angle_alpha 90.000000
_cell_angle_beta 90.000000
_cell_angle_gamma 90.000000
_cell_volume 2283.753131
_symmetry_space_group_name_H-M "A B M 2"
_symmetry_group_IT_number 39
_symmetry_cell_setting 'orthorhombic'
loop_
_space_group_symop_operation_xyz
x,y,z
-x,-y,z
-x,1/2+y,z
x,1/2-y,z
x,1/2+y,1/2+z
-x,1/2-y,1/2+z
-x,y,1/2+z
x,-y,1/2+z
loop_
_atom_site_type_symbol
_atom_site_label
_atom_site_fract_x
_atom_site_fract_y
_atom_site_fract_z
Si Si1 0.058500 0.910706 0.994240
Si Si2 0.573054 0.412087 0.173240
Si Si3 0.058025 0.088245 0.677589
Si Si4 0.608839 0.842358 0.506709
Si Si5 0.560730 0.590894 0.340899
Si Si6 0.107170 0.341048 0.329445
O O1 0.005503 0.857192 0.914336
O O2 0.993687 0.883911 0.085789
O O3 0.246024 0.903821 0.000383
O O4 0.000000 0.000000 0.975365
O O5 0.500000 0.500000 0.166064
O O6 0.757489 0.413587 0.177347
O O7 0.516011 0.361634 0.092061
O O8 0.513286 0.369298 0.257831
O O9 0.998023 0.149355 0.747600
O O10 0.000000 0.000000 0.700923
O O11 0.665344 0.750000 0.507234
O O12 0.505728 0.860518 0.423943
O O13 0.500000 0.500000 0.349156
O O14 0.747938 0.596841 0.328992
O O15 0.170778 0.250000 0.332166
#
# Coordination Sequence:
#
# PCOD8181633 Si02
#       6
#     8   8   8   8   8   8
#     4   9  19  35  59  84 112 154 198 237 282 344
#     4  10  21  37  60  87 115 152 198 240 283 344
#     4  10  20  37  60  86 115 152 197 240 285 344
#     4  10  21  37  58  85 119 153 188 239 299 348
#     4  10  20  37  61  86 116 155 199 241 284 346
#     4  11  23  39  60  88 122 154 190 243 301 348
#
# _framework density 21.018032999999999
#
# number of rings (size 3 to 8) (size 9 to 14) (size 15 to 20)
#    0.000    2.000    0.000    5.000    0.000    7.333 
#    0.000    3.333    0.000    0.000    0.000    0.000 
#    0.000    0.000    0.000    0.000    0.000    0.000 
#
# Total GULP energy -297344.425202 kJ/mol
# GULP energy per Si atom -12389.351050 kJ/mol
# Density = 2.097020 g / cm^3
# Si number density = 21.018033 Si / 1000 Ang^3
#
#
#
# Elastic Constant Matrix: (Units=GPa)
#
#
# Indices 1 2 3 4 5 6 
#
# 1 60.7589 40.5038 44.2704 0.0000 0.0000 0.0000
# 2 40.5038 104.4658 62.0728 0.0000 0.0000 0.0000
# 3 44.2704 62.0728 238.8188 0.0000 0.0000 0.0000
# 4 0.0000 0.0000 0.0000 -38.1590 0.0000 0.0000
# 5 0.0000 0.0000 0.0000 0.0000 34.0249 0.0000
# 6 0.0000 0.0000 0.0000 0.0000 0.0000 20.8718
#
#
#
# Elastic Compliance Matrix: (Units=1/GPa)
#
#
# Indices 1 2 3 4 5 6 
#
# 1 0.023238 -0.007628 -0.002325 0.000000 0.000000 0.000000
# 2 -0.007628 0.013825 -0.002179 0.000000 0.000000 0.000000
# 3 -0.002325 -0.002179 0.005185 0.000000 0.000000 0.000000
# 4 0.000000 0.000000 0.000000 -0.026206 0.000000 0.000000
# 5 0.000000 0.000000 0.000000 0.000000 0.029390 0.000000
# 6 0.000000 0.000000 0.000000 0.000000 0.000000 0.047912
#
#
# Mechanical properties :
#
#
# Convention : Reuss Voigt Hill
#
# Bulk Modulus (GPa) = 55.60974 77.52638 66.56806
# Shear Modulus (GPa) = 40.45225 20.49397 30.47311
#
# Velocity S-wave (km/s) = 4.39184 3.12599 3.81183
# Velocity P-wave (km/s) = 7.22725 7.07070 7.14941
#
# Compressibility (1/GPa) = 0.01798246
#
# Stress axis : x y z
#
# Youngs Moduli (GPa) = 43.03334 72.33212 192.87595
#
# Poissons Ratio (x) = 0.55178 0.44842
# Poissons Ratio (y) = 0.32827 0.42033
# Poissons Ratio (z) = 0.10005 0.15763
#
# Static dielectric constant tensor:
#      x y z
#    x 3.396540 0.000000 0.000000 
#    y 0.000000 4.023320 0.000000 
#    z 0.000000 0.000000 5.068050 
# 
# 
# High freq. dielectric constant tensor:
#      x y z
#    x 1.782390 0.000000 0.000000 
#    y 0.000000 1.799500 0.000000 
#    z 0.000000 0.000000 1.870280 
# 
# From -- ./inp_files/11594.got.cif
#   From: 2010.03.12/outbox.cif.g09.slc.cpg/sg39_6_cif.got.tgz:11594.got - 2010.04.14 02:53:20.
