data_PCOD8181124
_publ_section_title
;
Structure prediction by ZEFSAII (Michael W. Deem and Ramdas Pophale) SiO2 
 PCOD8181124
Probable space group: A B M 2
;
_chemical_formula_sum "Si O2"
_cell_formula_units_Z 64
_cell_length_a 14.544885
_cell_length_b 8.700875
_cell_length_c 24.650710
_cell_angle_alpha 90.000000
_cell_angle_beta 90.000000
_cell_angle_gamma 90.000000
_cell_volume 3119.626880
_symmetry_space_group_name_H-M "A B M 2"
_symmetry_group_IT_number 39
_symmetry_cell_setting 'orthorhombic'
loop_
_space_group_symop_operation_xyz
x,y,z
-x,-y,z
-x,1/2+y,z
x,1/2-y,z
x,1/2+y,1/2+z
-x,1/2-y,1/2+z
-x,y,1/2+z
x,-y,1/2+z
loop_
_atom_site_type_symbol
_atom_site_label
_atom_site_fract_x
_atom_site_fract_y
_atom_site_fract_z
Si Si1 0.587551 0.072966 0.455430
Si Si2 0.333004 0.928485 0.856206
Si Si3 0.908285 0.076416 0.275780
Si Si4 0.707385 0.431814 0.246118
Si Si5 0.151284 0.426959 0.894363
Si Si6 0.398306 0.931557 0.645320
Si Si7 0.729321 0.927635 0.047418
Si Si8 0.092652 0.931922 0.005287
O O1 0.569692 0.250000 0.444000
O O2 0.679343 0.048690 0.490066
O O3 0.500000 0.000000 0.487183
O O4 0.590336 0.981268 0.398735
O O5 0.342119 0.750000 0.841987
O O6 0.344882 0.027493 0.801675
O O7 0.237133 0.962746 0.885522
O O8 0.911846 0.250000 0.256500
O O9 0.813191 0.006895 0.251293
O O10 0.912080 0.062074 0.341019
O O11 0.000000 0.000000 0.251189
O O12 0.703464 0.250000 0.236891
O O13 0.655328 0.518219 0.198683
O O14 0.183914 0.250000 0.903124
O O15 0.097937 0.485899 0.946825
O O16 0.408997 0.750000 0.644078
O O17 0.337375 0.989965 0.594649
O O18 0.500000 0.000000 0.642733
O O19 0.754211 0.750000 0.057502
O O20 0.822731 0.025724 0.044881
O O21 0.086742 0.750000 0.998117
O O22 0.000000 0.000000 0.032558
#
# Coordination Sequence:
#
# PCOD8181124 Si02
#       8
#     8   8   8   8   8   8   8   8
#     4  11  22  37  59  87 123 162 199 247 306 375
#     4  11  21  35  57  88 123 162 205 251 307 370
#     4   9  19  33  54  84 120 161 203 245 296 355
#     4  10  22  41  62  88 123 163 205 257 311 364
#     4  10  19  34  54  82 123 166 207 251 301 361
#     4  11  24  44  70  97 120 155 203 257 313 372
#     4  10  23  43  65  89 124 161 201 255 312 368
#     4  12  24  37  59  89 124 166 211 256 307 366
#
# _framework density 20.515274000000002
#
# number of rings (size 3 to 8) (size 9 to 14) (size 15 to 20)
#    0.000    1.500    1.250    5.250    0.000    6.000 
#    0.000    3.125    0.000    1.500    0.000    0.000 
#    0.000    0.000    0.000    0.000    0.000    0.000 
#
# Total GULP energy -396784.543177 kJ/mol
# GULP energy per Si atom -12399.516974 kJ/mol
# Density = 2.046858 g / cm^3
# Si number density = 20.515274 Si / 1000 Ang^3
#
#
#
# Elastic Constant Matrix: (Units=GPa)
#
#
# Indices 1 2 3 4 5 6 
#
# 1 134.2842 51.5094 49.7656 0.0000 0.0000 0.0000
# 2 51.5094 79.9063 20.2635 0.0000 0.0000 0.0000
# 3 49.7656 20.2635 91.4571 0.0000 0.0000 0.0000
# 4 0.0000 0.0000 0.0000 26.7635 0.0000 0.0000
# 5 0.0000 0.0000 0.0000 0.0000 23.0202 0.0000
# 6 0.0000 0.0000 0.0000 0.0000 0.0000 38.0511
#
#
#
# Elastic Compliance Matrix: (Units=1/GPa)
#
#
# Indices 1 2 3 4 5 6 
#
# 1 0.011700 -0.006280 -0.004975 0.000000 0.000000 0.000000
# 2 -0.006280 0.016631 -0.000267 0.000000 0.000000 0.000000
# 3 -0.004975 -0.000267 0.013700 0.000000 0.000000 0.000000
# 4 0.000000 0.000000 0.000000 0.037364 0.000000 0.000000
# 5 0.000000 0.000000 0.000000 0.000000 0.043440 0.000000
# 6 0.000000 0.000000 0.000000 0.000000 0.000000 0.026280
#
#
# Mechanical properties :
#
#
# Convention : Reuss Voigt Hill
#
# Bulk Modulus (GPa) = 52.67079 60.96939 56.82009
# Shear Modulus (GPa) = 28.01292 29.84089 28.92690
#
# Velocity S-wave (km/s) = 3.69923 3.81802 3.75909
# Velocity P-wave (km/s) = 6.63140 7.01569 6.82625
#
# Compressibility (1/GPa) = 0.01898586
#
# Stress axis : x y z
#
# Youngs Moduli (GPa) = 85.47364 60.12923 72.99113
#
# Poissons Ratio (x) = 0.37762 0.36311
# Poissons Ratio (y) = 0.53679 0.01952
# Poissons Ratio (z) = 0.42521 0.01608
#
# Static dielectric constant tensor:
#      x y z
#    x 3.877700 0.000000 0.000000 
#    y 0.000000 3.671320 0.000000 
#    z 0.000000 0.000000 3.619060 
# 
# 
# High freq. dielectric constant tensor:
#      x y z
#    x 1.813270 0.000000 0.000000 
#    y 0.000000 1.804770 0.000000 
#    z 0.000000 0.000000 1.780850 
# 
# From -- ./inp_files/16202.got.cif
#   From: 2010.03.12/outbox.cif.g09.slc.cpg/sg39_9_cif.got.tgz:16202.got - 2010.04.14 02:53:20.
