data_PCOD8181490
_publ_section_title
;
Structure prediction by ZEFSAII (Michael W. Deem and Ramdas Pophale) SiO2 
 PCOD8181490
Probable space group: A B M 2
;
_chemical_formula_sum "Si O2"
_cell_formula_units_Z 48
_cell_length_a 9.342694
_cell_length_b 13.456329
_cell_length_c 17.383472
_cell_angle_alpha 90.000000
_cell_angle_beta 90.000000
_cell_angle_gamma 90.000000
_cell_volume 2185.421664
_symmetry_space_group_name_H-M "A B M 2"
_symmetry_group_IT_number 39
_symmetry_cell_setting 'orthorhombic'
loop_
_space_group_symop_operation_xyz
x,y,z
-x,-y,z
-x,1/2+y,z
x,1/2-y,z
x,1/2+y,1/2+z
-x,1/2-y,1/2+z
-x,y,1/2+z
x,-y,1/2+z
loop_
_atom_site_type_symbol
_atom_site_label
_atom_site_fract_x
_atom_site_fract_y
_atom_site_fract_z
Si Si1 0.261148 0.362104 0.614790
Si Si2 0.783359 0.561397 0.293903
Si Si3 0.700478 0.563680 0.460479
Si Si4 0.610620 0.639417 0.999146
Si Si5 0.085861 0.860682 0.259497
Si Si6 0.563317 0.364339 0.671331
O O1 0.308046 0.250000 0.595820
O O2 0.203947 0.412520 0.535642
O O3 0.125665 0.368803 0.670018
O O4 0.402956 0.410661 0.656601
O O5 0.754295 0.605214 0.379168
O O6 0.824335 0.444883 0.304281
O O7 0.647034 0.575781 0.238231
O O8 0.916367 0.622651 0.261123
O O9 0.555089 0.618692 0.483635
O O10 0.695132 0.443988 0.451594
O O11 0.652007 0.750000 0.970237
O O12 0.646275 0.628255 0.089962
O O13 0.123506 0.750000 0.291444
O O14 0.552003 0.250000 0.699108
#
# Coordination Sequence:
#
# PCOD8181490 Si02
#       6
#     8   8   8   8   8   8
#     4   9  19  38  64  89 116 156 198 235 282 343
#     4  11  23  38  60  89 118 151 191 241 297 342
#     4  10  20  35  58  87 119 153 190 239 294 342
#     4   9  19  35  55  85 121 153 190 235 286 347
#     4  10  23  42  59  80 115 155 196 238 285 349
#     4   9  18  35  62  91 117 150 191 233 280 343
#
# _framework density 21.963723999999999
#
# number of rings (size 3 to 8) (size 9 to 14) (size 15 to 20)
#    0.000    2.333    0.000    3.000    0.000    8.000 
#    0.000    8.333    0.000    0.000    0.000    0.000 
#    0.000    0.000    0.000    0.000    0.000    0.000 
#
# Total GULP energy -297390.331202 kJ/mol
# GULP energy per Si atom -12391.263800 kJ/mol
# Density = 2.191373 g / cm^3
# Si number density = 21.963724 Si / 1000 Ang^3
#
#
#
# Elastic Constant Matrix: (Units=GPa)
#
#
# Indices 1 2 3 4 5 6 
#
# 1 74.4638 35.3416 74.7198 0.0000 0.0000 0.0000
# 2 35.3416 77.8118 35.7513 0.0000 0.0000 0.0000
# 3 74.7198 35.7513 145.8422 0.0000 0.0000 0.0000
# 4 0.0000 0.0000 0.0000 20.8300 0.0000 0.0000
# 5 0.0000 0.0000 0.0000 0.0000 26.3574 0.0000
# 6 0.0000 0.0000 0.0000 0.0000 0.0000 21.2870
#
#
#
# Elastic Compliance Matrix: (Units=1/GPa)
#
#
# Indices 1 2 3 4 5 6 
#
# 1 0.031265 -0.007709 -0.014128 0.000000 0.000000 0.000000
# 2 -0.007709 0.016384 -0.000067 0.000000 0.000000 0.000000
# 3 -0.014128 -0.000067 0.014111 0.000000 0.000000 0.000000
# 4 0.000000 0.000000 0.000000 0.048008 0.000000 0.000000
# 5 0.000000 0.000000 0.000000 0.000000 0.037940 0.000000
# 6 0.000000 0.000000 0.000000 0.000000 0.000000 0.046977
#
#
# Mechanical properties :
#
#
# Convention : Reuss Voigt Hill
#
# Bulk Modulus (GPa) = 55.70383 65.52702 60.61543
# Shear Modulus (GPa) = 20.45184 23.84857 22.15020
#
# Velocity S-wave (km/s) = 3.05481 3.29875 3.17912
# Velocity P-wave (km/s) = 6.15299 6.66393 6.41355
#
# Compressibility (1/GPa) = 0.01795209
#
# Stress axis : x y z
#
# Youngs Moduli (GPa) = 31.98456 61.03700 70.86421
#
# Poissons Ratio (x) = 0.47053 1.00120
# Poissons Ratio (y) = 0.24657 0.00472
# Poissons Ratio (z) = 0.45189 0.00407
#
# Static dielectric constant tensor:
#      x y z
#    x 3.538640 0.000000 0.000000 
#    y 0.000000 4.277330 0.000000 
#    z 0.000000 0.000000 3.850140 
# 
# 
# High freq. dielectric constant tensor:
#      x y z
#    x 1.822170 0.000000 0.000000 
#    y 0.000000 1.881640 0.000000 
#    z 0.000000 0.000000 1.854090 
# 
# From -- ./inp_files/9218.got.cif
#   From: 2010.03.12/outbox.cif.g09.slc.cpg/sg39_5_cif.got.tgz:9218.got - 2010.04.14 02:53:20.
