data_PCOD8181820
_publ_section_title
;
Structure prediction by ZEFSAII (Michael W. Deem and Ramdas Pophale) SiO2 
 PCOD8181820
Probable space group: A B M 2
;
_chemical_formula_sum "Si O2"
_cell_formula_units_Z 64
_cell_length_a 18.767318
_cell_length_b 9.266545
_cell_length_c 19.441283
_cell_angle_alpha 90.000000
_cell_angle_beta 90.000000
_cell_angle_gamma 90.000000
_cell_volume 3380.998470
_symmetry_space_group_name_H-M "A B M 2"
_symmetry_group_IT_number 39
_symmetry_cell_setting 'orthorhombic'
loop_
_space_group_symop_operation_xyz
x,y,z
-x,-y,z
-x,1/2+y,z
x,1/2-y,z
x,1/2+y,1/2+z
-x,1/2-y,1/2+z
-x,y,1/2+z
x,-y,1/2+z
loop_
_atom_site_type_symbol
_atom_site_label
_atom_site_fract_x
_atom_site_fract_y
_atom_site_fract_z
Si Si1 0.926767 0.579670 0.310940
Si Si2 0.800961 0.919054 0.565001
Si Si3 0.349208 0.085968 0.770255
Si Si4 0.431605 0.414896 0.161596
Si Si5 0.663211 0.085034 0.531936
Si Si6 0.571057 0.414887 0.407362
Si Si7 0.929197 0.917374 0.468647
Si Si8 0.191962 0.419423 0.724347
O O1 0.935016 0.750000 0.296790
O O2 0.906244 0.548344 0.390274
O O3 0.865733 0.515031 0.263174
O O4 0.000000 0.500000 0.291772
O O5 0.787890 0.750000 0.558932
O O6 0.869043 0.969765 0.521486
O O7 0.809883 0.964670 0.644323
O O8 0.734581 0.993969 0.528678
O O9 0.360222 0.250000 0.744166
O O10 0.367547 0.069587 0.850181
O O11 0.268127 0.038837 0.756753
O O12 0.404558 0.983169 0.732058
O O13 0.500000 0.500000 0.133736
O O14 0.453357 0.250000 0.174897
O O15 0.368569 0.429725 0.107471
O O16 0.681667 0.250000 0.513419
O O17 0.605938 0.024025 0.477325
O O18 0.500000 0.500000 0.387608
O O19 0.547455 0.250000 0.416905
O O20 0.945526 0.750000 0.477916
O O21 0.000000 0.000000 0.489878
O O22 0.175035 0.250000 0.733980
#
# Coordination Sequence:
#
# PCOD8181820 Si02
#       8
#     8   8   8   8   8   8   8   8
#     4  10  21  38  60  86 117 150 189 232 276 330
#     4  10  21  38  59  84 116 150 188 230 278 335
#     4  10  21  38  58  82 114 150 188 231 282 338
#     4  11  22  36  57  82 110 145 188 233 281 336
#     4  10  22  38  56  82 112 145 188 234 280 335
#     4  10  22  39  57  81 111 145 189 236 284 340
#     4   9  20  38  59  86 115 148 188 230 275 329
#     4  10  21  37  58  85 117 153 188 230 282 335
#
# _framework density 18.929319
#
# number of rings (size 3 to 8) (size 9 to 14) (size 15 to 20)
#    0.000    2.000    1.250    1.500    1.750    5.000 
#    0.000    1.250    0.000    0.000    0.000    0.000 
#    0.000    0.000    0.000    0.000    0.000    0.000 
#
# Total GULP energy -396915.995085 kJ/mol
# GULP energy per Si atom -12403.624846 kJ/mol
# Density = 1.888624 g / cm^3
# Si number density = 18.929319 Si / 1000 Ang^3
#
#
#
# Elastic Constant Matrix: (Units=GPa)
#
#
# Indices 1 2 3 4 5 6 
#
# 1 140.1684 63.7260 55.9830 0.0000 0.0000 0.0000
# 2 63.7260 79.4802 37.6373 0.0000 0.0000 0.0000
# 3 55.9830 37.6373 89.5621 0.0000 0.0000 0.0000
# 4 0.0000 0.0000 0.0000 24.4667 0.0000 0.0000
# 5 0.0000 0.0000 0.0000 0.0000 36.0088 0.0000
# 6 0.0000 0.0000 0.0000 0.0000 0.0000 40.2441
#
#
#
# Elastic Compliance Matrix: (Units=1/GPa)
#
#
# Indices 1 2 3 4 5 6 
#
# 1 0.012533 -0.007914 -0.004508 0.000000 0.000000 0.000000
# 2 -0.007914 0.020705 -0.003754 0.000000 0.000000 0.000000
# 3 -0.004508 -0.003754 0.015561 0.000000 0.000000 0.000000
# 4 0.000000 0.000000 0.000000 0.040872 0.000000 0.000000
# 5 0.000000 0.000000 0.000000 0.000000 0.027771 0.000000
# 6 0.000000 0.000000 0.000000 0.000000 0.000000 0.024848
#
#
# Mechanical properties :
#
#
# Convention : Reuss Voigt Hill
#
# Bulk Modulus (GPa) = 60.80460 69.32260 65.06360
# Shear Modulus (GPa) = 27.75865 30.26821 29.01343
#
# Velocity S-wave (km/s) = 3.83356 4.00310 3.91925
# Velocity P-wave (km/s) = 7.19629 7.62022 7.41129
#
# Compressibility (1/GPa) = 0.01644612
#
# Stress axis : x y z
#
# Youngs Moduli (GPa) = 79.79086 48.29847 64.26287
#
# Poissons Ratio (x) = 0.38222 0.28972
# Poissons Ratio (y) = 0.63144 0.24125
# Poissons Ratio (z) = 0.35972 0.18132
#
# Static dielectric constant tensor:
#      x y z
#    x 3.440570 0.000000 0.000000 
#    y 0.000000 3.453110 0.000000 
#    z 0.000000 0.000000 3.517190 
# 
# 
# High freq. dielectric constant tensor:
#      x y z
#    x 1.740090 0.000000 0.000000 
#    y 0.000000 1.733280 0.000000 
#    z 0.000000 0.000000 1.741730 
# 
# From -- ./inp_files/13155.got.cif
#   From: 2010.03.12/outbox.cif.g09.slc.cpg/sg39_7_cif.got.tgz:13155.got - 2010.04.14 02:53:20.
