data_PCOD8181182
_publ_section_title
;
Structure prediction by ZEFSAII (Michael W. Deem and Ramdas Pophale) SiO2 
 PCOD8181182
Probable space group: A B M 2
;
_chemical_formula_sum "Si O2"
_cell_formula_units_Z 64
_cell_length_a 7.970677
_cell_length_b 18.165094
_cell_length_c 22.039656
_cell_angle_alpha 90.000000
_cell_angle_beta 90.000000
_cell_angle_gamma 90.000000
_cell_volume 3191.079850
_symmetry_space_group_name_H-M "A B M 2"
_symmetry_group_IT_number 39
_symmetry_cell_setting 'orthorhombic'
loop_
_space_group_symop_operation_xyz
x,y,z
-x,-y,z
-x,1/2+y,z
x,1/2-y,z
x,1/2+y,1/2+z
-x,1/2-y,1/2+z
-x,y,1/2+z
x,-y,1/2+z
loop_
_atom_site_type_symbol
_atom_site_label
_atom_site_fract_x
_atom_site_fract_y
_atom_site_fract_z
Si Si1 0.891512 0.834857 0.707910
Si Si2 0.265543 0.165489 0.214223
Si Si3 0.591366 0.836268 0.790927
Si Si4 0.582307 0.333771 0.020505
Si Si5 0.390627 0.565517 0.610288
Si Si6 0.150302 0.554705 0.509485
Si Si7 0.064068 0.832728 0.074343
Si Si8 0.578563 0.078696 0.414880
O O1 0.843393 0.750000 0.700610
O O2 0.739023 0.869220 0.747347
O O3 0.895267 0.870050 0.640020
O O4 0.075075 0.845050 0.739839
O O5 0.288352 0.250000 0.191388
O O6 0.406407 0.147584 0.264170
O O7 0.280455 0.106864 0.160211
O O8 0.618152 0.750000 0.802606
O O9 0.607828 0.877569 0.853741
O O10 0.517231 0.250000 0.015615
O O11 0.498934 0.371095 0.078655
O O12 0.780708 0.336115 0.028960
O O13 0.545692 0.376475 0.958455
O O14 0.500000 0.500000 0.640393
O O15 0.280653 0.522332 0.559055
O O16 0.239979 0.570211 0.445988
O O17 0.000000 0.500000 0.497194
O O18 0.089608 0.630183 0.539724
O O19 0.004241 0.750000 0.087331
O O20 0.500000 0.000000 0.399813
#
# Coordination Sequence:
#
# PCOD8181182 Si02
#       8
#     8   8   8   8   8   8   8   8
#     4   9  18  36  61  95 125 151 196 250 311 368
#     4  10  20  38  64  91 124 161 201 254 310 363
#     4  10  22  41  66  90 120 163 211 263 306 357
#     4  10  20  36  61  90 118 154 206 254 306 367
#     4  11  21  34  58  88 125 163 196 242 303 379
#     4  11  22  38  58  84 120 160 197 244 306 370
#     4  10  19  34  60  93 124 150 187 250 311 369
#     4  11  24  43  61  81 119 166 209 257 304 368
#
# _framework density 20.055906
#
# number of rings (size 3 to 8) (size 9 to 14) (size 15 to 20)
#    0.000    1.750    1.250    4.500    0.000    5.000 
#    4.500    0.000    0.000    0.000    0.000    0.000 
#    0.000    0.000    0.000    0.000    0.000    0.000 
#
# Total GULP energy -396737.914900 kJ/mol
# GULP energy per Si atom -12398.059841 kJ/mol
# Density = 2.001026 g / cm^3
# Si number density = 20.055906 Si / 1000 Ang^3
#
#
#
# Elastic Constant Matrix: (Units=GPa)
#
#
# Indices 1 2 3 4 5 6 
#
# 1 116.5294 30.1392 47.5760 0.0000 0.0000 0.0000
# 2 30.1392 70.5031 38.4853 0.0000 0.0000 0.0000
# 3 47.5760 38.4853 105.5156 0.0000 0.0000 0.0000
# 4 0.0000 0.0000 0.0000 24.0527 0.0000 0.0000
# 5 0.0000 0.0000 0.0000 0.0000 22.6132 0.0000
# 6 0.0000 0.0000 0.0000 0.0000 0.0000 28.6484
#
#
#
# Elastic Compliance Matrix: (Units=1/GPa)
#
#
# Indices 1 2 3 4 5 6 
#
# 1 0.010848 -0.002457 -0.003995 0.000000 0.000000 0.000000
# 2 -0.002457 0.018266 -0.005555 0.000000 0.000000 0.000000
# 3 -0.003995 -0.005555 0.013305 0.000000 0.000000 0.000000
# 4 0.000000 0.000000 0.000000 0.041575 0.000000 0.000000
# 5 0.000000 0.000000 0.000000 0.000000 0.044222 0.000000
# 6 0.000000 0.000000 0.000000 0.000000 0.000000 0.034906
#
#
# Mechanical properties :
#
#
# Convention : Reuss Voigt Hill
#
# Bulk Modulus (GPa) = 54.33063 58.32768 56.32915
# Shear Modulus (GPa) = 25.87050 26.81936 26.34493
#
# Velocity S-wave (km/s) = 3.59544 3.66078 3.62826
# Velocity P-wave (km/s) = 6.66218 6.85668 6.76013
#
# Compressibility (1/GPa) = 0.01840582
#
# Stress axis : x y z
#
# Youngs Moduli (GPa) = 92.18233 54.74658 75.16148
#
# Poissons Ratio (x) = 0.13449 0.30029
# Poissons Ratio (y) = 0.22645 0.41749
# Poissons Ratio (z) = 0.36830 0.30410
#
# Static dielectric constant tensor:
#      x y z
#    x 3.871310 0.000000 0.000000 
#    y 0.000000 3.594600 0.000000 
#    z 0.000000 0.000000 3.441300 
# 
# 
# High freq. dielectric constant tensor:
#      x y z
#    x 1.798350 0.000000 0.000000 
#    y 0.000000 1.776440 0.000000 
#    z 0.000000 0.000000 1.760100 
# 
# From -- ./inp_files/14202.got.cif
#   From: 2010.03.12/outbox.cif.g09.slc.cpg/sg39_8_cif.got.tgz:14202.got - 2010.04.14 02:53:20.
