data_PCOD8181225
_publ_section_title
;
Structure prediction by ZEFSAII (Michael W. Deem and Ramdas Pophale) SiO2 
 PCOD8181225
Probable space group: A B M 2
;
_chemical_formula_sum "Si O2"
_cell_formula_units_Z 56
_cell_length_a 23.847755
_cell_length_b 8.671475
_cell_length_c 14.399586
_cell_angle_alpha 90.000000
_cell_angle_beta 90.000000
_cell_angle_gamma 90.000000
_cell_volume 2977.765429
_symmetry_space_group_name_H-M "A B M 2"
_symmetry_group_IT_number 39
_symmetry_cell_setting 'orthorhombic'
loop_
_space_group_symop_operation_xyz
x,y,z
-x,-y,z
-x,1/2+y,z
x,1/2-y,z
x,1/2+y,1/2+z
-x,1/2-y,1/2+z
-x,y,1/2+z
x,-y,1/2+z
loop_
_atom_site_type_symbol
_atom_site_label
_atom_site_fract_x
_atom_site_fract_y
_atom_site_fract_z
Si Si1 0.557033 0.570331 0.067170
Si Si2 0.148630 0.068323 0.568480
Si Si3 0.355248 0.568068 0.417654
Si Si4 0.061440 0.067432 0.417283
Si Si5 0.766596 0.568161 0.415029
Si Si6 0.441266 0.567343 0.779714
Si Si7 0.852388 0.566700 0.777459
O O1 0.500000 0.500000 0.025820
O O2 0.549791 0.750000 0.056881
O O3 0.566127 0.519805 0.172766
O O4 0.610230 0.513940 0.008208
O O5 0.149383 0.250000 0.577625
O O6 0.093594 0.015502 0.511194
O O7 0.203349 0.013799 0.510537
O O8 0.148677 0.998752 0.672215
O O9 0.343916 0.750000 0.415469
O O10 0.297626 0.477198 0.420065
O O11 0.389746 0.517344 0.327865
O O12 0.059338 0.250000 0.408003
O O13 0.093132 0.002092 0.327421
O O14 0.000000 0.000000 0.421967
O O15 0.773555 0.750000 0.400825
O O16 0.795310 0.485606 0.327355
O O17 0.500000 0.500000 0.817835
O O18 0.439255 0.750000 0.796280
O O19 0.856397 0.750000 0.778655
#
# Coordination Sequence:
#
# PCOD8181225 Si02
#       7
#     8   8   8   8   8   8   8
#     4   9  20  36  54  76 105 136 172 214 263 318
#     4   8  18  36  57  78 106 141 179 218 264 314
#     4  11  22  36  54  79 106 138 177 219 263 314
#     4  10  20  36  55  82 115 146 179 219 261 309
#     4  10  21  38  55  77 107 140 176 220 266 315
#     4  10  20  36  55  78 106 138 172 214 264 319
#     4  10  19  36  59  82 107 141 179 220 265 313
#
# _framework density 18.806048000000001
#
# number of rings (size 3 to 8) (size 9 to 14) (size 15 to 20)
#    0.000    2.286    0.000    3.429    0.000    4.571 
#    0.000   12.857    0.000    0.000    0.000    0.000 
#    0.000    0.000    0.000    0.000    0.000    0.000 
#
# Total GULP energy -347211.330534 kJ/mol
# GULP energy per Si atom -12400.404662 kJ/mol
# Density = 1.876324 g / cm^3
# Si number density = 18.806048 Si / 1000 Ang^3
#
#
#
# Elastic Constant Matrix: (Units=GPa)
#
#
# Indices 1 2 3 4 5 6 
#
# 1 160.6720 28.2773 73.6000 0.0000 0.0000 0.0000
# 2 28.2773 52.6394 32.7484 0.0000 0.0000 0.0000
# 3 73.6000 32.7484 148.0359 0.0000 0.0000 0.0000
# 4 0.0000 0.0000 0.0000 23.6600 0.0000 0.0000
# 5 0.0000 0.0000 0.0000 0.0000 18.2692 0.0000
# 6 0.0000 0.0000 0.0000 0.0000 0.0000 33.9579
#
#
#
# Elastic Compliance Matrix: (Units=1/GPa)
#
#
# Indices 1 2 3 4 5 6 
#
# 1 0.008271 -0.002185 -0.003628 0.000000 0.000000 0.000000
# 2 -0.002185 0.022606 -0.003914 0.000000 0.000000 0.000000
# 3 -0.003628 -0.003914 0.009425 0.000000 0.000000 0.000000
# 4 0.000000 0.000000 0.000000 0.042265 0.000000 0.000000
# 5 0.000000 0.000000 0.000000 0.000000 0.054737 0.000000
# 6 0.000000 0.000000 0.000000 0.000000 0.000000 0.029448
#
#
# Mechanical properties :
#
#
# Convention : Reuss Voigt Hill
#
# Bulk Modulus (GPa) = 47.97235 70.06654 59.01944
# Shear Modulus (GPa) = 25.88556 30.29220 28.08888
#
# Velocity S-wave (km/s) = 3.71408 4.01779 3.86892
# Velocity P-wave (km/s) = 6.63000 7.67215 7.17003
#
# Compressibility (1/GPa) = 0.02084534
#
# Stress axis : x y z
#
# Youngs Moduli (GPa) = 120.90999 44.23519 106.10016
#
# Poissons Ratio (x) = 0.09668 0.38498
# Poissons Ratio (y) = 0.26425 0.41532
# Poissons Ratio (z) = 0.43872 0.17315
#
# Static dielectric constant tensor:
#      x y z
#    x 3.473240 0.000000 0.000000 
#    y 0.000000 3.377110 0.000000 
#    z 0.000000 0.000000 3.838030 
# 
# 
# High freq. dielectric constant tensor:
#      x y z
#    x 1.733020 0.000000 0.000000 
#    y 0.000000 1.728620 0.000000 
#    z 0.000000 0.000000 1.738400 
# 
# From -- ./inp_files/10381.got.cif
#   From: 2010.03.12/outbox.cif.g09.slc.cpg/sg39_6_cif.got.tgz:10381.got - 2010.04.14 02:53:20.
