data_PCOD8181312
_publ_section_title
;
Structure prediction by ZEFSAII (Michael W. Deem and Ramdas Pophale) SiO2 
 PCOD8181312
Probable space group: A B M 2
;
_chemical_formula_sum "Si O2"
_cell_formula_units_Z 40
_cell_length_a 18.101581
_cell_length_b 24.377729
_cell_length_c 5.179946
_cell_angle_alpha 90.000000
_cell_angle_beta 90.000000
_cell_angle_gamma 90.000000
_cell_volume 2285.782930
_symmetry_space_group_name_H-M "A B M 2"
_symmetry_group_IT_number 39
_symmetry_cell_setting 'orthorhombic'
loop_
_space_group_symop_operation_xyz
x,y,z
-x,-y,z
-x,1/2+y,z
x,1/2-y,z
x,1/2+y,1/2+z
-x,1/2-y,1/2+z
-x,y,1/2+z
x,-y,1/2+z
loop_
_atom_site_type_symbol
_atom_site_label
_atom_site_fract_x
_atom_site_fract_y
_atom_site_fract_z
Si Si1 0.708629 0.642757 0.221260
Si Si2 0.454967 0.860708 0.730840
Si Si3 0.630822 0.035977 0.689117
Si Si4 0.790214 0.685010 0.719791
Si Si5 0.041994 0.684699 0.248863
O O1 0.625637 0.668376 0.240563
O O2 0.702091 0.576305 0.211883
O O3 0.756931 0.659046 0.464074
O O4 0.745038 0.665376 0.964501
O O5 0.498718 0.841740 0.477698
O O6 0.443170 0.926980 0.722473
O O7 0.632568 0.010513 0.404702
O O8 0.786903 0.750000 0.696160
O O9 0.873980 0.663850 0.746291
O O10 0.039939 0.750000 0.249042
O O11 0.001124 0.661257 0.501042
#
# Coordination Sequence:
#
# PCOD8181312 Si02
#       5
#     8   8   8   8   8
#     4  10  22  34  50  76 103 134 174 213 240 315
#     4  10  20  33  51  72 102 132 163 215 266 304
#     4  10  20  33  51  76 103 129 163 209 265 316
#     4  11  20  35  55  74 104 142 170 200 246 296
#     4   9  17  29  48  76 104 127 155 197 250 304
#
# _framework density 17.499476000000001
#
# number of rings (size 3 to 8) (size 9 to 14) (size 15 to 20)
#    1.200    0.800    0.000    5.400    0.000    5.600 
#    0.000    0.000    0.000   12.000    0.000    0.000 
#    0.000   56.000    0.000    0.000    0.000    0.000 
#
# Total GULP energy -247906.450217 kJ/mol
# GULP energy per Si atom -12395.322511 kJ/mol
# Density = 1.745965 g / cm^3
# Si number density = 17.499476 Si / 1000 Ang^3
#
#
#
# Elastic Constant Matrix: (Units=GPa)
#
#
# Indices 1 2 3 4 5 6 
#
# 1 116.5821 6.5413 33.4525 0.0000 0.0000 0.0000
# 2 6.5413 7.0018 1.6424 0.0000 0.0000 0.0000
# 3 33.4525 1.6424 109.5438 0.0000 0.0000 0.0000
# 4 0.0000 0.0000 0.0000 12.7494 0.0000 0.0000
# 5 0.0000 0.0000 0.0000 0.0000 34.0186 0.0000
# 6 0.0000 0.0000 0.0000 0.0000 0.0000 -18.1203
#
#
#
# Elastic Compliance Matrix: (Units=1/GPa)
#
#
# Indices 1 2 3 4 5 6 
#
# 1 0.009887 -0.008559 -0.002891 0.000000 0.000000 0.000000
# 2 -0.008559 0.150733 0.000354 0.000000 0.000000 0.000000
# 3 -0.002891 0.000354 0.010006 0.000000 0.000000 0.000000
# 4 0.000000 0.000000 0.000000 0.078435 0.000000 0.000000
# 5 0.000000 0.000000 0.000000 0.000000 0.029396 0.000000
# 6 0.000000 0.000000 0.000000 0.000000 0.000000 -0.055187
#
#
# Mechanical properties :
#
#
# Convention : Reuss Voigt Hill
#
# Bulk Modulus (GPa) = 6.73699 35.15556 20.94627
# Shear Modulus (GPa) = 16.95252 18.49566 17.72409
#
# Velocity S-wave (km/s) = 3.11584 3.25457 3.18596
# Velocity P-wave (km/s) = 4.09912 5.85287 5.05267
#
# Compressibility (1/GPa) = 0.14843423
#
# Stress axis : x y z
#
# Youngs Moduli (GPa) = 101.13804 6.63425 99.93655
#
# Poissons Ratio (x) = 0.05678 0.28893
# Poissons Ratio (y) = 0.86565 -0.03536
# Poissons Ratio (z) = 0.29240 -0.00235
#
# Static dielectric constant tensor:
#      x y z
#    x 3.350530 0.000000 0.000000 
#    y 0.000000 2.890600 0.000000 
#    z 0.000000 0.000000 3.310730 
# 
# 
# High freq. dielectric constant tensor:
#      x y z
#    x 1.678220 0.000000 0.000000 
#    y 0.000000 1.630220 0.000000 
#    z 0.000000 0.000000 1.699520 
# 
# From -- ./inp_files/529.got.cif
#   From: 2010.03.12/outbox.cif.g09.slc.cpg/sg39_1_cif.got.tgz:529.got - 2010.04.14 02:53:20.
