data_PCOD8181082
_publ_section_title
;
Structure prediction by ZEFSAII (Michael W. Deem and Ramdas Pophale) SiO2 
 PCOD8181082
Probable space group: A B M 2
;
_chemical_formula_sum "Si O2"
_cell_formula_units_Z 64
_cell_length_a 23.979905
_cell_length_b 9.279362
_cell_length_c 15.041537
_cell_angle_alpha 90.000000
_cell_angle_beta 90.000000
_cell_angle_gamma 90.000000
_cell_volume 3347.016028
_symmetry_space_group_name_H-M "A B M 2"
_symmetry_group_IT_number 39
_symmetry_cell_setting 'orthorhombic'
loop_
_space_group_symop_operation_xyz
x,y,z
-x,-y,z
-x,1/2+y,z
x,1/2-y,z
x,1/2+y,1/2+z
-x,1/2-y,1/2+z
-x,y,1/2+z
x,-y,1/2+z
loop_
_atom_site_type_symbol
_atom_site_label
_atom_site_fract_x
_atom_site_fract_y
_atom_site_fract_z
Si Si1 0.053481 0.415211 0.865590
Si Si2 0.632492 0.581568 0.462634
Si Si3 0.053088 0.586088 0.575737
Si Si4 0.838766 0.085736 0.826244
Si Si5 0.443110 0.920412 0.326670
Si Si6 0.445551 0.084395 0.623554
Si Si7 0.173620 0.414441 0.128020
Si Si8 0.240306 0.581057 0.985207
O O1 0.048925 0.250000 0.835903
O O2 0.107977 0.483966 0.822893
O O3 0.000000 0.500000 0.828255
O O4 0.057408 0.432081 0.970740
O O5 0.625903 0.750000 0.438102
O O6 0.606214 0.484639 0.385617
O O7 0.604966 0.546124 0.557903
O O8 0.696437 0.534019 0.469017
O O9 0.044164 0.750000 0.605158
O O10 0.110647 0.524358 0.616208
O O11 0.000000 0.500000 0.614025
O O12 0.857820 0.250000 0.845748
O O13 0.808558 0.075284 0.730901
O O14 0.795452 0.031281 0.900166
O O15 0.449528 0.750000 0.343745
O O16 0.428145 0.955647 0.224156
O O17 0.500000 0.000000 0.354442
O O18 0.462250 0.250000 0.617415
O O19 0.500000 0.000000 0.591641
O O20 0.174845 0.250000 0.093294
O O21 0.217988 0.505167 0.073252
O O22 0.235834 0.750000 0.001485
#
# Coordination Sequence:
#
# PCOD8181082 Si02
#       8
#     8   8   8   8   8   8   8   8
#     4  10  19  33  55  81 109 141 176 219 274 333
#     4  10  21  37  56  80 112 148 187 230 272 322
#     4   9  18  32  52  77 104 135 170 214 267 324
#     4  10  21  37  57  80 109 144 182 227 279 332
#     4  10  20  35  56  84 114 146 181 221 271 323
#     4   9  19  35  55  80 113 146 178 220 268 320
#     4  10  21  38  57  79 108 142 182 228 275 327
#     4  10  22  39  57  79 109 146 187 231 277 321
#
# _framework density 19.121509
#
# number of rings (size 3 to 8) (size 9 to 14) (size 15 to 20)
#    0.000    2.250    1.250    1.125    0.000    5.500 
#    0.000    1.250    0.000    0.000    0.000    0.000 
#    0.000    0.000    0.000    0.000    0.000    0.000 
#
# Total GULP energy -396897.026058 kJ/mol
# GULP energy per Si atom -12403.032064 kJ/mol
# Density = 1.907799 g / cm^3
# Si number density = 19.121509 Si / 1000 Ang^3
#
#
#
# Elastic Constant Matrix: (Units=GPa)
#
#
# Indices 1 2 3 4 5 6 
#
# 1 139.0906 56.9523 59.3655 0.0000 0.0000 0.0000
# 2 56.9523 75.5573 44.7622 0.0000 0.0000 0.0000
# 3 59.3655 44.7622 84.0912 0.0000 0.0000 0.0000
# 4 0.0000 0.0000 0.0000 20.7091 0.0000 0.0000
# 5 0.0000 0.0000 0.0000 0.0000 10.8690 0.0000
# 6 0.0000 0.0000 0.0000 0.0000 0.0000 33.0469
#
#
#
# Elastic Compliance Matrix: (Units=1/GPa)
#
#
# Indices 1 2 3 4 5 6 
#
# 1 0.011799 -0.005782 -0.005251 0.000000 0.000000 0.000000
# 2 -0.005782 0.022165 -0.007716 0.000000 0.000000 0.000000
# 3 -0.005251 -0.007716 0.019707 0.000000 0.000000 0.000000
# 4 0.000000 0.000000 0.000000 0.048288 0.000000 0.000000
# 5 0.000000 0.000000 0.000000 0.000000 0.092004 0.000000
# 6 0.000000 0.000000 0.000000 0.000000 0.000000 0.030260
#
#
# Mechanical properties :
#
#
# Convention : Reuss Voigt Hill
#
# Bulk Modulus (GPa) = 61.84338 68.98878 65.41608
# Shear Modulus (GPa) = 18.71870 22.10228 20.41049
#
# Velocity S-wave (km/s) = 3.13219 3.40352 3.27067
# Velocity P-wave (km/s) = 6.74487 7.18351 6.96764
#
# Compressibility (1/GPa) = 0.01616988
#
# Stress axis : x y z
#
# Youngs Moduli (GPa) = 84.75642 45.11657 50.74417
#
# Poissons Ratio (x) = 0.26087 0.26648
# Poissons Ratio (y) = 0.49008 0.39156
# Poissons Ratio (z) = 0.44509 0.34814
#
# Static dielectric constant tensor:
#      x y z
#    x 3.465360 0.000000 0.000000 
#    y 0.000000 3.493180 0.000000 
#    z 0.000000 0.000000 3.506510 
# 
# 
# High freq. dielectric constant tensor:
#      x y z
#    x 1.737230 0.000000 0.000000 
#    y 0.000000 1.739810 0.000000 
#    z 0.000000 0.000000 1.748020 
# 
# From -- ./inp_files/10559.got.cif
#   From: 2010.03.12/outbox.cif.g09.slc.cpg/sg39_6_cif.got.tgz:10559.got - 2010.04.14 02:53:20.
