data_PCOD8181684
_publ_section_title
;
Structure prediction by ZEFSAII (Michael W. Deem and Ramdas Pophale) SiO2 
 PCOD8181684
Probable space group: A B M 2
;
_chemical_formula_sum "Si O2"
_cell_formula_units_Z 64
_cell_length_a 11.164066
_cell_length_b 28.837126
_cell_length_c 9.357419
_cell_angle_alpha 90.000000
_cell_angle_beta 90.000000
_cell_angle_gamma 90.000000
_cell_volume 3012.523523
_symmetry_space_group_name_H-M "A B M 2"
_symmetry_group_IT_number 39
_symmetry_cell_setting 'orthorhombic'
loop_
_space_group_symop_operation_xyz
x,y,z
-x,-y,z
-x,1/2+y,z
x,1/2-y,z
x,1/2+y,1/2+z
-x,1/2-y,1/2+z
-x,y,1/2+z
x,-y,1/2+z
loop_
_atom_site_type_symbol
_atom_site_label
_atom_site_fract_x
_atom_site_fract_y
_atom_site_fract_z
Si Si1 0.717290 0.534836 0.935400
Si Si2 0.852073 0.129345 0.434090
Si Si3 0.242958 0.195798 0.369574
Si Si4 0.738301 0.550998 0.250056
Si Si5 0.932910 0.631021 0.240841
Si Si6 0.433605 0.846725 0.067133
Si Si7 0.669123 0.698295 0.055679
Si Si8 0.487556 0.592751 0.325286
O O1 0.809111 0.576913 0.928800
O O2 0.766049 0.487568 0.868291
O O3 0.595214 0.547595 0.849822
O O4 0.709385 0.524114 0.103262
O O5 0.933721 0.141785 0.572036
O O6 0.737958 0.164075 0.445191
O O7 0.928978 0.130686 0.289170
O O8 0.227621 0.250000 0.403470
O O9 0.115510 0.172139 0.343015
O O10 0.307689 0.170530 0.503151
O O11 0.311494 0.185504 0.221550
O O12 0.854689 0.584126 0.258833
O O13 0.619917 0.581382 0.271819
O O14 0.525399 0.803987 0.045379
O O15 0.422375 0.867837 0.226871
O O16 0.495768 0.888559 0.983916
O O17 0.713049 0.750000 0.018536
#
# Coordination Sequence:
#
# PCOD8181684 Si02
#       8
#     8   8   8   8   8   8   8   8
#     4  11  25  41  62  91 124 160 204 254 310 370
#     4  10  22  42  62  86 118 160 206 257 311 364
#     4  10  21  38  62  92 125 163 204 252 310 367
#     4  11  24  41  60  91 124 161 203 254 311 367
#     4  10  22  42  63  84 119 160 206 257 311 364
#     4  12  20  38  63  90 126 166 200 244 304 366
#     4  10  20  38  62  89 125 165 203 253 309 365
#     4  12  22  38  64  89 127 163 200 245 302 369
#
# _framework density 21.244648000000002
#
# number of rings (size 3 to 8) (size 9 to 14) (size 15 to 20)
#    0.000    1.250    5.000    1.500    1.750    4.000 
#    0.000    2.500    0.000    0.000    0.000    0.000 
#    0.000    0.000    0.000    0.000    0.000    0.000 
#
# Total GULP energy -396499.864950 kJ/mol
# GULP energy per Si atom -12390.620780 kJ/mol
# Density = 2.119629 g / cm^3
# Si number density = 21.244648 Si / 1000 Ang^3
#
#
#
# Elastic Constant Matrix: (Units=GPa)
#
#
# Indices 1 2 3 4 5 6 
#
# 1 36.5413 -2.6471 14.4193 0.0000 0.0000 0.0000
# 2 -2.6471 83.9191 19.8525 0.0000 0.0000 0.0000
# 3 14.4193 19.8525 68.4439 0.0000 0.0000 0.0000
# 4 0.0000 0.0000 0.0000 32.9551 0.0000 0.0000
# 5 0.0000 0.0000 0.0000 0.0000 32.4335 0.0000
# 6 0.0000 0.0000 0.0000 0.0000 0.0000 14.8060
#
#
#
# Elastic Compliance Matrix: (Units=1/GPa)
#
#
# Indices 1 2 3 4 5 6 
#
# 1 0.030389 0.002655 -0.007172 0.000000 0.000000 0.000000
# 2 0.002655 0.013026 -0.004338 0.000000 0.000000 0.000000
# 3 -0.007172 -0.004338 0.017380 0.000000 0.000000 0.000000
# 4 0.000000 0.000000 0.000000 0.030344 0.000000 0.000000
# 5 0.000000 0.000000 0.000000 0.000000 0.030832 0.000000
# 6 0.000000 0.000000 0.000000 0.000000 0.000000 0.067540
#
#
# Mechanical properties :
#
#
# Convention : Reuss Voigt Hill
#
# Bulk Modulus (GPa) = 23.20979 28.01709 25.61344
# Shear Modulus (GPa) = 22.56495 26.52424 24.54459
#
# Velocity S-wave (km/s) = 3.26260 3.53726 3.40270
# Velocity P-wave (km/s) = 5.01412 5.46804 5.24599
#
# Compressibility (1/GPa) = 0.04308526
#
# Stress axis : x y z
#
# Youngs Moduli (GPa) = 32.90684 76.76861 57.53843
#
# Poissons Ratio (x) = -0.20384 0.41268
# Poissons Ratio (y) = -0.08738 0.24959
# Poissons Ratio (z) = 0.23602 0.33300
#
# Static dielectric constant tensor:
#      x y z
#    x 3.679210 0.000000 0.000000 
#    y 0.000000 3.720320 0.000000 
#    z 0.000000 0.000000 3.977820 
# 
# 
# High freq. dielectric constant tensor:
#      x y z
#    x 1.817630 0.000000 0.000000 
#    y 0.000000 1.832330 0.000000 
#    z 0.000000 0.000000 1.835720 
# 
# From -- ./inp_files/2913.got.cif
#   From: 2010.03.12/outbox.cif.g09.slc.cpg/sg39_2_cif.got.tgz:2913.got - 2010.04.14 02:53:20.
