data_PCOD8181147
_publ_section_title
;
Structure prediction by ZEFSAII (Michael W. Deem and Ramdas Pophale) SiO2 
 PCOD8181147
Probable space group: A B M 2
;
_chemical_formula_sum "Si O2"
_cell_formula_units_Z 64
_cell_length_a 14.085146
_cell_length_b 15.977794
_cell_length_c 14.850146
_cell_angle_alpha 90.000000
_cell_angle_beta 90.000000
_cell_angle_gamma 90.000000
_cell_volume 3342.018842
_symmetry_space_group_name_H-M "A B M 2"
_symmetry_group_IT_number 39
_symmetry_cell_setting 'orthorhombic'
loop_
_space_group_symop_operation_xyz
x,y,z
-x,-y,z
-x,1/2+y,z
x,1/2-y,z
x,1/2+y,1/2+z
-x,1/2-y,1/2+z
-x,y,1/2+z
x,-y,1/2+z
loop_
_atom_site_type_symbol
_atom_site_label
_atom_site_fract_x
_atom_site_fract_y
_atom_site_fract_z
Si Si1 0.555740 0.085278 0.159150
Si Si2 0.422692 0.931633 0.356967
Si Si3 0.405022 0.156134 0.040667
Si Si4 0.052606 0.587304 0.437624
Si Si5 0.920688 0.569237 0.137150
Si Si6 0.726535 0.994781 0.088456
Si Si7 0.774113 0.007103 0.887504
Si Si8 0.103847 0.155931 0.316669
O O1 0.549208 0.113780 0.263487
O O2 0.505546 0.152565 0.094101
O O3 0.500000 0.000000 0.143967
O O4 0.664970 0.069070 0.132465
O O5 0.419404 0.863311 0.435212
O O6 0.322547 0.978484 0.339680
O O7 0.500000 0.000000 0.386339
O O8 0.364901 0.250000 0.048751
O O9 0.329156 0.093268 0.083327
O O10 0.072305 0.616992 0.540511
O O11 0.150613 0.570137 0.383580
O O12 0.000000 0.500000 0.445838
O O13 0.986748 0.651690 0.383802
O O14 0.820063 0.521221 0.147444
O O15 0.931434 0.637625 0.215454
O O16 0.000000 0.500000 0.152288
O O17 0.755131 0.029138 0.991131
O O18 0.812987 0.091363 0.841819
O O19 0.144482 0.250000 0.321774
#
# Coordination Sequence:
#
# PCOD8181147 Si02
#       8
#     8   8   8   8   8   8   8   8
#     4   9  18  33  54  79 104 136 177 216 256 309
#     4  10  19  34  57  79 103 142 185 217 252 313
#     4  10  20  34  53  80 112 138 169 222 275 314
#     4   8  17  34  54  75 100 139 183 218 253 306
#     4  10  19  34  58  79 100 138 183 220 256 308
#     4   9  18  35  58  78 101 138 184 222 256 310
#     4   9  17  34  56  76 102 140 182 216 255 313
#     4  11  22  34  52  82 114 137 166 217 274 319
#
# _framework density 19.150100999999999
#
# number of rings (size 3 to 8) (size 9 to 14) (size 15 to 20)
#    0.000    2.500    0.000    4.500    0.000    1.500 
#    0.000    7.500    0.000    2.250    0.000    0.000 
#    0.000    0.000    0.000    0.000    0.000    0.000 
#
# Total GULP energy -396724.999510 kJ/mol
# GULP energy per Si atom -12397.656235 kJ/mol
# Density = 1.910651 g / cm^3
# Si number density = 19.150101 Si / 1000 Ang^3
#
#
#
# Elastic Constant Matrix: (Units=GPa)
#
#
# Indices 1 2 3 4 5 6 
#
# 1 113.0191 29.0428 32.1179 0.0000 0.0000 0.0000
# 2 29.0428 84.4815 40.5887 0.0000 0.0000 0.0000
# 3 32.1179 40.5887 89.6676 0.0000 0.0000 0.0000
# 4 0.0000 0.0000 0.0000 5.4996 0.0000 0.0000
# 5 0.0000 0.0000 0.0000 0.0000 20.3167 0.0000
# 6 0.0000 0.0000 0.0000 0.0000 0.0000 14.0865
#
#
#
# Elastic Compliance Matrix: (Units=1/GPa)
#
#
# Indices 1 2 3 4 5 6 
#
# 1 0.010170 -0.002231 -0.002633 0.000000 0.000000 0.000000
# 2 -0.002231 0.015616 -0.006270 0.000000 0.000000 0.000000
# 3 -0.002633 -0.006270 0.014933 0.000000 0.000000 0.000000
# 4 0.000000 0.000000 0.000000 0.181831 0.000000 0.000000
# 5 0.000000 0.000000 0.000000 0.000000 0.049221 0.000000
# 6 0.000000 0.000000 0.000000 0.000000 0.000000 0.070990
#
#
# Mechanical properties :
#
#
# Convention : Reuss Voigt Hill
#
# Bulk Modulus (GPa) = 54.19438 54.51855 54.35647
# Shear Modulus (GPa) = 13.47062 20.34182 16.90622
#
# Velocity S-wave (km/s) = 2.65509 3.26272 2.97446
# Velocity P-wave (km/s) = 6.14496 6.53641 6.34371
#
# Compressibility (1/GPa) = 0.01845210
#
# Stress axis : x y z
#
# Youngs Moduli (GPa) = 98.33251 64.03634 66.96463
#
# Poissons Ratio (x) = 0.14288 0.17629
# Poissons Ratio (y) = 0.21940 0.41984
# Poissons Ratio (z) = 0.25888 0.40148
#
# Static dielectric constant tensor:
#      x y z
#    x 3.874950 0.000000 0.000000 
#    y 0.000000 3.000480 0.000000 
#    z 0.000000 0.000000 3.674370 
# 
# 
# High freq. dielectric constant tensor:
#      x y z
#    x 1.753810 0.000000 0.000000 
#    y 0.000000 1.692750 0.000000 
#    z 0.000000 0.000000 1.760550 
# 
# From -- ./inp_files/9895.got.cif
#   From: 2010.03.12/outbox.cif.g09.slc.cpg/sg39_5_cif.got.tgz:9895.got - 2010.04.14 02:53:20.
