data_PCOD8181539
_publ_section_title
;
Structure prediction by ZEFSAII (Michael W. Deem and Ramdas Pophale) SiO2 
 PCOD8181539
Probable space group: A B M 2
;
_chemical_formula_sum "Si O2"
_cell_formula_units_Z 64
_cell_length_a 24.181774
_cell_length_b 9.034390
_cell_length_c 14.618900
_cell_angle_alpha 90.000000
_cell_angle_beta 90.000000
_cell_angle_gamma 90.000000
_cell_volume 3193.755664
_symmetry_space_group_name_H-M "A B M 2"
_symmetry_group_IT_number 39
_symmetry_cell_setting 'orthorhombic'
loop_
_space_group_symop_operation_xyz
x,y,z
-x,-y,z
-x,1/2+y,z
x,1/2-y,z
x,1/2+y,1/2+z
-x,1/2-y,1/2+z
-x,y,1/2+z
x,-y,1/2+z
loop_
_atom_site_type_symbol
_atom_site_label
_atom_site_fract_x
_atom_site_fract_y
_atom_site_fract_z
Si Si1 0.753461 0.586800 0.521940
Si Si2 0.855082 0.574443 0.757172
Si Si3 0.627981 0.575508 0.211032
Si Si4 0.557477 0.926057 0.855111
Si Si5 0.874249 0.074036 0.053609
Si Si6 0.353454 0.423057 0.003815
Si Si7 0.264690 0.084709 0.737469
Si Si8 0.057429 0.573820 0.406334
O O1 0.746136 0.750000 0.480255
O O2 0.815987 0.529315 0.504914
O O3 0.706832 0.485079 0.475278
O O4 0.745347 0.592234 0.630021
O O5 0.852724 0.750000 0.752732
O O6 0.874698 0.516671 0.658077
O O7 0.792337 0.521282 0.781850
O O8 0.897847 0.517420 0.832474
O O9 0.620350 0.750000 0.222943
O O10 0.576970 0.490588 0.257681
O O11 0.628278 0.525463 0.105098
O O12 0.684832 0.524745 0.260467
O O13 0.551225 0.750000 0.849070
O O14 0.500000 0.000000 0.882816
O O15 0.600710 0.977534 0.932601
O O16 0.884002 0.250000 0.047313
O O17 0.923696 0.986745 0.004679
O O18 0.346752 0.250000 0.001493
O O19 0.279470 0.250000 0.774135
O O20 0.051472 0.750000 0.408530
O O21 0.000000 0.500000 0.378125
#
# Coordination Sequence:
#
# PCOD8181539 Si02
#       8
#     8   8   8   8   8   8   8   8
#     4   8  15  29  54  84 112 140 173 212 262 319
#     4   8  17  35  58  79 106 142 178 216 265 319
#     4  10  20  36  57  84 114 143 175 218 266 316
#     4  11  24  41  57  77 105 142 185 227 267 315
#     4   9  18  36  58  81 109 141 175 217 265 317
#     4   9  20  37  57  81 112 144 177 218 266 316
#     4   8  14  30  55  82 109 141 176 212 260 321
#     4  11  23  38  54  76 104 139 182 226 267 315
#
# _framework density 20.039103999999998
#
# number of rings (size 3 to 8) (size 9 to 14) (size 15 to 20)
#    0.000    2.750    0.000    2.625    0.000    4.000 
#    0.000   10.625    0.000    0.000    0.000    0.000 
#    0.000    0.000    0.000    0.000    0.000    0.000 
#
# Total GULP energy -396733.190469 kJ/mol
# GULP energy per Si atom -12397.912202 kJ/mol
# Density = 1.999349 g / cm^3
# Si number density = 20.039104 Si / 1000 Ang^3
#
#
#
# Elastic Constant Matrix: (Units=GPa)
#
#
# Indices 1 2 3 4 5 6 
#
# 1 101.4379 29.4208 21.8991 0.0000 0.0000 0.0000
# 2 29.4208 54.8390 16.8598 0.0000 0.0000 0.0000
# 3 21.8991 16.8598 48.3083 0.0000 0.0000 0.0000
# 4 0.0000 0.0000 0.0000 20.2545 0.0000 0.0000
# 5 0.0000 0.0000 0.0000 0.0000 33.6955 0.0000
# 6 0.0000 0.0000 0.0000 0.0000 0.0000 34.7012
#
#
#
# Elastic Compliance Matrix: (Units=1/GPa)
#
#
# Indices 1 2 3 4 5 6 
#
# 1 0.012222 -0.005437 -0.003643 0.000000 0.000000 0.000000
# 2 -0.005437 0.022846 -0.005509 0.000000 0.000000 0.000000
# 3 -0.003643 -0.005509 0.024274 0.000000 0.000000 0.000000
# 4 0.000000 0.000000 0.000000 0.049372 0.000000 0.000000
# 5 0.000000 0.000000 0.000000 0.000000 0.029678 0.000000
# 6 0.000000 0.000000 0.000000 0.000000 0.000000 0.028817
#
#
# Mechanical properties :
#
#
# Convention : Reuss Voigt Hill
#
# Bulk Modulus (GPa) = 33.15105 37.88274 35.51690
# Shear Modulus (GPa) = 24.22016 26.82394 25.52205
#
# Velocity S-wave (km/s) = 3.48033 3.66263 3.57264
# Velocity P-wave (km/s) = 5.72096 6.06893 5.89751
#
# Compressibility (1/GPa) = 0.03016496
#
# Stress axis : x y z
#
# Youngs Moduli (GPa) = 81.82255 43.77214 41.19597
#
# Poissons Ratio (x) = 0.23798 0.15007
# Poissons Ratio (y) = 0.44486 0.22693
# Poissons Ratio (z) = 0.29806 0.24112
#
# Static dielectric constant tensor:
#      x y z
#    x 3.865110 0.000000 0.000000 
#    y 0.000000 3.439200 0.000000 
#    z 0.000000 0.000000 3.632870 
# 
# 
# High freq. dielectric constant tensor:
#      x y z
#    x 1.786160 0.000000 0.000000 
#    y 0.000000 1.764150 0.000000 
#    z 0.000000 0.000000 1.775210 
# 
# From -- ./inp_files/10574.got.cif
#   From: 2010.03.12/outbox.cif.g09.slc.cpg/sg39_6_cif.got.tgz:10574.got - 2010.04.14 02:53:20.
