data_PCOD8181872
_publ_section_title
;
Structure prediction by ZEFSAII (Michael W. Deem and Ramdas Pophale) SiO2 
 PCOD8181872
Probable space group: A B M 2
;
_chemical_formula_sum "Si O2"
_cell_formula_units_Z 64
_cell_length_a 6.669328
_cell_length_b 18.151597
_cell_length_c 27.242593
_cell_angle_alpha 90.000000
_cell_angle_beta 90.000000
_cell_angle_gamma 90.000000
_cell_volume 3297.959816
_symmetry_space_group_name_H-M "A B M 2"
_symmetry_group_IT_number 39
_symmetry_cell_setting 'orthorhombic'
loop_
_space_group_symop_operation_xyz
x,y,z
-x,-y,z
-x,1/2+y,z
x,1/2-y,z
x,1/2+y,1/2+z
-x,1/2-y,1/2+z
-x,y,1/2+z
x,-y,1/2+z
loop_
_atom_site_type_symbol
_atom_site_label
_atom_site_fract_x
_atom_site_fract_y
_atom_site_fract_z
Si Si1 0.424138 0.917644 0.020050
Si Si2 0.390608 0.833245 0.762154
Si Si3 0.906644 0.419138 0.100313
Si Si4 0.083586 0.419762 0.324217
Si Si5 0.594633 0.921144 0.409153
Si Si6 0.696917 0.836600 0.087229
Si Si7 0.696232 0.330681 0.350433
Si Si8 0.554255 0.915813 0.669626
O O1 0.236068 0.904936 0.054540
O O2 0.606140 0.861973 0.034541
O O3 0.500000 0.000000 0.026844
O O4 0.345106 0.903288 0.964969
O O5 0.314773 0.750000 0.749296
O O6 0.204952 0.885790 0.777928
O O7 0.543777 0.829317 0.806003
O O8 0.514439 0.867427 0.717425
O O9 0.785871 0.409530 0.151743
O O10 0.000000 0.500000 0.097904
O O11 0.070251 0.355186 0.094199
O O12 0.213602 0.417917 0.373868
O O13 0.000000 0.500000 0.309878
O O14 0.892980 0.371522 0.334453
O O15 0.417386 0.865220 0.396386
O O16 0.500000 0.000000 0.402878
O O17 0.662537 0.750000 0.095089
O O18 0.585036 0.885651 0.127050
O O19 0.763829 0.250000 0.366557
O O20 0.500000 0.000000 0.681025
#
# Coordination Sequence:
#
# PCOD8181872 Si02
#       8
#     8   8   8   8   8   8   8   8
#     4  10  21  38  64  88 122 162 202 250 305 366
#     4  10  24  42  61  88 126 164 201 253 314 366
#     4  11  20  40  62  91 119 160 205 251 306 366
#     4  11  22  38  64  92 122 160 211 256 299 369
#     4  10  21  38  61  93 120 158 206 252 302 361
#     4  11  23  40  61  89 125 159 201 256 307 367
#     4  10  22  41  61  86 124 161 198 253 313 362
#     4  11  23  40  66  89 119 159 207 255 307 367
#
# _framework density 19.405936000000001
#
# number of rings (size 3 to 8) (size 9 to 14) (size 15 to 20)
#    0.000    1.500    3.750    1.500    1.750    6.000 
#    0.000    1.250    0.000    0.000    0.000    0.000 
#    0.000    0.000    0.000    0.000    0.000    0.000 
#
# Total GULP energy -396748.535085 kJ/mol
# GULP energy per Si atom -12398.391721 kJ/mol
# Density = 1.936177 g / cm^3
# Si number density = 19.405936 Si / 1000 Ang^3
#
#
#
# Elastic Constant Matrix: (Units=GPa)
#
#
# Indices 1 2 3 4 5 6 
#
# 1 103.7130 47.8197 16.9850 0.0000 0.0000 0.0000
# 2 47.8197 141.0492 43.4033 0.0000 0.0000 0.0000
# 3 16.9850 43.4033 53.1697 0.0000 0.0000 0.0000
# 4 0.0000 0.0000 0.0000 55.2236 0.0000 0.0000
# 5 0.0000 0.0000 0.0000 0.0000 22.6376 0.0000
# 6 0.0000 0.0000 0.0000 0.0000 0.0000 32.9770
#
#
#
# Elastic Compliance Matrix: (Units=1/GPa)
#
#
# Indices 1 2 3 4 5 6 
#
# 1 0.011445 -0.003680 -0.000653 0.000000 0.000000 0.000000
# 2 -0.003680 0.010651 -0.007519 0.000000 0.000000 0.000000
# 3 -0.000653 -0.007519 0.025154 0.000000 0.000000 0.000000
# 4 0.000000 0.000000 0.000000 0.018108 0.000000 0.000000
# 5 0.000000 0.000000 0.000000 0.000000 0.044174 0.000000
# 6 0.000000 0.000000 0.000000 0.000000 0.000000 0.030324
#
#
# Mechanical properties :
#
#
# Convention : Reuss Voigt Hill
#
# Bulk Modulus (GPa) = 42.46631 57.14975 49.80803
# Shear Modulus (GPa) = 29.17002 34.81592 31.99297
#
# Velocity S-wave (km/s) = 3.88125 4.24026 4.06472
# Velocity P-wave (km/s) = 6.48199 7.31346 6.91024
#
# Compressibility (1/GPa) = 0.02354808
#
# Stress axis : x y z
#
# Youngs Moduli (GPa) = 87.37130 93.88839 39.75487
#
# Poissons Ratio (x) = 0.34546 0.02594
# Poissons Ratio (y) = 0.32148 0.29892
# Poissons Ratio (z) = 0.05702 0.70596
#
# Static dielectric constant tensor:
#      x y z
#    x 3.619010 0.000000 0.000000 
#    y 0.000000 3.664640 0.000000 
#    z 0.000000 0.000000 3.735870 
# 
# 
# High freq. dielectric constant tensor:
#      x y z
#    x 1.763030 0.000000 0.000000 
#    y 0.000000 1.765530 0.000000 
#    z 0.000000 0.000000 1.752610 
# 
# From -- ./inp_files/17366.got.cif
#   From: 2010.03.12/outbox.cif.g09.slc.cpg/sg39_9_cif.got.tgz:17366.got - 2010.04.14 02:53:20.
