data_PCOD8181693
_publ_section_title
;
Structure prediction by ZEFSAII (Michael W. Deem and Ramdas Pophale) SiO2 
 PCOD8181693
Probable space group: A B M 2
;
_chemical_formula_sum "Si O2"
_cell_formula_units_Z 56
_cell_length_a 4.962561
_cell_length_b 16.951984
_cell_length_c 31.175105
_cell_angle_alpha 90.000000
_cell_angle_beta 90.000000
_cell_angle_gamma 90.000000
_cell_volume 2622.613648
_symmetry_space_group_name_H-M "A B M 2"
_symmetry_group_IT_number 39
_symmetry_cell_setting 'orthorhombic'
loop_
_space_group_symop_operation_xyz
x,y,z
-x,-y,z
-x,1/2+y,z
x,1/2-y,z
x,1/2+y,1/2+z
-x,1/2-y,1/2+z
-x,y,1/2+z
x,-y,1/2+z
loop_
_atom_site_type_symbol
_atom_site_label
_atom_site_fract_x
_atom_site_fract_y
_atom_site_fract_z
Si Si1 0.931871 0.408571 0.915630
Si Si2 0.749145 0.446514 0.004365
Si Si3 0.569303 0.408686 0.280061
Si Si4 0.936644 0.340658 0.735719
Si Si5 0.424480 0.657995 0.370763
Si Si6 0.593838 0.410853 0.095045
Si Si7 0.905999 0.660233 0.137880
O O1 0.698158 0.386037 0.882962
O O2 0.000000 0.500000 0.909735
O O3 0.194940 0.356597 0.906242
O O4 0.839064 0.391483 0.964625
O O5 0.500000 0.500000 0.988209
O O6 0.657569 0.393934 0.044884
O O7 0.000000 0.500000 0.019719
O O8 0.500000 0.500000 0.281815
O O9 0.307370 0.359257 0.267367
O O10 0.675396 0.377744 0.325792
O O11 0.807076 0.395230 0.245952
O O12 0.023396 0.250000 0.741916
O O13 0.840555 0.358070 0.687383
O O14 0.484053 0.750000 0.366836
O O15 0.500000 0.500000 0.101799
O O16 0.361694 0.351924 0.110051
O O17 0.859699 0.397871 0.122852
O O18 0.003301 0.750000 0.131714
#
# Coordination Sequence:
#
# PCOD8181693 Si02
#       7
#     8   8   8   8   8   8   8
#     4  11  22  41  66  91 120 162 210 255 302 362
#     4  10  20  38  63  93 124 159 205 257 309 359
#     4  12  25  42  65  93 122 159 210 259 304 360
#     4  11  24  43  64  88 124 167 206 251 313 371
#     4  12  25  42  62  91 129 163 200 251 314 371
#     4  11  22  39  64  92 122 162 210 256 302 362
#     4  11  24  41  61  90 128 166 203 251 314 371
#
# _framework density 21.352744999999999
#
# number of rings (size 3 to 8) (size 9 to 14) (size 15 to 20)
#    0.000    0.857    0.000    9.429    0.000    5.714 
#    0.000    4.286    0.000    0.000    0.000    0.000 
#    0.000    0.000    0.000    0.000    0.000    0.000 
#
# Total GULP energy -347405.793377 kJ/mol
# GULP energy per Si atom -12407.349763 kJ/mol
# Density = 2.130415 g / cm^3
# Si number density = 21.352745 Si / 1000 Ang^3
#
#
#
# Elastic Constant Matrix: (Units=GPa)
#
#
# Indices 1 2 3 4 5 6 
#
# 1 131.6380 32.1264 44.1219 0.0000 0.0000 0.0000
# 2 32.1264 79.2463 70.5126 0.0000 0.0000 0.0000
# 3 44.1219 70.5126 125.6146 0.0000 0.0000 0.0000
# 4 0.0000 0.0000 0.0000 17.0606 0.0000 0.0000
# 5 0.0000 0.0000 0.0000 0.0000 19.1903 0.0000
# 6 0.0000 0.0000 0.0000 0.0000 0.0000 28.2485
#
#
#
# Elastic Compliance Matrix: (Units=1/GPa)
#
#
# Indices 1 2 3 4 5 6 
#
# 1 0.008713 -0.001616 -0.002153 0.000000 0.000000 0.000000
# 2 -0.001616 0.025511 -0.013753 0.000000 0.000000 0.000000
# 3 -0.002153 -0.013753 0.016437 0.000000 0.000000 0.000000
# 4 0.000000 0.000000 0.000000 0.058615 0.000000 0.000000
# 5 0.000000 0.000000 0.000000 0.000000 0.052110 0.000000
# 6 0.000000 0.000000 0.000000 0.000000 0.000000 0.035400
#
#
# Mechanical properties :
#
#
# Convention : Reuss Voigt Hill
#
# Bulk Modulus (GPa) = 64.03386 70.00230 67.01808
# Shear Modulus (GPa) = 21.09391 25.54907 23.32149
#
# Velocity S-wave (km/s) = 3.14646 3.46283 3.30843
# Velocity P-wave (km/s) = 6.57678 6.98879 6.78591
#
# Compressibility (1/GPa) = 0.01561674
#
# Stress axis : x y z
#
# Youngs Moduli (GPa) = 114.77497 39.19843 60.83828
#
# Poissons Ratio (x) = 0.06336 0.13098
# Poissons Ratio (y) = 0.18553 0.83669
# Poissons Ratio (z) = 0.24710 0.53908
#
# Static dielectric constant tensor:
#      x y z
#    x 4.062270 0.000000 0.000000 
#    y 0.000000 3.873750 0.000000 
#    z 0.000000 0.000000 4.058920 
# 
# 
# High freq. dielectric constant tensor:
#      x y z
#    x 1.857050 0.000000 0.000000 
#    y 0.000000 1.822940 0.000000 
#    z 0.000000 0.000000 1.848910 
# 
# From -- ./inp_files/17281.got.cif
#   From: 2010.03.12/outbox.cif.g09.slc.cpg/sg39_9_cif.got.tgz:17281.got - 2010.04.14 02:53:20.
