data_PCOD8181775
_publ_section_title
;
Structure prediction by ZEFSAII (Michael W. Deem and Ramdas Pophale) SiO2 
 PCOD8181775
Probable space group: A B M 2
;
_chemical_formula_sum "Si O2"
_cell_formula_units_Z 56
_cell_length_a 19.475865
_cell_length_b 8.795261
_cell_length_c 15.681247
_cell_angle_alpha 90.000000
_cell_angle_beta 90.000000
_cell_angle_gamma 90.000000
_cell_volume 2686.124158
_symmetry_space_group_name_H-M "A B M 2"
_symmetry_group_IT_number 39
_symmetry_cell_setting 'orthorhombic'
loop_
_space_group_symop_operation_xyz
x,y,z
-x,-y,z
-x,1/2+y,z
x,1/2-y,z
x,1/2+y,1/2+z
-x,1/2-y,1/2+z
-x,y,1/2+z
x,-y,1/2+z
loop_
_atom_site_type_symbol
_atom_site_label
_atom_site_fract_x
_atom_site_fract_y
_atom_site_fract_z
Si Si1 0.074520 0.431675 0.101170
Si Si2 0.688110 0.075608 0.928098
Si Si3 0.692470 0.073577 0.252807
Si Si4 0.154798 0.927480 0.944333
Si Si5 0.435959 0.586331 0.691095
Si Si6 0.564571 0.916125 0.996736
Si Si7 0.152427 0.568270 0.260466
O O1 0.072547 0.250000 0.106714
O O2 0.103005 0.498717 0.189530
O O3 0.000000 0.500000 0.086812
O O4 0.118509 0.482292 0.019917
O O5 0.676737 0.250000 0.902464
O O6 0.764598 0.051301 0.963282
O O7 0.672776 0.968406 0.848439
O O8 0.632580 0.021064 0.996581
O O9 0.686549 0.250000 0.237099
O O10 0.770318 0.019395 0.234018
O O11 0.637338 0.996588 0.191798
O O12 0.133730 0.750000 0.945435
O O13 0.133845 0.998347 0.852906
O O14 0.500000 0.500000 0.736481
O O15 0.428554 0.750000 0.736823
O O16 0.456075 0.610663 0.593785
O O17 0.576857 0.750000 0.953874
O O18 0.500000 0.000000 0.950827
O O19 0.143991 0.750000 0.264983
#
# Coordination Sequence:
#
# PCOD8181775 Si02
#       7
#     8   8   8   8   8   8   8
#     4  12  26  44  68  98 131 168 211 256 306 372
#     4  10  21  37  59  85 116 152 195 245 297 356
#     4  10  21  37  59  85 116 152 195 245 297 356
#     4  10  22  42  66  96 131 168 210 259 313 371
#     4  10  21  36  54  79 112 151 196 246 299 357
#     4  10  21  36  54  79 112 151 196 246 299 357
#     4  10  22  42  66  96 131 168 210 259 313 371
#
# _framework density 20.847882999999999
#
# number of rings (size 3 to 8) (size 9 to 14) (size 15 to 20)
#    0.000    1.714    0.000    3.857    2.000    6.286 
#    0.000    5.714    0.000    0.000    0.000    0.000 
#    0.000    0.000    0.000    0.000    0.000    0.000 
#
# Total GULP energy -347124.218843 kJ/mol
# GULP energy per Si atom -12397.293530 kJ/mol
# Density = 2.080043 g / cm^3
# Si number density = 20.847883 Si / 1000 Ang^3
#
#
#
# Elastic Constant Matrix: (Units=GPa)
#
#
# Indices 1 2 3 4 5 6 
#
# 1 106.5786 47.1213 37.6374 0.0000 0.0000 0.0000
# 2 47.1213 114.2227 30.9415 0.0000 0.0000 0.0000
# 3 37.6374 30.9415 72.8601 0.0000 0.0000 0.0000
# 4 0.0000 0.0000 0.0000 32.7044 0.0000 0.0000
# 5 0.0000 0.0000 0.0000 0.0000 3.3945 0.0000
# 6 0.0000 0.0000 0.0000 0.0000 0.0000 36.2899
#
#
#
# Elastic Compliance Matrix: (Units=1/GPa)
#
#
# Indices 1 2 3 4 5 6 
#
# 1 0.012896 -0.003972 -0.004975 0.000000 0.000000 0.000000
# 2 -0.003972 0.011117 -0.002669 0.000000 0.000000 0.000000
# 3 -0.004975 -0.002669 0.017428 0.000000 0.000000 0.000000
# 4 0.000000 0.000000 0.000000 0.030577 0.000000 0.000000
# 5 0.000000 0.000000 0.000000 0.000000 0.294594 0.000000
# 6 0.000000 0.000000 0.000000 0.000000 0.000000 0.027556
#
#
# Mechanical properties :
#
#
# Convention : Reuss Voigt Hill
#
# Bulk Modulus (GPa) = 54.91897 58.34020 56.62959
# Shear Modulus (GPa) = 11.80725 26.34183 19.07454
#
# Velocity S-wave (km/s) = 2.38240 3.55847 3.02808
# Velocity P-wave (km/s) = 5.82818 6.70284 6.28075
#
# Compressibility (1/GPa) = 0.01820864
#
# Stress axis : x y z
#
# Youngs Moduli (GPa) = 77.54445 89.95580 57.37878
#
# Poissons Ratio (x) = 0.35735 0.28544
# Poissons Ratio (y) = 0.30804 0.15313
# Poissons Ratio (z) = 0.38575 0.24007
#
# Static dielectric constant tensor:
#      x y z
#    x 3.873880 0.000000 0.000000 
#    y 0.000000 4.156280 0.000000 
#    z 0.000000 0.000000 3.524640 
# 
# 
# High freq. dielectric constant tensor:
#      x y z
#    x 1.821430 0.000000 0.000000 
#    y 0.000000 1.836380 0.000000 
#    z 0.000000 0.000000 1.802400 
# 
# From -- ./inp_files/10406.got.cif
#   From: 2010.03.12/outbox.cif.g09.slc.cpg/sg39_6_cif.got.tgz:10406.got - 2010.04.14 02:53:20.
