data_PCOD8181101
_publ_section_title
;
Structure prediction by ZEFSAII (Michael W. Deem and Ramdas Pophale) SiO2 
 PCOD8181101
Probable space group: A B M 2
;
_chemical_formula_sum "Si O2"
_cell_formula_units_Z 64
_cell_length_a 23.879705
_cell_length_b 9.006155
_cell_length_c 15.132256
_cell_angle_alpha 90.000000
_cell_angle_beta 90.000000
_cell_angle_gamma 90.000000
_cell_volume 3254.408416
_symmetry_space_group_name_H-M "A B M 2"
_symmetry_group_IT_number 39
_symmetry_cell_setting 'orthorhombic'
loop_
_space_group_symop_operation_xyz
x,y,z
-x,-y,z
-x,1/2+y,z
x,1/2-y,z
x,1/2+y,1/2+z
-x,1/2-y,1/2+z
-x,y,1/2+z
x,-y,1/2+z
loop_
_atom_site_type_symbol
_atom_site_label
_atom_site_fract_x
_atom_site_fract_y
_atom_site_fract_z
Si Si1 0.745139 0.924892 0.178410
Si Si2 0.335400 0.081174 0.336314
Si Si3 0.323833 0.580321 0.032417
Si Si4 0.863859 0.425578 0.192205
Si Si5 0.943414 0.422402 0.034521
Si Si6 0.058375 0.574221 0.832991
Si Si7 0.445451 0.422053 0.587060
Si Si8 0.555309 0.076288 0.290180
O O1 0.758230 0.750000 0.178078
O O2 0.707312 0.972866 0.261440
O O3 0.713856 0.969169 0.088626
O O4 0.801133 0.018563 0.185224
O O5 0.354394 0.250000 0.317800
O O6 0.304314 0.068411 0.430776
O O7 0.389986 0.979401 0.340566
O O8 0.317211 0.750000 0.067604
O O9 0.388890 0.531061 0.036951
O O10 0.865273 0.250000 0.208612
O O11 0.892503 0.507513 0.274138
O O12 0.893879 0.469544 0.100310
O O13 0.955963 0.250000 0.040360
O O14 0.927176 0.467392 0.934494
O O15 0.000000 0.500000 0.066462
O O16 0.054114 0.750000 0.818395
O O17 0.000000 0.500000 0.804258
O O18 0.500000 0.500000 0.544594
O O19 0.457215 0.250000 0.578078
O O20 0.437900 0.471262 0.688373
O O21 0.549367 0.250000 0.303475
O O22 0.500000 0.000000 0.330768
#
# Coordination Sequence:
#
# PCOD8181101 Si02
#       8
#     8   8   8   8   8   8   8   8
#     4  11  24  41  59  83 113 149 193 243 290 337
#     4  10  22  39  60  83 112 148 188 235 290 346
#     4  10  21  40  61  82 110 148 189 233 287 345
#     4  11  23  39  60  85 115 156 198 239 286 337
#     4   9  20  37  59  87 120 155 189 229 281 334
#     4  10  20  37  60  89 123 155 190 233 281 336
#     4   9  18  32  54  81 109 142 178 221 276 336
#     4  10  19  33  56  84 114 147 183 227 282 343
#
# _framework density 19.665633
#
# number of rings (size 3 to 8) (size 9 to 14) (size 15 to 20)
#    0.000    2.000    1.250    1.875    0.000    6.000 
#    0.000    6.250    0.000    0.000    0.000    0.000 
#    0.000    0.000    0.000    0.000    0.000    0.000 
#
# Total GULP energy -396904.928016 kJ/mol
# GULP energy per Si atom -12403.279000 kJ/mol
# Density = 1.962087 g / cm^3
# Si number density = 19.665633 Si / 1000 Ang^3
#
#
#
# Elastic Constant Matrix: (Units=GPa)
#
#
# Indices 1 2 3 4 5 6 
#
# 1 122.8187 46.1641 55.0894 0.0000 0.0000 0.0000
# 2 46.1641 72.1028 39.7430 0.0000 0.0000 0.0000
# 3 55.0894 39.7430 96.8467 0.0000 0.0000 0.0000
# 4 0.0000 0.0000 0.0000 26.4192 0.0000 0.0000
# 5 0.0000 0.0000 0.0000 0.0000 -5.3000 0.0000
# 6 0.0000 0.0000 0.0000 0.0000 0.0000 40.1711
#
#
#
# Elastic Compliance Matrix: (Units=1/GPa)
#
#
# Indices 1 2 3 4 5 6 
#
# 1 0.012265 -0.005178 -0.004851 0.000000 0.000000 0.000000
# 2 -0.005178 0.020110 -0.005307 0.000000 0.000000 0.000000
# 3 -0.004851 -0.005307 0.015263 0.000000 0.000000 0.000000
# 4 0.000000 0.000000 0.000000 0.037851 0.000000 0.000000
# 5 0.000000 0.000000 0.000000 0.000000 -0.188680 0.000000
# 6 0.000000 0.000000 0.000000 0.000000 0.000000 0.024894
#
#
# Mechanical properties :
#
#
# Convention : Reuss Voigt Hill
#
# Bulk Modulus (GPa) = 58.94812 63.75124 61.34968
# Shear Modulus (GPa) = -119.13094 22.30950 -48.41072
#
# Velocity S-wave (km/s) = -7.79165 3.37180 -4.96693
# Velocity P-wave (km/s) = 7.13485 6.90266 1.27659
#
# Compressibility (1/GPa) = 0.01696407
#
# Stress axis : x y z
#
# Youngs Moduli (GPa) = 81.53599 49.72735 65.51800
#
# Poissons Ratio (x) = 0.25750 0.31785
# Poissons Ratio (y) = 0.42222 0.34769
# Poissons Ratio (z) = 0.39556 0.26389
#
# Static dielectric constant tensor:
#      x y z
#    x 3.577710 0.000000 0.000000 
#    y 0.000000 3.550270 0.000000 
#    z 0.000000 0.000000 3.703040 
# 
# 
# High freq. dielectric constant tensor:
#      x y z
#    x 1.761920 0.000000 0.000000 
#    y 0.000000 1.767450 0.000000 
#    z 0.000000 0.000000 1.770710 
# 
# From -- ./inp_files/10583.got.cif
#   From: 2010.03.12/outbox.cif.g09.slc.cpg/sg39_6_cif.got.tgz:10583.got - 2010.04.14 02:53:20.
