data_PCOD8181027
_publ_section_title
;
Structure prediction by ZEFSAII (Michael W. Deem and Ramdas Pophale) SiO2 
 PCOD8181027
Probable space group: A B M 2
;
_chemical_formula_sum "Si O2"
_cell_formula_units_Z 64
_cell_length_a 19.728282
_cell_length_b 8.814360
_cell_length_c 19.958068
_cell_angle_alpha 90.000000
_cell_angle_beta 90.000000
_cell_angle_gamma 90.000000
_cell_volume 3470.551948
_symmetry_space_group_name_H-M "A B M 2"
_symmetry_group_IT_number 39
_symmetry_cell_setting 'orthorhombic'
loop_
_space_group_symop_operation_xyz
x,y,z
-x,-y,z
-x,1/2+y,z
x,1/2-y,z
x,1/2+y,1/2+z
-x,1/2-y,1/2+z
-x,y,1/2+z
x,-y,1/2+z
loop_
_atom_site_type_symbol
_atom_site_label
_atom_site_fract_x
_atom_site_fract_y
_atom_site_fract_z
Si Si1 0.329738 0.575791 0.856790
Si Si2 0.820864 0.925460 0.311322
Si Si3 0.317908 0.072615 0.507566
Si Si4 0.649234 0.429228 0.640084
Si Si5 0.927310 0.428921 0.923130
Si Si6 0.429665 0.928523 0.255791
Si Si7 0.830903 0.073472 0.034905
Si Si8 0.209919 0.073538 0.677899
O O1 0.346077 0.750000 0.837791
O O2 0.250634 0.541073 0.846631
O O3 0.348695 0.543227 0.934230
O O4 0.372956 0.464685 0.811025
O O5 0.827539 0.750000 0.292082
O O6 0.880055 0.976968 0.361146
O O7 0.829775 0.022906 0.243938
O O8 0.318208 0.250000 0.526186
O O9 0.241291 0.007269 0.510667
O O10 0.361370 0.984689 0.563663
O O11 0.643843 0.250000 0.643842
O O12 0.589573 0.500967 0.684150
O O13 0.720966 0.479843 0.670987
O O14 0.936115 0.250000 0.926886
O O15 0.000000 0.500000 0.912645
O O16 0.892781 0.495591 0.991484
O O17 0.437183 0.750000 0.248528
O O18 0.500000 0.000000 0.280476
O O19 0.829680 0.250000 0.017624
O O20 0.839461 0.041726 0.114282
O O21 0.229587 0.250000 0.681349
#
# Coordination Sequence:
#
# PCOD8181027 Si02
#       8
#     8   8   8   8   8   8   8   8
#     4  10  19  35  60  87 115 149 188 237 290 341
#     4  10  19  33  56  82 113 149 186 233 288 340
#     4   9  17  33  58  85 111 144 187 234 283 334
#     4  11  21  35  55  83 117 149 184 231 284 338
#     4  10  20  36  55  78 109 151 191 233 285 344
#     4  12  25  41  60  84 116 154 194 237 285 345
#     4   8  15  31  53  76 104 140 182 225 277 330
#     4  10  19  32  55  83 109 140 184 237 283 334
#
# _framework density 18.440868999999999
#
# number of rings (size 3 to 8) (size 9 to 14) (size 15 to 20)
#    0.000    2.000    2.500    3.375    0.000    1.000 
#    0.000    4.375    0.000    6.000    0.000    0.000 
#    0.000    0.000    0.000    0.000    0.000    0.000 
#
# Total GULP energy -396794.142451 kJ/mol
# GULP energy per Si atom -12399.816952 kJ/mol
# Density = 1.839890 g / cm^3
# Si number density = 18.440869 Si / 1000 Ang^3
#
#
#
# Elastic Constant Matrix: (Units=GPa)
#
#
# Indices 1 2 3 4 5 6 
#
# 1 78.6410 37.3052 35.7841 0.0000 0.0000 0.0000
# 2 37.3052 96.0348 51.4418 0.0000 0.0000 0.0000
# 3 35.7841 51.4418 122.2953 0.0000 0.0000 0.0000
# 4 0.0000 0.0000 0.0000 30.3925 0.0000 0.0000
# 5 0.0000 0.0000 0.0000 0.0000 24.5001 0.0000
# 6 0.0000 0.0000 0.0000 0.0000 0.0000 25.9011
#
#
#
# Elastic Compliance Matrix: (Units=1/GPa)
#
#
# Indices 1 2 3 4 5 6 
#
# 1 0.016256 -0.004863 -0.002711 0.000000 0.000000 0.000000
# 2 -0.004863 0.014896 -0.004843 0.000000 0.000000 0.000000
# 3 -0.002711 -0.004843 0.011007 0.000000 0.000000 0.000000
# 4 0.000000 0.000000 0.000000 0.032903 0.000000 0.000000
# 5 0.000000 0.000000 0.000000 0.000000 0.040816 0.000000
# 6 0.000000 0.000000 0.000000 0.000000 0.000000 0.038608
#
#
# Mechanical properties :
#
#
# Convention : Reuss Voigt Hill
#
# Bulk Modulus (GPa) = 57.71649 60.67037 59.19343
# Shear Modulus (GPa) = 27.01299 27.65475 27.33387
#
# Velocity S-wave (km/s) = 3.83148 3.87673 3.85417
# Velocity P-wave (km/s) = 7.13721 7.28080 7.20936
#
# Compressibility (1/GPa) = 0.01732607
#
# Stress axis : x y z
#
# Youngs Moduli (GPa) = 61.51419 67.13232 90.84791
#
# Poissons Ratio (x) = 0.32643 0.24632
# Poissons Ratio (y) = 0.29912 0.43997
# Poissons Ratio (z) = 0.16679 0.32512
#
# Static dielectric constant tensor:
#      x y z
#    x 3.229500 0.000000 0.000000 
#    y 0.000000 3.230060 0.000000 
#    z 0.000000 0.000000 3.636730 
# 
# 
# High freq. dielectric constant tensor:
#      x y z
#    x 1.686450 0.000000 0.000000 
#    y 0.000000 1.702090 0.000000 
#    z 0.000000 0.000000 1.731400 
# 
# From -- ./inp_files/15052.got.cif
#   From: 2010.03.12/outbox.cif.g09.slc.cpg/sg39_8_cif.got.tgz:15052.got - 2010.04.14 02:53:20.
