data_PCOD8181209
_publ_section_title
;
Structure prediction by ZEFSAII (Michael W. Deem and Ramdas Pophale) SiO2 
 PCOD8181209
Probable space group: A B M 2
;
_chemical_formula_sum "Si O2"
_cell_formula_units_Z 48
_cell_length_a 13.935071
_cell_length_b 8.727044
_cell_length_c 19.858372
_cell_angle_alpha 90.000000
_cell_angle_beta 90.000000
_cell_angle_gamma 90.000000
_cell_volume 2415.015894
_symmetry_space_group_name_H-M "A B M 2"
_symmetry_group_IT_number 39
_symmetry_cell_setting 'orthorhombic'
loop_
_space_group_symop_operation_xyz
x,y,z
-x,-y,z
-x,1/2+y,z
x,1/2-y,z
x,1/2+y,1/2+z
-x,1/2-y,1/2+z
-x,y,1/2+z
x,-y,1/2+z
loop_
_atom_site_type_symbol
_atom_site_label
_atom_site_fract_x
_atom_site_fract_y
_atom_site_fract_z
Si Si1 0.602886 0.569016 0.938330
Si Si2 0.900884 0.068483 0.595760
Si Si3 0.401388 0.572775 0.193889
Si Si4 0.097735 0.569696 0.749839
Si Si5 0.293520 0.568636 0.815607
Si Si6 0.290652 0.573039 0.059057
O O1 0.500000 0.500000 0.919269
O O2 0.594660 0.750000 0.936399
O O3 0.682354 0.511950 0.885669
O O4 0.634603 0.515599 0.012105
O O5 0.900732 0.250000 0.588156
O O6 0.887779 0.014501 0.673028
O O7 0.815013 0.998566 0.551525
O O8 0.000000 0.000000 0.567004
O O9 0.500000 0.500000 0.167701
O O10 0.415777 0.750000 0.212504
O O11 0.369584 0.481228 0.259682
O O12 0.323409 0.551035 0.135711
O O13 0.088761 0.750000 0.752303
O O14 0.187414 0.512556 0.794048
O O15 0.000000 0.500000 0.780307
O O16 0.298364 0.750000 0.824453
O O17 0.288550 0.750000 0.037515
#
# Coordination Sequence:
#
# PCOD8181209 Si02
#       6
#     8   8   8   8   8   8
#     4  12  26  44  64  87 119 162 205 251 306 367
#     4  10  19  35  59  91 125 161 200 247 304 359
#     4  11  23  37  58  87 118 152 196 249 302 356
#     4   9  19  34  58  89 122 158 195 242 297 354
#     4  11  22  40  62  88 121 158 201 248 300 359
#     4  11  23  40  62  90 121 159 203 251 303 361
#
# _framework density 19.875644999999999
#
# number of rings (size 3 to 8) (size 9 to 14) (size 15 to 20)
#    0.000    1.333    1.667    4.500    0.000    5.333 
#    0.000    0.833    0.000    2.000    0.000    0.000 
#    0.000    0.000    0.000    0.000    0.000    0.000 
#
# Total GULP energy -297751.495319 kJ/mol
# GULP energy per Si atom -12406.312305 kJ/mol
# Density = 1.983041 g / cm^3
# Si number density = 19.875645 Si / 1000 Ang^3
#
#
#
# Elastic Constant Matrix: (Units=GPa)
#
#
# Indices 1 2 3 4 5 6 
#
# 1 129.0055 44.8108 16.7916 0.0000 0.0000 0.0000
# 2 44.8108 111.8913 28.2123 0.0000 0.0000 0.0000
# 3 16.7916 28.2123 58.3835 0.0000 0.0000 0.0000
# 4 0.0000 0.0000 0.0000 31.6407 0.0000 0.0000
# 5 0.0000 0.0000 0.0000 0.0000 31.6379 0.0000
# 6 0.0000 0.0000 0.0000 0.0000 0.0000 38.5483
#
#
#
# Elastic Compliance Matrix: (Units=1/GPa)
#
#
# Indices 1 2 3 4 5 6 
#
# 1 0.009052 -0.003381 -0.000970 0.000000 0.000000 0.000000
# 2 -0.003381 0.011440 -0.004556 0.000000 0.000000 0.000000
# 3 -0.000970 -0.004556 0.019608 0.000000 0.000000 0.000000
# 4 0.000000 0.000000 0.000000 0.031605 0.000000 0.000000
# 5 0.000000 0.000000 0.000000 0.000000 0.031608 0.000000
# 6 0.000000 0.000000 0.000000 0.000000 0.000000 0.025941
#
#
# Mechanical properties :
#
#
# Convention : Reuss Voigt Hill
#
# Bulk Modulus (GPa) = 44.86723 53.21222 49.03972
# Shear Modulus (GPa) = 32.36324 34.32975 33.34649
#
# Velocity S-wave (km/s) = 4.03958 4.16050 4.10049
# Velocity P-wave (km/s) = 6.66188 7.06473 6.86626
#
# Compressibility (1/GPa) = 0.02228798
#
# Stress axis : x y z
#
# Youngs Moduli (GPa) = 110.47091 87.41373 50.99839
#
# Poissons Ratio (x) = 0.29552 0.04946
# Poissons Ratio (y) = 0.37347 0.23233
# Poissons Ratio (z) = 0.10714 0.39823
#
# Static dielectric constant tensor:
#      x y z
#    x 3.774190 0.000000 0.000000 
#    y 0.000000 3.642660 0.000000 
#    z 0.000000 0.000000 3.394730 
# 
# 
# High freq. dielectric constant tensor:
#      x y z
#    x 1.789850 0.000000 0.000000 
#    y 0.000000 1.786150 0.000000 
#    z 0.000000 0.000000 1.753910 
# 
# From -- ./inp_files/12639.got.cif
#   From: 2010.03.12/outbox.cif.g09.slc.cpg/sg39_7_cif.got.tgz:12639.got - 2010.04.14 02:53:20.
