data_PCOD8181368
_publ_section_title
;
Structure prediction by ZEFSAII (Michael W. Deem and Ramdas Pophale) SiO2 
 PCOD8181368
Probable space group: A B M 2
;
_chemical_formula_sum "Si O2"
_cell_formula_units_Z 60
_cell_length_a 27.322757
_cell_length_b 12.104435
_cell_length_c 8.857349
_cell_angle_alpha 90.000000
_cell_angle_beta 90.000000
_cell_angle_gamma 90.000000
_cell_volume 2929.360354
_symmetry_space_group_name_H-M "A B M 2"
_symmetry_group_IT_number 39
_symmetry_cell_setting 'orthorhombic'
loop_
_space_group_symop_operation_xyz
x,y,z
-x,-y,z
-x,1/2+y,z
x,1/2-y,z
x,1/2+y,1/2+z
-x,1/2-y,1/2+z
-x,y,1/2+z
x,-y,1/2+z
loop_
_atom_site_type_symbol
_atom_site_label
_atom_site_fract_x
_atom_site_fract_y
_atom_site_fract_z
Si Si1 0.408155 0.128614 0.093610
Si Si2 0.000000 0.000000 0.962148
Si Si3 0.716887 0.629101 0.660978
Si Si4 0.770825 0.019127 0.431711
Si Si5 0.493272 0.624807 0.240816
Si Si6 0.058526 0.120973 0.211057
Si Si7 0.829622 0.621582 0.198582
Si Si8 0.387804 0.922449 0.252971
O O1 0.387869 0.250000 0.126468
O O2 0.467572 0.123340 0.103749
O O3 0.382921 0.052809 0.219540
O O4 0.391190 0.091105 0.930702
O O5 0.973074 0.909953 0.065010
O O6 0.040208 0.939920 0.860614
O O7 0.736363 0.750000 0.617223
O O8 0.730435 0.547788 0.525895
O O9 0.658624 0.637753 0.682583
O O10 0.741466 0.596318 0.818399
O O11 0.802751 0.093569 0.543000
O O12 0.806731 0.938796 0.342116
O O13 0.500000 0.500000 0.324874
O O14 0.500043 0.750000 0.323004
O O15 0.437609 0.625976 0.177543
O O16 0.053351 0.250000 0.239429
O O17 0.114232 0.084759 0.182451
O O18 0.824667 0.750000 0.231353
#
# Coordination Sequence:
#
# PCOD8181368 Si02
#       8
#     8   4   8   8   8   8   8   8
#     4  10  22  40  59  83 115 147 183 228 273 330
#     4  10  20  34  52  82 120 152 186 230 274 324
#     4  11  22  38  59  82 111 144 179 229 287 338
#     4  10  22  38  57  83 110 141 187 234 282 334
#     4   9  19  34  55  81 109 143 182 223 270 329
#     4  10  20  34  55  81 113 153 191 229 276 326
#     4  10  20  37  59  82 110 147 190 234 277 325
#     4  11  22  39  61  85 113 148 186 226 281 344
#
# _framework density 20.482288
#
# number of rings (size 3 to 8) (size 9 to 14) (size 15 to 20)
#    0.000    1.867    0.000    4.000    0.000    4.800 
#    0.000   11.333    0.000   12.800    0.000    0.000 
#    0.000    0.000    0.000    0.000    0.000    0.000 
#
# Total GULP energy -371704.574439 kJ/mol
# GULP energy per Si atom -12390.152481 kJ/mol
# Density = 2.043567 g / cm^3
# Si number density = 20.482288 Si / 1000 Ang^3
#
#
#
# Elastic Constant Matrix: (Units=GPa)
#
#
# Indices 1 2 3 4 5 6 
#
# 1 88.9692 21.1504 -1.1642 0.0000 0.0000 0.0000
# 2 21.1504 134.1272 16.2676 0.0000 0.0000 0.0000
# 3 -1.1642 16.2676 29.6541 0.0000 0.0000 0.0000
# 4 0.0000 0.0000 0.0000 9.8795 0.0000 0.0000
# 5 0.0000 0.0000 0.0000 0.0000 23.8726 0.0000
# 6 0.0000 0.0000 0.0000 0.0000 0.0000 22.6894
#
#
#
# Elastic Compliance Matrix: (Units=1/GPa)
#
#
# Indices 1 2 3 4 5 6 
#
# 1 0.011747 -0.002044 0.001583 0.000000 0.000000 0.000000
# 2 -0.002044 0.008343 -0.004657 0.000000 0.000000 0.000000
# 3 0.001583 -0.004657 0.036339 0.000000 0.000000 0.000000
# 4 0.000000 0.000000 0.000000 0.101219 0.000000 0.000000
# 5 0.000000 0.000000 0.000000 0.000000 0.041889 0.000000
# 6 0.000000 0.000000 0.000000 0.000000 0.000000 0.044074
#
#
# Mechanical properties :
#
#
# Convention : Reuss Voigt Hill
#
# Bulk Modulus (GPa) = 21.64917 36.13979 28.89448
# Shear Modulus (GPa) = 18.57050 25.72142 22.14596
#
# Velocity S-wave (km/s) = 3.01435 3.54755 3.29177
# Velocity P-wave (km/s) = 4.76526 5.87051 5.34652
#
# Compressibility (1/GPa) = 0.04619114
#
# Stress axis : x y z
#
# Youngs Moduli (GPa) = 85.13155 119.86419 27.51864
#
# Poissons Ratio (x) = 0.24503 -0.04355
# Poissons Ratio (y) = 0.17403 0.12815
# Poissons Ratio (z) = -0.13473 0.55820
#
# Static dielectric constant tensor:
#      x y z
#    x 3.878810 0.000000 0.000000 
#    y 0.000000 4.175210 0.000000 
#    z 0.000000 0.000000 3.481020 
# 
# 
# High freq. dielectric constant tensor:
#      x y z
#    x 1.800920 0.000000 0.000000 
#    y 0.000000 1.821100 0.000000 
#    z 0.000000 0.000000 1.785900 
# 
# From -- ./inp_files/4121.got.cif
#   From: 2010.03.12/outbox.cif.g09.slc.cpg/sg39_3_cif.got.tgz:4121.got - 2010.04.14 02:53:20.
