data_PCOD8181508
_publ_section_title
;
Structure prediction by ZEFSAII (Michael W. Deem and Ramdas Pophale) SiO2 
 PCOD8181508
Probable space group: A B M 2
;
_chemical_formula_sum "Si O2"
_cell_formula_units_Z 40
_cell_length_a 14.316785
_cell_length_b 8.473721
_cell_length_c 15.451889
_cell_angle_alpha 90.000000
_cell_angle_beta 90.000000
_cell_angle_gamma 90.000000
_cell_volume 1874.568191
_symmetry_space_group_name_H-M "A B M 2"
_symmetry_group_IT_number 39
_symmetry_cell_setting 'orthorhombic'
loop_
_space_group_symop_operation_xyz
x,y,z
-x,-y,z
-x,1/2+y,z
x,1/2-y,z
x,1/2+y,1/2+z
-x,1/2-y,1/2+z
-x,y,1/2+z
x,-y,1/2+z
loop_
_atom_site_type_symbol
_atom_site_label
_atom_site_fract_x
_atom_site_fract_y
_atom_site_fract_z
Si Si1 0.602783 0.433668 0.657690
Si Si2 0.293207 0.569625 0.998294
Si Si3 0.094224 0.432432 0.566061
Si Si4 0.713461 0.566415 0.818674
Si Si5 0.099043 0.065104 0.253602
O O1 0.500000 0.500000 0.646818
O O2 0.600395 0.250000 0.679447
O O3 0.657433 0.460176 0.568563
O O4 0.653889 0.521904 0.735299
O O5 0.320835 0.750000 0.017832
O O6 0.181131 0.545528 0.002006
O O7 0.327329 0.522687 0.902739
O O8 0.080064 0.250000 0.592156
O O9 0.113269 0.531782 0.652407
O O10 0.000000 0.500000 0.520868
O O11 0.703975 0.750000 0.836104
O O12 0.821204 0.522556 0.806855
O O13 0.106923 0.250000 0.271908
O O14 0.000000 0.000000 0.286732
#
# Coordination Sequence:
#
# PCOD8181508 Si02
#       5
#     8   8   8   8   8
#     4  12  26  47  73  99 129 168 213 268 332 392
#     4  11  24  43  67  98 134 173 219 268 322 386
#     4  10  20  35  60  91 130 172 217 264 317 379
#     4  12  25  43  67  98 134 173 220 270 323 386
#     4  11  21  36  61  92 130 174 221 267 321 382
#
# _framework density 21.338246000000002
#
# number of rings (size 3 to 8) (size 9 to 14) (size 15 to 20)
#    0.000    0.800    2.000    7.800    0.000    4.000 
#    0.000    6.000    0.000    0.000    0.000    0.000 
#    0.000    0.000    0.000    0.000    0.000    0.000 
#
# Total GULP energy -248116.880503 kJ/mol
# GULP energy per Si atom -12405.844025 kJ/mol
# Density = 2.128968 g / cm^3
# Si number density = 21.338246 Si / 1000 Ang^3
#
#
#
# Elastic Constant Matrix: (Units=GPa)
#
#
# Indices 1 2 3 4 5 6 
#
# 1 104.0902 30.6572 33.6861 0.0000 0.0000 0.0000
# 2 30.6572 97.0916 -1.4437 0.0000 0.0000 0.0000
# 3 33.6861 -1.4437 99.5668 0.0000 0.0000 0.0000
# 4 0.0000 0.0000 0.0000 32.1592 0.0000 0.0000
# 5 0.0000 0.0000 0.0000 0.0000 0.5844 0.0000
# 6 0.0000 0.0000 0.0000 0.0000 0.0000 37.1807
#
#
#
# Elastic Compliance Matrix: (Units=1/GPa)
#
#
# Indices 1 2 3 4 5 6 
#
# 1 0.012092 -0.003880 -0.004147 0.000000 0.000000 0.000000
# 2 -0.003880 0.011547 0.001480 0.000000 0.000000 0.000000
# 3 -0.004147 0.001480 0.011468 0.000000 0.000000 0.000000
# 4 0.000000 0.000000 0.000000 0.031095 0.000000 0.000000
# 5 0.000000 0.000000 0.000000 0.000000 1.711265 0.000000
# 6 0.000000 0.000000 0.000000 0.000000 0.000000 0.026896
#
#
# Mechanical properties :
#
#
# Convention : Reuss Voigt Hill
#
# Bulk Modulus (GPa) = 45.42839 47.39421 46.41130
# Shear Modulus (GPa) = 2.74003 29.84145 16.29074
#
# Velocity S-wave (km/s) = 1.13441 3.74370 2.76606
# Velocity P-wave (km/s) = 4.80122 6.39892 5.65676
#
# Compressibility (1/GPa) = 0.02201267
#
# Stress axis : x y z
#
# Youngs Moduli (GPa) = 82.70000 86.60548 87.19840
#
# Poissons Ratio (x) = 0.33601 0.36164
# Poissons Ratio (y) = 0.32086 -0.12906
# Poissons Ratio (z) = 0.34298 -0.12818
#
# Static dielectric constant tensor:
#      x y z
#    x 4.061560 0.000000 0.000000 
#    y 0.000000 3.964350 0.000000 
#    z 0.000000 0.000000 3.678040 
# 
# 
# High freq. dielectric constant tensor:
#      x y z
#    x 1.839530 0.000000 0.000000 
#    y 0.000000 1.853360 0.000000 
#    z 0.000000 0.000000 1.831720 
# 
# From -- ./inp_files/9633.got.cif
#   From: 2010.03.12/outbox.cif.g09.slc.cpg/sg39_5_cif.got.tgz:9633.got - 2010.04.14 02:53:20.
