data_PCOD8181086
_publ_section_title
;
Structure prediction by ZEFSAII (Michael W. Deem and Ramdas Pophale) SiO2 
 PCOD8181086
Probable space group: A B M 2
;
_chemical_formula_sum "Si O2"
_cell_formula_units_Z 64
_cell_length_a 19.211784
_cell_length_b 8.745666
_cell_length_c 20.645846
_cell_angle_alpha 90.000000
_cell_angle_beta 90.000000
_cell_angle_gamma 90.000000
_cell_volume 3468.911868
_symmetry_space_group_name_H-M "A B M 2"
_symmetry_group_IT_number 39
_symmetry_cell_setting 'orthorhombic'
loop_
_space_group_symop_operation_xyz
x,y,z
-x,-y,z
-x,1/2+y,z
x,1/2-y,z
x,1/2+y,1/2+z
-x,1/2-y,1/2+z
-x,y,1/2+z
x,-y,1/2+z
loop_
_atom_site_type_symbol
_atom_site_label
_atom_site_fract_x
_atom_site_fract_y
_atom_site_fract_z
Si Si1 0.429564 0.573094 0.547940
Si Si2 0.708371 0.931504 0.858526
Si Si3 0.929489 0.929901 0.037562
Si Si4 0.212833 0.431367 0.984045
Si Si5 0.787704 0.070757 0.229479
Si Si6 0.426036 0.431512 0.410147
Si Si7 0.288956 0.426338 0.111766
Si Si8 0.927663 0.930406 0.185592
O O1 0.500000 0.500000 0.576161
O O2 0.441488 0.750000 0.530079
O O3 0.406567 0.488945 0.482129
O O4 0.371950 0.555176 0.603887
O O5 0.698246 0.750000 0.862162
O O6 0.748283 0.982716 0.794086
O O7 0.632790 0.010418 0.860370
O O8 0.754313 0.996314 0.918292
O O9 0.936482 0.750000 0.035937
O O10 0.866779 0.987608 0.991926
O O11 0.916000 0.984141 0.111357
O O12 0.000000 0.000000 0.009103
O O13 0.216525 0.250000 0.982454
O O14 0.255280 0.490348 0.045973
O O15 0.801264 0.250000 0.229283
O O16 0.737602 0.027382 0.170509
O O17 0.862624 0.989679 0.227170
O O18 0.500000 0.500000 0.387899
O O19 0.430041 0.250000 0.408999
O O20 0.267375 0.250000 0.124050
O O21 0.931944 0.750000 0.191973
O O22 0.000000 0.000000 0.212421
#
# Coordination Sequence:
#
# PCOD8181086 Si02
#       8
#     8   8   8   8   8   8   8   8
#     4  10  19  33  55  82 112 145 183 228 283 335
#     4  10  21  39  58  79 112 151 190 228 275 335
#     4   9  17  30  51  78 104 136 175 223 273 320
#     4   9  16  33  57  77 102 141 184 221 271 327
#     4  11  23  36  55  84 116 149 185 232 281 330
#     4  11  21  34  56  84 112 144 183 229 278 331
#     4  10  19  35  58  79 106 148 186 226 276 329
#     4  10  19  34  56  81 110 144 187 229 276 335
#
# _framework density 18.449589
#
# number of rings (size 3 to 8) (size 9 to 14) (size 15 to 20)
#    0.000    2.000    2.500    3.000    0.000    2.500 
#    0.000    1.875    0.000    3.000    0.000    0.000 
#    0.000    0.000    0.000    0.000    0.000    0.000 
#
# Total GULP energy -396816.701668 kJ/mol
# GULP energy per Si atom -12400.521927 kJ/mol
# Density = 1.840760 g / cm^3
# Si number density = 18.449589 Si / 1000 Ang^3
#
#
#
# Elastic Constant Matrix: (Units=GPa)
#
#
# Indices 1 2 3 4 5 6 
#
# 1 161.9495 48.9681 67.4255 0.0000 0.0000 0.0000
# 2 48.9681 71.5490 30.5435 0.0000 0.0000 0.0000
# 3 67.4255 30.5435 102.4815 0.0000 0.0000 0.0000
# 4 0.0000 0.0000 0.0000 20.2473 0.0000 0.0000
# 5 0.0000 0.0000 0.0000 0.0000 26.6760 0.0000
# 6 0.0000 0.0000 0.0000 0.0000 0.0000 35.0936
#
#
#
# Elastic Compliance Matrix: (Units=1/GPa)
#
#
# Indices 1 2 3 4 5 6 
#
# 1 0.009593 -0.004436 -0.004990 0.000000 0.000000 0.000000
# 2 -0.004436 0.018065 -0.002466 0.000000 0.000000 0.000000
# 3 -0.004990 -0.002466 0.013776 0.000000 0.000000 0.000000
# 4 0.000000 0.000000 0.000000 0.049389 0.000000 0.000000
# 5 0.000000 0.000000 0.000000 0.000000 0.037487 0.000000
# 6 0.000000 0.000000 0.000000 0.000000 0.000000 0.028495
#
#
# Mechanical properties :
#
#
# Convention : Reuss Voigt Hill
#
# Bulk Modulus (GPa) = 56.65201 69.98379 63.31790
# Shear Modulus (GPa) = 26.81380 29.00625 27.91002
#
# Velocity S-wave (km/s) = 3.81642 3.96939 3.89366
# Velocity P-wave (km/s) = 7.08471 7.68263 7.38972
#
# Compressibility (1/GPa) = 0.01765162
#
# Stress axis : x y z
#
# Youngs Moduli (GPa) = 104.23867 55.35644 72.59189
#
# Poissons Ratio (x) = 0.24554 0.36222
# Poissons Ratio (y) = 0.46236 0.17899
# Poissons Ratio (z) = 0.52013 0.13649
#
# Static dielectric constant tensor:
#      x y z
#    x 3.673090 0.000000 0.000000 
#    y 0.000000 3.255950 0.000000 
#    z 0.000000 0.000000 3.239660 
# 
# 
# High freq. dielectric constant tensor:
#      x y z
#    x 1.735060 0.000000 0.000000 
#    y 0.000000 1.706740 0.000000 
#    z 0.000000 0.000000 1.683010 
# 
# From -- ./inp_files/13113.got.cif
#   From: 2010.03.12/outbox.cif.g09.slc.cpg/sg39_7_cif.got.tgz:13113.got - 2010.04.14 02:53:20.
