data_PCOD8181115
_publ_section_title
;
Structure prediction by ZEFSAII (Michael W. Deem and Ramdas Pophale) SiO2 
 PCOD8181115
Probable space group: A B M 2
;
_chemical_formula_sum "Si O2"
_cell_formula_units_Z 64
_cell_length_a 14.277109
_cell_length_b 8.900872
_cell_length_c 30.841715
_cell_angle_alpha 90.000000
_cell_angle_beta 90.000000
_cell_angle_gamma 90.000000
_cell_volume 3919.325657
_symmetry_space_group_name_H-M "A B M 2"
_symmetry_group_IT_number 39
_symmetry_cell_setting 'orthorhombic'
loop_
_space_group_symop_operation_xyz
x,y,z
-x,-y,z
-x,1/2+y,z
x,1/2-y,z
x,1/2+y,1/2+z
-x,1/2-y,1/2+z
-x,y,1/2+z
x,-y,1/2+z
loop_
_atom_site_type_symbol
_atom_site_label
_atom_site_fract_x
_atom_site_fract_y
_atom_site_fract_z
Si Si1 0.289139 0.073946 0.082840
Si Si2 0.600783 0.924659 0.507946
Si Si3 0.095795 0.927521 0.721634
Si Si4 0.094660 0.074060 0.121375
Si Si5 0.399664 0.924901 0.911936
Si Si6 0.280941 0.073153 0.744028
Si Si7 0.600409 0.426780 0.668882
Si Si8 0.398835 0.073702 0.828445
O O1 0.288560 0.250000 0.073349
O O2 0.184700 0.016865 0.094569
O O3 0.360122 0.035183 0.121546
O O4 0.321955 0.988461 0.040210
O O5 0.585208 0.750000 0.517021
O O6 0.643972 0.952099 0.459671
O O7 0.500000 0.000000 0.514940
O O8 0.095056 0.750000 0.729275
O O9 0.110621 0.970083 0.671317
O O10 0.177900 0.004087 0.749171
O O11 0.000000 0.000000 0.738882
O O12 0.082753 0.250000 0.116444
O O13 0.000000 0.000000 0.102746
O O14 0.408222 0.750000 0.901400
O O15 0.500000 0.000000 0.913249
O O16 0.347128 0.006056 0.871658
O O17 0.275907 0.250000 0.735530
O O18 0.335201 0.033065 0.787744
O O19 0.330288 0.994319 0.703886
O O20 0.500000 0.500000 0.674446
O O21 0.592973 0.250000 0.676766
O O22 0.411833 0.250000 0.834242
O O23 0.500000 0.000000 0.820946
#
# Coordination Sequence:
#
# PCOD8181115 Si02
#       8
#     8   8   8   8   8   8   8   8
#     4  10  20  34  49  69  97 128 164 200 239 287
#     4  10  20  32  48  72  98 128 164 200 241 288
#     4  10  19  34  53  73  97 126 162 206 248 290
#     4   9  18  33  50  71  94 122 159 201 243 284
#     4   9  17  30  48  69  94 123 159 200 243 288
#     4  11  22  34  49  72  98 130 167 202 243 292
#     4  11  22  35  47  65  96 133 170 203 236 284
#     4  10  20  32  48  71  98 128 165 202 241 289
#
# _framework density 16.329339999999998
#
# number of rings (size 3 to 8) (size 9 to 14) (size 15 to 20)
#    0.000    2.000    1.250    3.750    0.000    7.500 
#    0.000    0.000    0.000    0.000    0.000    0.875 
#    0.000    4.000    0.000    0.000    0.000    0.000 
#
# Total GULP energy -396751.926033 kJ/mol
# GULP energy per Si atom -12398.497689 kJ/mol
# Density = 1.629217 g / cm^3
# Si number density = 16.329340 Si / 1000 Ang^3
#
#
#
# Elastic Constant Matrix: (Units=GPa)
#
#
# Indices 1 2 3 4 5 6 
#
# 1 103.1285 41.6256 42.3408 0.0000 0.0000 0.0000
# 2 41.6256 81.0375 55.0421 0.0000 0.0000 0.0000
# 3 42.3408 55.0421 97.3910 0.0000 0.0000 0.0000
# 4 0.0000 0.0000 0.0000 27.5166 0.0000 0.0000
# 5 0.0000 0.0000 0.0000 0.0000 5.5966 0.0000
# 6 0.0000 0.0000 0.0000 0.0000 0.0000 29.3502
#
#
#
# Elastic Compliance Matrix: (Units=1/GPa)
#
#
# Indices 1 2 3 4 5 6 
#
# 1 0.012747 -0.004518 -0.002988 0.000000 0.000000 0.000000
# 2 -0.004518 0.021629 -0.010260 0.000000 0.000000 0.000000
# 3 -0.002988 -0.010260 0.017366 0.000000 0.000000 0.000000
# 4 0.000000 0.000000 0.000000 0.036342 0.000000 0.000000
# 5 0.000000 0.000000 0.000000 0.000000 0.178679 0.000000
# 6 0.000000 0.000000 0.000000 0.000000 0.000000 0.034071
#
#
# Mechanical properties :
#
#
# Convention : Reuss Voigt Hill
#
# Bulk Modulus (GPa) = 61.69218 62.17490 61.93354
# Shear Modulus (GPa) = 14.62968 21.99592 18.31280
#
# Velocity S-wave (km/s) = 2.99643 3.67416 3.35246
# Velocity P-wave (km/s) = 7.05928 7.49383 7.27980
#
# Compressibility (1/GPa) = 0.01620951
#
# Stress axis : x y z
#
# Youngs Moduli (GPa) = 78.44905 46.23330 57.58443
#
# Poissons Ratio (x) = 0.20887 0.17209
# Poissons Ratio (y) = 0.35442 0.59082
# Poissons Ratio (z) = 0.23444 0.47436
#
# Static dielectric constant tensor:
#      x y z
#    x 3.076980 0.000000 0.000000 
#    y 0.000000 3.196510 0.000000 
#    z 0.000000 0.000000 3.464510 
# 
# 
# High freq. dielectric constant tensor:
#      x y z
#    x 1.608730 0.000000 0.000000 
#    y 0.000000 1.644440 0.000000 
#    z 0.000000 0.000000 1.620370 
# 
# From -- ./inp_files/17944.got.cif
#   From: 2010.03.12/outbox.cif.g09.slc.cpg/sg39_9_cif.got.tgz:17944.got - 2010.04.14 02:53:20.
