data_PCOD8181456
_publ_section_title
;
Structure prediction by ZEFSAII (Michael W. Deem and Ramdas Pophale) SiO2 
 PCOD8181456
Probable space group: A B M 2
;
_chemical_formula_sum "Si O2"
_cell_formula_units_Z 56
_cell_length_a 19.980706
_cell_length_b 9.193195
_cell_length_c 14.779901
_cell_angle_alpha 90.000000
_cell_angle_beta 90.000000
_cell_angle_gamma 90.000000
_cell_volume 2714.868677
_symmetry_space_group_name_H-M "A B M 2"
_symmetry_group_IT_number 39
_symmetry_cell_setting 'orthorhombic'
loop_
_space_group_symop_operation_xyz
x,y,z
-x,-y,z
-x,1/2+y,z
x,1/2-y,z
x,1/2+y,1/2+z
-x,1/2-y,1/2+z
-x,y,1/2+z
x,-y,1/2+z
loop_
_atom_site_type_symbol
_atom_site_label
_atom_site_fract_x
_atom_site_fract_y
_atom_site_fract_z
Si Si1 0.430888 0.918463 0.769240
Si Si2 0.335591 0.921665 0.929891
Si Si3 0.936108 0.587480 0.914858
Si Si4 0.935058 0.415140 0.630930
Si Si5 0.674203 0.421063 0.615516
Si Si6 0.806709 0.414038 0.129180
Si Si7 0.811437 0.089735 0.914150
O O1 0.447381 0.750000 0.775501
O O2 0.392214 0.968608 0.859369
O O3 0.386634 0.953990 0.682155
O O4 0.500000 0.000000 0.760417
O O5 0.337394 0.750000 0.953931
O O6 0.263237 0.959443 0.885070
O O7 0.347902 0.014793 0.019394
O O8 0.941355 0.750000 0.877279
O O9 0.867567 0.518716 0.875539
O O10 0.000000 0.500000 0.877651
O O11 0.934837 0.584620 0.022772
O O12 0.935703 0.250000 0.667342
O O13 0.870026 0.498664 0.669551
O O14 0.000000 0.500000 0.667700
O O15 0.689595 0.250000 0.606536
O O16 0.739697 0.499526 0.655837
O O17 0.804737 0.250000 0.168871
O O18 0.813177 0.407603 0.021998
O O19 0.827857 0.250000 0.876112
#
# Coordination Sequence:
#
# PCOD8181456 Si02
#       7
#     8   8   8   8   8   8   8
#     4  10  23  41  60  84 114 145 179 219 268 327
#     4   9  19  37  58  80 109 146 183 221 269 325
#     4   9  15  21  32  54  88 127 167 211 258 305
#     4   9  15  22  34  57  92 133 176 224 273 321
#     4  10  20  35  56  83 112 143 181 226 273 323
#     4   9  16  27  44  67  97 136 179 222 269 323
#     4   8  14  25  42  63  90 126 169 213 257 306
#
# _framework density 20.627147999999998
#
# number of rings (size 3 to 8) (size 9 to 14) (size 15 to 20)
#    0.000    2.857    0.000    2.571    0.000    9.143 
#    0.000    2.857    0.000    0.000    0.000    1.000 
#    0.000    4.571    0.000    0.857    0.000    0.000 
#
# Total GULP energy -347171.266427 kJ/mol
# GULP energy per Si atom -12398.973801 kJ/mol
# Density = 2.058020 g / cm^3
# Si number density = 20.627148 Si / 1000 Ang^3
#
#
#
# Elastic Constant Matrix: (Units=GPa)
#
#
# Indices 1 2 3 4 5 6 
#
# 1 193.6907 107.0335 46.6769 0.0000 0.0000 0.0000
# 2 107.0335 162.9581 44.1833 0.0000 0.0000 0.0000
# 3 46.6769 44.1833 44.2499 0.0000 0.0000 0.0000
# 4 0.0000 0.0000 0.0000 15.4753 0.0000 0.0000
# 5 0.0000 0.0000 0.0000 0.0000 -40.6089 0.0000
# 6 0.0000 0.0000 0.0000 0.0000 0.0000 45.3040
#
#
#
# Elastic Compliance Matrix: (Units=1/GPa)
#
#
# Indices 1 2 3 4 5 6 
#
# 1 0.008793 -0.004471 -0.004811 0.000000 0.000000 0.000000
# 2 -0.004471 0.010688 -0.005956 0.000000 0.000000 0.000000
# 3 -0.004811 -0.005956 0.033621 0.000000 0.000000 0.000000
# 4 0.000000 0.000000 0.000000 0.064619 0.000000 0.000000
# 5 0.000000 0.000000 0.000000 0.000000 -0.024625 0.000000
# 6 0.000000 0.000000 0.000000 0.000000 0.000000 0.022073
#
#
# Mechanical properties :
#
#
# Convention : Reuss Voigt Hill
#
# Bulk Modulus (GPa) = 44.19667 88.52067 66.35867
# Shear Modulus (GPa) = 32.64014 17.56773 25.10393
#
# Velocity S-wave (km/s) = 3.98224 2.92152 3.49239
# Velocity P-wave (km/s) = 6.52819 7.37484 6.96439
#
# Compressibility (1/GPa) = 0.02262614
#
# Stress axis : x y z
#
# Youngs Moduli (GPa) = 113.72869 93.56392 29.74374
#
# Poissons Ratio (x) = 0.41831 0.14310
# Poissons Ratio (y) = 0.50847 0.17715
# Poissons Ratio (z) = 0.54715 0.55724
#
# Static dielectric constant tensor:
#      x y z
#    x 3.874940 0.000000 0.000000 
#    y 0.000000 3.862580 0.000000 
#    z 0.000000 0.000000 3.238860 
# 
# 
# High freq. dielectric constant tensor:
#      x y z
#    x 1.812000 0.000000 0.000000 
#    y 0.000000 1.811570 0.000000 
#    z 0.000000 0.000000 1.774250 
# 
# From -- ./inp_files/10390.got.cif
#   From: 2010.03.12/outbox.cif.g09.slc.cpg/sg39_6_cif.got.tgz:10390.got - 2010.04.14 02:53:20.
