data_PCOD8181190
_publ_section_title
;
Structure prediction by ZEFSAII (Michael W. Deem and Ramdas Pophale) SiO2 
 PCOD8181190
Probable space group: A B M 2
;
_chemical_formula_sum "Si O2"
_cell_formula_units_Z 56
_cell_length_a 22.699074
_cell_length_b 8.781612
_cell_length_c 15.193202
_cell_angle_alpha 90.000000
_cell_angle_beta 90.000000
_cell_angle_gamma 90.000000
_cell_volume 3028.528726
_symmetry_space_group_name_H-M "A B M 2"
_symmetry_group_IT_number 39
_symmetry_cell_setting 'orthorhombic'
loop_
_space_group_symop_operation_xyz
x,y,z
-x,-y,z
-x,1/2+y,z
x,1/2-y,z
x,1/2+y,1/2+z
-x,1/2-y,1/2+z
-x,y,1/2+z
x,-y,1/2+z
loop_
_atom_site_type_symbol
_atom_site_label
_atom_site_fract_x
_atom_site_fract_y
_atom_site_fract_z
Si Si1 0.938024 0.929948 0.701340
Si Si2 0.723768 0.922729 0.345025
Si Si3 0.938968 0.571075 0.501634
Si Si4 0.143298 0.930695 0.845585
Si Si5 0.623365 0.576877 0.465927
Si Si6 0.613195 0.429547 0.290930
Si Si7 0.561249 0.569881 0.120515
O O1 0.941967 0.750000 0.711281
O O2 0.923797 0.980623 0.601076
O O3 0.885997 0.993550 0.761033
O O4 0.000000 0.000000 0.732536
O O5 0.724497 0.750000 0.308559
O O6 0.789460 0.989191 0.350269
O O7 0.693568 0.925839 0.442645
O O8 0.682625 0.024015 0.279865
O O9 0.946703 0.750000 0.497173
O O10 0.888049 0.514660 0.435559
O O11 0.000000 0.500000 0.468957
O O12 0.139751 0.750000 0.836017
O O13 0.600557 0.750000 0.476184
O O14 0.589416 0.494252 0.384557
O O15 0.612799 0.484337 0.555050
O O16 0.605453 0.250000 0.285255
O O17 0.574082 0.507921 0.217089
O O18 0.500000 0.500000 0.086157
O O19 0.557665 0.750000 0.122303
#
# Coordination Sequence:
#
# PCOD8181190 Si02
#       7
#     8   8   8   8   8   8   8
#     4  10  20  34  51  76 107 140 181 229 279 334
#     4   8  18  37  58  78 112 150 186 227 279 337
#     4   9  19  34  52  74 105 140 177 221 276 328
#     4  10  19  35  56  79 107 143 181 225 276 328
#     4   9  19  39  60  83 115 152 186 227 279 330
#     4  10  20  38  60  84 114 151 188 230 280 329
#     4  12  24  39  61  90 118 148 190 233 278 337
#
# _framework density 18.490825999999998
#
# number of rings (size 3 to 8) (size 9 to 14) (size 15 to 20)
#    0.857    1.429    0.000    3.429    0.000    3.429 
#    2.571    2.857    0.000    0.000    0.000    0.000 
#    0.000    0.000    0.000    0.000    0.000    0.000 
#
# Total GULP energy -347079.196199 kJ/mol
# GULP energy per Si atom -12395.685579 kJ/mol
# Density = 1.844874 g / cm^3
# Si number density = 18.490826 Si / 1000 Ang^3
#
#
#
# Elastic Constant Matrix: (Units=GPa)
#
#
# Indices 1 2 3 4 5 6 
#
# 1 84.8634 32.0531 24.7712 0.0000 0.0000 0.0000
# 2 32.0531 103.9597 32.8426 0.0000 0.0000 0.0000
# 3 24.7712 32.8426 77.1480 0.0000 0.0000 0.0000
# 4 0.0000 0.0000 0.0000 31.1254 0.0000 0.0000
# 5 0.0000 0.0000 0.0000 0.0000 21.5276 0.0000
# 6 0.0000 0.0000 0.0000 0.0000 0.0000 27.4357
#
#
#
# Elastic Compliance Matrix: (Units=1/GPa)
#
#
# Indices 1 2 3 4 5 6 
#
# 1 0.013934 -0.003331 -0.003056 0.000000 0.000000 0.000000
# 2 -0.003331 0.011910 -0.004001 0.000000 0.000000 0.000000
# 3 -0.003056 -0.004001 0.015647 0.000000 0.000000 0.000000
# 4 0.000000 0.000000 0.000000 0.032128 0.000000 0.000000
# 5 0.000000 0.000000 0.000000 0.000000 0.046452 0.000000
# 6 0.000000 0.000000 0.000000 0.000000 0.000000 0.036449
#
#
# Mechanical properties :
#
#
# Convention : Reuss Voigt Hill
#
# Bulk Modulus (GPa) = 48.27349 49.47830 48.87590
# Shear Modulus (GPa) = 27.14457 27.77136 27.45797
#
# Velocity S-wave (km/s) = 3.83561 3.87964 3.85769
# Velocity P-wave (km/s) = 6.76604 6.84728 6.80678
#
# Compressibility (1/GPa) = 0.02071530
#
# Stress axis : x y z
#
# Youngs Moduli (GPa) = 71.76867 83.96368 63.91203
#
# Poissons Ratio (x) = 0.27965 0.19532
# Poissons Ratio (y) = 0.23903 0.25570
# Poissons Ratio (z) = 0.21933 0.33592
#
# Static dielectric constant tensor:
#      x y z
#    x 3.394400 0.000000 0.000000 
#    y 0.000000 3.348980 0.000000 
#    z 0.000000 0.000000 3.394780 
# 
# 
# High freq. dielectric constant tensor:
#      x y z
#    x 1.705370 0.000000 0.000000 
#    y 0.000000 1.722100 0.000000 
#    z 0.000000 0.000000 1.711250 
# 
# From -- ./inp_files/10395.got.cif
#   From: 2010.03.12/outbox.cif.g09.slc.cpg/sg39_6_cif.got.tgz:10395.got - 2010.04.14 02:53:20.
