data_PCOD8181656
_publ_section_title
;
Structure prediction by ZEFSAII (Michael W. Deem and Ramdas Pophale) SiO2 
 PCOD8181656
Probable space group: A B M 2
;
_chemical_formula_sum "Si O2"
_cell_formula_units_Z 64
_cell_length_a 14.218720
_cell_length_b 18.475000
_cell_length_c 12.170947
_cell_angle_alpha 90.000000
_cell_angle_beta 90.000000
_cell_angle_gamma 90.000000
_cell_volume 3197.196437
_symmetry_space_group_name_H-M "A B M 2"
_symmetry_group_IT_number 39
_symmetry_cell_setting 'orthorhombic'
loop_
_space_group_symop_operation_xyz
x,y,z
-x,-y,z
-x,1/2+y,z
x,1/2-y,z
x,1/2+y,1/2+z
-x,1/2-y,1/2+z
-x,y,1/2+z
x,-y,1/2+z
loop_
_atom_site_type_symbol
_atom_site_label
_atom_site_fract_x
_atom_site_fract_y
_atom_site_fract_z
Si Si1 0.948907 0.572974 0.522110
Si Si2 0.234529 0.165886 0.912101
Si Si3 0.322924 0.670179 0.118092
Si Si4 0.431061 0.830945 0.328779
Si Si5 0.181479 0.413698 0.313274
Si Si6 0.366967 0.333446 0.370957
Si Si7 0.107445 0.833626 0.608776
Si Si8 0.176611 0.428848 0.725862
O O1 0.869356 0.592328 0.432052
O O2 0.912120 0.560465 0.646383
O O3 0.000000 0.500000 0.481258
O O4 0.022044 0.638754 0.532581
O O5 0.233098 0.250000 0.878114
O O6 0.340957 0.134433 0.894002
O O7 0.162146 0.125909 0.828456
O O8 0.202660 0.154345 0.037438
O O9 0.272960 0.750000 0.124981
O O10 0.411095 0.668924 0.199542
O O11 0.254955 0.604313 0.146283
O O12 0.363020 0.656468 0.999748
O O13 0.444290 0.750000 0.376009
O O14 0.532002 0.870219 0.341605
O O15 0.281316 0.373999 0.313052
O O16 0.114730 0.376718 0.222475
O O17 0.204455 0.495149 0.279093
O O18 0.360619 0.250000 0.332637
O O19 0.090123 0.750000 0.635433
#
# Coordination Sequence:
#
# PCOD8181656 Si02
#       8
#     8   8   8   8   8   8   8   8
#     4  12  26  44  64  88 116 163 215 257 310 382
#     4   9  20  40  64  94 127 163 209 255 307 368
#     4   9  18  36  61  93 124 161 213 261 311 367
#     4   8  16  33  61  92 125 165 207 249 304 371
#     4  12  26  42  64  91 129 159 210 262 318 380
#     4  10  20  37  63  94 126 163 207 261 314 369
#     4  11  26  42  62  93 128 163 203 259 320 368
#     4  11  22  40  66  85 121 164 206 261 311 374
#
# _framework density 20.017537999999998
#
# number of rings (size 3 to 8) (size 9 to 14) (size 15 to 20)
#    0.000    1.750    2.500    2.250    3.500    3.000 
#    0.000    6.250    0.000    3.000    0.000    0.000 
#    0.000    0.000    0.000    0.000    0.000    0.000 
#
# Total GULP energy -396610.324858 kJ/mol
# GULP energy per Si atom -12394.072652 kJ/mol
# Density = 1.997198 g / cm^3
# Si number density = 20.017538 Si / 1000 Ang^3
#
#
#
# Elastic Constant Matrix: (Units=GPa)
#
#
# Indices 1 2 3 4 5 6 
#
# 1 97.0345 38.8693 32.1027 0.0000 0.0000 0.0000
# 2 38.8693 97.4747 34.4711 0.0000 0.0000 0.0000
# 3 32.1027 34.4711 83.8335 0.0000 0.0000 0.0000
# 4 0.0000 0.0000 0.0000 30.7706 0.0000 0.0000
# 5 0.0000 0.0000 0.0000 0.0000 28.1562 0.0000
# 6 0.0000 0.0000 0.0000 0.0000 0.0000 20.9624
#
#
#
# Elastic Compliance Matrix: (Units=1/GPa)
#
#
# Indices 1 2 3 4 5 6 
#
# 1 0.013016 -0.004011 -0.003335 0.000000 0.000000 0.000000
# 2 -0.004011 0.013241 -0.003908 0.000000 0.000000 0.000000
# 3 -0.003335 -0.003908 0.014813 0.000000 0.000000 0.000000
# 4 0.000000 0.000000 0.000000 0.032499 0.000000 0.000000
# 5 0.000000 0.000000 0.000000 0.000000 0.035516 0.000000
# 6 0.000000 0.000000 0.000000 0.000000 0.000000 0.047704
#
#
# Mechanical properties :
#
#
# Convention : Reuss Voigt Hill
#
# Bulk Modulus (GPa) = 53.87817 54.35875 54.11846
# Shear Modulus (GPa) = 26.95667 27.50451 27.23059
#
# Velocity S-wave (km/s) = 3.67366 3.71080 3.69228
# Velocity P-wave (km/s) = 6.70584 6.75089 6.72840
#
# Compressibility (1/GPa) = 0.01856039
#
# Stress axis : x y z
#
# Youngs Moduli (GPa) = 76.83141 75.52527 67.51024
#
# Poissons Ratio (x) = 0.30291 0.22514
# Poissons Ratio (y) = 0.30815 0.26386
# Poissons Ratio (z) = 0.25623 0.29519
#
# Static dielectric constant tensor:
#      x y z
#    x 3.702220 0.000000 0.000000 
#    y 0.000000 3.575360 0.000000 
#    z 0.000000 0.000000 3.683400 
# 
# 
# High freq. dielectric constant tensor:
#      x y z
#    x 1.775260 0.000000 0.000000 
#    y 0.000000 1.766640 0.000000 
#    z 0.000000 0.000000 1.790200 
# 
# From -- ./inp_files/6677.got.cif
#   From: 2010.03.12/outbox.cif.g09.slc.cpg/sg39_4_cif.got.tgz:6677.got - 2010.04.14 02:53:20.
