data_PCOD8181962
_publ_section_title
;
Structure prediction by ZEFSAII (Michael W. Deem and Ramdas Pophale) SiO2 
 PCOD8181962
Probable space group: A B M 2
;
_chemical_formula_sum "Si O2"
_cell_formula_units_Z 44
_cell_length_a 9.044531
_cell_length_b 16.075712
_cell_length_c 14.458394
_cell_angle_alpha 90.000000
_cell_angle_beta 90.000000
_cell_angle_gamma 90.000000
_cell_volume 2102.211096
_symmetry_space_group_name_H-M "A B M 2"
_symmetry_group_IT_number 39
_symmetry_cell_setting 'orthorhombic'
loop_
_space_group_symop_operation_xyz
x,y,z
-x,-y,z
-x,1/2+y,z
x,1/2-y,z
x,1/2+y,1/2+z
-x,1/2-y,1/2+z
-x,y,1/2+z
x,-y,1/2+z
loop_
_atom_site_type_symbol
_atom_site_label
_atom_site_fract_x
_atom_site_fract_y
_atom_site_fract_z
Si Si1 0.443000 0.341049 0.850570
Si Si2 0.340509 0.534696 0.493575
Si Si3 0.756162 0.909509 0.346176
Si Si4 0.121048 0.568745 0.652219
Si Si5 0.218630 0.250000 0.747577
Si Si6 0.996451 0.250000 0.601884
Si Si7 0.054055 0.750000 0.889352
O O1 0.496578 0.250000 0.883691
O O2 0.359051 0.380951 0.936581
O O3 0.585403 0.392434 0.817581
O O4 0.321593 0.331409 0.767527
O O5 0.500000 0.500000 0.519711
O O6 0.241547 0.472327 0.432120
O O7 0.261681 0.554583 0.588599
O O8 0.834344 0.949849 0.257723
O O9 0.842875 0.829126 0.378611
O O10 0.075190 0.665564 0.642389
O O11 0.000000 0.500000 0.623690
O O12 0.165461 0.250000 0.641266
O O13 0.077354 0.250000 0.815583
O O14 0.986467 0.250000 0.492031
#
# Coordination Sequence:
#
# PCOD8181962 Si02
#       7
#     8   8   8   8   4   4   4
#     4   9  21  42  68  95 133 175 225 279 344 400
#     4  10  24  44  66 102 131 182 235 282 344 407
#     4  11  23  45  69  94 139 178 225 288 347 403
#     4  12  27  45  70 104 142 182 230 285 353 413
#     4  10  21  40  65  99 129 173 229 269 340 403
#     4  12  26  41  68 105 138 181 231 271 347 415
#     4  12  21  43  67  94 139 180 228 286 339 416
#
# _framework density 20.930344000000002
#
# number of rings (size 3 to 8) (size 9 to 14) (size 15 to 20)
#    0.545    0.727    2.727    2.182    3.818    4.364 
#    6.545    0.000    0.000    0.000    0.000    0.000 
#    0.000    0.000    0.000    0.000    0.000    0.000 
#
# Total GULP energy -272709.224470 kJ/mol
# GULP energy per Si atom -12395.873840 kJ/mol
# Density = 2.088271 g / cm^3
# Si number density = 20.930344 Si / 1000 Ang^3
#
#
#
# Elastic Constant Matrix: (Units=GPa)
#
#
# Indices 1 2 3 4 5 6 
#
# 1 76.4938 19.8258 20.1974 0.0000 0.0000 0.0000
# 2 19.8258 94.8441 16.0391 0.0000 0.0000 0.0000
# 3 20.1974 16.0391 68.8172 0.0000 0.0000 0.0000
# 4 0.0000 0.0000 0.0000 13.6512 0.0000 0.0000
# 5 0.0000 0.0000 0.0000 0.0000 45.7420 0.0000
# 6 0.0000 0.0000 0.0000 0.0000 0.0000 38.3938
#
#
#
# Elastic Compliance Matrix: (Units=1/GPa)
#
#
# Indices 1 2 3 4 5 6 
#
# 1 0.014694 -0.002438 -0.003744 0.000000 0.000000 0.000000
# 2 -0.002438 0.011381 -0.001937 0.000000 0.000000 0.000000
# 3 -0.003744 -0.001937 0.016082 0.000000 0.000000 0.000000
# 4 0.000000 0.000000 0.000000 0.073253 0.000000 0.000000
# 5 0.000000 0.000000 0.000000 0.000000 0.021862 0.000000
# 6 0.000000 0.000000 0.000000 0.000000 0.000000 0.026046
#
#
# Mechanical properties :
#
#
# Convention : Reuss Voigt Hill
#
# Bulk Modulus (GPa) = 38.58436 39.14220 38.86328
# Shear Modulus (GPa) = 26.56822 31.83026 29.19924
#
# Velocity S-wave (km/s) = 3.56668 3.90394 3.73911
# Velocity P-wave (km/s) = 5.95284 6.25002 6.10324
#
# Compressibility (1/GPa) = 0.02591724
#
# Stress axis : x y z
#
# Youngs Moduli (GPa) = 68.05722 87.86678 62.18302
#
# Poissons Ratio (x) = 0.21425 0.23282
# Poissons Ratio (y) = 0.16594 0.12044
# Poissons Ratio (z) = 0.25482 0.17019
#
# Static dielectric constant tensor:
#      x y z
#    x 3.907150 0.000000 0.000000 
#    y 0.000000 3.990170 0.000000 
#    z 0.000000 0.000000 3.636730 
# 
# 
# High freq. dielectric constant tensor:
#      x y z
#    x 1.830270 0.000000 0.000000 
#    y 0.000000 1.829430 0.000000 
#    z 0.000000 0.000000 1.810480 
# 
# From -- ./inp_files/8293.got.cif
#   From: 2010.03.12/outbox.cif.g09.slc.cpg/sg39_5_cif.got.tgz:8293.got - 2010.04.14 02:53:20.
