data_PCOD8181804
_publ_section_title
;
Structure prediction by ZEFSAII (Michael W. Deem and Ramdas Pophale) SiO2 
 PCOD8181804
Probable space group: A B M 2
;
_chemical_formula_sum "Si O2"
_cell_formula_units_Z 40
_cell_length_a 20.567071
_cell_length_b 17.871058
_cell_length_c 5.152796
_cell_angle_alpha 90.000000
_cell_angle_beta 90.000000
_cell_angle_gamma 90.000000
_cell_volume 1893.937576
_symmetry_space_group_name_H-M "A B M 2"
_symmetry_group_IT_number 39
_symmetry_cell_setting 'orthorhombic'
loop_
_space_group_symop_operation_xyz
x,y,z
-x,-y,z
-x,1/2+y,z
x,1/2-y,z
x,1/2+y,1/2+z
-x,1/2-y,1/2+z
-x,y,1/2+z
x,-y,1/2+z
loop_
_atom_site_type_symbol
_atom_site_label
_atom_site_fract_x
_atom_site_fract_y
_atom_site_fract_z
Si Si1 0.072034 0.469915 0.690190
Si Si2 0.221921 0.835734 0.537891
Si Si3 0.861045 0.166778 0.037400
Si Si4 0.542155 0.164996 0.614820
Si Si5 0.340171 0.051906 0.092747
O O1 0.108094 0.519275 0.466847
O O2 0.075862 0.384423 0.596019
O O3 0.000000 0.500000 0.757165
O O4 0.247540 0.750000 0.563815
O O5 0.194495 0.849527 0.249761
O O6 0.278519 0.894239 0.584676
O O7 0.166423 0.849677 0.752697
O O8 0.888175 0.250000 0.062388
O O9 0.569634 0.250000 0.591062
O O10 0.486916 0.151758 0.399788
O O11 0.597626 0.104704 0.567654
O O12 0.339981 0.007721 0.362128
#
# Coordination Sequence:
#
# PCOD8181804 Si02
#       5
#     8   8   8   8   8
#     4  10  21  37  56  83 115 149 185 228 285 341
#     4  10  22  40  60  84 116 154 194 239 289 346
#     4  10  21  38  61  85 112 151 196 238 284 342
#     4  10  22  41  63  84 113 159 204 240 287 347
#     4  12  25  38  58  90 122 152 191 244 299 346
#
# _framework density 21.120023
#
# number of rings (size 3 to 8) (size 9 to 14) (size 15 to 20)
#    0.000    1.600    0.000    4.200    0.000    7.200 
#    0.000   12.000    0.000    0.000    0.000    0.000 
#    0.000    0.000    0.000    0.000    0.000    0.000 
#
# Total GULP energy -247904.061915 kJ/mol
# GULP energy per Si atom -12395.203096 kJ/mol
# Density = 2.107195 g / cm^3
# Si number density = 21.120023 Si / 1000 Ang^3
#
#
#
# Elastic Constant Matrix: (Units=GPa)
#
#
# Indices 1 2 3 4 5 6 
#
# 1 55.3622 46.5776 -5.5538 0.0000 0.0000 0.0000
# 2 46.5776 111.6558 8.1854 0.0000 0.0000 0.0000
# 3 -5.5538 8.1854 111.7206 0.0000 0.0000 0.0000
# 4 0.0000 0.0000 0.0000 38.8093 0.0000 0.0000
# 5 0.0000 0.0000 0.0000 0.0000 9.7420 0.0000
# 6 0.0000 0.0000 0.0000 0.0000 0.0000 52.0188
#
#
#
# Elastic Compliance Matrix: (Units=1/GPa)
#
#
# Indices 1 2 3 4 5 6 
#
# 1 0.028402 -0.012016 0.002292 0.000000 0.000000 0.000000
# 2 -0.012016 0.014088 -0.001630 0.000000 0.000000 0.000000
# 3 0.002292 -0.001630 0.009184 0.000000 0.000000 0.000000
# 4 0.000000 0.000000 0.000000 0.025767 0.000000 0.000000
# 5 0.000000 0.000000 0.000000 0.000000 0.102648 0.000000
# 6 0.000000 0.000000 0.000000 0.000000 0.000000 0.019224
#
#
# Mechanical properties :
#
#
# Convention : Reuss Voigt Hill
#
# Bulk Modulus (GPa) = 34.52094 41.90632 38.21363
# Shear Modulus (GPa) = 21.58179 35.41598 28.49888
#
# Velocity S-wave (km/s) = 3.20013 4.09943 3.67737
# Velocity P-wave (km/s) = 5.48042 6.50324 6.01362
#
# Compressibility (1/GPa) = 0.02896793
#
# Stress axis : x y z
#
# Youngs Moduli (GPa) = 35.20838 70.98166 108.88209
#
# Poissons Ratio (x) = 0.85293 -0.24959
# Poissons Ratio (y) = 0.42307 0.17743
# Poissons Ratio (z) = -0.08071 0.11567
#
# Static dielectric constant tensor:
#      x y z
#    x 3.527160 0.000000 0.000000 
#    y 0.000000 4.123780 0.000000 
#    z 0.000000 0.000000 4.414450 
# 
# 
# High freq. dielectric constant tensor:
#      x y z
#    x 1.794510 0.000000 0.000000 
#    y 0.000000 1.846020 0.000000 
#    z 0.000000 0.000000 1.863050 
# 
# From -- ./inp_files/738.got.cif
#   From: 2010.03.12/outbox.cif.g09.slc.cpg/sg39_1_cif.got.tgz:738.got - 2010.04.14 02:53:20.
