data_PCOD8181674
_publ_section_title
;
Structure prediction by ZEFSAII (Michael W. Deem and Ramdas Pophale) SiO2 
 PCOD8181674
Probable space group: A B M 2
;
_chemical_formula_sum "Si O2"
_cell_formula_units_Z 48
_cell_length_a 9.577337
_cell_length_b 8.712699
_cell_length_c 29.659867
_cell_angle_alpha 90.000000
_cell_angle_beta 90.000000
_cell_angle_gamma 90.000000
_cell_volume 2474.951422
_symmetry_space_group_name_H-M "A B M 2"
_symmetry_group_IT_number 39
_symmetry_cell_setting 'orthorhombic'
loop_
_space_group_symop_operation_xyz
x,y,z
-x,-y,z
-x,1/2+y,z
x,1/2-y,z
x,1/2+y,1/2+z
-x,1/2-y,1/2+z
-x,y,1/2+z
x,-y,1/2+z
loop_
_atom_site_type_symbol
_atom_site_label
_atom_site_fract_x
_atom_site_fract_y
_atom_site_fract_z
Si Si1 0.853686 0.571954 0.444180
Si Si2 0.852045 0.568003 0.194453
Si Si3 0.144779 0.069949 0.091990
Si Si4 0.653382 0.067893 0.267841
Si Si5 0.347897 0.068596 0.014396
Si Si6 0.853234 0.071251 0.839001
O O1 0.856770 0.750000 0.456472
O O2 0.727839 0.490511 0.469708
O O3 0.827206 0.543256 0.391585
O O4 0.000000 0.500000 0.459786
O O5 0.854540 0.750000 0.200956
O O6 0.820847 0.518535 0.142958
O O7 0.730487 0.494970 0.223811
O O8 0.000000 0.500000 0.210412
O O9 0.127712 0.250000 0.089072
O O10 0.266510 0.011548 0.059021
O O11 0.000000 0.000000 0.074853
O O12 0.646785 0.250000 0.266081
O O13 0.500000 0.000000 0.268502
O O14 0.730379 0.014534 0.313088
O O15 0.357526 0.250000 0.012052
O O16 0.500000 0.000000 0.016870
O O17 0.853304 0.250000 0.826236
O O18 0.000000 0.000000 0.823557
#
# Coordination Sequence:
#
# PCOD8181674 Si02
#       6
#     8   8   8   8   8   8
#     4  10  21  38  61  87 114 147 188 233 280 332
#     4  10  20  38  61  86 115 148 189 233 279 331
#     4   9  20  37  59  85 112 146 188 233 279 331
#     4  12  25  40  58  83 115 151 189 231 283 338
#     4  11  23  38  56  82 116 153 191 232 282 336
#     4  10  21  39  62  87 114 147 188 232 279 332
#
# _framework density 19.394318999999999
#
# number of rings (size 3 to 8) (size 9 to 14) (size 15 to 20)
#    0.000    1.667    0.000    4.500    0.000    6.667 
#    0.000    1.667    0.000    0.000    0.000    0.000 
#    0.000    0.000    0.000    0.000    0.000    0.000 
#
# Total GULP energy -297726.907176 kJ/mol
# GULP energy per Si atom -12405.287799 kJ/mol
# Density = 1.935018 g / cm^3
# Si number density = 19.394319 Si / 1000 Ang^3
#
#
#
# Elastic Constant Matrix: (Units=GPa)
#
#
# Indices 1 2 3 4 5 6 
#
# 1 190.6720 75.0289 84.4260 0.0000 0.0000 0.0000
# 2 75.0289 119.7592 53.6193 0.0000 0.0000 0.0000
# 3 84.4260 53.6193 101.1473 0.0000 0.0000 0.0000
# 4 0.0000 0.0000 0.0000 21.2096 0.0000 0.0000
# 5 0.0000 0.0000 0.0000 0.0000 38.4650 0.0000
# 6 0.0000 0.0000 0.0000 0.0000 0.0000 40.8598
#
#
#
# Elastic Compliance Matrix: (Units=1/GPa)
#
#
# Indices 1 2 3 4 5 6 
#
# 1 0.009077 -0.003009 -0.005982 0.000000 0.000000 0.000000
# 2 -0.003009 0.011946 -0.003821 0.000000 0.000000 0.000000
# 3 -0.005982 -0.003821 0.016905 0.000000 0.000000 0.000000
# 4 0.000000 0.000000 0.000000 0.047148 0.000000 0.000000
# 5 0.000000 0.000000 0.000000 0.000000 0.025998 0.000000
# 6 0.000000 0.000000 0.000000 0.000000 0.000000 0.024474
#
#
# Mechanical properties :
#
#
# Convention : Reuss Voigt Hill
#
# Bulk Modulus (GPa) = 81.26891 93.08076 87.17483
# Shear Modulus (GPa) = 30.25305 33.34052 31.79678
#
# Velocity S-wave (km/s) = 3.95383 4.15069 4.05345
# Velocity P-wave (km/s) = 7.92705 8.43024 8.18251
#
# Compressibility (1/GPa) = 0.01230483
#
# Stress axis : x y z
#
# Youngs Moduli (GPa) = 110.16849 83.71042 59.15410
#
# Poissons Ratio (x) = 0.25186 0.35383
# Poissons Ratio (y) = 0.33146 0.22605
# Poissons Ratio (z) = 0.65897 0.31989
#
# Static dielectric constant tensor:
#      x y z
#    x 3.477180 0.000000 0.000000 
#    y 0.000000 3.675920 0.000000 
#    z 0.000000 0.000000 3.746630 
# 
# 
# High freq. dielectric constant tensor:
#      x y z
#    x 1.755480 0.000000 0.000000 
#    y 0.000000 1.769200 0.000000 
#    z 0.000000 0.000000 1.768820 
# 
# From -- ./inp_files/17585.got.cif
#   From: 2010.03.12/outbox.cif.g09.slc.cpg/sg39_9_cif.got.tgz:17585.got - 2010.04.14 02:53:20.
