data_PCOD8181632
_publ_section_title
;
Structure prediction by ZEFSAII (Michael W. Deem and Ramdas Pophale) SiO2 
 PCOD8181632
Probable space group: A B M 2
;
_chemical_formula_sum "Si O2"
_cell_formula_units_Z 56
_cell_length_a 19.968781
_cell_length_b 9.081670
_cell_length_c 14.457502
_cell_angle_alpha 90.000000
_cell_angle_beta 90.000000
_cell_angle_gamma 90.000000
_cell_volume 2621.866243
_symmetry_space_group_name_H-M "A B M 2"
_symmetry_group_IT_number 39
_symmetry_cell_setting 'orthorhombic'
loop_
_space_group_symop_operation_xyz
x,y,z
-x,-y,z
-x,1/2+y,z
x,1/2-y,z
x,1/2+y,1/2+z
-x,1/2-y,1/2+z
-x,y,1/2+z
x,-y,1/2+z
loop_
_atom_site_type_symbol
_atom_site_label
_atom_site_fract_x
_atom_site_fract_y
_atom_site_fract_z
Si Si1 0.176944 0.417504 0.250000
Si Si2 0.169368 0.076820 0.463186
Si Si3 0.564916 0.084598 0.747767
Si Si4 0.696574 0.083027 0.466562
Si Si5 0.693779 0.414815 0.246275
Si Si6 0.929878 0.077888 0.596563
Si Si7 0.434286 0.583188 0.968535
O O1 0.201630 0.250000 0.243047
O O2 0.159754 0.457686 0.355163
O O3 0.237313 0.515286 0.209614
O O4 0.111156 0.447369 0.190515
O O5 0.170254 0.250000 0.484715
O O6 0.238158 0.005361 0.500790
O O7 0.106947 0.999135 0.511343
O O8 0.562980 0.250000 0.709637
O O9 0.565710 0.082779 0.858126
O O10 0.500000 0.000000 0.709564
O O11 0.630872 0.005896 0.707430
O O12 0.699774 0.250000 0.504328
O O13 0.693279 0.082057 0.356510
O O14 0.630975 0.001973 0.506798
O O15 0.688410 0.250000 0.207869
O O16 0.939561 0.250000 0.574339
O O17 0.000000 0.000000 0.612476
O O18 0.500000 0.500000 0.006424
O O19 0.433861 0.750000 0.006019
#
# Coordination Sequence:
#
# PCOD8181632 Si02
#       7
#     8   8   8   8   8   8   8
#     4   9  20  38  59  83 114 150 187 228 277 330
#     4  10  20  37  60  86 115 149 188 231 278 330
#     4   9  15  22  34  56  92 135 179 227 278 327
#     4   9  16  27  44  69 101 139 182 228 276 329
#     4   9  16  26  44  70 100 136 181 228 275 327
#     4  11  24  42  62  87 117 148 183 225 274 332
#     4   9  15  22  34  57  92 135 180 229 280 329
#
# _framework density 21.358832
#
# number of rings (size 3 to 8) (size 9 to 14) (size 15 to 20)
#    0.000    2.571    0.000    2.571    0.000    9.143 
#    0.000    1.429    0.000    0.000    0.000    1.000 
#    0.000    6.857    0.000    0.857    0.000    0.286 
#
# Total GULP energy -347274.675149 kJ/mol
# GULP energy per Si atom -12402.666970 kJ/mol
# Density = 2.131022 g / cm^3
# Si number density = 21.358832 Si / 1000 Ang^3
#
#
#
# Elastic Constant Matrix: (Units=GPa)
#
#
# Indices 1 2 3 4 5 6 
#
# 1 195.7054 113.7004 32.8531 0.0000 0.0000 0.0000
# 2 113.7004 204.9152 38.3312 0.0000 0.0000 0.0000
# 3 32.8531 38.3312 40.6494 0.0000 0.0000 0.0000
# 4 0.0000 0.0000 0.0000 16.5399 0.0000 0.0000
# 5 0.0000 0.0000 0.0000 0.0000 -72.9116 0.0000
# 6 0.0000 0.0000 0.0000 0.0000 0.0000 50.9978
#
#
#
# Elastic Compliance Matrix: (Units=1/GPa)
#
#
# Indices 1 2 3 4 5 6 
#
# 1 0.007776 -0.003811 -0.002690 0.000000 0.000000 0.000000
# 2 -0.003811 0.007793 -0.004269 0.000000 0.000000 0.000000
# 3 -0.002690 -0.004269 0.030800 0.000000 0.000000 0.000000
# 4 0.000000 0.000000 0.000000 0.060460 0.000000 0.000000
# 5 0.000000 0.000000 0.000000 0.000000 -0.013715 0.000000
# 6 0.000000 0.000000 0.000000 0.000000 0.000000 0.019609
#
#
# Mechanical properties :
#
#
# Convention : Reuss Voigt Hill
#
# Bulk Modulus (GPa) = 40.27615 90.11551 65.19583
# Shear Modulus (GPa) = 35.07812 16.01758 25.54785
#
# Velocity S-wave (km/s) = 4.05696 2.74145 3.46226
# Velocity P-wave (km/s) = 6.39086 7.23212 6.82446
#
# Compressibility (1/GPa) = 0.02482859
#
# Stress axis : x y z
#
# Youngs Moduli (GPa) = 128.60861 128.31709 32.46730
#
# Poissons Ratio (x) = 0.48903 0.08735
# Poissons Ratio (y) = 0.49014 0.13859
# Poissons Ratio (z) = 0.34602 0.54774
#
# Static dielectric constant tensor:
#      x y z
#    x 3.879990 0.000000 0.000000 
#    y 0.000000 4.050420 0.000000 
#    z 0.000000 0.000000 3.438870 
# 
# 
# High freq. dielectric constant tensor:
#      x y z
#    x 1.838810 0.000000 0.000000 
#    y 0.000000 1.850660 0.000000 
#    z 0.000000 0.000000 1.815150 
# 
# From -- ./inp_files/10372.got.cif
#   From: 2010.03.12/outbox.cif.g09.slc.cpg/sg39_6_cif.got.tgz:10372.got - 2010.04.14 02:53:20.
