data_PCOD8181732
_publ_section_title
;
Structure prediction by ZEFSAII (Michael W. Deem and Ramdas Pophale) SiO2 
 PCOD8181732
Probable space group: A B M 2
;
_chemical_formula_sum "Si O2"
_cell_formula_units_Z 44
_cell_length_a 8.290892
_cell_length_b 28.251721
_cell_length_c 9.123611
_cell_angle_alpha 90.000000
_cell_angle_beta 90.000000
_cell_angle_gamma 90.000000
_cell_volume 2137.041356
_symmetry_space_group_name_H-M "A B M 2"
_symmetry_group_IT_number 39
_symmetry_cell_setting 'orthorhombic'
loop_
_space_group_symop_operation_xyz
x,y,z
-x,-y,z
-x,1/2+y,z
x,1/2-y,z
x,1/2+y,1/2+z
-x,1/2-y,1/2+z
-x,y,1/2+z
x,-y,1/2+z
loop_
_atom_site_type_symbol
_atom_site_label
_atom_site_fract_x
_atom_site_fract_y
_atom_site_fract_z
Si Si1 0.638227 0.304585 0.724710
Si Si2 0.860355 0.861195 0.433806
Si Si3 0.000000 0.500000 0.087613
Si Si4 0.689642 0.642073 0.727387
Si Si5 0.103626 0.936184 0.341708
Si Si6 0.848886 0.197954 0.453858
O O1 0.593713 0.250000 0.770036
O O2 0.785838 0.323823 0.820596
O O3 0.494838 0.342344 0.742964
O O4 0.690929 0.305526 0.555793
O O5 0.730807 0.871981 0.560563
O O6 0.930864 0.908287 0.355067
O O7 0.013272 0.836933 0.512834
O O8 0.102547 0.534960 0.189757
O O9 0.121889 0.470530 0.982116
O O10 0.739041 0.597795 0.833025
O O11 0.796891 0.685703 0.787131
O O12 0.923020 0.250000 0.454434
#
# Coordination Sequence:
#
# PCOD8181732 Si02
#       6
#     8   8   4   8   8   8
#     4  11  24  39  59  89 130 176 212 254 309 368
#     4  11  22  38  60  90 122 162 211 261 309 368
#     4  10  20  40  70  96 122 150 216 258 326 378
#     4  11  22  37  57  89 126 163 204 250 314 370
#     4  10  21  39  67  99 117 161 201 264 313 384
#     4  10  21  36  57  85 119 165 217 259 295 359
#
# _framework density 20.589213999999998
#
# number of rings (size 3 to 8) (size 9 to 14) (size 15 to 20)
#    0.000    1.455    1.818    4.364    2.545    5.818 
#    0.000    0.000    0.000    6.545    0.000    0.000 
#    0.000    0.000    0.000    0.000    0.000    0.000 
#
# Total GULP energy -272667.665682 kJ/mol
# GULP energy per Si atom -12393.984804 kJ/mol
# Density = 2.054235 g / cm^3
# Si number density = 20.589214 Si / 1000 Ang^3
#
#
#
# Elastic Constant Matrix: (Units=GPa)
#
#
# Indices 1 2 3 4 5 6 
#
# 1 88.3930 48.4446 23.5740 0.0000 0.0000 0.0000
# 2 48.4446 127.3720 49.0218 0.0000 0.0000 0.0000
# 3 23.5740 49.0218 103.4270 0.0000 0.0000 0.0000
# 4 0.0000 0.0000 0.0000 33.6374 0.0000 0.0000
# 5 0.0000 0.0000 0.0000 0.0000 25.4975 0.0000
# 6 0.0000 0.0000 0.0000 0.0000 0.0000 31.0106
#
#
#
# Elastic Compliance Matrix: (Units=1/GPa)
#
#
# Indices 1 2 3 4 5 6 
#
# 1 0.014351 -0.005136 -0.000837 0.000000 0.000000 0.000000
# 2 -0.005136 0.011441 -0.004252 0.000000 0.000000 0.000000
# 3 -0.000837 -0.004252 0.011875 0.000000 0.000000 0.000000
# 4 0.000000 0.000000 0.000000 0.029729 0.000000 0.000000
# 5 0.000000 0.000000 0.000000 0.000000 0.039220 0.000000
# 6 0.000000 0.000000 0.000000 0.000000 0.000000 0.032247
#
#
# Mechanical properties :
#
#
# Convention : Reuss Voigt Hill
#
# Bulk Modulus (GPa) = 58.08193 62.36364 60.22278
# Shear Modulus (GPa) = 30.29357 31.23919 30.76638
#
# Velocity S-wave (km/s) = 3.83996 3.89943 3.86981
# Velocity P-wave (km/s) = 6.92326 7.11543 7.02000
#
# Compressibility (1/GPa) = 0.01721706
#
# Stress axis : x y z
#
# Youngs Moduli (GPa) = 69.68029 87.40430 84.21263
#
# Poissons Ratio (x) = 0.44894 0.07045
# Poissons Ratio (y) = 0.35790 0.35808
# Poissons Ratio (z) = 0.05829 0.37165
#
# Static dielectric constant tensor:
#      x y z
#    x 3.419340 0.000000 0.000000 
#    y 0.000000 3.945910 0.000000 
#    z 0.000000 0.000000 3.790350 
# 
# 
# High freq. dielectric constant tensor:
#      x y z
#    x 1.772090 0.000000 0.000000 
#    y 0.000000 1.810290 0.000000 
#    z 0.000000 0.000000 1.815550 
# 
# From -- ./inp_files/2268.got.cif
#   From: 2010.03.12/outbox.cif.g09.slc.cpg/sg39_2_cif.got.tgz:2268.got - 2010.04.14 02:53:20.
