data_PCOD8181199
_publ_section_title
;
Structure prediction by ZEFSAII (Michael W. Deem and Ramdas Pophale) SiO2 
 PCOD8181199
Probable space group: A B M 2
;
_chemical_formula_sum "Si O2"
_cell_formula_units_Z 56
_cell_length_a 9.357246
_cell_length_b 18.892826
_cell_length_c 16.519000
_cell_angle_alpha 90.000000
_cell_angle_beta 90.000000
_cell_angle_gamma 90.000000
_cell_volume 2920.308450
_symmetry_space_group_name_H-M "A B M 2"
_symmetry_group_IT_number 39
_symmetry_cell_setting 'orthorhombic'
loop_
_space_group_symop_operation_xyz
x,y,z
-x,-y,z
-x,1/2+y,z
x,1/2-y,z
x,1/2+y,1/2+z
-x,1/2-y,1/2+z
-x,y,1/2+z
x,-y,1/2+z
loop_
_atom_site_type_symbol
_atom_site_label
_atom_site_fract_x
_atom_site_fract_y
_atom_site_fract_z
Si Si1 0.748039 0.165486 0.105200
Si Si2 0.595352 0.569392 0.972789
Si Si3 0.749704 0.889344 0.281690
Si Si4 0.845145 0.027179 0.363580
Si Si5 0.035774 0.918432 0.207494
Si Si6 0.361675 0.671527 0.933297
Si Si7 0.473365 0.917500 0.650431
O O1 0.754927 0.250000 0.122078
O O2 0.890129 0.125759 0.136287
O O3 0.616729 0.128795 0.151073
O O4 0.734218 0.146709 0.009985
O O5 0.500000 0.500000 0.968659
O O6 0.754235 0.562188 0.935756
O O7 0.507150 0.627451 0.922730
O O8 0.613011 0.591988 0.066328
O O9 0.732913 0.830836 0.351941
O O10 0.616555 0.884463 0.222423
O O11 0.891203 0.876648 0.228997
O O12 0.750987 0.963713 0.328507
O O13 0.868519 0.081624 0.289280
O O14 0.000000 0.000000 0.395997
O O15 0.000000 0.000000 0.181565
O O16 0.413992 0.750000 0.950945
O O17 0.500000 0.000000 0.667753
#
# Coordination Sequence:
#
# PCOD8181199 Si02
#       7
#     8   8   8   8   8   8   8
#     4  10  22  41  60  86 123 161 198 245 306 364
#     4  10  19  35  58  86 108 151 199 239 299 352
#     4  10  20  36  55  85 116 150 194 246 293 349
#     4   9  19  36  55  87 122 146 191 249 299 349
#     4   9  20  38  58  89 120 153 199 246 299 358
#     4  10  22  37  58  85 120 155 197 246 300 358
#     4  10  21  35  58  88 116 150 201 252 295 353
#
# _framework density 19.176057
#
# number of rings (size 3 to 8) (size 9 to 14) (size 15 to 20)
#    0.000    2.571    1.429    1.714    4.000    1.143 
#    5.143    1.429    0.000    0.857    0.000    0.000 
#    0.000    0.000    0.000    0.000    0.000    0.000 
#
# Total GULP energy -347075.166351 kJ/mol
# GULP energy per Si atom -12395.541655 kJ/mol
# Density = 1.913241 g / cm^3
# Si number density = 19.176057 Si / 1000 Ang^3
#
#
#
# Elastic Constant Matrix: (Units=GPa)
#
#
# Indices 1 2 3 4 5 6 
#
# 1 112.2546 46.0118 73.0276 0.0000 0.0000 0.0000
# 2 46.0118 77.6319 40.0231 0.0000 0.0000 0.0000
# 3 73.0276 40.0231 104.2922 0.0000 0.0000 0.0000
# 4 0.0000 0.0000 0.0000 18.6928 0.0000 0.0000
# 5 0.0000 0.0000 0.0000 0.0000 40.0105 0.0000
# 6 0.0000 0.0000 0.0000 0.0000 0.0000 24.5410
#
#
#
# Elastic Compliance Matrix: (Units=1/GPa)
#
#
# Indices 1 2 3 4 5 6 
#
# 1 0.017881 -0.005165 -0.010539 0.000000 0.000000 0.000000
# 2 -0.005165 0.017550 -0.003119 0.000000 0.000000 0.000000
# 3 -0.010539 -0.003119 0.018165 0.000000 0.000000 0.000000
# 4 0.000000 0.000000 0.000000 0.053497 0.000000 0.000000
# 5 0.000000 0.000000 0.000000 0.000000 0.024993 0.000000
# 6 0.000000 0.000000 0.000000 0.000000 0.000000 0.040748
#
#
# Mechanical properties :
#
#
# Convention : Reuss Voigt Hill
#
# Bulk Modulus (GPa) = 62.68854 68.03374 65.36114
# Shear Modulus (GPa) = 23.16997 25.65660 24.41328
#
# Velocity S-wave (km/s) = 3.47980 3.66177 3.57194
# Velocity P-wave (km/s) = 6.99338 7.30983 7.15335
#
# Compressibility (1/GPa) = 0.01595188
#
# Stress axis : x y z
#
# Youngs Moduli (GPa) = 55.92383 56.97931 55.05161
#
# Poissons Ratio (x) = 0.29429 0.58018
# Poissons Ratio (y) = 0.28884 0.17168
# Poissons Ratio (z) = 0.58938 0.17769
#
# Static dielectric constant tensor:
#      x y z
#    x 3.456600 0.000000 0.000000 
#    y 0.000000 3.392140 0.000000 
#    z 0.000000 0.000000 3.599640 
# 
# 
# High freq. dielectric constant tensor:
#      x y z
#    x 1.738630 0.000000 0.000000 
#    y 0.000000 1.724150 0.000000 
#    z 0.000000 0.000000 1.750250 
# 
# From -- ./inp_files/11897.got.cif
#   From: 2010.03.12/outbox.cif.g09.slc.cpg/sg39_6_cif.got.tgz:11897.got - 2010.04.14 02:53:20.
