data_PCOD8181795
_publ_section_title
;
Structure prediction by ZEFSAII (Michael W. Deem and Ramdas Pophale) SiO2 
 PCOD8181795
Probable space group: A B M 2
;
_chemical_formula_sum "Si O2"
_cell_formula_units_Z 56
_cell_length_a 9.274394
_cell_length_b 14.385167
_cell_length_c 20.135387
_cell_angle_alpha 90.000000
_cell_angle_beta 90.000000
_cell_angle_gamma 90.000000
_cell_volume 2686.336612
_symmetry_space_group_name_H-M "A B M 2"
_symmetry_group_IT_number 39
_symmetry_cell_setting 'orthorhombic'
loop_
_space_group_symop_operation_xyz
x,y,z
-x,-y,z
-x,1/2+y,z
x,1/2-y,z
x,1/2+y,1/2+z
-x,1/2-y,1/2+z
-x,y,1/2+z
x,-y,1/2+z
loop_
_atom_site_type_symbol
_atom_site_label
_atom_site_fract_x
_atom_site_fract_y
_atom_site_fract_z
Si Si1 0.580888 0.859096 0.532470
Si Si2 0.830839 0.145943 0.119840
Si Si3 0.018248 0.141944 0.991038
Si Si4 0.909696 0.588605 0.759736
Si Si5 0.339692 0.483284 0.835783
Si Si6 0.688796 0.044510 0.482947
Si Si7 0.128132 0.851482 0.855021
O O1 0.592827 0.750000 0.508876
O O2 0.658938 0.868587 0.604931
O O3 0.416666 0.896129 0.532146
O O4 0.667888 0.932368 0.486035
O O5 0.859414 0.250000 0.143519
O O6 0.895729 0.087338 0.180156
O O7 0.910668 0.123141 0.051421
O O8 0.065939 0.250000 0.987828
O O9 0.152839 0.074688 0.004408
O O10 0.947446 0.109927 0.921914
O O11 0.746660 0.586911 0.787742
O O12 0.000000 0.500000 0.783259
O O13 0.007994 0.665452 0.796358
O O14 0.500000 0.500000 0.807885
O O15 0.259128 0.581975 0.835736
O O16 0.346278 0.430973 0.906787
O O17 0.195357 0.750000 0.869372
#
# Coordination Sequence:
#
# PCOD8181795 Si02
#       7
#     8   8   8   8   8   8   8
#     4  10  22  38  58  89 126 161 202 252 312 376
#     4  10  22  40  60  89 125 161 205 255 309 370
#     4  10  21  36  62  97 124 156 206 258 311 374
#     4  10  22  40  63  88 123 166 212 256 305 379
#     4  11  22  40  58  91 125 164 208 255 312 387
#     4  11  21  38  63  90 126 162 200 260 321 366
#     4  10  21  40  65  91 123 160 207 268 318 369
#
# _framework density 20.846233999999999
#
# number of rings (size 3 to 8) (size 9 to 14) (size 15 to 20)
#    0.000    1.714    2.857    1.714    2.000    2.857 
#    2.571    1.429    0.000    1.714    0.000    0.000 
#    0.000    0.000    0.000    0.000    0.000    0.000 
#
# Total GULP energy -346899.462121 kJ/mol
# GULP energy per Si atom -12389.266504 kJ/mol
# Density = 2.079879 g / cm^3
# Si number density = 20.846234 Si / 1000 Ang^3
#
#
#
# Elastic Constant Matrix: (Units=GPa)
#
#
# Indices 1 2 3 4 5 6 
#
# 1 140.6485 38.6231 37.5663 0.0000 0.0000 0.0000
# 2 38.6231 94.2148 13.3829 0.0000 0.0000 0.0000
# 3 37.5663 13.3829 109.6626 0.0000 0.0000 0.0000
# 4 0.0000 0.0000 0.0000 19.2231 0.0000 0.0000
# 5 0.0000 0.0000 0.0000 0.0000 28.5348 0.0000
# 6 0.0000 0.0000 0.0000 0.0000 0.0000 25.0012
#
#
#
# Elastic Compliance Matrix: (Units=1/GPa)
#
#
# Indices 1 2 3 4 5 6 
#
# 1 0.008676 -0.003190 -0.002583 0.000000 0.000000 0.000000
# 2 -0.003190 0.011974 -0.000369 0.000000 0.000000 0.000000
# 3 -0.002583 -0.000369 0.010049 0.000000 0.000000 0.000000
# 4 0.000000 0.000000 0.000000 0.052021 0.000000 0.000000
# 5 0.000000 0.000000 0.000000 0.000000 0.035045 0.000000
# 6 0.000000 0.000000 0.000000 0.000000 0.000000 0.039998
#
#
# Mechanical properties :
#
#
# Convention : Reuss Voigt Hill
#
# Bulk Modulus (GPa) = 54.29979 58.18561 56.24270
# Shear Modulus (GPa) = 28.37964 31.54873 29.96418
#
# Velocity S-wave (km/s) = 3.69369 3.89447 3.79541
# Velocity P-wave (km/s) = 6.65548 6.94225 6.80038
#
# Compressibility (1/GPa) = 0.01841628
#
# Stress axis : x y z
#
# Youngs Moduli (GPa) = 115.26502 83.51415 99.51642
#
# Poissons Ratio (x) = 0.26639 0.25702
# Poissons Ratio (y) = 0.36766 0.03668
# Poissons Ratio (z) = 0.29769 0.03078
#
# Static dielectric constant tensor:
#      x y z
#    x 3.856560 0.000000 0.000000 
#    y 0.000000 3.817720 0.000000 
#    z 0.000000 0.000000 3.494080 
# 
# 
# High freq. dielectric constant tensor:
#      x y z
#    x 1.819370 0.000000 0.000000 
#    y 0.000000 1.819310 0.000000 
#    z 0.000000 0.000000 1.792280 
# 
# From -- ./inp_files/14065.got.cif
#   From: 2010.03.12/outbox.cif.g09.slc.cpg/sg39_8_cif.got.tgz:14065.got - 2010.04.14 02:53:20.
