data_PCOD8181612
_publ_section_title
;
Structure prediction by ZEFSAII (Michael W. Deem and Ramdas Pophale) SiO2 
 PCOD8181612
Probable space group: A B M 2
;
_chemical_formula_sum "Si O2"
_cell_formula_units_Z 48
_cell_length_a 9.401459
_cell_length_b 8.715288
_cell_length_c 30.433750
_cell_angle_alpha 90.000000
_cell_angle_beta 90.000000
_cell_angle_gamma 90.000000
_cell_volume 2493.632608
_symmetry_space_group_name_H-M "A B M 2"
_symmetry_group_IT_number 39
_symmetry_cell_setting 'orthorhombic'
loop_
_space_group_symop_operation_xyz
x,y,z
-x,-y,z
-x,1/2+y,z
x,1/2-y,z
x,1/2+y,1/2+z
-x,1/2-y,1/2+z
-x,y,1/2+z
x,-y,1/2+z
loop_
_atom_site_type_symbol
_atom_site_label
_atom_site_fract_x
_atom_site_fract_y
_atom_site_fract_z
Si Si1 0.149707 0.431593 0.638380
Si Si2 0.653434 0.570216 0.800732
Si Si3 0.851793 0.429660 0.038812
Si Si4 0.655173 0.568116 0.211382
Si Si5 0.344307 0.568799 0.960692
Si Si6 0.155743 0.070273 0.884355
O O1 0.148948 0.250000 0.644356
O O2 0.184849 0.481612 0.588379
O O3 0.265278 0.507400 0.669009
O O4 0.000000 0.500000 0.653184
O O5 0.500000 0.500000 0.812873
O O6 0.632563 0.750000 0.792458
O O7 0.721544 0.492929 0.757143
O O8 0.763254 0.534960 0.839274
O O9 0.873940 0.250000 0.036387
O O10 0.000000 0.500000 0.022212
O O11 0.723293 0.482408 0.007344
O O12 0.500000 0.500000 0.208336
O O13 0.653494 0.750000 0.211201
O O14 0.500000 0.500000 0.956054
O O15 0.356481 0.750000 0.956591
O O16 0.242568 0.508144 0.922982
O O17 0.144606 0.250000 0.893889
O O18 0.000000 0.000000 0.881341
#
# Coordination Sequence:
#
# PCOD8181612 Si02
#       6
#     8   8   8   8   8   8
#     4  10  20  37  58  83 115 150 190 233 281 334
#     4  10  21  38  59  83 112 147 188 233 282 335
#     4   9  20  37  58  83 112 148 188 232 280 333
#     4  11  22  37  58  84 114 150 190 233 283 335
#     4  11  23  39  59  85 116 150 189 232 280 333
#     4  11  24  40  60  86 115 149 188 231 280 334
#
# _framework density 19.249027000000002
#
# number of rings (size 3 to 8) (size 9 to 14) (size 15 to 20)
#    0.000    1.667    0.000    5.500    0.000    8.667 
#    0.000    3.333    0.000    0.000    0.000    0.000 
#    0.000    0.000    0.000    0.000    0.000    0.000 
#
# Total GULP energy -297656.726461 kJ/mol
# GULP energy per Si atom -12402.363603 kJ/mol
# Density = 1.920521 g / cm^3
# Si number density = 19.249027 Si / 1000 Ang^3
#
#
#
# Elastic Constant Matrix: (Units=GPa)
#
#
# Indices 1 2 3 4 5 6 
#
# 1 102.1542 49.9654 64.6268 0.0000 0.0000 0.0000
# 2 49.9654 112.8129 60.8842 0.0000 0.0000 0.0000
# 3 64.6268 60.8842 121.1737 0.0000 0.0000 0.0000
# 4 0.0000 0.0000 0.0000 24.8986 0.0000 0.0000
# 5 0.0000 0.0000 0.0000 0.0000 41.7380 0.0000
# 6 0.0000 0.0000 0.0000 0.0000 0.0000 38.1518
#
#
#
# Elastic Compliance Matrix: (Units=1/GPa)
#
#
# Indices 1 2 3 4 5 6 
#
# 1 0.015634 -0.003326 -0.006667 0.000000 0.000000 0.000000
# 2 -0.003326 0.012870 -0.004693 0.000000 0.000000 0.000000
# 3 -0.006667 -0.004693 0.014166 0.000000 0.000000 0.000000
# 4 0.000000 0.000000 0.000000 0.040163 0.000000 0.000000
# 5 0.000000 0.000000 0.000000 0.000000 0.023959 0.000000
# 6 0.000000 0.000000 0.000000 0.000000 0.000000 0.026211
#
#
# Mechanical properties :
#
#
# Convention : Reuss Voigt Hill
#
# Bulk Modulus (GPa) = 75.19595 76.34371 75.76983
# Shear Modulus (GPa) = 29.97480 31.66864 30.82172
#
# Velocity S-wave (km/s) = 3.95043 4.06052 4.00585
# Velocity P-wave (km/s) = 7.74322 7.85690 7.80027
#
# Compressibility (1/GPa) = 0.01329859
#
# Stress axis : x y z
#
# Youngs Moduli (GPa) = 63.96420 77.70032 70.59109
#
# Poissons Ratio (x) = 0.25845 0.47062
# Poissons Ratio (y) = 0.21276 0.33125
# Poissons Ratio (z) = 0.42644 0.36461
#
# Static dielectric constant tensor:
#      x y z
#    x 3.472340 0.000000 0.000000 
#    y 0.000000 3.685530 0.000000 
#    z 0.000000 0.000000 3.986610 
# 
# 
# High freq. dielectric constant tensor:
#      x y z
#    x 1.748720 0.000000 0.000000 
#    y 0.000000 1.764680 0.000000 
#    z 0.000000 0.000000 1.765570 
# 
# From -- ./inp_files/17581.got.cif
#   From: 2010.03.12/outbox.cif.g09.slc.cpg/sg39_9_cif.got.tgz:17581.got - 2010.04.14 02:53:20.
