data_PCOD8181200
_publ_section_title
;
Structure prediction by ZEFSAII (Michael W. Deem and Ramdas Pophale) SiO2 
 PCOD8181200
Probable space group: A B M 2
;
_chemical_formula_sum "Si O2"
_cell_formula_units_Z 64
_cell_length_a 23.774006
_cell_length_b 8.812182
_cell_length_c 15.358046
_cell_angle_alpha 90.000000
_cell_angle_beta 90.000000
_cell_angle_gamma 90.000000
_cell_volume 3217.523964
_symmetry_space_group_name_H-M "A B M 2"
_symmetry_group_IT_number 39
_symmetry_cell_setting 'orthorhombic'
loop_
_space_group_symop_operation_xyz
x,y,z
-x,-y,z
-x,1/2+y,z
x,1/2-y,z
x,1/2+y,1/2+z
-x,1/2-y,1/2+z
-x,y,1/2+z
x,-y,1/2+z
loop_
_atom_site_type_symbol
_atom_site_label
_atom_site_fract_x
_atom_site_fract_y
_atom_site_fract_z
Si Si1 0.942492 0.070668 0.310690
Si Si2 0.440681 0.070651 0.556216
Si Si3 0.944222 0.426544 0.997076
Si Si4 0.245182 0.072714 0.405713
Si Si5 0.825534 0.075909 0.074309
Si Si6 0.634960 0.571604 0.911350
Si Si7 0.558395 0.928129 0.753464
Si Si8 0.833338 0.426405 0.745868
O O1 0.948128 0.250000 0.310868
O O2 0.931009 0.009894 0.407143
O O3 0.890505 0.022169 0.251122
O O4 0.000000 0.000000 0.272546
O O5 0.445206 0.250000 0.547506
O O6 0.425578 0.020489 0.655268
O O7 0.500000 0.000000 0.527092
O O8 0.391840 0.011207 0.494084
O O9 0.954618 0.250000 0.977050
O O10 0.891927 0.450428 0.060531
O O11 0.000000 0.500000 0.040572
O O12 0.261006 0.250000 0.405675
O O13 0.208488 0.027283 0.489106
O O14 0.209768 0.027308 0.321071
O O15 0.300368 0.971790 0.405536
O O16 0.812845 0.250000 0.097546
O O17 0.805111 0.970171 0.153660
O O18 0.628232 0.750000 0.924928
O O19 0.605932 0.517769 0.821212
O O20 0.550229 0.750000 0.756724
O O21 0.500000 0.000000 0.783952
O O22 0.848084 0.250000 0.751365
#
# Coordination Sequence:
#
# PCOD8181200 Si02
#       8
#     8   8   8   8   8   8   8   8
#     4  11  21  35  59  88 119 154 192 237 295 355
#     4  10  20  37  60  88 122 159 194 235 292 347
#     4  10  19  35  58  86 119 152 189 238 295 356
#     4  10  23  44  62  80 116 159 197 245 298 347
#     4  10  22  41  62  84 116 155 196 242 299 357
#     4  11  23  38  59  88 118 153 201 247 288 345
#     4   9  20  37  58  86 121 156 191 235 286 342
#     4  11  23  41  63  88 117 152 197 245 298 357
#
# _framework density 19.891072000000001
#
# number of rings (size 3 to 8) (size 9 to 14) (size 15 to 20)
#    0.000    1.750    1.250    3.750    0.000    6.500 
#    0.000    5.000    0.000    0.000    0.000    0.000 
#    0.000    0.000    0.000    0.000    0.000    0.000 
#
# Total GULP energy -396911.133587 kJ/mol
# GULP energy per Si atom -12403.472925 kJ/mol
# Density = 1.984580 g / cm^3
# Si number density = 19.891072 Si / 1000 Ang^3
#
#
#
# Elastic Constant Matrix: (Units=GPa)
#
#
# Indices 1 2 3 4 5 6 
#
# 1 119.5986 48.6172 62.2364 0.0000 0.0000 0.0000
# 2 48.6172 91.1059 46.3057 0.0000 0.0000 0.0000
# 3 62.2364 46.3057 126.5171 0.0000 0.0000 0.0000
# 4 0.0000 0.0000 0.0000 31.4798 0.0000 0.0000
# 5 0.0000 0.0000 0.0000 0.0000 4.0767 0.0000
# 6 0.0000 0.0000 0.0000 0.0000 0.0000 36.1783
#
#
#
# Elastic Compliance Matrix: (Units=1/GPa)
#
#
# Indices 1 2 3 4 5 6 
#
# 1 0.012503 -0.004356 -0.004556 0.000000 0.000000 0.000000
# 2 -0.004356 0.015003 -0.003348 0.000000 0.000000 0.000000
# 3 -0.004556 -0.003348 0.011371 0.000000 0.000000 0.000000
# 4 0.000000 0.000000 0.000000 0.031766 0.000000 0.000000
# 5 0.000000 0.000000 0.000000 0.000000 0.245299 0.000000
# 6 0.000000 0.000000 0.000000 0.000000 0.000000 0.027641
#
#
# Mechanical properties :
#
#
# Convention : Reuss Voigt Hill
#
# Bulk Modulus (GPa) = 69.66003 72.39336 71.02670
# Shear Modulus (GPa) = 13.40881 26.35110 19.87996
#
# Velocity S-wave (km/s) = 2.59918 3.64369 3.16482
# Velocity P-wave (km/s) = 6.64112 7.36043 7.01000
#
# Compressibility (1/GPa) = 0.01435543
#
# Stress axis : x y z
#
# Youngs Moduli (GPa) = 79.98043 66.65497 87.94549
#
# Poissons Ratio (x) = 0.29037 0.40069
# Poissons Ratio (y) = 0.34843 0.29444
# Poissons Ratio (z) = 0.36440 0.22316
#
# Static dielectric constant tensor:
#      x y z
#    x 3.563840 0.000000 0.000000 
#    y 0.000000 3.581490 0.000000 
#    z 0.000000 0.000000 3.731200 
# 
# 
# High freq. dielectric constant tensor:
#      x y z
#    x 1.771360 0.000000 0.000000 
#    y 0.000000 1.778920 0.000000 
#    z 0.000000 0.000000 1.783230 
# 
# From -- ./inp_files/10554.got.cif
#   From: 2010.03.12/outbox.cif.g09.slc.cpg/sg39_6_cif.got.tgz:10554.got - 2010.04.14 02:53:20.
