data_PCOD8181906
_publ_section_title
;
Structure prediction by ZEFSAII (Michael W. Deem and Ramdas Pophale) SiO2 
 PCOD8181906
Probable space group: A B M 2
;
_chemical_formula_sum "Si O2"
_cell_formula_units_Z 64
_cell_length_a 23.636368
_cell_length_b 8.719595
_cell_length_c 15.263745
_cell_angle_alpha 90.000000
_cell_angle_beta 90.000000
_cell_angle_gamma 90.000000
_cell_volume 3145.851071
_symmetry_space_group_name_H-M "A B M 2"
_symmetry_group_IT_number 39
_symmetry_cell_setting 'orthorhombic'
loop_
_space_group_symop_operation_xyz
x,y,z
-x,-y,z
-x,1/2+y,z
x,1/2-y,z
x,1/2+y,1/2+z
-x,1/2-y,1/2+z
-x,y,1/2+z
x,-y,1/2+z
loop_
_atom_site_type_symbol
_atom_site_label
_atom_site_fract_x
_atom_site_fract_y
_atom_site_fract_z
Si Si1 0.625166 0.427847 0.323120
Si Si2 0.864204 0.569300 0.275452
Si Si3 0.439048 0.569121 0.668049
Si Si4 0.750917 0.921203 0.562863
Si Si5 0.060470 0.567417 0.427299
Si Si6 0.123919 0.433736 0.587142
Si Si7 0.253114 0.576865 0.265875
Si Si8 0.640272 0.073080 0.516220
O O1 0.619127 0.250000 0.296533
O O2 0.583076 0.526561 0.264262
O O3 0.690159 0.481244 0.312801
O O4 0.608519 0.457043 0.424209
O O5 0.875525 0.750000 0.278775
O O6 0.896215 0.486238 0.353744
O O7 0.886598 0.501724 0.183638
O O8 0.797780 0.536886 0.289932
O O9 0.500000 0.500000 0.650819
O O10 0.443847 0.750000 0.659894
O O11 0.396704 0.498604 0.594374
O O12 0.749804 0.750000 0.525725
O O13 0.814398 0.987845 0.551750
O O14 0.733430 0.927355 0.663639
O O15 0.704509 0.014037 0.508925
O O16 0.058398 0.750000 0.432283
O O17 0.077186 0.499857 0.522037
O O18 0.000000 0.500000 0.401321
O O19 0.120777 0.250000 0.593426
O O20 0.236549 0.750000 0.294639
O O21 0.646145 0.250000 0.536668
#
# Coordination Sequence:
#
# PCOD8181906 Si02
#       8
#     8   8   8   8   8   8   8   8
#     4  10  21  39  61  88 121 159 201 249 304 362
#     4  11  23  40  63  94 129 169 213 261 313 374
#     4  11  24  42  62  86 118 159 204 254 304 363
#     4   9  18  34  59  89 123 160 199 246 303 361
#     4  12  26  45  67  93 126 168 215 265 318 377
#     4  10  22  42  64  94 129 166 212 261 315 377
#     4   9  18  35  59  88 124 164 202 251 311 368
#     4  10  22  37  58  90 122 155 199 247 301 363
#
# _framework density 20.344256999999999
#
# number of rings (size 3 to 8) (size 9 to 14) (size 15 to 20)
#    0.000    1.750    1.250    3.750    1.750    5.000 
#    0.000    3.750    0.000    0.000    0.000    0.000 
#    0.000    0.000    0.000    0.000    0.000    0.000 
#
# Total GULP energy -396842.205443 kJ/mol
# GULP energy per Si atom -12401.318920 kJ/mol
# Density = 2.029795 g / cm^3
# Si number density = 20.344257 Si / 1000 Ang^3
#
#
#
# Elastic Constant Matrix: (Units=GPa)
#
#
# Indices 1 2 3 4 5 6 
#
# 1 69.3462 25.5465 23.4894 0.0000 0.0000 0.0000
# 2 25.5465 78.4240 25.9947 0.0000 0.0000 0.0000
# 3 23.4894 25.9947 69.1082 0.0000 0.0000 0.0000
# 4 0.0000 0.0000 0.0000 30.8383 0.0000 0.0000
# 5 0.0000 0.0000 0.0000 0.0000 22.0515 0.0000
# 6 0.0000 0.0000 0.0000 0.0000 0.0000 35.1267
#
#
#
# Elastic Compliance Matrix: (Units=1/GPa)
#
#
# Indices 1 2 3 4 5 6 
#
# 1 0.017454 -0.004249 -0.004334 0.000000 0.000000 0.000000
# 2 -0.004249 0.015602 -0.004424 0.000000 0.000000 0.000000
# 3 -0.004334 -0.004424 0.017607 0.000000 0.000000 0.000000
# 4 0.000000 0.000000 0.000000 0.032427 0.000000 0.000000
# 5 0.000000 0.000000 0.000000 0.000000 0.045348 0.000000
# 6 0.000000 0.000000 0.000000 0.000000 0.000000 0.028468
#
#
# Mechanical properties :
#
#
# Convention : Reuss Voigt Hill
#
# Bulk Modulus (GPa) = 40.57120 40.77108 40.67114
# Shear Modulus (GPa) = 26.15911 27.05981 26.60946
#
# Velocity S-wave (km/s) = 3.58973 3.65100 3.62050
# Velocity P-wave (km/s) = 6.09649 6.15282 6.12472
#
# Compressibility (1/GPa) = 0.02464802
#
# Stress axis : x y z
#
# Youngs Moduli (GPa) = 57.29417 64.09517 56.79420
#
# Poissons Ratio (x) = 0.27233 0.24616
# Poissons Ratio (y) = 0.24344 0.25128
# Poissons Ratio (z) = 0.24833 0.28358
#
# Static dielectric constant tensor:
#      x y z
#    x 3.705860 0.000000 0.000000 
#    y 0.000000 3.616500 0.000000 
#    z 0.000000 0.000000 3.724690 
# 
# 
# High freq. dielectric constant tensor:
#      x y z
#    x 1.792240 0.000000 0.000000 
#    y 0.000000 1.790530 0.000000 
#    z 0.000000 0.000000 1.801120 
# 
# From -- ./inp_files/10659.got.cif
#   From: 2010.03.12/outbox.cif.g09.slc.cpg/sg39_6_cif.got.tgz:10659.got - 2010.04.14 02:53:20.
