data_PCOD8181680
_publ_section_title
;
Structure prediction by ZEFSAII (Michael W. Deem and Ramdas Pophale) SiO2 
 PCOD8181680
Probable space group: A B M 2
;
_chemical_formula_sum "Si O2"
_cell_formula_units_Z 44
_cell_length_a 16.091842
_cell_length_b 10.476284
_cell_length_c 13.706221
_cell_angle_alpha 90.000000
_cell_angle_beta 90.000000
_cell_angle_gamma 90.000000
_cell_volume 2310.631837
_symmetry_space_group_name_H-M "A B M 2"
_symmetry_group_IT_number 39
_symmetry_cell_setting 'orthorhombic'
loop_
_space_group_symop_operation_xyz
x,y,z
-x,-y,z
-x,1/2+y,z
x,1/2-y,z
x,1/2+y,1/2+z
-x,1/2-y,1/2+z
-x,y,1/2+z
x,-y,1/2+z
loop_
_atom_site_type_symbol
_atom_site_label
_atom_site_fract_x
_atom_site_fract_y
_atom_site_fract_z
Si Si1 0.289104 0.962965 0.718720
Si Si2 0.162216 0.250000 0.274395
Si Si3 0.564765 0.890433 0.082294
Si Si4 0.905697 0.750000 0.070399
Si Si5 0.188652 0.490819 0.539386
Si Si6 0.912739 0.250000 0.983023
Si Si7 0.319333 0.397555 0.907341
O O1 0.223941 0.870249 0.772060
O O2 0.360218 0.887377 0.660038
O O3 0.237140 0.042233 0.639024
O O4 0.333164 0.057878 0.795924
O O5 0.093340 0.250000 0.188232
O O6 0.102415 0.250000 0.367681
O O7 0.522216 0.750000 0.087698
O O8 0.500000 0.000000 0.110240
O O9 0.597417 0.912995 0.971921
O O10 0.857590 0.624765 0.038880
O O11 0.992300 0.750000 0.014624
O O12 0.125542 0.376659 0.527441
O O13 0.252032 0.503857 0.449940
O O14 0.289801 0.250000 0.910152
#
# Coordination Sequence:
#
# PCOD8181680 Si02
#       7
#     8   4   8   4   8   4   8
#     4  10  20  39  64  85 117 162 200 239 299 365
#     4  10  20  40  64  83 116 167 203 234 307 372
#     4  10  22  41  61  89 125 160 196 249 306 355
#     4  10  22  42  56  80 124 166 187 243 318 365
#     4  10  21  38  60  84 119 156 199 245 296 364
#     4  12  22  38  60  95 116 147 208 265 293 343
#     4  10  20  38  62  86 116 161 201 240 297 366
#
# _framework density 19.04241
#
# number of rings (size 3 to 8) (size 9 to 14) (size 15 to 20)
#    0.000    1.818    3.636    0.545    1.273    1.455 
#    9.818    3.636    0.000    0.000    0.000    0.000 
#    0.000    0.000    0.000    0.000    0.000    0.000 
#
# Total GULP energy -272667.284885 kJ/mol
# GULP energy per Si atom -12393.967495 kJ/mol
# Density = 1.899907 g / cm^3
# Si number density = 19.042410 Si / 1000 Ang^3
#
#
#
# Elastic Constant Matrix: (Units=GPa)
#
#
# Indices 1 2 3 4 5 6 
#
# 1 81.2050 32.8056 38.4089 0.0000 0.0000 0.0000
# 2 32.8056 93.9932 40.4888 0.0000 0.0000 0.0000
# 3 38.4089 40.4888 114.9402 0.0000 0.0000 0.0000
# 4 0.0000 0.0000 0.0000 13.1563 0.0000 0.0000
# 5 0.0000 0.0000 0.0000 0.0000 24.8811 0.0000
# 6 0.0000 0.0000 0.0000 0.0000 0.0000 18.9014
#
#
#
# Elastic Compliance Matrix: (Units=1/GPa)
#
#
# Indices 1 2 3 4 5 6 
#
# 1 0.015696 -0.003795 -0.003908 0.000000 0.000000 0.000000
# 2 -0.003795 0.013460 -0.003473 0.000000 0.000000 0.000000
# 3 -0.003908 -0.003473 0.011230 0.000000 0.000000 0.000000
# 4 0.000000 0.000000 0.000000 0.076009 0.000000 0.000000
# 5 0.000000 0.000000 0.000000 0.000000 0.040191 0.000000
# 6 0.000000 0.000000 0.000000 0.000000 0.000000 0.052906
#
#
# Mechanical properties :
#
#
# Convention : Reuss Voigt Hill
#
# Bulk Modulus (GPa) = 55.45433 57.06057 56.25745
# Shear Modulus (GPa) = 21.02120 23.28346 22.15233
#
# Velocity S-wave (km/s) = 3.32613 3.50053 3.41444
# Velocity P-wave (km/s) = 6.62839 6.80943 6.71952
#
# Compressibility (1/GPa) = 0.01803286
#
# Stress axis : x y z
#
# Youngs Moduli (GPa) = 63.71004 74.29623 89.04963
#
# Poissons Ratio (x) = 0.28193 0.34804
# Poissons Ratio (y) = 0.24176 0.30929
# Poissons Ratio (z) = 0.24900 0.25805
#
# Static dielectric constant tensor:
#      x y z
#    x 3.263410 0.000000 0.000000 
#    y 0.000000 3.582450 0.000000 
#    z 0.000000 0.000000 3.568110 
# 
# 
# High freq. dielectric constant tensor:
#      x y z
#    x 1.721770 0.000000 0.000000 
#    y 0.000000 1.745010 0.000000 
#    z 0.000000 0.000000 1.749010 
# 
# From -- ./inp_files/9722.got.cif
#   From: 2010.03.12/outbox.cif.g09.slc.cpg/sg39_5_cif.got.tgz:9722.got - 2010.04.14 02:53:20.
