data_PCOD8181192
_publ_section_title
;
Structure prediction by ZEFSAII (Michael W. Deem and Ramdas Pophale) SiO2 
 PCOD8181192
Probable space group: A B M 2
;
_chemical_formula_sum "Si O2"
_cell_formula_units_Z 64
_cell_length_a 18.841840
_cell_length_b 19.062769
_cell_length_c 9.538338
_cell_angle_alpha 90.000000
_cell_angle_beta 90.000000
_cell_angle_gamma 90.000000
_cell_volume 3425.957765
_symmetry_space_group_name_H-M "A B M 2"
_symmetry_group_IT_number 39
_symmetry_cell_setting 'orthorhombic'
loop_
_space_group_symop_operation_xyz
x,y,z
-x,-y,z
-x,1/2+y,z
x,1/2-y,z
x,1/2+y,1/2+z
-x,1/2-y,1/2+z
-x,y,1/2+z
x,-y,1/2+z
loop_
_atom_site_type_symbol
_atom_site_label
_atom_site_fract_x
_atom_site_fract_y
_atom_site_fract_z
Si Si1 0.734610 0.668773 0.248510
Si Si2 0.579397 0.166228 0.682084
Si Si3 0.188767 0.330895 0.968408
Si Si4 0.201562 0.668209 0.028946
Si Si5 0.065457 0.431221 0.920787
Si Si6 0.693632 0.669099 0.769103
Si Si7 0.075593 0.564891 0.090955
Si Si8 0.453432 0.166523 0.871630
O O1 0.720725 0.750000 0.280114
O O2 0.657724 0.634803 0.214721
O O3 0.774540 0.635667 0.381129
O O4 0.791667 0.657076 0.128244
O O5 0.582800 0.250000 0.678752
O O6 0.524930 0.137252 0.799264
O O7 0.552565 0.139186 0.530758
O O8 0.180787 0.250000 0.927001
O O9 0.251618 0.366432 0.877953
O O10 0.113996 0.363761 0.931695
O O11 0.178081 0.750000 0.024522
O O12 0.274121 0.658959 0.116143
O O13 0.136185 0.624053 0.089425
O O14 0.101607 0.494353 0.010713
O O15 0.991781 0.410849 0.997453
O O16 0.055053 0.449780 0.754685
O O17 0.686597 0.750000 0.813311
O O18 0.614659 0.637213 0.784023
O O19 0.457004 0.250000 0.865918
#
# Coordination Sequence:
#
# PCOD8181192 Si02
#       8
#     8   8   8   8   8   8   8   8
#     4   9  18  30  47  73 106 140 176 220 265 309
#     4   9  16  25  37  61  97 140 179 210 254 310
#     4  10  19  35  57  78 104 141 178 216 265 314
#     4  10  21  35  55  80 108 139 177 223 266 312
#     4  11  24  40  60  79 107 140 172 216 263 317
#     4   9  16  30  47  69 101 137 174 215 263 309
#     4  11  24  41  59  80 107 139 174 214 264 317
#     4   9  16  24  38  60  96 140 178 212 254 312
#
# _framework density 18.680907999999999
#
# number of rings (size 3 to 8) (size 9 to 14) (size 15 to 20)
#    0.000    2.250    2.500    1.500    5.250    0.500 
#    0.000    0.000    0.000    0.000    0.000    0.000 
#    0.000    6.000    0.000    0.000    0.000    0.000 
#
# Total GULP energy -396498.672762 kJ/mol
# GULP energy per Si atom -12390.583524 kJ/mol
# Density = 1.863839 g / cm^3
# Si number density = 18.680908 Si / 1000 Ang^3
#
#
#
# Elastic Constant Matrix: (Units=GPa)
#
#
# Indices 1 2 3 4 5 6 
#
# 1 89.2256 30.7529 37.2041 0.0000 0.0000 0.0000
# 2 30.7529 25.6196 19.9200 0.0000 0.0000 0.0000
# 3 37.2041 19.9200 122.3392 0.0000 0.0000 0.0000
# 4 0.0000 0.0000 0.0000 15.1126 0.0000 0.0000
# 5 0.0000 0.0000 0.0000 0.0000 32.7692 0.0000
# 6 0.0000 0.0000 0.0000 0.0000 0.0000 3.6147
#
#
#
# Elastic Compliance Matrix: (Units=1/GPa)
#
#
# Indices 1 2 3 4 5 6 
#
# 1 0.019741 -0.021786 -0.002456 0.000000 0.000000 0.000000
# 2 -0.021786 0.068735 -0.004566 0.000000 0.000000 0.000000
# 3 -0.002456 -0.004566 0.009664 0.000000 0.000000 0.000000
# 4 0.000000 0.000000 0.000000 0.066170 0.000000 0.000000
# 5 0.000000 0.000000 0.000000 0.000000 0.030516 0.000000
# 6 0.000000 0.000000 0.000000 0.000000 0.000000 0.276646
#
#
# Mechanical properties :
#
#
# Convention : Reuss Voigt Hill
#
# Bulk Modulus (GPa) = 24.67771 45.88205 35.27988
# Shear Modulus (GPa) = 9.21495 20.25313 14.73404
#
# Velocity S-wave (km/s) = 2.22340 3.29623 2.81147
# Velocity P-wave (km/s) = 4.45311 6.25309 5.42823
#
# Compressibility (1/GPa) = 0.04052240
#
# Stress axis : x y z
#
# Youngs Moduli (GPa) = 50.65719 14.54866 103.47288
#
# Poissons Ratio (x) = 0.31696 0.25411
# Poissons Ratio (y) = 1.10364 0.47250
# Poissons Ratio (z) = 0.12440 0.06644
#
# Static dielectric constant tensor:
#      x y z
#    x 3.585760 0.000000 0.000000 
#    y 0.000000 2.840380 0.000000 
#    z 0.000000 0.000000 3.683580 
# 
# 
# High freq. dielectric constant tensor:
#      x y z
#    x 1.735670 0.000000 0.000000 
#    y 0.000000 1.650320 0.000000 
#    z 0.000000 0.000000 1.747270 
# 
# From -- ./inp_files/3853.got.cif
#   From: 2010.03.12/outbox.cif.g09.slc.cpg/sg39_2_cif.got.tgz:3853.got - 2010.04.14 02:53:20.
