data_PCOD8181080
_publ_section_title
;
Structure prediction by ZEFSAII (Michael W. Deem and Ramdas Pophale) SiO2 
 PCOD8181080
Probable space group: A B M 2
;
_chemical_formula_sum "Si O2"
_cell_formula_units_Z 64
_cell_length_a 16.703813
_cell_length_b 8.716165
_cell_length_c 22.661056
_cell_angle_alpha 90.000000
_cell_angle_beta 90.000000
_cell_angle_gamma 90.000000
_cell_volume 3299.295437
_symmetry_space_group_name_H-M "A B M 2"
_symmetry_group_IT_number 39
_symmetry_cell_setting 'orthorhombic'
loop_
_space_group_symop_operation_xyz
x,y,z
-x,-y,z
-x,1/2+y,z
x,1/2-y,z
x,1/2+y,1/2+z
-x,1/2-y,1/2+z
-x,y,1/2+z
x,-y,1/2+z
loop_
_atom_site_type_symbol
_atom_site_label
_atom_site_fract_x
_atom_site_fract_y
_atom_site_fract_z
Si Si1 0.586628 0.931343 0.507520
Si Si2 0.920628 0.569312 0.899878
Si Si3 0.216161 0.569765 0.317071
Si Si4 0.264903 0.575092 0.702061
Si Si5 0.084968 0.932320 0.533144
Si Si6 0.252195 0.570156 0.077775
Si Si7 0.623028 0.428395 0.382132
Si Si8 0.428157 0.423709 0.268145
O O1 0.579388 0.750000 0.514309
O O2 0.666435 0.989754 0.543938
O O3 0.500000 0.000000 0.529415
O O4 0.600150 0.974472 0.439499
O O5 0.922513 0.750000 0.899934
O O6 0.855113 0.505465 0.855953
O O7 0.000000 0.500000 0.872607
O O8 0.907220 0.509750 0.966059
O O9 0.214778 0.750000 0.303898
O O10 0.208148 0.482841 0.254749
O O11 0.289911 0.524591 0.358547
O O12 0.243260 0.750000 0.684702
O O13 0.261282 0.464108 0.646602
O O14 0.352984 0.558684 0.727018
O O15 0.080896 0.750000 0.540391
O O16 0.167921 0.990303 0.561338
O O17 0.000000 0.000000 0.559270
O O18 0.242853 0.750000 0.066513
O O19 0.615712 0.250000 0.398674
O O20 0.568252 0.473003 0.327295
O O21 0.500000 0.500000 0.230093
O O22 0.442939 0.250000 0.286707
#
# Coordination Sequence:
#
# PCOD8181080 Si02
#       8
#     8   8   8   8   8   8   8   8
#     4  11  24  39  56  81 114 151 191 235 285 341
#     4   9  18  32  53  83 115 144 173 211 263 323
#     4   9  18  34  55  79 108 142 179 220 270 328
#     4  10  22  38  56  78 104 139 184 231 276 326
#     4  10  20  37  62  91 121 151 187 230 279 336
#     4  11  24  41  60  82 111 150 194 240 287 335
#     4  10  19  33  55  80 108 142 180 226 280 335
#     4  10  20  34  53  78 107 139 178 225 278 334
#
# _framework density 19.39808
#
# number of rings (size 3 to 8) (size 9 to 14) (size 15 to 20)
#    0.000    2.000    0.000    3.375    0.000    6.500 
#    0.000    3.125    0.000    1.500    0.000    0.000 
#    0.000    0.000    0.000    0.000    0.000    0.000 
#
# Total GULP energy -396473.699203 kJ/mol
# GULP energy per Si atom -12389.803100 kJ/mol
# Density = 1.935393 g / cm^3
# Si number density = 19.398080 Si / 1000 Ang^3
#
#
#
# Elastic Constant Matrix: (Units=GPa)
#
#
# Indices 1 2 3 4 5 6 
#
# 1 139.1194 44.3733 51.0741 0.0000 0.0000 0.0000
# 2 44.3733 48.2120 30.7487 0.0000 0.0000 0.0000
# 3 51.0741 30.7487 73.4306 0.0000 0.0000 0.0000
# 4 0.0000 0.0000 0.0000 29.6694 0.0000 0.0000
# 5 0.0000 0.0000 0.0000 0.0000 24.5394 0.0000
# 6 0.0000 0.0000 0.0000 0.0000 0.0000 33.9095
#
#
#
# Elastic Compliance Matrix: (Units=1/GPa)
#
#
# Indices 1 2 3 4 5 6 
#
# 1 0.011281 -0.007339 -0.004774 0.000000 0.000000 0.000000
# 2 -0.007339 0.033073 -0.008745 0.000000 0.000000 0.000000
# 3 -0.004774 -0.008745 0.020601 0.000000 0.000000 0.000000
# 4 0.000000 0.000000 0.000000 0.033705 0.000000 0.000000
# 5 0.000000 0.000000 0.000000 0.000000 0.040751 0.000000
# 6 0.000000 0.000000 0.000000 0.000000 0.000000 0.029490
#
#
# Mechanical properties :
#
#
# Convention : Reuss Voigt Hill
#
# Bulk Modulus (GPa) = 43.02786 57.01712 50.02249
# Shear Modulus (GPa) = 22.89773 26.59473 24.74623
#
# Velocity S-wave (km/s) = 3.43944 3.70672 3.57558
# Velocity P-wave (km/s) = 6.16463 6.91207 6.54902
#
# Compressibility (1/GPa) = 0.02324075
#
# Stress axis : x y z
#
# Youngs Moduli (GPa) = 88.64246 30.23581 48.54243
#
# Poissons Ratio (x) = 0.22189 0.23172
# Poissons Ratio (y) = 0.65050 0.42451
# Poissons Ratio (z) = 0.42315 0.26441
#
# Static dielectric constant tensor:
#      x y z
#    x 3.828510 0.000000 0.000000 
#    y 0.000000 3.557080 0.000000 
#    z 0.000000 0.000000 3.498540 
# 
# 
# High freq. dielectric constant tensor:
#      x y z
#    x 1.770890 0.000000 0.000000 
#    y 0.000000 1.758900 0.000000 
#    z 0.000000 0.000000 1.741010 
# 
# From -- ./inp_files/16211.got.cif
#   From: 2010.03.12/outbox.cif.g09.slc.cpg/sg39_9_cif.got.tgz:16211.got - 2010.04.14 02:53:20.
