data_PCOD8181419
_publ_section_title
;
Structure prediction by ZEFSAII (Michael W. Deem and Ramdas Pophale) SiO2 
 PCOD8181419
Probable space group: A B M 2
;
_chemical_formula_sum "Si O2"
_cell_formula_units_Z 64
_cell_length_a 8.612060
_cell_length_b 19.670811
_cell_length_c 19.404157
_cell_angle_alpha 90.000000
_cell_angle_beta 90.000000
_cell_angle_gamma 90.000000
_cell_volume 3287.184590
_symmetry_space_group_name_H-M "A B M 2"
_symmetry_group_IT_number 39
_symmetry_cell_setting 'orthorhombic'
loop_
_space_group_symop_operation_xyz
x,y,z
-x,-y,z
-x,1/2+y,z
x,1/2-y,z
x,1/2+y,1/2+z
-x,1/2-y,1/2+z
-x,y,1/2+z
x,-y,1/2+z
loop_
_atom_site_type_symbol
_atom_site_label
_atom_site_fract_x
_atom_site_fract_y
_atom_site_fract_z
Si Si1 0.699743 0.541467 0.295160
Si Si2 0.824001 0.324825 0.331138
Si Si3 0.063038 0.631932 0.723553
Si Si4 0.672259 0.823073 0.135963
Si Si5 0.164635 0.537302 0.414392
Si Si6 0.560426 0.869838 0.740252
Si Si7 0.660534 0.459945 0.556735
Si Si8 0.202518 0.549296 0.173466
O O1 0.818594 0.602807 0.280325
O O2 0.719741 0.512166 0.372052
O O3 0.524304 0.565549 0.278189
O O4 0.754751 0.480876 0.247312
O O5 0.838360 0.250000 0.367336
O O6 0.859720 0.387191 0.382566
O O7 0.650367 0.330582 0.300656
O O8 0.939927 0.324026 0.265804
O O9 0.151496 0.673473 0.664212
O O10 0.975976 0.572975 0.678597
O O11 0.651934 0.750000 0.098040
O O12 0.567425 0.822819 0.204715
O O13 0.627270 0.884388 0.085130
O O14 0.243773 0.547105 0.487560
O O15 0.000000 0.500000 0.421496
O O16 0.672275 0.889425 0.675019
O O17 0.500000 0.500000 0.546007
O O18 0.770510 0.498816 0.610626
#
# Coordination Sequence:
#
# PCOD8181419 Si02
#       8
#     8   8   8   8   8   8   8   8
#     4  11  18  35  63  90 116 147 202 256 310 344
#     4  11  23  39  60  91 128 163 199 247 311 369
#     4  10  20  34  64  93 119 153 197 254 302 365
#     4  11  23  39  60  91 128 163 199 247 311 369
#     4  12  26  40  62  90 120 161 210 256 303 363
#     4  10  20  34  64  93 119 153 197 254 302 365
#     4  12  26  40  62  90 120 161 210 256 303 363
#     4  11  18  35  63  90 116 147 202 256 310 344
#
# _framework density 19.469549000000001
#
# number of rings (size 3 to 8) (size 9 to 14) (size 15 to 20)
#    0.000    1.000    7.500    1.500    3.500    0.500 
#    0.000    0.000    0.000    0.750    0.000    0.000 
#    0.000    0.000    0.000    0.000    0.000    0.000 
#
# Total GULP energy -396552.174938 kJ/mol
# GULP energy per Si atom -12392.255467 kJ/mol
# Density = 1.942523 g / cm^3
# Si number density = 19.469549 Si / 1000 Ang^3
#
#
#
# Elastic Constant Matrix: (Units=GPa)
#
#
# Indices 1 2 3 4 5 6 
#
# 1 83.5511 34.3260 38.8076 0.0000 0.0000 0.0000
# 2 34.3260 137.1665 44.7728 0.0000 0.0000 0.0000
# 3 38.8076 44.7728 89.8579 0.0000 0.0000 0.0000
# 4 0.0000 0.0000 0.0000 13.4975 0.0000 0.0000
# 5 0.0000 0.0000 0.0000 0.0000 25.3105 0.0000
# 6 0.0000 0.0000 0.0000 0.0000 0.0000 13.4376
#
#
#
# Elastic Compliance Matrix: (Units=1/GPa)
#
#
# Indices 1 2 3 4 5 6 
#
# 1 0.015424 -0.002013 -0.005658 0.000000 0.000000 0.000000
# 2 -0.002013 0.008969 -0.003600 0.000000 0.000000 0.000000
# 3 -0.005658 -0.003600 0.015366 0.000000 0.000000 0.000000
# 4 0.000000 0.000000 0.000000 0.074088 0.000000 0.000000
# 5 0.000000 0.000000 0.000000 0.000000 0.039509 0.000000
# 6 0.000000 0.000000 0.000000 0.000000 0.000000 0.074418
#
#
# Mechanical properties :
#
#
# Convention : Reuss Voigt Hill
#
# Bulk Modulus (GPa) = 58.08123 60.70981 59.39552
# Shear Modulus (GPa) = 19.52705 23.29370 21.41037
#
# Velocity S-wave (km/s) = 3.17038 3.46268 3.31975
# Velocity P-wave (km/s) = 6.58015 6.87288 6.72811
#
# Compressibility (1/GPa) = 0.01721727
#
# Stress axis : x y z
#
# Youngs Moduli (GPa) = 64.83474 111.49379 65.07902
#
# Poissons Ratio (x) = 0.22443 0.36823
# Poissons Ratio (y) = 0.13051 0.23426
# Poissons Ratio (z) = 0.36685 0.40134
#
# Static dielectric constant tensor:
#      x y z
#    x 4.045980 0.000000 0.000000 
#    y 0.000000 3.555170 0.000000 
#    z 0.000000 0.000000 3.288090 
# 
# 
# High freq. dielectric constant tensor:
#      x y z
#    x 1.780230 0.000000 0.000000 
#    y 0.000000 1.755660 0.000000 
#    z 0.000000 0.000000 1.718810 
# 
# From -- ./inp_files/14284.got.cif
#   From: 2010.03.12/outbox.cif.g09.slc.cpg/sg39_8_cif.got.tgz:14284.got - 2010.04.14 02:53:20.
