data_PCOD8181418
_publ_section_title
;
Structure prediction by ZEFSAII (Michael W. Deem and Ramdas Pophale) SiO2 
 PCOD8181418
Probable space group: A B M 2
;
_chemical_formula_sum "Si O2"
_cell_formula_units_Z 52
_cell_length_a 22.744899
_cell_length_b 12.762455
_cell_length_c 8.931011
_cell_angle_alpha 90.000000
_cell_angle_beta 90.000000
_cell_angle_gamma 90.000000
_cell_volume 2592.500571
_symmetry_space_group_name_H-M "A B M 2"
_symmetry_group_IT_number 39
_symmetry_cell_setting 'orthorhombic'
loop_
_space_group_symop_operation_xyz
x,y,z
-x,-y,z
-x,1/2+y,z
x,1/2-y,z
x,1/2+y,1/2+z
-x,1/2-y,1/2+z
-x,y,1/2+z
x,-y,1/2+z
loop_
_atom_site_type_symbol
_atom_site_label
_atom_site_fract_x
_atom_site_fract_y
_atom_site_fract_z
Si Si1 0.573801 0.873806 0.723220
Si Si2 0.732764 0.008178 0.528735
Si Si3 0.935483 0.371222 0.274805
Si Si4 0.000000 0.000000 0.524824
Si Si5 0.652678 0.551316 0.279135
Si Si6 0.203292 0.129377 0.772165
Si Si7 0.462557 0.629161 0.899645
O O1 0.582861 0.750000 0.725764
O O2 0.524000 0.918141 0.837376
O O3 0.554151 0.916912 0.560708
O O4 0.635418 0.927365 0.767506
O O5 0.691231 0.081234 0.633870
O O6 0.771976 0.083817 0.427373
O O7 0.691916 0.932641 0.427018
O O8 0.773102 0.933921 0.629685
O O9 0.955069 0.250000 0.274146
O O10 0.866049 0.383194 0.275883
O O11 0.959706 0.425716 0.423698
O O12 0.959313 0.426314 0.125897
O O13 0.592215 0.616657 0.284707
O O14 0.222248 0.250000 0.756799
O O15 0.476627 0.750000 0.916193
#
# Coordination Sequence:
#
# PCOD8181418 Si02
#       7
#     8   8   8   4   8   8   8
#     4  10  22  38  56  78 107 142 177 226 298 369
#     4  10  23  38  58  87 110 147 211 243 292 354
#     4  10  20  36  60  90 125 167 204 239 298 349
#     4  10  20  34  60  96 132 160 196 256 286 340
#     4  11  21  37  58  80 108 142 182 245 291 347
#     4  10  22  42  63  84 122 165 200 250 296 340
#     4  10  22  37  54  79 107 138 177 224 291 368
#
# _framework density 20.057856000000001
#
# number of rings (size 3 to 8) (size 9 to 14) (size 15 to 20)
#    0.000    1.846    1.538    1.846    2.154    4.923 
#    0.000    2.308    0.000   12.923    0.000    0.000 
#    0.000    0.000    0.000    0.000    0.000    0.000 
#
# Total GULP energy -322387.585614 kJ/mol
# GULP energy per Si atom -12399.522524 kJ/mol
# Density = 2.001220 g / cm^3
# Si number density = 20.057856 Si / 1000 Ang^3
#
#
#
# Elastic Constant Matrix: (Units=GPa)
#
#
# Indices 1 2 3 4 5 6 
#
# 1 93.3926 42.5968 49.3149 0.0000 0.0000 0.0000
# 2 42.5968 89.4633 49.5862 0.0000 0.0000 0.0000
# 3 49.3149 49.5862 137.2188 0.0000 0.0000 0.0000
# 4 0.0000 0.0000 0.0000 25.7128 0.0000 0.0000
# 5 0.0000 0.0000 0.0000 0.0000 30.2070 0.0000
# 6 0.0000 0.0000 0.0000 0.0000 0.0000 29.2746
#
#
#
# Elastic Compliance Matrix: (Units=1/GPa)
#
#
# Indices 1 2 3 4 5 6 
#
# 1 0.014905 -0.005162 -0.003492 0.000000 0.000000 0.000000
# 2 -0.005162 0.015765 -0.003842 0.000000 0.000000 0.000000
# 3 -0.003492 -0.003842 0.009931 0.000000 0.000000 0.000000
# 4 0.000000 0.000000 0.000000 0.038891 0.000000 0.000000
# 5 0.000000 0.000000 0.000000 0.000000 0.033105 0.000000
# 6 0.000000 0.000000 0.000000 0.000000 0.000000 0.034159
#
#
# Mechanical properties :
#
#
# Convention : Reuss Voigt Hill
#
# Bulk Modulus (GPa) = 64.05833 67.00785 65.53309
# Shear Modulus (GPa) = 28.25651 28.94400 28.60025
#
# Velocity S-wave (km/s) = 3.75740 3.80284 3.78019
# Velocity P-wave (km/s) = 7.12953 7.26374 7.19695
#
# Compressibility (1/GPa) = 0.01561077
#
# Stress axis : x y z
#
# Youngs Moduli (GPa) = 67.08934 63.43218 100.69734
#
# Poissons Ratio (x) = 0.32743 0.35159
# Poissons Ratio (y) = 0.34630 0.38686
# Poissons Ratio (z) = 0.23425 0.24369
#
# Static dielectric constant tensor:
#      x y z
#    x 3.709660 0.000000 0.000000 
#    y 0.000000 3.532110 0.000000 
#    z 0.000000 0.000000 3.943850 
# 
# 
# High freq. dielectric constant tensor:
#      x y z
#    x 1.789280 0.000000 0.000000 
#    y 0.000000 1.777490 0.000000 
#    z 0.000000 0.000000 1.796640 
# 
# From -- ./inp_files/3942.got.cif
#   From: 2010.03.12/outbox.cif.g09.slc.cpg/sg39_2_cif.got.tgz:3942.got - 2010.04.14 02:53:20.
