data_PCOD8181339
_publ_section_title
;
Structure prediction by ZEFSAII (Michael W. Deem and Ramdas Pophale) SiO2 
 PCOD8181339
Probable space group: A B M 2
;
_chemical_formula_sum "Si O2"
_cell_formula_units_Z 60
_cell_length_a 14.661444
_cell_length_b 26.804958
_cell_length_c 8.909625
_cell_angle_alpha 90.000000
_cell_angle_beta 90.000000
_cell_angle_gamma 90.000000
_cell_volume 3501.477196
_symmetry_space_group_name_H-M "A B M 2"
_symmetry_group_IT_number 39
_symmetry_cell_setting 'orthorhombic'
loop_
_space_group_symop_operation_xyz
x,y,z
-x,-y,z
-x,1/2+y,z
x,1/2-y,z
x,1/2+y,1/2+z
-x,1/2-y,1/2+z
-x,y,1/2+z
x,-y,1/2+z
loop_
_atom_site_type_symbol
_atom_site_label
_atom_site_fract_x
_atom_site_fract_y
_atom_site_fract_z
Si Si1 0.084011 0.060156 0.535680
Si Si2 0.500000 0.500000 0.688426
Si Si3 0.035391 0.306056 0.993467
Si Si4 0.913047 0.592942 0.863935
Si Si5 0.232973 0.600725 0.824097
Si Si6 0.129597 0.694757 0.800841
Si Si7 0.786805 0.530952 0.038870
Si Si8 0.377276 0.461103 0.445358
O O1 0.068371 0.090119 0.688449
O O2 0.146144 0.091329 0.425376
O O3 0.986309 0.058960 0.454421
O O4 0.129625 0.006888 0.573032
O O5 0.449606 0.459175 0.581536
O O6 0.572984 0.471682 0.788866
O O7 0.065750 0.250000 0.941602
O O8 0.091359 0.348924 0.907795
O O9 0.927506 0.313393 0.955458
O O10 0.054002 0.312912 0.170206
O O11 0.815558 0.568766 0.906419
O O12 0.217029 0.658246 0.777479
O O13 0.235410 0.561931 0.687659
O O14 0.325315 0.591877 0.921824
O O15 0.172289 0.750000 0.795119
O O16 0.696773 0.503776 0.979744
#
# Coordination Sequence:
#
# PCOD8181339 Si02
#       8
#     8   4   8   8   8   8   8   8
#     4  11  23  32  47  69 101 144 183 212 259 312
#     4  10  20  38  58  80 106 138 164 200 260 334
#     4  10  20  34  50  68  95 140 196 235 264 296
#     4  12  21  34  48  69 100 146 183 223 263 303
#     4  11  20  36  52  77 107 137 177 220 265 307
#     4  10  20  35  52  71  99 142 190 235 268 302
#     4  11  22  35  49  73 108 138 172 214 252 313
#     4  10  21  36  57  80 109 135 167 207 257 323
#
# _framework density 17.135625000000001
#
# number of rings (size 3 to 8) (size 9 to 14) (size 15 to 20)
#    0.000    1.333    4.000    3.600    1.867    1.067 
#    0.000    0.000    0.000    0.000    0.000    0.933 
#    0.000    0.000    0.000    0.000    0.000    0.000 
#
# Total GULP energy -371785.038983 kJ/mol
# GULP energy per Si atom -12392.834633 kJ/mol
# Density = 1.709662 g / cm^3
# Si number density = 17.135625 Si / 1000 Ang^3
#
#
#
# Elastic Constant Matrix: (Units=GPa)
#
#
# Indices 1 2 3 4 5 6 
#
# 1 80.0779 47.6638 42.6148 0.0000 0.0000 0.0000
# 2 47.6638 106.1971 21.0275 0.0000 0.0000 0.0000
# 3 42.6148 21.0275 91.5716 0.0000 0.0000 0.0000
# 4 0.0000 0.0000 0.0000 18.6089 0.0000 0.0000
# 5 0.0000 0.0000 0.0000 0.0000 28.6883 0.0000
# 6 0.0000 0.0000 0.0000 0.0000 0.0000 5.1155
#
#
#
# Elastic Compliance Matrix: (Units=1/GPa)
#
#
# Indices 1 2 3 4 5 6 
#
# 1 0.021696 -0.008107 -0.008235 0.000000 0.000000 0.000000
# 2 -0.008107 0.012894 0.000812 0.000000 0.000000 0.000000
# 3 -0.008235 0.000812 0.014566 0.000000 0.000000 0.000000
# 4 0.000000 0.000000 0.000000 0.053738 0.000000 0.000000
# 5 0.000000 0.000000 0.000000 0.000000 0.034857 0.000000
# 6 0.000000 0.000000 0.000000 0.000000 0.000000 0.195484
#
#
# Mechanical properties :
#
#
# Convention : Reuss Voigt Hill
#
# Bulk Modulus (GPa) = 55.26045 55.60652 55.43349
# Shear Modulus (GPa) = 13.50154 21.58523 17.54339
#
# Velocity S-wave (km/s) = 2.81004 3.55303 3.20315
# Velocity P-wave (km/s) = 6.54579 7.02519 6.78972
#
# Compressibility (1/GPa) = 0.01809612
#
# Stress axis : x y z
#
# Youngs Moduli (GPa) = 46.09228 77.55361 68.65163
#
# Poissons Ratio (x) = 0.62872 0.56534
# Poissons Ratio (y) = 0.37367 -0.05573
# Poissons Ratio (z) = 0.37957 -0.06296
#
# Static dielectric constant tensor:
#      x y z
#    x 3.108290 0.000000 0.000000 
#    y 0.000000 3.292990 0.000000 
#    z 0.000000 0.000000 3.386300 
# 
# 
# High freq. dielectric constant tensor:
#      x y z
#    x 1.628970 0.000000 0.000000 
#    y 0.000000 1.650720 0.000000 
#    z 0.000000 0.000000 1.677810 
# 
# From -- ./inp_files/3547.got.cif
#   From: 2010.03.12/outbox.cif.g09.slc.cpg/sg39_2_cif.got.tgz:3547.got - 2010.04.14 02:53:20.
