data_PCOD8181691
_publ_section_title
;
Structure prediction by ZEFSAII (Michael W. Deem and Ramdas Pophale) SiO2 
 PCOD8181691
Probable space group: A B M 2
;
_chemical_formula_sum "Si O2"
_cell_formula_units_Z 64
_cell_length_a 24.440503
_cell_length_b 8.596677
_cell_length_c 14.546298
_cell_angle_alpha 90.000000
_cell_angle_beta 90.000000
_cell_angle_gamma 90.000000
_cell_volume 3056.280634
_symmetry_space_group_name_H-M "A B M 2"
_symmetry_group_IT_number 39
_symmetry_cell_setting 'orthorhombic'
loop_
_space_group_symop_operation_xyz
x,y,z
-x,-y,z
-x,1/2+y,z
x,1/2-y,z
x,1/2+y,1/2+z
-x,1/2-y,1/2+z
-x,y,1/2+z
x,-y,1/2+z
loop_
_atom_site_type_symbol
_atom_site_label
_atom_site_fract_x
_atom_site_fract_y
_atom_site_fract_z
Si Si1 0.254766 0.072150 0.964130
Si Si2 0.126693 0.065844 0.302726
Si Si3 0.441804 0.567594 0.099777
Si Si4 0.242568 0.069880 0.271739
Si Si5 0.850515 0.433364 0.011706
Si Si6 0.625071 0.071255 0.441352
Si Si7 0.941731 0.932524 0.652449
Si Si8 0.359939 0.934254 0.744099
O O1 0.243682 0.250000 0.933947
O O2 0.317564 0.056240 0.999027
O O3 0.249017 0.954390 0.880150
O O4 0.207843 0.017712 0.036514
O O5 0.120669 0.250000 0.293613
O O6 0.181904 0.003950 0.248152
O O7 0.129625 0.017959 0.409523
O O8 0.074799 0.984982 0.255372
O O9 0.500000 0.500000 0.129776
O O10 0.445914 0.750000 0.084468
O O11 0.399691 0.531254 0.180457
O O12 0.423667 0.487858 0.005084
O O13 0.242178 0.250000 0.250255
O O14 0.297380 0.003739 0.222574
O O15 0.842105 0.250000 0.021231
O O16 0.896585 0.496305 0.080998
O O17 0.614501 0.250000 0.413884
O O18 0.625523 0.968276 0.349757
O O19 0.946150 0.750000 0.647770
O O20 0.000000 0.000000 0.624297
O O21 0.365945 0.750000 0.725491
#
# Coordination Sequence:
#
# PCOD8181691 Si02
#       8
#     8   8   8   8   8   8   8   8
#     4   9  17  30  55  88 118 146 182 226 275 332
#     4   9  18  36  59  83 112 146 180 221 273 328
#     4  12  26  43  61  84 114 153 200 247 291 341
#     4   8  16  32  56  84 117 151 182 220 275 337
#     4   9  20  38  58  81 113 148 182 223 277 334
#     4  10  21  39  61  89 122 155 192 236 285 342
#     4  11  24  40  56  78 107 143 188 235 277 327
#     4  10  20  38  63  91 121 154 190 234 288 345
#
# _framework density 20.940484999999999
#
# number of rings (size 3 to 8) (size 9 to 14) (size 15 to 20)
#    0.000    2.250    0.000    3.375    0.000    7.000 
#    0.000    7.500    0.000    0.000    0.000    0.000 
#    0.000    0.000    0.000    0.000    0.000    0.000 
#
# Total GULP energy -396567.852335 kJ/mol
# GULP energy per Si atom -12392.745385 kJ/mol
# Density = 2.089282 g / cm^3
# Si number density = 20.940485 Si / 1000 Ang^3
#
#
#
# Elastic Constant Matrix: (Units=GPa)
#
#
# Indices 1 2 3 4 5 6 
#
# 1 102.7854 25.8735 13.1774 0.0000 0.0000 0.0000
# 2 25.8735 47.2584 9.6767 0.0000 0.0000 0.0000
# 3 13.1774 9.6767 32.7757 0.0000 0.0000 0.0000
# 4 0.0000 0.0000 0.0000 26.2922 0.0000 0.0000
# 5 0.0000 0.0000 0.0000 0.0000 28.1140 0.0000
# 6 0.0000 0.0000 0.0000 0.0000 0.0000 33.3403
#
#
#
# Elastic Compliance Matrix: (Units=1/GPa)
#
#
# Indices 1 2 3 4 5 6 
#
# 1 0.011547 -0.005717 -0.002955 0.000000 0.000000 0.000000
# 2 -0.005717 0.025352 -0.005187 0.000000 0.000000 0.000000
# 3 -0.002955 -0.005187 0.033230 0.000000 0.000000 0.000000
# 4 0.000000 0.000000 0.000000 0.038034 0.000000 0.000000
# 5 0.000000 0.000000 0.000000 0.000000 0.035569 0.000000
# 6 0.000000 0.000000 0.000000 0.000000 0.000000 0.029994
#
#
# Mechanical properties :
#
#
# Convention : Reuss Voigt Hill
#
# Bulk Modulus (GPa) = 23.57783 31.14164 27.35974
# Shear Modulus (GPa) = 23.19333 26.48877 24.84105
#
# Velocity S-wave (km/s) = 3.33165 3.56048 3.44796
# Velocity P-wave (km/s) = 5.10722 5.63972 5.38006
#
# Compressibility (1/GPa) = 0.04241272
#
# Stress axis : x y z
#
# Youngs Moduli (GPa) = 86.60381 39.44441 30.09366
#
# Poissons Ratio (x) = 0.22550 0.08891
# Poissons Ratio (y) = 0.49510 0.15608
# Poissons Ratio (z) = 0.25588 0.20458
#
# Static dielectric constant tensor:
#      x y z
#    x 4.264960 0.000000 0.000000 
#    y 0.000000 3.624530 0.000000 
#    z 0.000000 0.000000 3.566050 
# 
# 
# High freq. dielectric constant tensor:
#      x y z
#    x 1.831880 0.000000 0.000000 
#    y 0.000000 1.813640 0.000000 
#    z 0.000000 0.000000 1.801700 
# 
# From -- ./inp_files/10606.got.cif
#   From: 2010.03.12/outbox.cif.g09.slc.cpg/sg39_6_cif.got.tgz:10606.got - 2010.04.14 02:53:20.
