data_PCOD8181893
_publ_section_title
;
Structure prediction by ZEFSAII (Michael W. Deem and Ramdas Pophale) SiO2 
 PCOD8181893
Probable space group: A B M 2
;
_chemical_formula_sum "Si O2"
_cell_formula_units_Z 56
_cell_length_a 15.332834
_cell_length_b 8.951237
_cell_length_c 20.353656
_cell_angle_alpha 90.000000
_cell_angle_beta 90.000000
_cell_angle_gamma 90.000000
_cell_volume 2793.495139
_symmetry_space_group_name_H-M "A B M 2"
_symmetry_group_IT_number 39
_symmetry_cell_setting 'orthorhombic'
loop_
_space_group_symop_operation_xyz
x,y,z
-x,-y,z
-x,1/2+y,z
x,1/2-y,z
x,1/2+y,1/2+z
-x,1/2-y,1/2+z
-x,y,1/2+z
x,-y,1/2+z
loop_
_atom_site_type_symbol
_atom_site_label
_atom_site_fract_x
_atom_site_fract_y
_atom_site_fract_z
Si Si1 0.271088 0.424068 0.844110
Si Si2 0.088469 0.572110 0.659156
Si Si3 0.669859 0.427079 0.480499
Si Si4 0.412280 0.073268 0.598536
Si Si5 0.860092 0.923269 0.018887
Si Si6 0.915906 0.577053 0.877750
Si Si7 0.263622 0.075382 0.699314
O O1 0.257379 0.250000 0.859149
O O2 0.335147 0.479028 0.903174
O O3 0.173515 0.493719 0.849343
O O4 0.307976 0.454851 0.771197
O O5 0.082095 0.750000 0.664356
O O6 0.097727 0.507883 0.584549
O O7 0.173863 0.516305 0.697728
O O8 0.000000 0.500000 0.688760
O O9 0.654818 0.250000 0.488796
O O10 0.599064 0.514346 0.523937
O O11 0.762965 0.484878 0.507097
O O12 0.421955 0.250000 0.599194
O O13 0.331887 0.020194 0.644504
O O14 0.500000 0.000000 0.627575
O O15 0.849405 0.750000 0.031866
O O16 0.919644 0.955433 0.955909
O O17 0.922788 0.750000 0.860797
O O18 0.000000 0.500000 0.844845
O O19 0.241934 0.250000 0.690922
#
# Coordination Sequence:
#
# PCOD8181893 Si02
#       7
#     8   8   8   8   8   8   8
#     4   8  17  34  57  78 106 148 185 225 280 333
#     4  11  21  33  51  78 113 154 197 239 285 333
#     4   9  16  34  61  84 108 141 182 228 282 337
#     4  11  23  38  61  89 116 145 183 231 284 343
#     4   8  15  28  48  73 103 139 179 225 279 327
#     4   9  16  28  46  70 100 138 183 228 272 320
#     4  10  21  39  58  82 115 152 193 233 279 337
#
# _framework density 20.046571
#
# number of rings (size 3 to 8) (size 9 to 14) (size 15 to 20)
#    0.000    2.571    1.429    3.000    0.000    1.143 
#    0.000    7.143    0.000    1.714    0.000    0.000 
#    0.000    0.000    0.000    0.000    0.000    0.000 
#
# Total GULP energy -346970.510072 kJ/mol
# GULP energy per Si atom -12391.803931 kJ/mol
# Density = 2.000094 g / cm^3
# Si number density = 20.046571 Si / 1000 Ang^3
#
#
#
# Elastic Constant Matrix: (Units=GPa)
#
#
# Indices 1 2 3 4 5 6 
#
# 1 89.9472 36.1063 30.9982 0.0000 0.0000 0.0000
# 2 36.1063 55.4344 30.0990 0.0000 0.0000 0.0000
# 3 30.9982 30.0990 110.9490 0.0000 0.0000 0.0000
# 4 0.0000 0.0000 0.0000 19.1342 0.0000 0.0000
# 5 0.0000 0.0000 0.0000 0.0000 11.5859 0.0000
# 6 0.0000 0.0000 0.0000 0.0000 0.0000 29.2934
#
#
#
# Elastic Compliance Matrix: (Units=1/GPa)
#
#
# Indices 1 2 3 4 5 6 
#
# 1 0.015371 -0.009007 -0.001851 0.000000 0.000000 0.000000
# 2 -0.009007 0.026433 -0.004655 0.000000 0.000000 0.000000
# 3 -0.001851 -0.004655 0.010793 0.000000 0.000000 0.000000
# 4 0.000000 0.000000 0.000000 0.052262 0.000000 0.000000
# 5 0.000000 0.000000 0.000000 0.000000 0.086312 0.000000
# 6 0.000000 0.000000 0.000000 0.000000 0.000000 0.034137
#
#
# Mechanical properties :
#
#
# Convention : Reuss Voigt Hill
#
# Bulk Modulus (GPa) = 46.35544 50.08195 48.21870
# Shear Modulus (GPa) = 18.97360 22.61117 20.79239
#
# Velocity S-wave (km/s) = 3.07982 3.36211 3.22406
# Velocity P-wave (km/s) = 5.98508 6.33315 6.16157
#
# Compressibility (1/GPa) = 0.02157244
#
# Stress axis : x y z
#
# Youngs Moduli (GPa) = 65.05771 37.83167 92.65207
#
# Poissons Ratio (x) = 0.34073 0.17151
# Poissons Ratio (y) = 0.58594 0.43125
# Poissons Ratio (z) = 0.12043 0.17609
#
# Static dielectric constant tensor:
#      x y z
#    x 3.489910 0.000000 0.000000 
#    y 0.000000 3.201900 0.000000 
#    z 0.000000 0.000000 3.843050 
# 
# 
# High freq. dielectric constant tensor:
#      x y z
#    x 1.764840 0.000000 0.000000 
#    y 0.000000 1.745610 0.000000 
#    z 0.000000 0.000000 1.788480 
# 
# From -- ./inp_files/14759.got.cif
#   From: 2010.03.12/outbox.cif.g09.slc.cpg/sg39_8_cif.got.tgz:14759.got - 2010.04.14 02:53:20.
