data_PCOD8181796
_publ_section_title
;
Structure prediction by ZEFSAII (Michael W. Deem and Ramdas Pophale) SiO2 
 PCOD8181796
Probable space group: A B M 2
;
_chemical_formula_sum "Si O2"
_cell_formula_units_Z 48
_cell_length_a 13.370115
_cell_length_b 17.756388
_cell_length_c 8.714621
_cell_angle_alpha 90.000000
_cell_angle_beta 90.000000
_cell_angle_gamma 90.000000
_cell_volume 2068.894159
_symmetry_space_group_name_H-M "A B M 2"
_symmetry_group_IT_number 39
_symmetry_cell_setting 'orthorhombic'
loop_
_space_group_symop_operation_xyz
x,y,z
-x,-y,z
-x,1/2+y,z
x,1/2-y,z
x,1/2+y,1/2+z
-x,1/2-y,1/2+z
-x,y,1/2+z
x,-y,1/2+z
loop_
_atom_site_type_symbol
_atom_site_label
_atom_site_fract_x
_atom_site_fract_y
_atom_site_fract_z
Si Si1 0.962427 0.750000 0.407890
Si Si2 0.140520 0.603593 0.808327
Si Si3 0.360157 0.337571 0.269016
Si Si4 0.147812 0.750000 0.226786
Si Si5 0.272107 0.100226 0.771702
Si Si6 0.447258 0.662332 0.441993
Si Si7 0.180967 0.990594 0.544353
O O1 0.921338 0.821027 0.314675
O O2 0.929363 0.750000 0.583772
O O3 0.082677 0.750000 0.384631
O O4 0.260521 0.615403 0.799510
O O5 0.108682 0.556554 0.657600
O O6 0.114846 0.552504 0.955780
O O7 0.330661 0.250000 0.261628
O O8 0.435365 0.353619 0.411248
O O9 0.414169 0.363474 0.111530
O O10 0.214892 0.675644 0.217124
O O11 0.386762 0.119526 0.807834
O O12 0.265387 0.035904 0.642287
O O13 0.227377 0.070035 0.930426
O O14 0.423770 0.750000 0.420246
#
# Coordination Sequence:
#
# PCOD8181796 Si02
#       7
#     4   8   8   4   8   8   8
#     4  12  28  46  75 104 127 166 223 278 328 390
#     4  11  22  46  67  97 135 177 221 271 328 389
#     4  10  21  36  62  97 131 177 226 277 326 378
#     4  12  28  46  75 104 127 166 223 278 328 390
#     4  11  22  46  67  97 135 177 221 271 328 389
#     4  10  21  36  62  97 131 177 226 277 326 378
#     4  10  24  40  70  94 138 182 212 264 340 398
#
# _framework density 23.200800000000001
#
# number of rings (size 3 to 8) (size 9 to 14) (size 15 to 20)
#    0.000    1.333    5.000    0.000    4.667    0.000 
#    0.000   10.000    0.000    0.000    0.000    0.000 
#    0.000    0.000    0.000    0.000    0.000    0.000 
#
# Total GULP energy -297565.161765 kJ/mol
# GULP energy per Si atom -12398.548407 kJ/mol
# Density = 2.314799 g / cm^3
# Si number density = 23.200800 Si / 1000 Ang^3
#
#
#
# Elastic Constant Matrix: (Units=GPa)
#
#
# Indices 1 2 3 4 5 6 
#
# 1 40.8993 11.9611 -4.4165 0.0000 0.0000 0.0000
# 2 11.9611 109.4700 28.8699 0.0000 0.0000 0.0000
# 3 -4.4165 28.8699 93.6497 0.0000 0.0000 0.0000
# 4 0.0000 0.0000 0.0000 40.9365 0.0000 0.0000
# 5 0.0000 0.0000 0.0000 0.0000 26.2845 0.0000
# 6 0.0000 0.0000 0.0000 0.0000 0.0000 -0.8037
#
#
#
# Elastic Compliance Matrix: (Units=1/GPa)
#
#
# Indices 1 2 3 4 5 6 
#
# 1 0.025690 -0.003403 0.002261 0.000000 0.000000 0.000000
# 2 -0.003403 0.010394 -0.003365 0.000000 0.000000 0.000000
# 3 0.002261 -0.003365 0.011822 0.000000 0.000000 0.000000
# 4 0.000000 0.000000 0.000000 0.024428 0.000000 0.000000
# 5 0.000000 0.000000 0.000000 0.000000 0.038045 0.000000
# 6 0.000000 0.000000 0.000000 0.000000 0.000000 -1.244197
#
#
# Mechanical properties :
#
#
# Convention : Reuss Voigt Hill
#
# Bulk Modulus (GPa) = 25.71273 35.20534 30.45904
# Shear Modulus (GPa) = -4.49705 27.12375 11.31335
#
# Velocity S-wave (km/s) = -1.39374 3.42290 2.21062
# Velocity P-wave (km/s) = 2.91834 5.55237 4.43540
#
# Compressibility (1/GPa) = 0.03889124
#
# Stress axis : x y z
#
# Youngs Moduli (GPa) = 38.92616 96.20824 84.58833
#
# Poissons Ratio (x) = 0.32741 -0.19122
# Poissons Ratio (y) = 0.13247 0.28462
# Poissons Ratio (z) = -0.08800 0.32372
#
# Static dielectric constant tensor:
#      x y z
#    x 3.784430 0.000000 0.000000 
#    y 0.000000 4.296850 0.000000 
#    z 0.000000 0.000000 4.402840 
# 
# 
# High freq. dielectric constant tensor:
#      x y z
#    x 1.887040 0.000000 0.000000 
#    y 0.000000 1.927440 0.000000 
#    z 0.000000 0.000000 1.931350 
# 
# From -- ./inp_files/3273.got.cif
#   From: 2010.03.12/outbox.cif.g09.slc.cpg/sg39_2_cif.got.tgz:3273.got - 2010.04.14 02:53:20.
