data_PCOD8181247
_publ_section_title
;
Structure prediction by ZEFSAII (Michael W. Deem and Ramdas Pophale) SiO2 
 PCOD8181247
Probable space group: A B M 2
;
_chemical_formula_sum "Si O2"
_cell_formula_units_Z 56
_cell_length_a 12.203852
_cell_length_b 14.137688
_cell_length_c 15.024757
_cell_angle_alpha 90.000000
_cell_angle_beta 90.000000
_cell_angle_gamma 90.000000
_cell_volume 2592.285210
_symmetry_space_group_name_H-M "A B M 2"
_symmetry_group_IT_number 39
_symmetry_cell_setting 'orthorhombic'
loop_
_space_group_symop_operation_xyz
x,y,z
-x,-y,z
-x,1/2+y,z
x,1/2-y,z
x,1/2+y,1/2+z
-x,1/2-y,1/2+z
-x,y,1/2+z
x,-y,1/2+z
loop_
_atom_site_type_symbol
_atom_site_label
_atom_site_fract_x
_atom_site_fract_y
_atom_site_fract_z
Si Si1 0.122327 0.137936 0.023840
Si Si2 0.357651 0.053840 0.033216
Si Si3 0.151988 0.138055 0.828064
Si Si4 0.929940 0.140073 0.144812
Si Si5 0.395913 0.638115 0.354542
Si Si6 0.696248 0.853034 0.563054
Si Si7 0.496120 0.144665 0.181807
O O1 0.128414 0.250000 0.032567
O O2 0.239469 0.097727 0.051005
O O3 0.031313 0.093447 0.090458
O O4 0.093029 0.110945 0.921289
O O5 0.425910 0.070463 0.124245
O O6 0.348132 0.942559 0.007471
O O7 0.425915 0.100990 0.953121
O O8 0.158725 0.250000 0.815241
O O9 0.084428 0.095196 0.743965
O O10 0.275772 0.096813 0.829548
O O11 0.956339 0.250000 0.154333
O O12 0.820281 0.124117 0.088919
O O13 0.390058 0.750000 0.360414
O O14 0.490821 0.608288 0.284039
O O15 0.689637 0.750000 0.512566
O O16 0.622271 0.846416 0.650960
O O17 0.441930 0.250000 0.177006
#
# Coordination Sequence:
#
# PCOD8181247 Si02
#       7
#     8   8   8   8   8   8   8
#     4   9  18  31  56  91 121 152 194 244 302 358
#     4  11  21  35  59  90 124 153 196 257 300 351
#     4   8  13  27  53  83 111 150 198 233 274 351
#     4   9  16  31  57  83 116 159 198 239 292 354
#     4   9  17  33  61  91 116 154 200 236 290 370
#     4  10  21  37  58  83 114 161 207 244 292 350
#     4  10  19  36  63  89 115 149 196 246 297 359
#
# _framework density 21.602561999999999
#
# number of rings (size 3 to 8) (size 9 to 14) (size 15 to 20)
#    0.000    2.571    1.429    2.571    0.000    0.571 
#    0.000    2.857    6.286    4.286    0.000    0.000 
#    0.000    0.000    0.000    0.000    0.000    0.000 
#
# Total GULP energy -346909.081709 kJ/mol
# GULP energy per Si atom -12389.610061 kJ/mol
# Density = 2.155339 g / cm^3
# Si number density = 21.602562 Si / 1000 Ang^3
#
#
#
# Elastic Constant Matrix: (Units=GPa)
#
#
# Indices 1 2 3 4 5 6 
#
# 1 101.3483 36.5613 62.0918 0.0000 0.0000 0.0000
# 2 36.5613 61.0933 50.7054 0.0000 0.0000 0.0000
# 3 62.0918 50.7054 150.0054 0.0000 0.0000 0.0000
# 4 0.0000 0.0000 0.0000 7.5605 0.0000 0.0000
# 5 0.0000 0.0000 0.0000 0.0000 36.6696 0.0000
# 6 0.0000 0.0000 0.0000 0.0000 0.0000 20.8218
#
#
#
# Elastic Compliance Matrix: (Units=1/GPa)
#
#
# Indices 1 2 3 4 5 6 
#
# 1 0.014259 -0.005052 -0.004195 0.000000 0.000000 0.000000
# 2 -0.005052 0.024541 -0.006204 0.000000 0.000000 0.000000
# 3 -0.004195 -0.006204 0.010500 0.000000 0.000000 0.000000
# 4 0.000000 0.000000 0.000000 0.132266 0.000000 0.000000
# 5 0.000000 0.000000 0.000000 0.000000 0.027271 0.000000
# 6 0.000000 0.000000 0.000000 0.000000 0.000000 0.048027
#
#
# Mechanical properties :
#
#
# Convention : Reuss Voigt Hill
#
# Bulk Modulus (GPa) = 54.35256 67.90711 61.12983
# Shear Modulus (GPa) = 17.01264 23.88294 20.44779
#
# Velocity S-wave (km/s) = 2.80934 3.32860 3.07993
# Velocity P-wave (km/s) = 5.97813 6.80263 6.40366
#
# Compressibility (1/GPa) = 0.01839840
#
# Stress axis : x y z
#
# Youngs Moduli (GPa) = 70.12910 40.74776 95.23882
#
# Poissons Ratio (x) = 0.20586 0.39949
# Poissons Ratio (y) = 0.35430 0.59089
# Poissons Ratio (z) = 0.29417 0.25281
#
# Static dielectric constant tensor:
#      x y z
#    x 3.842700 0.000000 0.000000 
#    y 0.000000 3.777170 0.000000 
#    z 0.000000 0.000000 4.023690 
# 
# 
# High freq. dielectric constant tensor:
#      x y z
#    x 1.833260 0.000000 0.000000 
#    y 0.000000 1.834810 0.000000 
#    z 0.000000 0.000000 1.834060 
# 
# From -- ./inp_files/9259.got.cif
#   From: 2010.03.12/outbox.cif.g09.slc.cpg/sg39_5_cif.got.tgz:9259.got - 2010.04.14 02:53:20.
