data_PCOD8181219
_publ_section_title
;
Structure prediction by ZEFSAII (Michael W. Deem and Ramdas Pophale) SiO2 
 PCOD8181219
Probable space group: A B M 2
;
_chemical_formula_sum "Si O2"
_cell_formula_units_Z 64
_cell_length_a 23.590125
_cell_length_b 8.652198
_cell_length_c 15.278958
_cell_angle_alpha 90.000000
_cell_angle_beta 90.000000
_cell_angle_gamma 90.000000
_cell_volume 3118.533607
_symmetry_space_group_name_H-M "A B M 2"
_symmetry_group_IT_number 39
_symmetry_cell_setting 'orthorhombic'
loop_
_space_group_symop_operation_xyz
x,y,z
-x,-y,z
-x,1/2+y,z
x,1/2-y,z
x,1/2+y,1/2+z
-x,1/2-y,1/2+z
-x,y,1/2+z
x,-y,1/2+z
loop_
_atom_site_type_symbol
_atom_site_label
_atom_site_fract_x
_atom_site_fract_y
_atom_site_fract_z
Si Si1 0.939215 0.067992 0.724230
Si Si2 0.874668 0.569931 0.568830
Si Si3 0.561091 0.566532 0.223202
Si Si4 0.753523 0.067110 0.129655
Si Si5 0.742837 0.567347 0.824464
Si Si6 0.620617 0.067117 0.386290
Si Si7 0.856859 0.070147 0.875338
Si Si8 0.366584 0.933139 0.067835
O O1 0.943410 0.250000 0.730887
O O2 0.894848 0.002621 0.796263
O O3 0.920119 0.020136 0.627207
O O4 0.000000 0.000000 0.746780
O O5 0.878827 0.750000 0.592870
O O6 0.811494 0.504735 0.587247
O O7 0.889055 0.539482 0.467132
O O8 0.500000 0.500000 0.199434
O O9 0.561158 0.750000 0.213987
O O10 0.577447 0.517424 0.321357
O O11 0.605332 0.491444 0.156680
O O12 0.755051 0.250000 0.135996
O O13 0.747783 0.996988 0.226963
O O14 0.699644 0.016915 0.071570
O O15 0.743172 0.750000 0.821993
O O16 0.684367 0.508568 0.866695
O O17 0.795907 0.510373 0.880882
O O18 0.613606 0.250000 0.375122
O O19 0.604867 0.016059 0.484667
O O20 0.845481 0.250000 0.861670
O O21 0.374315 0.750000 0.060304
#
# Coordination Sequence:
#
# PCOD8181219 Si02
#       8
#     8   8   8   8   8   8   8   8
#     4  11  24  41  59  83 114 151 198 249 299 352
#     4  10  20  38  62  87 119 157 195 238 294 353
#     4  12  26  45  67  92 122 164 211 260 314 367
#     4   9  17  33  60  90 123 161 195 238 301 360
#     4  10  19  35  61  91 124 163 200 242 298 358
#     4  11  23  41  63  94 131 166 208 255 304 367
#     4  10  22  38  59  90 122 153 195 246 297 358
#     4  11  22  41  66  95 129 165 206 254 308 369
#
# _framework density 20.522466999999999
#
# number of rings (size 3 to 8) (size 9 to 14) (size 15 to 20)
#    0.000    1.500    2.500    3.000    0.000    4.000 
#    0.000    5.000    0.000    0.000    0.000    0.000 
#    0.000    0.000    0.000    0.000    0.000    0.000 
#
# Total GULP energy -396913.836030 kJ/mol
# GULP energy per Si atom -12403.557376 kJ/mol
# Density = 2.047576 g / cm^3
# Si number density = 20.522467 Si / 1000 Ang^3
#
#
#
# Elastic Constant Matrix: (Units=GPa)
#
#
# Indices 1 2 3 4 5 6 
#
# 1 81.8451 26.4147 6.4979 0.0000 0.0000 0.0000
# 2 26.4147 57.9320 13.6792 0.0000 0.0000 0.0000
# 3 6.4979 13.6792 93.3211 0.0000 0.0000 0.0000
# 4 0.0000 0.0000 0.0000 30.5266 0.0000 0.0000
# 5 0.0000 0.0000 0.0000 0.0000 26.0686 0.0000
# 6 0.0000 0.0000 0.0000 0.0000 0.0000 31.1989
#
#
#
# Elastic Compliance Matrix: (Units=1/GPa)
#
#
# Indices 1 2 3 4 5 6 
#
# 1 0.014327 -0.006523 -0.000041 0.000000 0.000000 0.000000
# 2 -0.006523 0.020850 -0.002602 0.000000 0.000000 0.000000
# 3 -0.000041 -0.002602 0.011100 0.000000 0.000000 0.000000
# 4 0.000000 0.000000 0.000000 0.032758 0.000000 0.000000
# 5 0.000000 0.000000 0.000000 0.000000 0.038360 0.000000
# 6 0.000000 0.000000 0.000000 0.000000 0.000000 0.032052
#
#
# Mechanical properties :
#
#
# Convention : Reuss Voigt Hill
#
# Bulk Modulus (GPa) = 35.78531 36.25353 36.01942
# Shear Modulus (GPa) = 28.23349 29.99259 29.11304
#
# Velocity S-wave (km/s) = 3.71311 3.82704 3.77051
# Velocity P-wave (km/s) = 5.98815 6.10180 6.04524
#
# Compressibility (1/GPa) = 0.02794443
#
# Stress axis : x y z
#
# Youngs Moduli (GPa) = 69.80030 47.96149 90.09012
#
# Poissons Ratio (x) = 0.31283 0.00374
# Poissons Ratio (y) = 0.45528 0.23442
# Poissons Ratio (z) = 0.00289 0.12480
#
# Static dielectric constant tensor:
#      x y z
#    x 3.764070 0.000000 0.000000 
#    y 0.000000 3.481170 0.000000 
#    z 0.000000 0.000000 3.820870 
# 
# 
# High freq. dielectric constant tensor:
#      x y z
#    x 1.799940 0.000000 0.000000 
#    y 0.000000 1.787190 0.000000 
#    z 0.000000 0.000000 1.815080 
# 
# From -- ./inp_files/10688.got.cif
#   From: 2010.03.12/outbox.cif.g09.slc.cpg/sg39_6_cif.got.tgz:10688.got - 2010.04.14 02:53:20.
