data_PCOD8181615
_publ_section_title
;
Structure prediction by ZEFSAII (Michael W. Deem and Ramdas Pophale) SiO2 
 PCOD8181615
Probable space group: A B M 2
;
_chemical_formula_sum "Si O2"
_cell_formula_units_Z 64
_cell_length_a 18.850241
_cell_length_b 9.077312
_cell_length_c 19.517826
_cell_angle_alpha 90.000000
_cell_angle_beta 90.000000
_cell_angle_gamma 90.000000
_cell_volume 3339.685816
_symmetry_space_group_name_H-M "A B M 2"
_symmetry_group_IT_number 39
_symmetry_cell_setting 'orthorhombic'
loop_
_space_group_symop_operation_xyz
x,y,z
-x,-y,z
-x,1/2+y,z
x,1/2-y,z
x,1/2+y,1/2+z
-x,1/2-y,1/2+z
-x,y,1/2+z
x,-y,1/2+z
loop_
_atom_site_type_symbol
_atom_site_label
_atom_site_fract_x
_atom_site_fract_y
_atom_site_fract_z
Si Si1 0.926833 0.422304 0.358560
Si Si2 0.807857 0.924666 0.605343
Si Si3 0.351240 0.079581 0.810361
Si Si4 0.431873 0.417787 0.198160
Si Si5 0.667500 0.080778 0.572896
Si Si6 0.573181 0.419292 0.449003
Si Si7 0.926341 0.076777 0.515710
Si Si8 0.198974 0.424447 0.763014
O O1 0.938186 0.250000 0.346578
O O2 0.904794 0.455174 0.436996
O O3 0.865434 0.486860 0.309189
O O4 0.000000 0.500000 0.338566
O O5 0.815766 0.750000 0.597954
O O6 0.810144 0.975754 0.684607
O O7 0.735151 0.975652 0.570122
O O8 0.870141 0.005978 0.566251
O O9 0.355797 0.250000 0.788409
O O10 0.368830 0.056282 0.889758
O O11 0.273014 0.015385 0.794036
O O12 0.410770 0.990954 0.769547
O O13 0.500000 0.500000 0.166814
O O14 0.453053 0.250000 0.211472
O O15 0.366111 0.433022 0.147478
O O16 0.689555 0.250000 0.556684
O O17 0.610370 0.022304 0.517987
O O18 0.500000 0.500000 0.433552
O O19 0.552640 0.250000 0.457327
O O20 0.932403 0.250000 0.530000
O O21 0.000000 0.000000 0.533319
O O22 0.199013 0.250000 0.768255
#
# Coordination Sequence:
#
# PCOD8181615 Si02
#       8
#     8   8   8   8   8   8   8   8
#     4   9  19  37  61  86 114 150 188 230 275 328
#     4  11  22  37  59  86 118 153 190 233 282 338
#     4  10  20  37  59  82 111 147 188 233 283 340
#     4  11  22  36  57  82 112 147 188 233 282 338
#     4  10  22  39  57  82 112 148 191 235 283 337
#     4  10  22  38  59  82 110 146 189 238 289 344
#     4  10  21  38  62  88 119 153 190 233 277 331
#     4   9  19  36  58  84 113 150 191 229 278 335
#
# _framework density 19.16348
#
# number of rings (size 3 to 8) (size 9 to 14) (size 15 to 20)
#    0.000    2.000    1.250    1.875    1.750    3.500 
#    0.000    3.125    0.000    0.000    0.000    0.000 
#    0.000    0.000    0.000    0.000    0.000    0.000 
#
# Total GULP energy -396890.623844 kJ/mol
# GULP energy per Si atom -12402.831995 kJ/mol
# Density = 1.911986 g / cm^3
# Si number density = 19.163480 Si / 1000 Ang^3
#
#
#
# Elastic Constant Matrix: (Units=GPa)
#
#
# Indices 1 2 3 4 5 6 
#
# 1 141.5802 55.3623 60.1118 0.0000 0.0000 0.0000
# 2 55.3623 78.6546 38.8363 0.0000 0.0000 0.0000
# 3 60.1118 38.8363 96.1256 0.0000 0.0000 0.0000
# 4 0.0000 0.0000 0.0000 23.1776 0.0000 0.0000
# 5 0.0000 0.0000 0.0000 0.0000 34.8005 0.0000
# 6 0.0000 0.0000 0.0000 0.0000 0.0000 37.2284
#
#
#
# Elastic Compliance Matrix: (Units=1/GPa)
#
#
# Indices 1 2 3 4 5 6 
#
# 1 0.011280 -0.005567 -0.004805 0.000000 0.000000 0.000000
# 2 -0.005567 0.018630 -0.004045 0.000000 0.000000 0.000000
# 3 -0.004805 -0.004045 0.015042 0.000000 0.000000 0.000000
# 4 0.000000 0.000000 0.000000 0.043145 0.000000 0.000000
# 5 0.000000 0.000000 0.000000 0.000000 0.028735 0.000000
# 6 0.000000 0.000000 0.000000 0.000000 0.000000 0.026861
#
#
# Mechanical properties :
#
#
# Convention : Reuss Voigt Hill
#
# Bulk Modulus (GPa) = 62.04471 69.44238 65.74354
# Shear Modulus (GPa) = 28.10561 29.84464 28.97512
#
# Velocity S-wave (km/s) = 3.83381 3.95063 3.89266
# Velocity P-wave (km/s) = 7.21417 7.55814 7.38816
#
# Compressibility (1/GPa) = 0.01611741
#
# Stress axis : x y z
#
# Youngs Moduli (GPa) = 88.65179 53.67736 66.48061
#
# Poissons Ratio (x) = 0.29884 0.31942
# Poissons Ratio (y) = 0.49355 0.26893
# Poissons Ratio (z) = 0.42594 0.21714
#
# Static dielectric constant tensor:
#      x y z
#    x 4.075840 0.000000 0.000000 
#    y 0.000000 3.403700 0.000000 
#    z 0.000000 0.000000 3.567820 
# 
# 
# High freq. dielectric constant tensor:
#      x y z
#    x 1.754190 0.000000 0.000000 
#    y 0.000000 1.732370 0.000000 
#    z 0.000000 0.000000 1.751110 
# 
# From -- ./inp_files/13157.got.cif
#   From: 2010.03.12/outbox.cif.g09.slc.cpg/sg39_7_cif.got.tgz:13157.got - 2010.04.14 02:53:20.
