data_PCOD8181483
_publ_section_title
;
Structure prediction by ZEFSAII (Michael W. Deem and Ramdas Pophale) SiO2 
 PCOD8181483
Probable space group: A B M 2
;
_chemical_formula_sum "Si O2"
_cell_formula_units_Z 64
_cell_length_a 23.886426
_cell_length_b 8.967957
_cell_length_c 15.575617
_cell_angle_alpha 90.000000
_cell_angle_beta 90.000000
_cell_angle_gamma 90.000000
_cell_volume 3336.490942
_symmetry_space_group_name_H-M "A B M 2"
_symmetry_group_IT_number 39
_symmetry_cell_setting 'orthorhombic'
loop_
_space_group_symop_operation_xyz
x,y,z
-x,-y,z
-x,1/2+y,z
x,1/2-y,z
x,1/2+y,1/2+z
-x,1/2-y,1/2+z
-x,y,1/2+z
x,-y,1/2+z
loop_
_atom_site_type_symbol
_atom_site_label
_atom_site_fract_x
_atom_site_fract_y
_atom_site_fract_z
Si Si1 0.256509 0.574965 0.019920
Si Si2 0.132732 0.927205 0.014018
Si Si3 0.624921 0.079492 0.278283
Si Si4 0.867457 0.076994 0.334708
Si Si5 0.559944 0.426610 0.928249
Si Si6 0.258191 0.582367 0.348921
Si Si7 0.939952 0.427004 0.174218
Si Si8 0.630011 0.573049 0.589468
O O1 0.254962 0.750000 0.030645
O O2 0.306707 0.508065 0.078049
O O3 0.194571 0.511918 0.041608
O O4 0.271873 0.535435 0.922524
O O5 0.133119 0.750000 0.005602
O O6 0.115188 0.992709 0.921855
O O7 0.089807 0.981676 0.086712
O O8 0.606175 0.250000 0.296389
O O9 0.692661 0.067103 0.279023
O O10 0.606416 0.027132 0.182835
O O11 0.596750 0.971388 0.346431
O O12 0.879376 0.250000 0.350699
O O13 0.802645 0.048247 0.308044
O O14 0.904516 0.016485 0.256047
O O15 0.500000 0.500000 0.919942
O O16 0.553412 0.250000 0.929640
O O17 0.589188 0.488417 0.015060
O O18 0.257749 0.750000 0.387784
O O19 0.945399 0.250000 0.174805
O O20 0.000000 0.500000 0.179236
O O21 0.633118 0.750000 0.581375
#
# Coordination Sequence:
#
# PCOD8181483 Si02
#       8
#     8   8   8   8   8   8   8   8
#     4   9  16  31  55  80 110 143 177 219 270 328
#     4   9  19  34  55  81 108 141 182 225 273 326
#     4  10  20  35  57  86 114 144 180 221 272 327
#     4   9  19  35  54  79 110 144 181 224 274 326
#     4  11  23  41  60  80 110 148 187 227 270 318
#     4   9  17  30  53  82 113 142 175 221 273 326
#     4  10  22  38  55  78 108 146 189 228 272 327
#     4   9  19  34  56  84 112 143 179 219 269 323
#
# _framework density 19.181830000000001
#
# number of rings (size 3 to 8) (size 9 to 14) (size 15 to 20)
#    0.000    2.500    1.250    0.375    1.750    2.000 
#    0.000    5.625    0.000    0.000    0.000    0.000 
#    0.000    0.000    0.000    0.000    0.000    0.000 
#
# Total GULP energy -396651.594182 kJ/mol
# GULP energy per Si atom -12395.362318 kJ/mol
# Density = 1.913817 g / cm^3
# Si number density = 19.181830 Si / 1000 Ang^3
#
#
#
# Elastic Constant Matrix: (Units=GPa)
#
#
# Indices 1 2 3 4 5 6 
#
# 1 127.9939 30.1747 76.1705 0.0000 0.0000 0.0000
# 2 30.1747 27.2093 27.4978 0.0000 0.0000 0.0000
# 3 76.1705 27.4978 142.1907 0.0000 0.0000 0.0000
# 4 0.0000 0.0000 0.0000 26.9979 0.0000 0.0000
# 5 0.0000 0.0000 0.0000 0.0000 24.7192 0.0000
# 6 0.0000 0.0000 0.0000 0.0000 0.0000 24.2728
#
#
#
# Elastic Compliance Matrix: (Units=1/GPa)
#
#
# Indices 1 2 3 4 5 6 
#
# 1 0.013107 -0.009247 -0.005233 0.000000 0.000000 0.000000
# 2 -0.009247 0.052203 -0.005142 0.000000 0.000000 0.000000
# 3 -0.005233 -0.005142 0.010831 0.000000 0.000000 0.000000
# 4 0.000000 0.000000 0.000000 0.037040 0.000000 0.000000
# 5 0.000000 0.000000 0.000000 0.000000 0.040454 0.000000
# 6 0.000000 0.000000 0.000000 0.000000 0.000000 0.041198
#
#
# Mechanical properties :
#
#
# Convention : Reuss Voigt Hill
#
# Bulk Modulus (GPa) = 27.10252 62.78665 44.94458
# Shear Modulus (GPa) = 20.29412 26.10137 23.19775
#
# Velocity S-wave (km/s) = 3.25620 3.69282 3.48136
# Velocity P-wave (km/s) = 5.31950 7.14044 6.29615
#
# Compressibility (1/GPa) = 0.03689694
#
# Stress axis : x y z
#
# Youngs Moduli (GPa) = 76.29408 19.15588 92.33139
#
# Poissons Ratio (x) = 0.17713 0.48319
# Poissons Ratio (y) = 0.70549 0.47476
# Poissons Ratio (z) = 0.39926 0.09850
#
# Static dielectric constant tensor:
#      x y z
#    x 3.687530 0.000000 0.000000 
#    y 0.000000 3.281560 0.000000 
#    z 0.000000 0.000000 3.551630 
# 
# 
# High freq. dielectric constant tensor:
#      x y z
#    x 1.751940 0.000000 0.000000 
#    y 0.000000 1.719640 0.000000 
#    z 0.000000 0.000000 1.744790 
# 
# From -- ./inp_files/10585.got.cif
#   From: 2010.03.12/outbox.cif.g09.slc.cpg/sg39_6_cif.got.tgz:10585.got - 2010.04.14 02:53:20.
