data_PCOD8181286
_publ_section_title
;
Structure prediction by ZEFSAII (Michael W. Deem and Ramdas Pophale) SiO2 
 PCOD8181286
Probable space group: A B M 2
;
_chemical_formula_sum "Si O2"
_cell_formula_units_Z 56
_cell_length_a 19.962681
_cell_length_b 9.175081
_cell_length_c 15.501379
_cell_angle_alpha 90.000000
_cell_angle_beta 90.000000
_cell_angle_gamma 90.000000
_cell_volume 2839.220411
_symmetry_space_group_name_H-M "A B M 2"
_symmetry_group_IT_number 39
_symmetry_cell_setting 'orthorhombic'
loop_
_space_group_symop_operation_xyz
x,y,z
-x,-y,z
-x,1/2+y,z
x,1/2-y,z
x,1/2+y,1/2+z
-x,1/2-y,1/2+z
-x,y,1/2+z
x,-y,1/2+z
loop_
_atom_site_type_symbol
_atom_site_label
_atom_site_fract_x
_atom_site_fract_y
_atom_site_fract_z
Si Si1 0.070782 0.575388 0.611960
Si Si2 0.845820 0.925067 0.465216
Si Si3 0.697950 0.588490 0.473059
Si Si4 0.439350 0.589338 0.030266
Si Si5 0.560840 0.409735 0.229344
Si Si6 0.689569 0.587490 0.270833
Si Si7 0.836597 0.577845 0.270247
O O1 0.064407 0.750000 0.604444
O O2 0.102933 0.511394 0.525171
O O3 0.112555 0.526728 0.696330
O O4 0.000000 0.500000 0.624438
O O5 0.853050 0.750000 0.476311
O O6 0.770916 0.981826 0.491233
O O7 0.860539 0.972730 0.365788
O O8 0.701093 0.750000 0.513054
O O9 0.633221 0.508836 0.516004
O O10 0.684459 0.594687 0.372579
O O11 0.500000 0.500000 0.985711
O O12 0.436778 0.750000 0.986403
O O13 0.456413 0.607423 0.129682
O O14 0.500000 0.500000 0.273795
O O15 0.564058 0.250000 0.273083
O O16 0.632401 0.484969 0.234875
O O17 0.680338 0.750000 0.231763
O O18 0.762253 0.518993 0.246208
O O19 0.829698 0.750000 0.274190
#
# Coordination Sequence:
#
# PCOD8181286 Si02
#       7
#     8   8   8   8   8   8   8
#     4  11  23  39  58  86 117 147 185 225 271 329
#     4   9  18  37  62  85 112 149 187 227 277 331
#     4   8  16  32  54  76 101 135 174 213 265 323
#     4   9  18  32  47  68  98 134 174 216 260 311
#     4  10  20  32  47  70 102 137 176 221 267 317
#     4   9  17  33  55  76 100 135 174 216 267 320
#     4   8  18  37  59  83 115 151 185 224 276 335
#
# _framework density 19.723724000000001
#
# number of rings (size 3 to 8) (size 9 to 14) (size 15 to 20)
#    0.000    2.857    0.000    2.571    2.000    1.714 
#    0.000    9.286    0.000    0.000    0.000    0.000 
#    0.000    0.000    0.000    0.000    0.000    0.000 
#
# Total GULP energy -346913.988306 kJ/mol
# GULP energy per Si atom -12389.785297 kJ/mol
# Density = 1.967883 g / cm^3
# Si number density = 19.723724 Si / 1000 Ang^3
#
#
#
# Elastic Constant Matrix: (Units=GPa)
#
#
# Indices 1 2 3 4 5 6 
#
# 1 168.8249 62.7765 60.2794 0.0000 0.0000 0.0000
# 2 62.7765 85.3977 33.4362 0.0000 0.0000 0.0000
# 3 60.2794 33.4362 64.7962 0.0000 0.0000 0.0000
# 4 0.0000 0.0000 0.0000 15.5632 0.0000 0.0000
# 5 0.0000 0.0000 0.0000 0.0000 3.9529 0.0000
# 6 0.0000 0.0000 0.0000 0.0000 0.0000 29.6510
#
#
#
# Elastic Compliance Matrix: (Units=1/GPa)
#
#
# Indices 1 2 3 4 5 6 
#
# 1 0.010201 -0.004741 -0.007044 0.000000 0.000000 0.000000
# 2 -0.004741 0.016878 -0.004299 0.000000 0.000000 0.000000
# 3 -0.007044 -0.004299 0.024204 0.000000 0.000000 0.000000
# 4 0.000000 0.000000 0.000000 0.064254 0.000000 0.000000
# 5 0.000000 0.000000 0.000000 0.000000 0.252981 0.000000
# 6 0.000000 0.000000 0.000000 0.000000 0.000000 0.033726
#
#
# Mechanical properties :
#
#
# Convention : Reuss Voigt Hill
#
# Bulk Modulus (GPa) = 52.31169 70.22257 61.26713
# Shear Modulus (GPa) = 11.34343 20.66851 16.00597
#
# Velocity S-wave (km/s) = 2.40076 3.24064 2.85179
# Velocity P-wave (km/s) = 5.85360 7.04860 6.47871
#
# Compressibility (1/GPa) = 0.01911619
#
# Stress axis : x y z
#
# Youngs Moduli (GPa) = 98.02765 59.24735 41.31564
#
# Poissons Ratio (x) = 0.28090 0.29101
# Poissons Ratio (y) = 0.46477 0.17761
# Poissons Ratio (z) = 0.69046 0.25470
#
# Static dielectric constant tensor:
#      x y z
#    x 4.167690 0.000000 0.000000 
#    y 0.000000 3.632270 0.000000 
#    z 0.000000 0.000000 3.446690 
# 
# 
# High freq. dielectric constant tensor:
#      x y z
#    x 1.782800 0.000000 0.000000 
#    y 0.000000 1.736220 0.000000 
#    z 0.000000 0.000000 1.755140 
# 
# From -- ./inp_files/10408.got.cif
#   From: 2010.03.12/outbox.cif.g09.slc.cpg/sg39_6_cif.got.tgz:10408.got - 2010.04.14 02:53:20.
