data_PCOD8181919
_publ_section_title
;
Structure prediction by ZEFSAII (Michael W. Deem and Ramdas Pophale) SiO2 
 PCOD8181919
Probable space group: A B M 2
;
_chemical_formula_sum "Si O2"
_cell_formula_units_Z 56
_cell_length_a 10.307987
_cell_length_b 17.591091
_cell_length_c 14.527654
_cell_angle_alpha 90.000000
_cell_angle_beta 90.000000
_cell_angle_gamma 90.000000
_cell_volume 2634.281156
_symmetry_space_group_name_H-M "A B M 2"
_symmetry_group_IT_number 39
_symmetry_cell_setting 'orthorhombic'
loop_
_space_group_symop_operation_xyz
x,y,z
-x,-y,z
-x,1/2+y,z
x,1/2-y,z
x,1/2+y,1/2+z
-x,1/2-y,1/2+z
-x,y,1/2+z
x,-y,1/2+z
loop_
_atom_site_type_symbol
_atom_site_label
_atom_site_fract_x
_atom_site_fract_y
_atom_site_fract_z
Si Si1 0.814012 0.665109 0.085390
Si Si2 0.810507 0.538851 0.730405
Si Si3 0.053625 0.837635 0.970132
Si Si4 0.063962 0.884349 0.764487
Si Si5 0.613266 0.948859 0.880668
Si Si6 0.291045 0.061937 0.536940
Si Si7 0.462866 0.339979 0.023166
O O1 0.804156 0.750000 0.047624
O O2 0.855644 0.665625 0.192050
O O3 0.667683 0.633045 0.076904
O O4 0.923629 0.626357 0.018680
O O5 0.859826 0.462809 0.780348
O O6 0.707095 0.575460 0.798946
O O7 0.754212 0.519391 0.629996
O O8 0.924891 0.599711 0.718188
O O9 0.071721 0.750000 0.000205
O O10 0.042398 0.841384 0.859944
O O11 0.178744 0.883868 0.000284
O O12 0.556329 0.869063 0.918268
O O13 0.500000 0.000000 0.836785
O O14 0.678865 0.996791 0.963365
O O15 0.414927 0.113923 0.563887
O O16 0.490588 0.250000 0.026316
#
# Coordination Sequence:
#
# PCOD8181919 Si02
#       7
#     8   8   8   8   8   8   8
#     4  10  21  39  62  91 127 167 210 259 316 376
#     4  11  23  38  63  94 126 165 213 267 316 375
#     4  11  22  40  66  92 128 169 211 264 319 378
#     4  11  22  38  61  96 125 164 214 264 318 376
#     4  10  22  40  63  91 127 166 210 263 316 379
#     4  11  22  43  65  93 127 168 212 266 315 377
#     4  10  22  42  64  91 128 171 212 260 319 376
#
# _framework density 21.258171999999998
#
# number of rings (size 3 to 8) (size 9 to 14) (size 15 to 20)
#    0.000    1.429    2.857    2.571    0.000    2.857 
#    0.000    2.143    0.000    0.000    0.000    0.000 
#    0.000    0.000    0.000    0.000    0.000    0.000 
#
# Total GULP energy -347113.549767 kJ/mol
# GULP energy per Si atom -12396.912492 kJ/mol
# Density = 2.120979 g / cm^3
# Si number density = 21.258172 Si / 1000 Ang^3
#
#
#
# Elastic Constant Matrix: (Units=GPa)
#
#
# Indices 1 2 3 4 5 6 
#
# 1 118.3971 5.5184 26.3763 0.0000 0.0000 0.0000
# 2 5.5184 46.0849 -3.7996 0.0000 0.0000 0.0000
# 3 26.3763 -3.7996 92.5463 0.0000 0.0000 0.0000
# 4 0.0000 0.0000 0.0000 27.6343 0.0000 0.0000
# 5 0.0000 0.0000 0.0000 0.0000 34.3232 0.0000
# 6 0.0000 0.0000 0.0000 0.0000 0.0000 18.3901
#
#
#
# Elastic Compliance Matrix: (Units=1/GPa)
#
#
# Indices 1 2 3 4 5 6 
#
# 1 0.009097 -0.001307 -0.002646 0.000000 0.000000 0.000000
# 2 -0.001307 0.021961 0.001274 0.000000 0.000000 0.000000
# 3 -0.002646 0.001274 0.011612 0.000000 0.000000 0.000000
# 4 0.000000 0.000000 0.000000 0.036187 0.000000 0.000000
# 5 0.000000 0.000000 0.000000 0.000000 0.029135 0.000000
# 6 0.000000 0.000000 0.000000 0.000000 0.000000 0.054377
#
#
# Mechanical properties :
#
#
# Convention : Reuss Voigt Hill
#
# Bulk Modulus (GPa) = 26.80224 34.80206 30.80215
# Shear Modulus (GPa) = 27.75252 31.33173 29.54212
#
# Velocity S-wave (km/s) = 3.61709 3.84326 3.73189
# Velocity P-wave (km/s) = 5.48450 6.00840 5.75242
#
# Compressibility (1/GPa) = 0.03731031
#
# Stress axis : x y z
#
# Youngs Moduli (GPa) = 109.93089 45.53584 86.11841
#
# Poissons Ratio (x) = 0.05954 0.22789
# Poissons Ratio (y) = 0.14373 -0.10974
# Poissons Ratio (z) = 0.29091 -0.05802
#
# Static dielectric constant tensor:
#      x y z
#    x 4.166410 0.000000 0.000000 
#    y 0.000000 3.689880 0.000000 
#    z 0.000000 0.000000 3.575430 
# 
# 
# High freq. dielectric constant tensor:
#      x y z
#    x 1.851250 0.000000 0.000000 
#    y 0.000000 1.825010 0.000000 
#    z 0.000000 0.000000 1.822530 
# 
# From -- ./inp_files/8613.got.cif
#   From: 2010.03.12/outbox.cif.g09.slc.cpg/sg39_5_cif.got.tgz:8613.got - 2010.04.14 02:53:20.
