data_PCOD8181595
_publ_section_title
;
Structure prediction by ZEFSAII (Michael W. Deem and Ramdas Pophale) SiO2 
 PCOD8181595
Probable space group: A B M 2
;
_chemical_formula_sum "Si O2"
_cell_formula_units_Z 64
_cell_length_a 5.176695
_cell_length_b 26.631222
_cell_length_c 23.595126
_cell_angle_alpha 90.000000
_cell_angle_beta 90.000000
_cell_angle_gamma 90.000000
_cell_volume 3252.864507
_symmetry_space_group_name_H-M "A B M 2"
_symmetry_group_IT_number 39
_symmetry_cell_setting 'orthorhombic'
loop_
_space_group_symop_operation_xyz
x,y,z
-x,-y,z
-x,1/2+y,z
x,1/2-y,z
x,1/2+y,1/2+z
-x,1/2-y,1/2+z
-x,y,1/2+z
x,-y,1/2+z
loop_
_atom_site_type_symbol
_atom_site_label
_atom_site_fract_x
_atom_site_fract_y
_atom_site_fract_z
Si Si1 0.003306 0.942181 0.964200
Si Si2 0.408953 0.807384 0.343025
Si Si3 0.495899 0.441754 0.034514
Si Si4 0.931138 0.114445 0.745350
Si Si5 0.535748 0.104048 0.649880
Si Si6 0.116130 0.365332 0.366050
Si Si7 0.307740 0.692747 0.216179
Si Si8 0.257245 0.968898 0.216924
O O1 0.076256 0.909507 0.910077
O O2 0.217484 0.929599 0.011888
O O3 0.000000 0.000000 0.945009
O O4 0.716200 0.930427 0.986265
O O5 0.369750 0.750000 0.360372
O O6 0.645454 0.828556 0.381158
O O7 0.468750 0.811313 0.275023
O O8 0.147984 0.835392 0.359392
O O9 0.500000 0.500000 0.054141
O O10 0.405939 0.402297 0.083549
O O11 0.769246 0.091475 0.693075
O O12 0.788087 0.112317 0.805459
O O13 0.021409 0.170867 0.728548
O O14 0.185479 0.079137 0.756200
O O15 0.435038 0.159787 0.665751
O O16 0.334530 0.057895 0.657833
O O17 0.283363 0.750000 0.194969
O O18 0.500000 0.000000 0.242918
O O19 0.000000 0.000000 0.207150
#
# Coordination Sequence:
#
# PCOD8181595 Si02
#       8
#     8   8   8   8   8   8   8   8
#     4  10  23  43  61  88 114 165 210 245 296 355
#     4  10  20  36  62  94 122 157 197 242 306 368
#     4  10  23  39  63  85 118 157 212 253 288 348
#     4  10  22  35  57  93 122 158 200 244 312 370
#     4  11  21  37  61  90 119 156 206 251 304 360
#     4  11  21  39  62  87 125 155 200 258 296 361
#     4   9  20  36  56  89 129 161 195 240 300 379
#     4  11  22  35  52  82 125 157 188 235 305 367
#
# _framework density 19.674966999999999
#
# number of rings (size 3 to 8) (size 9 to 14) (size 15 to 20)
#    0.000    1.750    2.500    1.500    3.500    2.000 
#    0.000    0.625    0.000    4.500    0.000    0.000 
#    0.000    0.000    0.000    0.000    0.000    0.000 
#
# Total GULP energy -396429.505480 kJ/mol
# GULP energy per Si atom -12388.422046 kJ/mol
# Density = 1.963019 g / cm^3
# Si number density = 19.674967 Si / 1000 Ang^3
#
#
#
# Elastic Constant Matrix: (Units=GPa)
#
#
# Indices 1 2 3 4 5 6 
#
# 1 107.2090 50.4804 34.0395 0.0000 0.0000 0.0000
# 2 50.4804 118.9536 55.7716 0.0000 0.0000 0.0000
# 3 34.0395 55.7716 88.6930 0.0000 0.0000 0.0000
# 4 0.0000 0.0000 0.0000 28.4406 0.0000 0.0000
# 5 0.0000 0.0000 0.0000 0.0000 21.5722 0.0000
# 6 0.0000 0.0000 0.0000 0.0000 0.0000 28.2211
#
#
#
# Elastic Compliance Matrix: (Units=1/GPa)
#
#
# Indices 1 2 3 4 5 6 
#
# 1 0.011895 -0.004123 -0.001973 0.000000 0.000000 0.000000
# 2 -0.004123 0.013350 -0.006813 0.000000 0.000000 0.000000
# 3 -0.001973 -0.006813 0.016316 0.000000 0.000000 0.000000
# 4 0.000000 0.000000 0.000000 0.035161 0.000000 0.000000
# 5 0.000000 0.000000 0.000000 0.000000 0.046356 0.000000
# 6 0.000000 0.000000 0.000000 0.000000 0.000000 0.035434
#
#
# Mechanical properties :
#
#
# Convention : Reuss Voigt Hill
#
# Bulk Modulus (GPa) = 63.51263 66.15985 64.83624
# Shear Modulus (GPa) = 26.37439 27.28440 26.82940
#
# Velocity S-wave (km/s) = 3.66526 3.72796 3.69674
# Velocity P-wave (km/s) = 7.08966 7.22701 7.15866
#
# Compressibility (1/GPa) = 0.01574490
#
# Stress axis : x y z
#
# Youngs Moduli (GPa) = 84.06670 74.90366 61.29040
#
# Poissons Ratio (x) = 0.30884 0.12090
# Poissons Ratio (y) = 0.34662 0.41755
# Poissons Ratio (z) = 0.16583 0.51029
#
# Static dielectric constant tensor:
#      x y z
#    x 3.828070 0.000000 0.000000 
#    y 0.000000 3.724510 0.000000 
#    z 0.000000 0.000000 3.244830 
# 
# 
# High freq. dielectric constant tensor:
#      x y z
#    x 1.783630 0.000000 0.000000 
#    y 0.000000 1.769630 0.000000 
#    z 0.000000 0.000000 1.722350 
# 
# From -- ./inp_files/13665.got.cif
#   From: 2010.03.12/outbox.cif.g09.slc.cpg/sg39_7_cif.got.tgz:13665.got - 2010.04.14 02:53:20.
