data_PCOD8181399
_publ_section_title
;
Structure prediction by ZEFSAII (Michael W. Deem and Ramdas Pophale) SiO2 
 PCOD8181399
Probable space group: A B M 2
;
_chemical_formula_sum "Si O2"
_cell_formula_units_Z 56
_cell_length_a 14.604624
_cell_length_b 9.007128
_cell_length_c 20.813729
_cell_angle_alpha 90.000000
_cell_angle_beta 90.000000
_cell_angle_gamma 90.000000
_cell_volume 2737.956921
_symmetry_space_group_name_H-M "A B M 2"
_symmetry_group_IT_number 39
_symmetry_cell_setting 'orthorhombic'
loop_
_space_group_symop_operation_xyz
x,y,z
-x,-y,z
-x,1/2+y,z
x,1/2-y,z
x,1/2+y,1/2+z
-x,1/2-y,1/2+z
-x,y,1/2+z
x,-y,1/2+z
loop_
_atom_site_type_symbol
_atom_site_label
_atom_site_fract_x
_atom_site_fract_y
_atom_site_fract_z
Si Si1 0.097680 0.922609 0.922780
Si Si2 0.096796 0.421575 0.565192
Si Si3 0.903908 0.921451 0.186447
Si Si4 0.280348 0.920893 0.749418
Si Si5 0.729819 0.925280 0.875599
Si Si6 0.404750 0.424779 0.987805
Si Si7 0.404977 0.575541 0.632314
O O1 0.086169 0.750000 0.905117
O O2 0.170438 0.999583 0.876733
O O3 0.139784 0.942411 0.994756
O O4 0.000000 0.000000 0.914343
O O5 0.086716 0.250000 0.583268
O O6 0.146789 0.506798 0.623498
O O7 0.000000 0.500000 0.563276
O O8 0.924520 0.750000 0.172524
O O9 0.829613 0.940692 0.242681
O O10 0.000000 0.000000 0.205145
O O11 0.305072 0.750000 0.763276
O O12 0.329957 0.975762 0.684287
O O13 0.315976 0.019388 0.809113
O O14 0.741276 0.750000 0.875070
O O15 0.670097 0.979440 0.936265
O O16 0.500000 0.500000 0.969383
O O17 0.418895 0.250000 0.982523
O O18 0.373533 0.471840 0.060021
O O19 0.500000 0.500000 0.650899
O O20 0.420551 0.750000 0.634517
#
# Coordination Sequence:
#
# PCOD8181399 Si02
#       7
#     8   8   8   8   8   8   8
#     4  10  21  37  57  83 117 157 200 244 294 348
#     4   9  17  30  50  78 108 141 184 236 286 335
#     4  10  20  34  55  80 111 154 195 239 288 338
#     4  10  23  40  58  82 117 160 197 237 294 351
#     4  11  24  39  59  87 120 158 199 245 293 351
#     4   9  20  39  64  91 117 150 193 240 297 354
#     4   9  19  39  64  89 115 148 190 239 294 353
#
# _framework density 20.453206999999999
#
# number of rings (size 3 to 8) (size 9 to 14) (size 15 to 20)
#    0.000    2.286    0.000    2.571    2.000    5.714 
#    0.000    4.286    0.000    0.000    0.000    0.000 
#    0.000    0.000    0.000    0.000    0.000    0.000 
#
# Total GULP energy -347052.024952 kJ/mol
# GULP energy per Si atom -12394.715177 kJ/mol
# Density = 2.040665 g / cm^3
# Si number density = 20.453207 Si / 1000 Ang^3
#
#
#
# Elastic Constant Matrix: (Units=GPa)
#
#
# Indices 1 2 3 4 5 6 
#
# 1 99.8495 41.5479 63.4396 0.0000 0.0000 0.0000
# 2 41.5479 95.0898 53.0257 0.0000 0.0000 0.0000
# 3 63.4396 53.0257 128.0400 0.0000 0.0000 0.0000
# 4 0.0000 0.0000 0.0000 34.3458 0.0000 0.0000
# 5 0.0000 0.0000 0.0000 0.0000 22.2803 0.0000
# 6 0.0000 0.0000 0.0000 0.0000 0.0000 28.1734
#
#
#
# Elastic Compliance Matrix: (Units=1/GPa)
#
#
# Indices 1 2 3 4 5 6 
#
# 1 0.015331 -0.003202 -0.006270 0.000000 0.000000 0.000000
# 2 -0.003202 0.014343 -0.004353 0.000000 0.000000 0.000000
# 3 -0.006270 -0.004353 0.012719 0.000000 0.000000 0.000000
# 4 0.000000 0.000000 0.000000 0.029116 0.000000 0.000000
# 5 0.000000 0.000000 0.000000 0.000000 0.044883 0.000000
# 6 0.000000 0.000000 0.000000 0.000000 0.000000 0.035495
#
#
# Mechanical properties :
#
#
# Convention : Reuss Voigt Hill
#
# Bulk Modulus (GPa) = 67.83048 71.00063 69.41555
# Shear Modulus (GPa) = 27.10732 27.95763 27.53248
#
# Velocity S-wave (km/s) = 3.64446 3.70118 3.67293
# Velocity P-wave (km/s) = 7.13759 7.28382 7.21108
#
# Compressibility (1/GPa) = 0.01474263
#
# Stress axis : x y z
#
# Youngs Moduli (GPa) = 65.22653 69.71954 78.61978
#
# Poissons Ratio (x) = 0.22327 0.49294
# Poissons Ratio (y) = 0.20888 0.34226
# Poissons Ratio (z) = 0.40896 0.30351
#
# Static dielectric constant tensor:
#      x y z
#    x 3.481440 0.000000 0.000000 
#    y 0.000000 3.672530 0.000000 
#    z 0.000000 0.000000 4.302190 
# 
# 
# High freq. dielectric constant tensor:
#      x y z
#    x 1.780350 0.000000 0.000000 
#    y 0.000000 1.799590 0.000000 
#    z 0.000000 0.000000 1.808850 
# 
# From -- ./inp_files/14741.got.cif
#   From: 2010.03.12/outbox.cif.g09.slc.cpg/sg39_8_cif.got.tgz:14741.got - 2010.04.14 02:53:20.
