data_PCOD8181018
_publ_section_title
;
Structure prediction by ZEFSAII (Michael W. Deem and Ramdas Pophale) SiO2 
 PCOD8181018
Probable space group: A B M 2
;
_chemical_formula_sum "Si O2"
_cell_formula_units_Z 64
_cell_length_a 20.055742
_cell_length_b 18.022983
_cell_length_c 9.076794
_cell_angle_alpha 90.000000
_cell_angle_beta 90.000000
_cell_angle_gamma 90.000000
_cell_volume 3280.936963
_symmetry_space_group_name_H-M "A B M 2"
_symmetry_group_IT_number 39
_symmetry_cell_setting 'orthorhombic'
loop_
_space_group_symop_operation_xyz
x,y,z
-x,-y,z
-x,1/2+y,z
x,1/2-y,z
x,1/2+y,1/2+z
-x,1/2-y,1/2+z
-x,y,1/2+z
x,-y,1/2+z
loop_
_atom_site_type_symbol
_atom_site_label
_atom_site_fract_x
_atom_site_fract_y
_atom_site_fract_z
Si Si1 0.941375 0.081097 0.394280
Si Si2 0.184157 0.669355 0.419089
Si Si3 0.306433 0.417374 0.950089
Si Si4 0.924770 0.427552 0.045790
Si Si5 0.674166 0.931675 0.612215
Si Si6 0.562898 0.164074 0.461397
Si Si7 0.473575 0.415954 0.674546
Si Si8 0.205187 0.166579 0.574338
O O1 0.892225 0.146889 0.437199
O O2 0.942796 0.066829 0.218770
O O3 0.013348 0.106856 0.454387
O O4 0.913801 0.009016 0.479242
O O5 0.192347 0.750000 0.491539
O O6 0.233931 0.612499 0.499383
O O7 0.203581 0.672250 0.248775
O O8 0.305989 0.441720 0.781113
O O9 0.358562 0.350965 0.979010
O O10 0.323414 0.487164 0.046917
O O11 0.859168 0.378368 0.015285
O O12 0.598024 0.904035 0.594692
O O13 0.726024 0.875902 0.530535
O O14 0.552151 0.250000 0.419101
O O15 0.525269 0.143527 0.610873
O O16 0.532795 0.106492 0.344036
O O17 0.500000 0.500000 0.662063
O O18 0.205437 0.250000 0.506343
#
# Coordination Sequence:
#
# PCOD8181018 Si02
#       8
#     8   8   8   8   8   8   8   8
#     4  10  19  32  54  78 105 138 178 220 270 324
#     4   9  18  33  53  77 106 138 176 220 267 323
#     4  10  20  36  57  81 107 141 185 226 271 330
#     4  10  19  33  54  79 106 140 177 227 267 323
#     4  10  21  35  60  80 106 144 184 227 273 329
#     4  11  23  37  58  85 115 149 186 234 286 335
#     4  11  22  38  59  84 115 149 189 232 281 345
#     4   9  19  35  54  79 109 142 183 228 276 327
#
# _framework density 19.506622
#
# number of rings (size 3 to 8) (size 9 to 14) (size 15 to 20)
#    0.000    2.000    1.250    3.375    1.750    4.000 
#    0.000    1.250    0.000    6.750    0.000    0.000 
#    0.000    0.000    0.000    0.000    0.000    0.000 
#
# Total GULP energy -396698.167850 kJ/mol
# GULP energy per Si atom -12396.817745 kJ/mol
# Density = 1.946222 g / cm^3
# Si number density = 19.506622 Si / 1000 Ang^3
#
#
#
# Elastic Constant Matrix: (Units=GPa)
#
#
# Indices 1 2 3 4 5 6 
#
# 1 99.6837 37.8787 30.8542 0.0000 0.0000 0.0000
# 2 37.8787 99.7874 25.0616 0.0000 0.0000 0.0000
# 3 30.8542 25.0616 45.1643 0.0000 0.0000 0.0000
# 4 0.0000 0.0000 0.0000 18.3680 0.0000 0.0000
# 5 0.0000 0.0000 0.0000 0.0000 18.5832 0.0000
# 6 0.0000 0.0000 0.0000 0.0000 0.0000 32.3422
#
#
#
# Elastic Compliance Matrix: (Units=1/GPa)
#
#
# Indices 1 2 3 4 5 6 
#
# 1 0.013589 -0.003285 -0.007461 0.000000 0.000000 0.000000
# 2 -0.003285 0.012438 -0.004658 0.000000 0.000000 0.000000
# 3 -0.007461 -0.004658 0.029823 0.000000 0.000000 0.000000
# 4 0.000000 0.000000 0.000000 0.054442 0.000000 0.000000
# 5 0.000000 0.000000 0.000000 0.000000 0.053812 0.000000
# 6 0.000000 0.000000 0.000000 0.000000 0.000000 0.030919
#
#
# Mechanical properties :
#
#
# Convention : Reuss Voigt Hill
#
# Bulk Modulus (GPa) = 39.93078 48.02492 43.97785
# Shear Modulus (GPa) = 21.35124 23.91475 22.63300
#
# Velocity S-wave (km/s) = 3.31201 3.50520 3.40997
# Velocity P-wave (km/s) = 5.92796 6.40743 6.17235
#
# Compressibility (1/GPa) = 0.02504334
#
# Stress axis : x y z
#
# Youngs Moduli (GPa) = 73.58830 80.39915 33.53119
#
# Poissons Ratio (x) = 0.26408 0.25017
# Poissons Ratio (y) = 0.24170 0.15619
# Poissons Ratio (z) = 0.54903 0.37449
#
# Static dielectric constant tensor:
#      x y z
#    x 3.855690 0.000000 0.000000 
#    y 0.000000 3.570690 0.000000 
#    z 0.000000 0.000000 3.318400 
# 
# 
# High freq. dielectric constant tensor:
#      x y z
#    x 1.777530 0.000000 0.000000 
#    y 0.000000 1.759170 0.000000 
#    z 0.000000 0.000000 1.732030 
# 
# From -- ./inp_files/4021.got.cif
#   From: 2010.03.12/outbox.cif.g09.slc.cpg/sg39_3_cif.got.tgz:4021.got - 2010.04.14 02:53:20.
