data_PCOD8181898
_publ_section_title
;
Structure prediction by ZEFSAII (Michael W. Deem and Ramdas Pophale) SiO2 
 PCOD8181898
Probable space group: A B M 2
;
_chemical_formula_sum "Si O2"
_cell_formula_units_Z 64
_cell_length_a 14.349843
_cell_length_b 17.478628
_cell_length_c 13.379149
_cell_angle_alpha 90.000000
_cell_angle_beta 90.000000
_cell_angle_gamma 90.000000
_cell_volume 3355.698851
_symmetry_space_group_name_H-M "A B M 2"
_symmetry_group_IT_number 39
_symmetry_cell_setting 'orthorhombic'
loop_
_space_group_symop_operation_xyz
x,y,z
-x,-y,z
-x,1/2+y,z
x,1/2-y,z
x,1/2+y,1/2+z
-x,1/2-y,1/2+z
-x,y,1/2+z
x,-y,1/2+z
loop_
_atom_site_type_symbol
_atom_site_label
_atom_site_fract_x
_atom_site_fract_y
_atom_site_fract_z
Si Si1 0.474688 0.163410 0.020010
Si Si2 0.521693 0.088088 0.722588
Si Si3 0.837395 0.420495 0.315816
Si Si4 0.838324 0.079308 0.913908
Si Si5 0.984184 0.660937 0.946202
Si Si6 0.353399 0.839174 0.880962
Si Si7 0.065241 0.429694 0.610747
Si Si8 0.645368 0.837656 0.829075
O O1 0.469282 0.250000 0.061444
O O2 0.456422 0.102207 0.106592
O O3 0.575421 0.148153 0.971786
O O4 0.393616 0.149277 0.939913
O O5 0.612074 0.113276 0.785189
O O6 0.433483 0.140261 0.749725
O O7 0.500000 0.000000 0.744097
O O8 0.833106 0.511188 0.334117
O O9 0.892524 0.380525 0.405494
O O10 0.884739 0.400359 0.210271
O O11 0.733073 0.390853 0.312345
O O12 0.745923 0.129833 0.915323
O O13 0.925683 0.133218 0.881981
O O14 0.857630 0.046882 0.026414
O O15 0.968590 0.750000 0.935642
O O16 0.001069 0.637862 0.062688
O O17 0.346658 0.750000 0.852174
O O18 0.000000 0.500000 0.639227
O O19 0.673559 0.750000 0.810722
#
# Coordination Sequence:
#
# PCOD8181898 Si02
#       8
#     8   8   8   8   8   8   8   8
#     4   9  20  40  62  83 121 163 199 253 307 357
#     4  11  22  37  60  90 123 164 205 252 308 370
#     4  12  22  41  65  90 124 162 204 254 313 374
#     4  10  21  40  61  91 120 154 201 260 302 371
#     4  10  21  39  60  89 122 156 199 253 310 367
#     4  10  21  39  62  88 120 160 207 256 306 363
#     4  10  22  41  63  87 120 161 200 253 313 369
#     4  10  23  41  61  90 123 159 208 257 304 363
#
# _framework density 19.072033000000001
#
# number of rings (size 3 to 8) (size 9 to 14) (size 15 to 20)
#    0.750    1.000    1.250    4.500    1.750    4.000 
#    2.250    0.000    0.000    3.000    0.000    0.000 
#    0.000    0.000    0.000    0.000    0.000    0.000 
#
# Total GULP energy -396793.359627 kJ/mol
# GULP energy per Si atom -12399.792488 kJ/mol
# Density = 1.902862 g / cm^3
# Si number density = 19.072033 Si / 1000 Ang^3
#
#
#
# Elastic Constant Matrix: (Units=GPa)
#
#
# Indices 1 2 3 4 5 6 
#
# 1 77.4772 14.0252 10.2970 0.0000 0.0000 0.0000
# 2 14.0252 90.6646 20.3940 0.0000 0.0000 0.0000
# 3 10.2970 20.3940 83.3304 0.0000 0.0000 0.0000
# 4 0.0000 0.0000 0.0000 23.8841 0.0000 0.0000
# 5 0.0000 0.0000 0.0000 0.0000 16.5501 0.0000
# 6 0.0000 0.0000 0.0000 0.0000 0.0000 38.0030
#
#
#
# Elastic Compliance Matrix: (Units=1/GPa)
#
#
# Indices 1 2 3 4 5 6 
#
# 1 0.013394 -0.001799 -0.001215 0.000000 0.000000 0.000000
# 2 -0.001799 0.011914 -0.002693 0.000000 0.000000 0.000000
# 3 -0.001215 -0.002693 0.012810 0.000000 0.000000 0.000000
# 4 0.000000 0.000000 0.000000 0.041869 0.000000 0.000000
# 5 0.000000 0.000000 0.000000 0.000000 0.060423 0.000000
# 6 0.000000 0.000000 0.000000 0.000000 0.000000 0.026314
#
#
# Mechanical properties :
#
#
# Convention : Reuss Voigt Hill
#
# Bulk Modulus (GPa) = 37.44828 37.87829 37.66328
# Shear Modulus (GPa) = 26.73251 29.47117 28.10184
#
# Velocity S-wave (km/s) = 3.74794 3.93524 3.84273
# Velocity P-wave (km/s) = 6.19735 6.36804 6.28327
#
# Compressibility (1/GPa) = 0.02670350
#
# Stress axis : x y z
#
# Youngs Moduli (GPa) = 74.65982 83.93643 78.06560
#
# Poissons Ratio (x) = 0.15098 0.09484
# Poissons Ratio (y) = 0.13429 0.21027
# Poissons Ratio (z) = 0.09070 0.22608
#
# Static dielectric constant tensor:
#      x y z
#    x 3.429970 0.000000 0.000000 
#    y 0.000000 3.401780 0.000000 
#    z 0.000000 0.000000 3.343720 
# 
# 
# High freq. dielectric constant tensor:
#      x y z
#    x 1.742720 0.000000 0.000000 
#    y 0.000000 1.744080 0.000000 
#    z 0.000000 0.000000 1.732850 
# 
# From -- ./inp_files/9900.got.cif
#   From: 2010.03.12/outbox.cif.g09.slc.cpg/sg39_5_cif.got.tgz:9900.got - 2010.04.14 02:53:20.
