data_PCOD8181854
_publ_section_title
;
Structure prediction by ZEFSAII (Michael W. Deem and Ramdas Pophale) SiO2 
 PCOD8181854
Probable space group: A B M 2
;
_chemical_formula_sum "Si O2"
_cell_formula_units_Z 56
_cell_length_a 11.425782
_cell_length_b 14.195946
_cell_length_c 17.534306
_cell_angle_alpha 90.000000
_cell_angle_beta 90.000000
_cell_angle_gamma 90.000000
_cell_volume 2844.060651
_symmetry_space_group_name_H-M "A B M 2"
_symmetry_group_IT_number 39
_symmetry_cell_setting 'orthorhombic'
loop_
_space_group_symop_operation_xyz
x,y,z
-x,-y,z
-x,1/2+y,z
x,1/2-y,z
x,1/2+y,1/2+z
-x,1/2-y,1/2+z
-x,y,1/2+z
x,-y,1/2+z
loop_
_atom_site_type_symbol
_atom_site_label
_atom_site_fract_x
_atom_site_fract_y
_atom_site_fract_z
Si Si1 0.254788 0.354859 0.848040
Si Si2 0.444611 0.643509 0.218176
Si Si3 0.361211 0.008230 0.451641
Si Si4 0.656278 0.854870 0.314200
Si Si5 0.903813 0.861871 0.714455
Si Si6 0.278599 0.031427 0.618009
Si Si7 0.167157 0.143471 0.190922
O O1 0.226021 0.250000 0.878608
O O2 0.361497 0.353196 0.790426
O O3 0.294610 0.415649 0.920606
O O4 0.144608 0.395704 0.797991
O O5 0.457562 0.750000 0.183618
O O6 0.567895 0.603688 0.250025
O O7 0.398648 0.569999 0.155402
O O8 0.340694 0.089342 0.391416
O O9 0.294925 0.038277 0.527911
O O10 0.500000 0.000000 0.466162
O O11 0.614243 0.750000 0.334720
O O12 0.784390 0.856975 0.277119
O O13 0.892082 0.750000 0.711300
O O14 0.827202 0.902564 0.645397
O O15 0.035803 0.895870 0.699582
O O16 0.246817 0.923320 0.638178
O O17 0.170793 0.250000 0.157089
#
# Coordination Sequence:
#
# PCOD8181854 Si02
#       7
#     8   8   8   8   8   8   8
#     4   9  18  37  63  85 111 152 198 239 285 342
#     4   9  18  36  61  84 108 149 197 242 285 336
#     4  12  25  36  53  88 127 158 184 231 298 358
#     4  10  21  38  60  86 116 150 194 243 290 340
#     4   9  19  41  67  87 108 146 205 254 289 334
#     4  11  23  35  58  87 121 156 193 236 291 355
#     4  10  22  39  62  88 114 152 201 249 286 333
#
# _framework density 19.690156999999999
#
# number of rings (size 3 to 8) (size 9 to 14) (size 15 to 20)
#    0.000    2.000    1.429    3.429    2.000    1.714 
#    0.000    2.857    0.000    3.429    0.000    0.000 
#    0.000    0.000    0.000    0.000    0.000    0.000 
#
# Total GULP energy -347057.281971 kJ/mol
# GULP energy per Si atom -12394.902928 kJ/mol
# Density = 1.964534 g / cm^3
# Si number density = 19.690157 Si / 1000 Ang^3
#
#
#
# Elastic Constant Matrix: (Units=GPa)
#
#
# Indices 1 2 3 4 5 6 
#
# 1 90.1331 41.5123 68.7331 0.0000 0.0000 0.0000
# 2 41.5123 82.5580 57.3792 0.0000 0.0000 0.0000
# 3 68.7331 57.3792 125.1387 0.0000 0.0000 0.0000
# 4 0.0000 0.0000 0.0000 13.1169 0.0000 0.0000
# 5 0.0000 0.0000 0.0000 0.0000 15.9344 0.0000
# 6 0.0000 0.0000 0.0000 0.0000 0.0000 24.3430
#
#
#
# Elastic Compliance Matrix: (Units=1/GPa)
#
#
# Indices 1 2 3 4 5 6 
#
# 1 0.019761 -0.003512 -0.009244 0.000000 0.000000 0.000000
# 2 -0.003512 0.018402 -0.006509 0.000000 0.000000 0.000000
# 3 -0.009244 -0.006509 0.016053 0.000000 0.000000 0.000000
# 4 0.000000 0.000000 0.000000 0.076237 0.000000 0.000000
# 5 0.000000 0.000000 0.000000 0.000000 0.062757 0.000000
# 6 0.000000 0.000000 0.000000 0.000000 0.000000 0.041080
#
#
# Mechanical properties :
#
#
# Convention : Reuss Voigt Hill
#
# Bulk Modulus (GPa) = 63.74612 70.34211 67.04412
# Shear Modulus (GPa) = 17.98246 19.35922 18.67084
#
# Velocity S-wave (km/s) = 3.02532 3.13899 3.08268
# Velocity P-wave (km/s) = 6.68194 6.99570 6.84062
#
# Compressibility (1/GPa) = 0.01568723
#
# Stress axis : x y z
#
# Youngs Moduli (GPa) = 50.60452 54.34049 62.29461
#
# Poissons Ratio (x) = 0.19084 0.57582
# Poissons Ratio (y) = 0.17772 0.40548
# Poissons Ratio (z) = 0.46777 0.35370
#
# Static dielectric constant tensor:
#      x y z
#    x 3.985670 0.000000 0.000000 
#    y 0.000000 3.938890 0.000000 
#    z 0.000000 0.000000 3.252100 
# 
# 
# High freq. dielectric constant tensor:
#      x y z
#    x 1.772570 0.000000 0.000000 
#    y 0.000000 1.783770 0.000000 
#    z 0.000000 0.000000 1.730810 
# 
# From -- ./inp_files/9293.got.cif
#   From: 2010.03.12/outbox.cif.g09.slc.cpg/sg39_5_cif.got.tgz:9293.got - 2010.04.14 02:53:20.
