data_PCOD8181123
_publ_section_title
;
Structure prediction by ZEFSAII (Michael W. Deem and Ramdas Pophale) SiO2 
 PCOD8181123
Probable space group: A B M 2
;
_chemical_formula_sum "Si O2"
_cell_formula_units_Z 56
_cell_length_a 14.401943
_cell_length_b 8.782811
_cell_length_c 25.239471
_cell_angle_alpha 90.000000
_cell_angle_beta 90.000000
_cell_angle_gamma 90.000000
_cell_volume 3192.529162
_symmetry_space_group_name_H-M "A B M 2"
_symmetry_group_IT_number 39
_symmetry_cell_setting 'orthorhombic'
loop_
_space_group_symop_operation_xyz
x,y,z
-x,-y,z
-x,1/2+y,z
x,1/2-y,z
x,1/2+y,1/2+z
-x,1/2-y,1/2+z
-x,y,1/2+z
x,-y,1/2+z
loop_
_atom_site_type_symbol
_atom_site_label
_atom_site_fract_x
_atom_site_fract_y
_atom_site_fract_z
Si Si1 0.404252 0.430350 0.537920
Si Si2 0.100872 0.929380 0.975982
Si Si3 0.788448 0.429307 0.871415
Si Si4 0.594102 0.571584 0.416548
Si Si5 0.095569 0.072753 0.168678
Si Si6 0.901715 0.069912 0.280042
Si Si7 0.780329 0.573119 0.068545
O O1 0.500000 0.500000 0.559800
O O2 0.404395 0.250000 0.544825
O O3 0.389608 0.481182 0.476985
O O4 0.322029 0.502783 0.572207
O O5 0.092647 0.750000 0.981154
O O6 0.149736 0.977444 0.921522
O O7 0.000000 0.000000 0.978002
O O8 0.160776 0.987542 0.024585
O O9 0.796093 0.250000 0.860642
O O10 0.682215 0.479616 0.881882
O O11 0.822086 0.521520 0.820666
O O12 0.500000 0.500000 0.392812
O O13 0.581629 0.750000 0.414871
O O14 0.078346 0.250000 0.180249
O O15 0.174742 0.045831 0.125692
O O16 0.127437 0.991368 0.222551
O O17 0.000000 0.000000 0.147342
O O18 0.911146 0.250000 0.278688
O O19 0.000000 0.000000 0.298331
O O20 0.776003 0.750000 0.053798
#
# Coordination Sequence:
#
# PCOD8181123 Si02
#       7
#     8   8   8   8   8   8   8
#     4  10  19  34  54  79 109 143 180 220 266 318
#     4  11  22  35  50  74 109 145 178 214 265 321
#     4  10  20  36  54  76 108 142 177 217 265 316
#     4   9  18  33  52  77 106 140 176 215 260 311
#     4  10  21  37  56  78 105 140 181 223 267 314
#     4  11  22  36  56  80 104 138 181 223 268 314
#     4  11  22  35  54  80 108 142 180 220 269 320
#
# _framework density 17.540951
#
# number of rings (size 3 to 8) (size 9 to 14) (size 15 to 20)
#    0.000    1.714    1.429    4.714    0.000    6.857 
#    0.000    0.000    0.000    0.857    0.000    4.000 
#    0.000    0.000    0.000    0.000    0.000    0.000 
#
# Total GULP energy -347303.750820 kJ/mol
# GULP energy per Si atom -12403.705386 kJ/mol
# Density = 1.750103 g / cm^3
# Si number density = 17.540951 Si / 1000 Ang^3
#
#
#
# Elastic Constant Matrix: (Units=GPa)
#
#
# Indices 1 2 3 4 5 6 
#
# 1 150.2620 48.5404 61.4458 0.0000 0.0000 0.0000
# 2 48.5404 75.2004 42.0961 0.0000 0.0000 0.0000
# 3 61.4458 42.0961 79.5164 0.0000 0.0000 0.0000
# 4 0.0000 0.0000 0.0000 27.5038 0.0000 0.0000
# 5 0.0000 0.0000 0.0000 0.0000 18.0694 0.0000
# 6 0.0000 0.0000 0.0000 0.0000 0.0000 34.4758
#
#
#
# Elastic Compliance Matrix: (Units=1/GPa)
#
#
# Indices 1 2 3 4 5 6 
#
# 1 0.010211 -0.003090 -0.006255 0.000000 0.000000 0.000000
# 2 -0.003090 0.019833 -0.008112 0.000000 0.000000 0.000000
# 3 -0.006255 -0.008112 0.021704 0.000000 0.000000 0.000000
# 4 0.000000 0.000000 0.000000 0.036359 0.000000 0.000000
# 5 0.000000 0.000000 0.000000 0.000000 0.055342 0.000000
# 6 0.000000 0.000000 0.000000 0.000000 0.000000 0.029006
#
#
# Mechanical properties :
#
#
# Convention : Reuss Voigt Hill
#
# Bulk Modulus (GPa) = 59.40064 67.68261 63.54162
# Shear Modulus (GPa) = 23.47647 26.20290 24.83969
#
# Velocity S-wave (km/s) = 3.66236 3.86918 3.76719
# Velocity P-wave (km/s) = 7.19870 7.65702 7.43140
#
# Compressibility (1/GPa) = 0.01683484
#
# Stress axis : x y z
#
# Youngs Moduli (GPa) = 97.93556 50.42051 46.07459
#
# Poissons Ratio (x) = 0.15578 0.28818
# Poissons Ratio (y) = 0.30258 0.37377
# Poissons Ratio (z) = 0.61256 0.40902
#
# Static dielectric constant tensor:
#      x y z
#    x 3.451940 0.000000 0.000000 
#    y 0.000000 3.350000 0.000000 
#    z 0.000000 0.000000 3.157760 
# 
# 
# High freq. dielectric constant tensor:
#      x y z
#    x 1.683680 0.000000 0.000000 
#    y 0.000000 1.691350 0.000000 
#    z 0.000000 0.000000 1.659080 
# 
# From -- ./inp_files/14794.got.cif
#   From: 2010.03.12/outbox.cif.g09.slc.cpg/sg39_8_cif.got.tgz:14794.got - 2010.04.14 02:53:20.
