data_PCOD8181696
_publ_section_title
;
Structure prediction by ZEFSAII (Michael W. Deem and Ramdas Pophale) SiO2 
 PCOD8181696
Probable space group: A B M 2
;
_chemical_formula_sum "Si O2"
_cell_formula_units_Z 40
_cell_length_a 8.697400
_cell_length_b 10.097718
_cell_length_c 22.914880
_cell_angle_alpha 90.000000
_cell_angle_beta 90.000000
_cell_angle_gamma 90.000000
_cell_volume 2012.473959
_symmetry_space_group_name_H-M "A B M 2"
_symmetry_group_IT_number 39
_symmetry_cell_setting 'orthorhombic'
loop_
_space_group_symop_operation_xyz
x,y,z
-x,-y,z
-x,1/2+y,z
x,1/2-y,z
x,1/2+y,1/2+z
-x,1/2-y,1/2+z
-x,y,1/2+z
x,-y,1/2+z
loop_
_atom_site_type_symbol
_atom_site_label
_atom_site_fract_x
_atom_site_fract_y
_atom_site_fract_z
Si Si1 0.309498 0.250000 0.363770
Si Si2 0.681609 0.513512 0.673475
Si Si3 0.684858 0.750000 0.231500
Si Si4 0.181809 0.988841 0.934039
Si Si5 0.320941 0.250000 0.750839
Si Si6 0.145273 0.906058 0.060703
Si Si7 0.672373 0.250000 0.383784
O O1 0.253671 0.250000 0.297070
O O2 0.238277 0.381738 0.388908
O O3 0.489626 0.250000 0.377773
O O4 0.500000 0.500000 0.673080
O O5 0.749725 0.373734 0.694658
O O6 0.745289 0.619374 0.720110
O O7 0.731194 0.558486 0.609559
O O8 0.502439 0.750000 0.240107
O O9 0.267890 0.124931 0.919943
O O10 0.224370 0.941969 0.999219
O O11 0.000000 0.000000 0.927841
O O12 0.264231 0.250000 0.817668
O O13 0.099768 0.750000 0.062112
O O14 0.000000 0.000000 0.071611
#
# Coordination Sequence:
#
# PCOD8181696 Si02
#       7
#     4   8   4   8   4   8   4
#     4  11  21  42  65  94 128 159 216 257 300 375
#     4  10  20  38  65  91 122 159 204 254 306 365
#     4   9  20  34  61  94 124 161 196 249 318 367
#     4  11  24  42  63  89 128 170 204 255 320 377
#     4   9  18  38  59  90 128 161 196 249 314 365
#     4  11  25  44  64  86 123 168 206 253 311 371
#     4  11  23  38  69  96 122 165 208 259 308 369
#
# _framework density 19.876035000000002
#
# number of rings (size 3 to 8) (size 9 to 14) (size 15 to 20)
#    0.000    1.600    2.000    2.400    5.600    4.800 
#    0.000    6.000    0.000    0.000    0.000    0.000 
#    0.000    0.000    0.000    0.000    0.000    0.000 
#
# Total GULP energy -247968.375405 kJ/mol
# GULP energy per Si atom -12398.418770 kJ/mol
# Density = 1.983080 g / cm^3
# Si number density = 19.876035 Si / 1000 Ang^3
#
#
#
# Elastic Constant Matrix: (Units=GPa)
#
#
# Indices 1 2 3 4 5 6 
#
# 1 42.7648 31.6638 34.0981 0.0000 0.0000 0.0000
# 2 31.6638 204.8814 83.3849 0.0000 0.0000 0.0000
# 3 34.0981 83.3849 151.9019 0.0000 0.0000 0.0000
# 4 0.0000 0.0000 0.0000 41.3335 0.0000 0.0000
# 5 0.0000 0.0000 0.0000 0.0000 13.0922 0.0000
# 6 0.0000 0.0000 0.0000 0.0000 0.0000 27.3826
#
#
#
# Elastic Compliance Matrix: (Units=1/GPa)
#
#
# Indices 1 2 3 4 5 6 
#
# 1 0.029362 -0.002389 -0.005280 0.000000 0.000000 0.000000
# 2 -0.002389 0.006479 -0.003021 0.000000 0.000000 0.000000
# 3 -0.005280 -0.003021 0.009426 0.000000 0.000000 0.000000
# 4 0.000000 0.000000 0.000000 0.024193 0.000000 0.000000
# 5 0.000000 0.000000 0.000000 0.000000 0.076381 0.000000
# 6 0.000000 0.000000 0.000000 0.000000 0.000000 0.036519
#
#
# Mechanical properties :
#
#
# Convention : Reuss Voigt Hill
#
# Bulk Modulus (GPa) = 41.85912 77.53796 59.69854
# Shear Modulus (GPa) = 23.61786 33.05508 28.33647
#
# Velocity S-wave (km/s) = 3.45085 4.08249 3.77989
# Velocity P-wave (km/s) = 6.08142 7.83057 7.01076
#
# Compressibility (1/GPa) = 0.02388966
#
# Stress axis : x y z
#
# Youngs Moduli (GPa) = 34.05730 154.33472 106.08485
#
# Poissons Ratio (x) = 0.36872 0.56009
# Poissons Ratio (y) = 0.08137 0.32043
# Poissons Ratio (z) = 0.17981 0.46617
#
# Static dielectric constant tensor:
#      x y z
#    x 3.367970 0.000000 0.000000 
#    y 0.000000 4.097680 0.000000 
#    z 0.000000 0.000000 3.865970 
# 
# 
# High freq. dielectric constant tensor:
#      x y z
#    x 1.748610 0.000000 0.000000 
#    y 0.000000 1.800750 0.000000 
#    z 0.000000 0.000000 1.792220 
# 
# From -- ./inp_files/15482.got.cif
#   From: 2010.03.12/outbox.cif.g09.slc.cpg/sg39_8_cif.got.tgz:15482.got - 2010.04.14 02:53:20.
