data_PCOD8181876
_publ_section_title
;
Structure prediction by ZEFSAII (Michael W. Deem and Ramdas Pophale) SiO2 
 PCOD8181876
Probable space group: A B M 2
;
_chemical_formula_sum "Si O2"
_cell_formula_units_Z 56
_cell_length_a 14.512491
_cell_length_b 20.729037
_cell_length_c 8.878116
_cell_angle_alpha 90.000000
_cell_angle_beta 90.000000
_cell_angle_gamma 90.000000
_cell_volume 2670.803307
_symmetry_space_group_name_H-M "A B M 2"
_symmetry_group_IT_number 39
_symmetry_cell_setting 'orthorhombic'
loop_
_space_group_symop_operation_xyz
x,y,z
-x,-y,z
-x,1/2+y,z
x,1/2-y,z
x,1/2+y,1/2+z
-x,1/2-y,1/2+z
-x,y,1/2+z
x,-y,1/2+z
loop_
_atom_site_type_symbol
_atom_site_label
_atom_site_fract_x
_atom_site_fract_y
_atom_site_fract_z
Si Si1 0.871291 0.823927 0.361310
Si Si2 0.808599 0.088600 0.413838
Si Si3 0.956718 0.676378 0.042167
Si Si4 0.543282 0.823622 0.252828
Si Si5 0.691401 0.588600 0.381157
Si Si6 0.371291 0.676073 0.433685
Si Si7 0.750000 0.510186 0.647497
O O1 0.835493 0.750000 0.359333
O O2 0.933691 0.838653 0.214918
O O3 0.785396 0.871284 0.362023
O O4 0.935476 0.837407 0.507057
O O5 0.895645 0.134319 0.429085
O O6 0.714604 0.128716 0.432972
O O7 0.814504 0.055489 0.250562
O O8 0.814434 0.033558 0.541617
O O9 0.934156 0.750000 0.000930
O O10 0.565844 0.750000 0.294066
O O11 0.604355 0.865681 0.365910
O O12 0.435476 0.837408 0.287938
O O13 0.566309 0.838652 0.080077
O O14 0.685496 0.555489 0.544433
O O15 0.685566 0.533558 0.253378
O O16 0.335493 0.750000 0.435660
#
# Coordination Sequence:
#
# PCOD8181876 Si02
#       7
#     8   8   8   8   8   8   8
#     4  10  21  38  62  90 117 148 190 239 294 348
#     4  11  21  43  60  83 116 159 190 242 283 339
#     4  10  21  38  62  90 117 148 190 239 294 348
#     4  10  21  38  62  90 117 148 190 239 294 348
#     4  11  21  43  60  83 116 159 190 242 283 339
#     4  10  21  38  62  90 117 148 190 239 294 348
#     4  10  24  38  62  82 116 154 208 230 274 342
#
# _framework density 20.967475
#
# number of rings (size 3 to 8) (size 9 to 14) (size 15 to 20)
#    0.000    1.714    2.857    0.857    4.000    2.286 
#    0.000   10.000    0.000    0.000    0.000    0.000 
#    0.000    0.000    0.000    0.000    0.000    0.000 
#
# Total GULP energy -347222.611703 kJ/mol
# GULP energy per Si atom -12400.807561 kJ/mol
# Density = 2.091975 g / cm^3
# Si number density = 20.967475 Si / 1000 Ang^3
#
#
#
# Elastic Constant Matrix: (Units=GPa)
#
#
# Indices 1 2 3 4 5 6 
#
# 1 60.2766 34.7956 12.8932 0.0000 0.0000 0.0000
# 2 34.7956 89.7436 39.8361 0.0000 0.0000 0.0000
# 3 12.8932 39.8361 91.3026 0.0000 0.0000 0.0000
# 4 0.0000 0.0000 0.0000 24.7822 0.0000 0.0000
# 5 0.0000 0.0000 0.0000 0.0000 24.7068 0.0000
# 6 0.0000 0.0000 0.0000 0.0000 0.0000 7.3124
#
#
#
# Elastic Compliance Matrix: (Units=1/GPa)
#
#
# Indices 1 2 3 4 5 6 
#
# 1 0.021415 -0.008632 0.000742 0.000000 0.000000 0.000000
# 2 -0.008632 0.017299 -0.006329 0.000000 0.000000 0.000000
# 3 0.000742 -0.006329 0.013609 0.000000 0.000000 0.000000
# 4 0.000000 0.000000 0.000000 0.040351 0.000000 0.000000
# 5 0.000000 0.000000 0.000000 0.000000 0.040475 0.000000
# 6 0.000000 0.000000 0.000000 0.000000 0.000000 0.136754
#
#
# Mechanical properties :
#
#
# Convention : Reuss Voigt Hill
#
# Bulk Modulus (GPa) = 41.86706 46.26362 44.06534
# Shear Modulus (GPa) = 16.32377 21.61348 18.96863
#
# Velocity S-wave (km/s) = 2.79324 3.21411 3.01103
# Velocity P-wave (km/s) = 5.51488 5.99052 5.75761
#
# Compressibility (1/GPa) = 0.02388513
#
# Stress axis : x y z
#
# Youngs Moduli (GPa) = 46.69714 57.80657 73.48069
#
# Poissons Ratio (x) = 0.49901 -0.05455
# Poissons Ratio (y) = 0.40311 0.46504
# Poissons Ratio (z) = -0.03467 0.36584
#
# Static dielectric constant tensor:
#      x y z
#    x 3.496480 0.000000 0.000000 
#    y 0.000000 4.015880 0.000000 
#    z 0.000000 0.000000 3.984900 
# 
# 
# High freq. dielectric constant tensor:
#      x y z
#    x 1.793510 0.000000 0.000000 
#    y 0.000000 1.833250 0.000000 
#    z 0.000000 0.000000 1.830590 
# 
# From -- ./inp_files/3383.got.cif
#   From: 2010.03.12/outbox.cif.g09.slc.cpg/sg39_2_cif.got.tgz:3383.got - 2010.04.14 02:53:20.
