data_PCOD8181530
_publ_section_title
;
Structure prediction by ZEFSAII (Michael W. Deem and Ramdas Pophale) SiO2 
 PCOD8181530
Probable space group: A B M 2
;
_chemical_formula_sum "Si O2"
_cell_formula_units_Z 48
_cell_length_a 11.003414
_cell_length_b 23.605088
_cell_length_c 8.696473
_cell_angle_alpha 90.000000
_cell_angle_beta 90.000000
_cell_angle_gamma 90.000000
_cell_volume 2258.791944
_symmetry_space_group_name_H-M "A B M 2"
_symmetry_group_IT_number 39
_symmetry_cell_setting 'orthorhombic'
loop_
_space_group_symop_operation_xyz
x,y,z
-x,-y,z
-x,1/2+y,z
x,1/2-y,z
x,1/2+y,1/2+z
-x,1/2-y,1/2+z
-x,y,1/2+z
x,-y,1/2+z
loop_
_atom_site_type_symbol
_atom_site_label
_atom_site_fract_x
_atom_site_fract_y
_atom_site_fract_z
Si Si1 0.424414 0.750000 0.500000
Si Si2 0.755614 0.129503 0.207403
Si Si3 0.254428 0.952800 0.774853
Si Si4 0.324935 0.632346 0.538567
Si Si5 0.120732 0.965308 0.071300
Si Si6 0.668640 0.750000 0.658027
Si Si7 0.555514 0.442215 0.032943
O O1 0.361801 0.696145 0.579665
O O2 0.569249 0.750000 0.523270
O O3 0.404930 0.750000 0.317573
O O4 0.763681 0.129951 0.391571
O O5 0.877958 0.097623 0.146700
O O6 0.751766 0.193830 0.143850
O O7 0.640331 0.093749 0.146952
O O8 0.255218 0.892738 0.686565
O O9 0.377509 0.958348 0.872851
O O10 0.238041 0.001455 0.644710
O O11 0.138986 0.958432 0.888776
O O12 0.443564 0.597642 0.490926
O O13 0.000000 0.000000 0.107939
O O14 0.500000 0.500000 0.107918
#
# Coordination Sequence:
#
# PCOD8181530 Si02
#       7
#     4   8   8   8   8   4   8
#     4  10  22  34  58  85 129 180 210 241 291 361
#     4  10  21  36  58  87 121 164 209 251 310 363
#     4  11  24  37  58  88 120 160 204 254 314 375
#     4  11  21  36  55  88 128 167 203 243 294 370
#     4  11  23  42  63  87 116 156 210 271 326 364
#     4  10  20  36  56  89 127 172 216 249 295 367
#     4  11  21  33  53  85 126 167 201 242 297 375
#
# _framework density 21.250297
#
# number of rings (size 3 to 8) (size 9 to 14) (size 15 to 20)
#    0.000    1.333    1.667    5.500    2.333    2.667 
#    0.000    0.833    0.000    1.000    0.000    8.167 
#    0.000    0.000    0.000    0.000    0.000    0.000 
#
# Total GULP energy -297520.805848 kJ/mol
# GULP energy per Si atom -12396.700244 kJ/mol
# Density = 2.120193 g / cm^3
# Si number density = 21.250297 Si / 1000 Ang^3
#
#
#
# Elastic Constant Matrix: (Units=GPa)
#
#
# Indices 1 2 3 4 5 6 
#
# 1 72.8113 53.0115 27.3371 0.0000 0.0000 0.0000
# 2 53.0115 190.5582 51.1907 0.0000 0.0000 0.0000
# 3 27.3371 51.1907 93.6330 0.0000 0.0000 0.0000
# 4 0.0000 0.0000 0.0000 32.4584 0.0000 0.0000
# 5 0.0000 0.0000 0.0000 0.0000 20.7730 0.0000
# 6 0.0000 0.0000 0.0000 0.0000 0.0000 33.6445
#
#
#
# Elastic Compliance Matrix: (Units=1/GPa)
#
#
# Indices 1 2 3 4 5 6 
#
# 1 0.017884 -0.004187 -0.002932 0.000000 0.000000 0.000000
# 2 -0.004187 0.007132 -0.002676 0.000000 0.000000 0.000000
# 3 -0.002932 -0.002676 0.012999 0.000000 0.000000 0.000000
# 4 0.000000 0.000000 0.000000 0.030809 0.000000 0.000000
# 5 0.000000 0.000000 0.000000 0.000000 0.048139 0.000000
# 6 0.000000 0.000000 0.000000 0.000000 0.000000 0.029723
#
#
# Mechanical properties :
#
#
# Convention : Reuss Voigt Hill
#
# Bulk Modulus (GPa) = 54.28027 68.89792 61.58910
# Shear Modulus (GPa) = 28.99931 32.40604 30.70267
#
# Velocity S-wave (km/s) = 3.69813 3.90932 3.80519
# Velocity P-wave (km/s) = 6.62070 7.27114 6.95353
#
# Compressibility (1/GPa) = 0.01842290
#
# Stress axis : x y z
#
# Youngs Moduli (GPa) = 55.91684 140.22046 76.92744
#
# Poissons Ratio (x) = 0.58717 0.22555
# Poissons Ratio (y) = 0.23415 0.20589
# Poissons Ratio (z) = 0.16395 0.37529
#
# Static dielectric constant tensor:
#      x y z
#    x 3.442920 0.000000 0.000000 
#    y 0.000000 4.261020 0.000000 
#    z 0.000000 0.000000 3.861500 
# 
# 
# High freq. dielectric constant tensor:
#      x y z
#    x 1.789880 0.000000 0.000000 
#    y 0.000000 1.841340 0.000000 
#    z 0.000000 0.000000 1.843100 
# 
# From -- ./inp_files/2734.got.cif
#   From: 2010.03.12/outbox.cif.g09.slc.cpg/sg39_2_cif.got.tgz:2734.got - 2010.04.14 02:53:20.
