data_PCOD8181423
_publ_section_title
;
Structure prediction by ZEFSAII (Michael W. Deem and Ramdas Pophale) SiO2 
 PCOD8181423
Probable space group: A B M 2
;
_chemical_formula_sum "Si O2"
_cell_formula_units_Z 56
_cell_length_a 19.564195
_cell_length_b 9.086624
_cell_length_c 15.530768
_cell_angle_alpha 90.000000
_cell_angle_beta 90.000000
_cell_angle_gamma 90.000000
_cell_volume 2760.943203
_symmetry_space_group_name_H-M "A B M 2"
_symmetry_group_IT_number 39
_symmetry_cell_setting 'orthorhombic'
loop_
_space_group_symop_operation_xyz
x,y,z
-x,-y,z
-x,1/2+y,z
x,1/2-y,z
x,1/2+y,1/2+z
-x,1/2-y,1/2+z
-x,y,1/2+z
x,-y,1/2+z
loop_
_atom_site_type_symbol
_atom_site_label
_atom_site_fract_x
_atom_site_fract_y
_atom_site_fract_z
Si Si1 0.208706 0.416558 0.386340
Si Si2 0.066203 0.916344 0.626662
Si Si3 0.351797 0.578036 0.825669
Si Si4 0.934166 0.584187 0.330776
Si Si5 0.667596 0.080317 0.634689
Si Si6 0.571358 0.424825 0.476916
Si Si7 0.797408 0.917066 0.584242
O O1 0.199884 0.250000 0.353456
O O2 0.274298 0.483910 0.337590
O O3 0.136286 0.494588 0.363251
O O4 0.226321 0.425802 0.486168
O O5 0.065313 0.750000 0.591970
O O6 0.065610 0.920261 0.728810
O O7 0.132785 0.996018 0.592407
O O8 0.000000 0.000000 0.589481
O O9 0.356200 0.750000 0.852670
O O10 0.372165 0.556108 0.725392
O O11 0.402105 0.484455 0.885397
O O12 0.939002 0.750000 0.366611
O O13 0.000000 0.500000 0.368559
O O14 0.688236 0.250000 0.623375
O O15 0.620933 0.028459 0.555238
O O16 0.737471 0.988786 0.640136
O O17 0.500000 0.500000 0.498433
O O18 0.562640 0.250000 0.470913
O O19 0.808774 0.750000 0.615155
#
# Coordination Sequence:
#
# PCOD8181423 Si02
#       7
#     8   8   8   8   8   8   8
#     4   9  18  33  55  81 111 149 193 241 295 352
#     4  10  20  35  54  76 108 150 197 252 307 363
#     4  10  20  40  66  90 120 162 204 249 302 355
#     4   9  18  34  53  74 104 144 192 241 295 352
#     4  10  22  40  64  92 124 161 203 247 298 356
#     4  11  24  42  64  94 128 160 197 245 296 356
#     4  11  21  34  56  85 117 154 198 247 301 360
#
# _framework density 20.282921999999999
#
# number of rings (size 3 to 8) (size 9 to 14) (size 15 to 20)
#    0.000    2.000    1.429    2.143    0.000    5.143 
#    0.000    5.000    0.000    0.000    0.000    0.000 
#    0.000    0.000    0.000    0.000    0.000    0.000 
#
# Total GULP energy -347190.726459 kJ/mol
# GULP energy per Si atom -12399.668802 kJ/mol
# Density = 2.023676 g / cm^3
# Si number density = 20.282922 Si / 1000 Ang^3
#
#
#
# Elastic Constant Matrix: (Units=GPa)
#
#
# Indices 1 2 3 4 5 6 
#
# 1 121.6048 52.6812 33.3135 0.0000 0.0000 0.0000
# 2 52.6812 98.9335 36.1984 0.0000 0.0000 0.0000
# 3 33.3135 36.1984 73.4116 0.0000 0.0000 0.0000
# 4 0.0000 0.0000 0.0000 22.8989 0.0000 0.0000
# 5 0.0000 0.0000 0.0000 0.0000 26.9671 0.0000
# 6 0.0000 0.0000 0.0000 0.0000 0.0000 37.0563
#
#
#
# Elastic Compliance Matrix: (Units=1/GPa)
#
#
# Indices 1 2 3 4 5 6 
#
# 1 0.011077 -0.004953 -0.002584 0.000000 0.000000 0.000000
# 2 -0.004953 0.014547 -0.004926 0.000000 0.000000 0.000000
# 3 -0.002584 -0.004926 0.017223 0.000000 0.000000 0.000000
# 4 0.000000 0.000000 0.000000 0.043670 0.000000 0.000000
# 5 0.000000 0.000000 0.000000 0.000000 0.037082 0.000000
# 6 0.000000 0.000000 0.000000 0.000000 0.000000 0.026986
#
#
# Mechanical properties :
#
#
# Convention : Reuss Voigt Hill
#
# Bulk Modulus (GPa) = 55.79732 59.81513 57.80623
# Shear Modulus (GPa) = 27.55036 28.83491 28.19264
#
# Velocity S-wave (km/s) = 3.68951 3.77455 3.73227
# Velocity P-wave (km/s) = 6.76160 6.96783 6.86549
#
# Compressibility (1/GPa) = 0.01792201
#
# Stress axis : x y z
#
# Youngs Moduli (GPa) = 90.27715 68.74128 58.06056
#
# Poissons Ratio (x) = 0.34046 0.15006
# Poissons Ratio (y) = 0.44712 0.28598
# Poissons Ratio (z) = 0.23332 0.33859
#
# Static dielectric constant tensor:
#      x y z
#    x 3.778790 0.000000 0.000000 
#    y 0.000000 3.663350 0.000000 
#    z 0.000000 0.000000 3.641960 
# 
# 
# High freq. dielectric constant tensor:
#      x y z
#    x 1.798100 0.000000 0.000000 
#    y 0.000000 1.775480 0.000000 
#    z 0.000000 0.000000 1.791130 
# 
# From -- ./inp_files/10334.got.cif
#   From: 2010.03.12/outbox.cif.g09.slc.cpg/sg39_6_cif.got.tgz:10334.got - 2010.04.14 02:53:20.
