data_PCOD8181837
_publ_section_title
;
Structure prediction by ZEFSAII (Michael W. Deem and Ramdas Pophale) SiO2 
 PCOD8181837
Probable space group: A B M 2
;
_chemical_formula_sum "Si O2"
_cell_formula_units_Z 64
_cell_length_a 15.428158
_cell_length_b 8.473526
_cell_length_c 23.783540
_cell_angle_alpha 90.000000
_cell_angle_beta 90.000000
_cell_angle_gamma 90.000000
_cell_volume 3109.243541
_symmetry_space_group_name_H-M "A B M 2"
_symmetry_group_IT_number 39
_symmetry_cell_setting 'orthorhombic'
loop_
_space_group_symop_operation_xyz
x,y,z
-x,-y,z
-x,1/2+y,z
x,1/2-y,z
x,1/2+y,1/2+z
-x,1/2-y,1/2+z
-x,y,1/2+z
x,-y,1/2+z
loop_
_atom_site_type_symbol
_atom_site_label
_atom_site_fract_x
_atom_site_fract_y
_atom_site_fract_z
Si Si1 0.845671 0.564773 0.891240
Si Si2 0.091242 0.435885 0.771980
Si Si3 0.754827 0.566484 0.073150
Si Si4 0.593843 0.561586 0.269875
Si Si5 0.088541 0.434622 0.504176
Si Si6 0.251286 0.563452 0.196132
Si Si7 0.408333 0.937225 0.008930
Si Si8 0.344548 0.435319 0.389918
O O1 0.831120 0.750000 0.886936
O O2 0.891559 0.499403 0.834925
O O3 0.753460 0.485184 0.898331
O O4 0.903490 0.521681 0.944489
O O5 0.087118 0.250000 0.771994
O O6 0.168763 0.494119 0.732150
O O7 0.000000 0.500000 0.748995
O O8 0.771509 0.750000 0.061989
O O9 0.831852 0.468562 0.045047
O O10 0.752773 0.531539 0.138718
O O11 0.663932 0.516898 0.046994
O O12 0.500000 0.500000 0.251623
O O13 0.599174 0.750000 0.265728
O O14 0.661557 0.482730 0.228015
O O15 0.614149 0.495981 0.332723
O O16 0.082491 0.250000 0.493519
O O17 0.000000 0.500000 0.532269
O O18 0.249837 0.750000 0.184772
O O19 0.401396 0.750000 0.015164
O O20 0.500000 0.000000 0.031335
O O21 0.397789 0.993971 0.944245
O O22 0.347796 0.250000 0.386130
#
# Coordination Sequence:
#
# PCOD8181837 Si02
#       8
#     8   8   8   8   8   8   8   8
#     4  11  21  37  63  96 130 169 208 254 313 377
#     4  10  23  40  63  94 127 165 206 252 310 369
#     4  12  26  45  67  94 124 165 214 267 320 377
#     4  11  23  40  64  96 129 168 211 259 315 377
#     4  12  25  43  66  96 130 169 211 260 316 377
#     4  11  24  45  66  90 124 166 213 267 317 372
#     4  11  23  41  65  96 130 169 210 258 314 377
#     4  10  21  37  62  94 130 169 207 253 315 378
#
# _framework density 20.583784999999999
#
# number of rings (size 3 to 8) (size 9 to 14) (size 15 to 20)
#    0.000    1.000    2.500    4.500    0.000    5.000 
#    0.000    3.750    0.000    0.000    0.000    0.000 
#    0.000    0.000    0.000    0.000    0.000    0.000 
#
# Total GULP energy -396971.156816 kJ/mol
# GULP energy per Si atom -12405.348650 kJ/mol
# Density = 2.053693 g / cm^3
# Si number density = 20.583785 Si / 1000 Ang^3
#
#
#
# Elastic Constant Matrix: (Units=GPa)
#
#
# Indices 1 2 3 4 5 6 
#
# 1 160.7879 43.0731 41.6366 0.0000 0.0000 0.0000
# 2 43.0731 211.4159 -4.1796 0.0000 0.0000 0.0000
# 3 41.6366 -4.1796 122.7896 0.0000 0.0000 0.0000
# 4 0.0000 0.0000 0.0000 -98.3469 0.0000 0.0000
# 5 0.0000 0.0000 0.0000 0.0000 2.6689 0.0000
# 6 0.0000 0.0000 0.0000 0.0000 0.0000 36.6823
#
#
#
# Elastic Compliance Matrix: (Units=1/GPa)
#
#
# Indices 1 2 3 4 5 6 
#
# 1 0.007283 -0.001534 -0.002522 0.000000 0.000000 0.000000
# 2 -0.001534 0.005056 0.000692 0.000000 0.000000 0.000000
# 3 -0.002522 0.000692 0.009023 0.000000 0.000000 0.000000
# 4 0.000000 0.000000 0.000000 -0.010168 0.000000 0.000000
# 5 0.000000 0.000000 0.000000 0.000000 0.374686 0.000000
# 6 0.000000 0.000000 0.000000 0.000000 0.000000 0.027261
#
#
# Mechanical properties :
#
#
# Convention : Reuss Voigt Hill
#
# Bulk Modulus (GPa) = 68.32795 72.89483 70.61139
# Shear Modulus (GPa) = 11.77174 15.83174 13.80174
#
# Velocity S-wave (km/s) = 2.39402 2.77634 2.59224
# Velocity P-wave (km/s) = 6.39601 6.76521 6.58320
#
# Compressibility (1/GPa) = 0.01463530
#
# Stress axis : x y z
#
# Youngs Moduli (GPa) = 137.30055 197.77802 110.83141
#
# Poissons Ratio (x) = 0.30334 0.27950
# Poissons Ratio (y) = 0.21058 -0.07671
# Poissons Ratio (z) = 0.34626 -0.13690
#
# Static dielectric constant tensor:
#      x y z
#    x 3.929920 0.000000 0.000000 
#    y 0.000000 3.702080 0.000000 
#    z 0.000000 0.000000 3.913380 
# 
# 
# High freq. dielectric constant tensor:
#      x y z
#    x 1.821400 0.000000 0.000000 
#    y 0.000000 1.808850 0.000000 
#    z 0.000000 0.000000 1.805900 
# 
# From -- ./inp_files/16200.got.cif
#   From: 2010.03.12/outbox.cif.g09.slc.cpg/sg39_9_cif.got.tgz:16200.got - 2010.04.14 02:53:20.
