data_PCOD8181258
_publ_section_title
;
Structure prediction by ZEFSAII (Michael W. Deem and Ramdas Pophale) SiO2 
 PCOD8181258
Probable space group: A B M 2
;
_chemical_formula_sum "Si O2"
_cell_formula_units_Z 64
_cell_length_a 10.895937
_cell_length_b 18.327014
_cell_length_c 15.820965
_cell_angle_alpha 90.000000
_cell_angle_beta 90.000000
_cell_angle_gamma 90.000000
_cell_volume 3159.288342
_symmetry_space_group_name_H-M "A B M 2"
_symmetry_group_IT_number 39
_symmetry_cell_setting 'orthorhombic'
loop_
_space_group_symop_operation_xyz
x,y,z
-x,-y,z
-x,1/2+y,z
x,1/2-y,z
x,1/2+y,1/2+z
-x,1/2-y,1/2+z
-x,y,1/2+z
x,-y,1/2+z
loop_
_atom_site_type_symbol
_atom_site_label
_atom_site_fract_x
_atom_site_fract_y
_atom_site_fract_z
Si Si1 0.652719 0.668122 0.850360
Si Si2 0.019525 0.665867 0.648294
Si Si3 0.060023 0.079142 0.485436
Si Si4 0.928964 0.663383 0.833950
Si Si5 0.425045 0.112622 0.022034
Si Si6 0.557360 0.930803 0.291356
Si Si7 0.339818 0.541543 0.972605
Si Si8 0.297776 0.832139 0.678850
O O1 0.653583 0.750000 0.815930
O O2 0.789175 0.635056 0.840117
O O3 0.553991 0.625666 0.795348
O O4 0.612598 0.667039 0.947559
O O5 0.982607 0.750000 0.633881
O O6 0.164580 0.654025 0.640217
O O7 0.958116 0.618049 0.575467
O O8 0.978277 0.640170 0.741702
O O9 0.204826 0.073573 0.472148
O O10 0.006630 0.125227 0.407635
O O11 0.000000 0.000000 0.487417
O O12 0.939852 0.750000 0.848466
O O13 0.398388 0.155791 0.107088
O O14 0.570467 0.096116 0.023406
O O15 0.344589 0.038592 0.014024
O O16 0.605353 0.964681 0.378729
O O17 0.674738 0.891568 0.250739
O O18 0.500000 0.000000 0.239722
O O19 0.307371 0.750000 0.715808
#
# Coordination Sequence:
#
# PCOD8181258 Si02
#       8
#     8   8   8   8   8   8   8   8
#     4  10  19  37  63  88 117 158 210 250 297 371
#     4  10  23  44  62  88 129 167 211 262 313 377
#     4  12  24  38  63  95 124 161 212 259 312 375
#     4  10  22  41  64  88 123 170 208 253 315 373
#     4  10  20  39  60  85 120 158 199 249 312 361
#     4  11  22  39  62  89 124 161 201 256 318 369
#     4  10  21  40  59  87 122 157 203 251 307 372
#     4  11  23  39  62  90 122 161 206 252 310 374
#
# _framework density 20.257726000000002
#
# number of rings (size 3 to 8) (size 9 to 14) (size 15 to 20)
#    0.000    1.500    2.500    4.125    1.750    3.500 
#    2.250    8.125    0.000    0.000    0.000    0.000 
#    0.000    0.000    0.000    0.000    0.000    0.000 
#
# Total GULP energy -396799.876087 kJ/mol
# GULP energy per Si atom -12399.996128 kJ/mol
# Density = 2.021162 g / cm^3
# Si number density = 20.257726 Si / 1000 Ang^3
#
#
#
# Elastic Constant Matrix: (Units=GPa)
#
#
# Indices 1 2 3 4 5 6 
#
# 1 128.8100 42.7987 26.8015 0.0000 0.0000 0.0000
# 2 42.7987 87.2615 35.4844 0.0000 0.0000 0.0000
# 3 26.8015 35.4844 86.3987 0.0000 0.0000 0.0000
# 4 0.0000 0.0000 0.0000 31.5908 0.0000 0.0000
# 5 0.0000 0.0000 0.0000 0.0000 22.7710 0.0000
# 6 0.0000 0.0000 0.0000 0.0000 0.0000 28.9992
#
#
#
# Elastic Compliance Matrix: (Units=1/GPa)
#
#
# Indices 1 2 3 4 5 6 
#
# 1 0.009382 -0.004103 -0.001225 0.000000 0.000000 0.000000
# 2 -0.004103 0.015552 -0.005114 0.000000 0.000000 0.000000
# 3 -0.001225 -0.005114 0.014055 0.000000 0.000000 0.000000
# 4 0.000000 0.000000 0.000000 0.031655 0.000000 0.000000
# 5 0.000000 0.000000 0.000000 0.000000 0.043916 0.000000
# 6 0.000000 0.000000 0.000000 0.000000 0.000000 0.034484
#
#
# Mechanical properties :
#
#
# Convention : Reuss Voigt Hill
#
# Bulk Modulus (GPa) = 55.23929 56.95995 56.09962
# Shear Modulus (GPa) = 28.41520 29.83125 29.12323
#
# Velocity S-wave (km/s) = 3.74931 3.84159 3.79573
# Velocity P-wave (km/s) = 6.78753 6.91779 6.85297
#
# Compressibility (1/GPa) = 0.01810306
#
# Stress axis : x y z
#
# Youngs Moduli (GPa) = 106.59159 64.30024 71.15005
#
# Poissons Ratio (x) = 0.26384 0.08716
# Poissons Ratio (y) = 0.43737 0.36389
# Poissons Ratio (z) = 0.13058 0.32886
#
# Static dielectric constant tensor:
#      x y z
#    x 3.952320 0.000000 0.000000 
#    y 0.000000 3.730290 0.000000 
#    z 0.000000 0.000000 3.573770 
# 
# 
# High freq. dielectric constant tensor:
#      x y z
#    x 1.801420 0.000000 0.000000 
#    y 0.000000 1.796250 0.000000 
#    z 0.000000 0.000000 1.783520 
# 
# From -- ./inp_files/9419.got.cif
#   From: 2010.03.12/outbox.cif.g09.slc.cpg/sg39_5_cif.got.tgz:9419.got - 2010.04.14 02:53:20.
