data_PCOD8181568
_publ_section_title
;
Structure prediction by ZEFSAII (Michael W. Deem and Ramdas Pophale) SiO2 
 PCOD8181568
Probable space group: A B M 2
;
_chemical_formula_sum "Si O2"
_cell_formula_units_Z 48
_cell_length_a 9.091489
_cell_length_b 8.499479
_cell_length_c 30.814086
_cell_angle_alpha 90.000000
_cell_angle_beta 90.000000
_cell_angle_gamma 90.000000
_cell_volume 2381.094397
_symmetry_space_group_name_H-M "A B M 2"
_symmetry_group_IT_number 39
_symmetry_cell_setting 'orthorhombic'
loop_
_space_group_symop_operation_xyz
x,y,z
-x,-y,z
-x,1/2+y,z
x,1/2-y,z
x,1/2+y,1/2+z
-x,1/2-y,1/2+z
-x,y,1/2+z
x,-y,1/2+z
loop_
_atom_site_type_symbol
_atom_site_label
_atom_site_fract_x
_atom_site_fract_y
_atom_site_fract_z
Si Si1 0.661230 0.065420 0.117740
Si Si2 0.163659 0.066578 0.354806
Si Si3 0.337744 0.934486 0.276901
Si Si4 0.835015 0.566108 0.037993
Si Si5 0.840206 0.931440 0.450421
Si Si6 0.838789 0.434553 0.697435
O O1 0.649336 0.250000 0.115895
O O2 0.500000 0.000000 0.127079
O O3 0.724250 0.005487 0.072499
O O4 0.769812 0.016815 0.155865
O O5 0.161752 0.250000 0.341469
O O6 0.235126 0.046665 0.403219
O O7 0.264477 0.965671 0.323206
O O8 0.000000 0.000000 0.352013
O O9 0.336321 0.750000 0.266219
O O10 0.500000 0.000000 0.278624
O O11 0.253606 0.029297 0.240034
O O12 0.841632 0.750000 0.045199
O O13 0.000000 0.500000 0.043049
O O14 0.765761 0.524530 0.990524
O O15 0.849236 0.750000 0.464055
O O16 0.000000 0.000000 0.444025
O O17 0.844021 0.250000 0.688862
O O18 0.000000 0.500000 0.705342
#
# Coordination Sequence:
#
# PCOD8181568 Si02
#       6
#     8   8   8   8   8   8
#     4  12  25  43  63  88 121 157 196 240 294 352
#     4  10  20  36  59  88 120 156 199 246 295 348
#     4  12  25  42  62  87 120 158 197 241 295 352
#     4  11  21  36  59  88 120 157 200 246 295 347
#     4   9  17  31  54  84 117 153 196 246 296 345
#     4  12  25  44  67  93 121 153 195 241 290 344
#
# _framework density 20.158798000000001
#
# number of rings (size 3 to 8) (size 9 to 14) (size 15 to 20)
#    0.000    1.000    0.000    9.500    0.000    2.000 
#    0.000    0.833    0.000    4.000    0.000    0.000 
#    0.000    0.000    0.000    0.000    0.000    0.000 
#
# Total GULP energy -297616.600309 kJ/mol
# GULP energy per Si atom -12400.691680 kJ/mol
# Density = 2.011292 g / cm^3
# Si number density = 20.158798 Si / 1000 Ang^3
#
#
#
# Elastic Constant Matrix: (Units=GPa)
#
#
# Indices 1 2 3 4 5 6 
#
# 1 81.7978 15.5795 31.3096 0.0000 0.0000 0.0000
# 2 15.5795 142.2728 20.8666 0.0000 0.0000 0.0000
# 3 31.3096 20.8666 118.2487 0.0000 0.0000 0.0000
# 4 0.0000 0.0000 0.0000 41.0898 0.0000 0.0000
# 5 0.0000 0.0000 0.0000 0.0000 -34.6183 0.0000
# 6 0.0000 0.0000 0.0000 0.0000 0.0000 31.3139
#
#
#
# Elastic Compliance Matrix: (Units=1/GPa)
#
#
# Indices 1 2 3 4 5 6 
#
# 1 0.013740 -0.000997 -0.003462 0.000000 0.000000 0.000000
# 2 -0.000997 0.007288 -0.001022 0.000000 0.000000 0.000000
# 3 -0.003462 -0.001022 0.009554 0.000000 0.000000 0.000000
# 4 0.000000 0.000000 0.000000 0.024337 0.000000 0.000000
# 5 0.000000 0.000000 0.000000 0.000000 -0.028886 0.000000
# 6 0.000000 0.000000 0.000000 0.000000 0.000000 0.031935
#
#
# Mechanical properties :
#
#
# Convention : Reuss Voigt Hill
#
# Bulk Modulus (GPa) = 50.96922 53.09230 52.03076
# Shear Modulus (GPa) = 66.25200 25.86132 46.05666
#
# Velocity S-wave (km/s) = 5.73902 3.58562 4.78503
# Velocity P-wave (km/s) = 8.32190 6.59821 7.50967
#
# Compressibility (1/GPa) = 0.01961968
#
# Stress axis : x y z
#
# Youngs Moduli (GPa) = 72.77830 137.21535 104.67002
#
# Poissons Ratio (x) = 0.13678 0.36239
# Poissons Ratio (y) = 0.07255 0.10698
# Poissons Ratio (z) = 0.25198 0.14025
#
# Static dielectric constant tensor:
#      x y z
#    x 3.476020 0.000000 0.000000 
#    y 0.000000 3.961230 0.000000 
#    z 0.000000 0.000000 4.290950 
# 
# 
# High freq. dielectric constant tensor:
#      x y z
#    x 1.765510 0.000000 0.000000 
#    y 0.000000 1.810830 0.000000 
#    z 0.000000 0.000000 1.812770 
# 
# From -- ./inp_files/17612.got.cif
#   From: 2010.03.12/outbox.cif.g09.slc.cpg/sg39_9_cif.got.tgz:17612.got - 2010.04.14 02:53:20.
