data_PCOD8181702
_publ_section_title
;
Structure prediction by ZEFSAII (Michael W. Deem and Ramdas Pophale) SiO2 
 PCOD8181702
Probable space group: A B M 2
;
_chemical_formula_sum "Si O2"
_cell_formula_units_Z 64
_cell_length_a 15.395240
_cell_length_b 23.607010
_cell_length_c 8.553930
_cell_angle_alpha 90.000000
_cell_angle_beta 90.000000
_cell_angle_gamma 90.000000
_cell_volume 3108.802550
_symmetry_space_group_name_H-M "A B M 2"
_symmetry_group_IT_number 39
_symmetry_cell_setting 'orthorhombic'
loop_
_space_group_symop_operation_xyz
x,y,z
-x,-y,z
-x,1/2+y,z
x,1/2-y,z
x,1/2+y,1/2+z
-x,1/2-y,1/2+z
-x,y,1/2+z
x,-y,1/2+z
loop_
_atom_site_type_symbol
_atom_site_label
_atom_site_fract_x
_atom_site_fract_y
_atom_site_fract_z
Si Si1 0.732157 0.927745 0.638740
Si Si2 0.025591 0.184293 0.355503
Si Si3 0.722927 0.311767 0.702172
Si Si4 0.393481 0.588623 0.658369
Si Si5 0.809724 0.812571 0.537788
Si Si6 0.230609 0.963584 0.486886
Si Si7 0.452484 0.558107 0.991774
Si Si8 0.882475 0.636605 0.059385
O O1 0.770442 0.863892 0.638564
O O2 0.746771 0.953233 0.808476
O O3 0.630562 0.927263 0.597771
O O4 0.783590 0.968935 0.516391
O O5 0.019206 0.250000 0.300387
O O6 0.087067 0.179334 0.509393
O O7 0.060402 0.145484 0.214576
O O8 0.931925 0.160125 0.406366
O O9 0.688975 0.250000 0.659133
O O10 0.638965 0.350342 0.710969
O O11 0.791264 0.330247 0.569034
O O12 0.769461 0.313905 0.866976
O O13 0.315157 0.551776 0.588936
O O14 0.429408 0.556488 0.810552
O O15 0.470738 0.602195 0.535196
O O16 0.792136 0.750000 0.614553
O O17 0.143630 0.929625 0.538445
O O18 0.500000 0.500000 0.043242
#
# Coordination Sequence:
#
# PCOD8181702 Si02
#       8
#     8   8   8   8   8   8   8   8
#     4  12  24  43  66  96 131 174 216 273 330 403
#     4  10  20  38  67  99 131 171 222 275 322 379
#     4   9  18  38  63  89 128 174 214 267 329 392
#     4  11  22  39  57  96 125 165 215 272 332 387
#     4   9  20  39  67  94 125 173 220 269 326 389
#     4  11  26  41  65  94 133 174 217 269 334 399
#     4  12  23  36  65  96 126 161 218 275 326 388
#     4  10  22  39  64  97 131 166 224 271 328 386
#
# _framework density 20.586704000000001
#
# number of rings (size 3 to 8) (size 9 to 14) (size 15 to 20)
#    0.000    1.500    2.500    3.750    5.250    0.000 
#    0.000    5.000    0.000    0.000    0.000    0.000 
#    0.000    0.000    0.000    0.000    0.000    0.000 
#
# Total GULP energy -396693.073976 kJ/mol
# GULP energy per Si atom -12396.658562 kJ/mol
# Density = 2.053985 g / cm^3
# Si number density = 20.586704 Si / 1000 Ang^3
#
#
#
# Elastic Constant Matrix: (Units=GPa)
#
#
# Indices 1 2 3 4 5 6 
#
# 1 95.5123 42.4248 29.0802 0.0000 0.0000 0.0000
# 2 42.4248 121.5818 22.1015 0.0000 0.0000 0.0000
# 3 29.0802 22.1015 80.1832 0.0000 0.0000 0.0000
# 4 0.0000 0.0000 0.0000 25.7322 0.0000 0.0000
# 5 0.0000 0.0000 0.0000 0.0000 36.3656 0.0000
# 6 0.0000 0.0000 0.0000 0.0000 0.0000 3.5444
#
#
#
# Elastic Compliance Matrix: (Units=1/GPa)
#
#
# Indices 1 2 3 4 5 6 
#
# 1 0.013384 -0.003988 -0.003755 0.000000 0.000000 0.000000
# 2 -0.003988 0.009847 -0.001268 0.000000 0.000000 0.000000
# 3 -0.003755 -0.001268 0.014183 0.000000 0.000000 0.000000
# 4 0.000000 0.000000 0.000000 0.038862 0.000000 0.000000
# 5 0.000000 0.000000 0.000000 0.000000 0.027498 0.000000
# 6 0.000000 0.000000 0.000000 0.000000 0.000000 0.282135
#
#
# Mechanical properties :
#
#
# Convention : Reuss Voigt Hill
#
# Bulk Modulus (GPa) = 51.56570 53.83224 52.69897
# Shear Modulus (GPa) = 12.18338 26.70652 19.44495
#
# Velocity S-wave (km/s) = 2.43535 3.60567 3.07667
# Velocity P-wave (km/s) = 5.74546 6.59851 6.18670
#
# Compressibility (1/GPa) = 0.01939273
#
# Stress axis : x y z
#
# Youngs Moduli (GPa) = 74.71385 101.55486 70.50823
#
# Poissons Ratio (x) = 0.40498 0.26476
# Poissons Ratio (y) = 0.29794 0.08940
# Poissons Ratio (z) = 0.28055 0.12876
#
# Static dielectric constant tensor:
#      x y z
#    x 4.130490 0.000000 0.000000 
#    y 0.000000 3.986930 0.000000 
#    z 0.000000 0.000000 3.572910 
# 
# 
# High freq. dielectric constant tensor:
#      x y z
#    x 1.801790 0.000000 0.000000 
#    y 0.000000 1.796840 0.000000 
#    z 0.000000 0.000000 1.803660 
# 
# From -- ./inp_files/3504.got.cif
#   From: 2010.03.12/outbox.cif.g09.slc.cpg/sg39_2_cif.got.tgz:3504.got - 2010.04.14 02:53:20.
