data_PCOD8181805
_publ_section_title
;
Structure prediction by ZEFSAII (Michael W. Deem and Ramdas Pophale) SiO2 
 PCOD8181805
Probable space group: A B M 2
;
_chemical_formula_sum "Si O2"
_cell_formula_units_Z 56
_cell_length_a 29.600222
_cell_length_b 17.221445
_cell_length_c 5.230028
_cell_angle_alpha 90.000000
_cell_angle_beta 90.000000
_cell_angle_gamma 90.000000
_cell_volume 2666.051726
_symmetry_space_group_name_H-M "A B M 2"
_symmetry_group_IT_number 39
_symmetry_cell_setting 'orthorhombic'
loop_
_space_group_symop_operation_xyz
x,y,z
-x,-y,z
-x,1/2+y,z
x,1/2-y,z
x,1/2+y,1/2+z
-x,1/2-y,1/2+z
-x,y,1/2+z
x,-y,1/2+z
loop_
_atom_site_type_symbol
_atom_site_label
_atom_site_fract_x
_atom_site_fract_y
_atom_site_fract_z
Si Si1 0.980508 0.411964 0.285840
Si Si2 0.658121 0.659847 0.320021
Si Si3 0.550468 0.029552 0.160464
Si Si4 0.743774 0.448513 0.810686
Si Si5 0.170967 0.661146 0.815808
Si Si6 0.886698 0.160710 0.314822
Si Si7 0.397493 0.162485 0.822879
O O1 0.926591 0.402681 0.289809
O O2 0.000000 0.500000 0.282364
O O3 0.000691 0.368860 0.534178
O O4 0.672282 0.750000 0.294239
O O5 0.701211 0.607016 0.278047
O O6 0.638467 0.643105 0.601226
O O7 0.622438 0.638960 0.097133
O O8 0.500000 0.000000 0.100784
O O9 0.574745 0.978154 0.383862
O O10 0.555749 0.116919 0.264170
O O11 0.743144 0.512410 0.588506
O O12 0.787704 0.396155 0.779785
O O13 0.188308 0.750000 0.806691
O O14 0.136214 0.645378 0.586912
O O15 0.147986 0.643288 0.087183
O O16 0.904323 0.250000 0.296481
O O17 0.413387 0.250000 0.816436
#
# Coordination Sequence:
#
# PCOD8181805 Si02
#       7
#     8   8   8   8   8   8   8
#     4  10  21  38  54  85 118 150 190 241 304 358
#     4  10  22  40  63  88 121 164 201 249 308 358
#     4  10  21  37  56  83 119 158 201 248 309 368
#     4  12  25  41  59  96 127 156 199 247 302 360
#     4  10  22  43  64  86 120 162 202 243 293 357
#     4  10  21  39  64  87 112 157 207 243 288 353
#     4  10  21  38  61  89 117 157 212 255 297 360
#
# _framework density 21.004842
#
# number of rings (size 3 to 8) (size 9 to 14) (size 15 to 20)
#    0.000    1.714    0.000    3.857    0.000    4.000 
#   15.429    8.571    0.000    0.000    0.000    0.000 
#    0.000    0.000    0.000    0.000    0.000    0.000 
#
# Total GULP energy -347005.747122 kJ/mol
# GULP energy per Si atom -12393.062397 kJ/mol
# Density = 2.095703 g / cm^3
# Si number density = 21.004842 Si / 1000 Ang^3
#
#
#
# Elastic Constant Matrix: (Units=GPa)
#
#
# Indices 1 2 3 4 5 6 
#
# 1 74.2389 49.3192 3.0498 0.0000 0.0000 0.0000
# 2 49.3192 78.1411 11.9772 0.0000 0.0000 0.0000
# 3 3.0498 11.9772 140.2622 0.0000 0.0000 0.0000
# 4 0.0000 0.0000 0.0000 28.0070 0.0000 0.0000
# 5 0.0000 0.0000 0.0000 0.0000 1.9504 0.0000
# 6 0.0000 0.0000 0.0000 0.0000 0.0000 49.7119
#
#
#
# Elastic Compliance Matrix: (Units=1/GPa)
#
#
# Indices 1 2 3 4 5 6 
#
# 1 0.023275 -0.014807 0.000758 0.000000 0.000000 0.000000
# 2 -0.014807 0.022386 -0.001590 0.000000 0.000000 0.000000
# 3 0.000758 -0.001590 0.007249 0.000000 0.000000 0.000000
# 4 0.000000 0.000000 0.000000 0.035705 0.000000 0.000000
# 5 0.000000 0.000000 0.000000 0.000000 0.512713 0.000000
# 6 0.000000 0.000000 0.000000 0.000000 0.000000 0.020116
#
#
# Mechanical properties :
#
#
# Convention : Reuss Voigt Hill
#
# Bulk Modulus (GPa) = 46.22260 46.81497 46.51878
# Shear Modulus (GPa) = 7.57654 31.15357 19.36506
#
# Velocity S-wave (km/s) = 1.90128 3.85536 3.03963
# Velocity P-wave (km/s) = 5.18395 6.49265 5.87485
#
# Compressibility (1/GPa) = 0.02163444
#
# Stress axis : x y z
#
# Youngs Moduli (GPa) = 42.96387 44.67015 137.95461
#
# Poissons Ratio (x) = 0.66141 -0.10461
# Poissons Ratio (y) = 0.63615 0.21930
# Poissons Ratio (z) = -0.03258 0.07101
#
# Static dielectric constant tensor:
#      x y z
#    x 3.586970 0.000000 0.000000 
#    y 0.000000 3.827730 0.000000 
#    z 0.000000 0.000000 4.945250 
# 
# 
# High freq. dielectric constant tensor:
#      x y z
#    x 1.804990 0.000000 0.000000 
#    y 0.000000 1.817940 0.000000 
#    z 0.000000 0.000000 1.862760 
# 
# From -- ./inp_files/1497.got.cif
#   From: 2010.03.12/outbox.cif.g09.slc.cpg/sg39_1_cif.got.tgz:1497.got - 2010.04.14 02:53:20.
