data_PCOD8181932
_publ_section_title
;
Structure prediction by ZEFSAII (Michael W. Deem and Ramdas Pophale) SiO2 
 PCOD8181932
Probable space group: A B M 2
;
_chemical_formula_sum "Si O2"
_cell_formula_units_Z 40
_cell_length_a 4.885757
_cell_length_b 16.190418
_cell_length_c 21.770063
_cell_angle_alpha 90.000000
_cell_angle_beta 90.000000
_cell_angle_gamma 90.000000
_cell_volume 1722.065278
_symmetry_space_group_name_H-M "A B M 2"
_symmetry_group_IT_number 39
_symmetry_cell_setting 'orthorhombic'
loop_
_space_group_symop_operation_xyz
x,y,z
-x,-y,z
-x,1/2+y,z
x,1/2-y,z
x,1/2+y,1/2+z
-x,1/2-y,1/2+z
-x,y,1/2+z
x,-y,1/2+z
loop_
_atom_site_type_symbol
_atom_site_label
_atom_site_fract_x
_atom_site_fract_y
_atom_site_fract_z
Si Si1 0.558197 0.658240 0.133510
Si Si2 0.769298 0.944437 0.830500
Si Si3 0.872632 0.657924 0.944554
Si Si4 0.052535 0.657420 0.215298
Si Si5 0.399550 0.409873 0.510023
O O1 0.609836 0.750000 0.105645
O O2 0.841119 0.623378 0.163167
O O3 0.354772 0.664545 0.189913
O O4 0.412305 0.597930 0.084009
O O5 0.732232 0.874009 0.881383
O O6 0.918895 0.906236 0.770995
O O7 0.500000 0.000000 0.816395
O O8 0.000000 0.000000 0.861895
O O9 0.985709 0.750000 0.933903
O O10 0.616152 0.659352 0.989923
O O11 0.106837 0.604387 0.978411
O O12 0.955512 0.750000 0.236479
O O13 0.500000 0.500000 0.488488
#
# Coordination Sequence:
#
# PCOD8181932 Si02
#       5
#     8   8   8   8   8
#     4  10  21  39  64  93 127 168 215 264 320 395
#     4  12  25  42  65  95 132 169 216 276 335 396
#     4  12  25  44  68  93 128 175 225 272 334 412
#     4  10  22  41  64  91 126 169 216 263 319 393
#     4  12  25  42  66  98 133 169 217 281 345 400
#
# _framework density 23.227924000000002
#
# number of rings (size 3 to 8) (size 9 to 14) (size 15 to 20)
#    0.000    0.800    0.000    8.400    0.000    4.000 
#    0.000    6.000    0.000    0.000    0.000    0.000 
#    0.000    0.000    0.000    0.000    0.000    0.000 
#
# Total GULP energy -247829.644699 kJ/mol
# GULP energy per Si atom -12391.482235 kJ/mol
# Density = 2.317506 g / cm^3
# Si number density = 23.227924 Si / 1000 Ang^3
#
#
#
# Elastic Constant Matrix: (Units=GPa)
#
#
# Indices 1 2 3 4 5 6 
#
# 1 116.0694 11.8947 29.7046 0.0000 0.0000 0.0000
# 2 11.8947 83.9559 35.8988 0.0000 0.0000 0.0000
# 3 29.7046 35.8988 103.4809 0.0000 0.0000 0.0000
# 4 0.0000 0.0000 0.0000 23.2455 0.0000 0.0000
# 5 0.0000 0.0000 0.0000 0.0000 39.1165 0.0000
# 6 0.0000 0.0000 0.0000 0.0000 0.0000 32.9727
#
#
#
# Elastic Compliance Matrix: (Units=1/GPa)
#
#
# Indices 1 2 3 4 5 6 
#
# 1 0.009302 -0.000207 -0.002598 0.000000 0.000000 0.000000
# 2 -0.000207 0.013990 -0.004794 0.000000 0.000000 0.000000
# 3 -0.002598 -0.004794 0.012073 0.000000 0.000000 0.000000
# 4 0.000000 0.000000 0.000000 0.043019 0.000000 0.000000
# 5 0.000000 0.000000 0.000000 0.000000 0.025565 0.000000
# 6 0.000000 0.000000 0.000000 0.000000 0.000000 0.030328
#
#
# Mechanical properties :
#
#
# Convention : Reuss Voigt Hill
#
# Bulk Modulus (GPa) = 49.58806 50.94473 50.26639
# Shear Modulus (GPa) = 32.01090 34.13413 33.07251
#
# Velocity S-wave (km/s) = 3.71633 3.83760 3.77746
# Velocity P-wave (km/s) = 6.30949 6.45108 6.38068
#
# Compressibility (1/GPa) = 0.02016615
#
# Stress axis : x y z
#
# Youngs Moduli (GPa) = 107.50727 71.47861 82.83232
#
# Poissons Ratio (x) = 0.01478 0.21523
# Poissons Ratio (y) = 0.02223 0.39710
# Poissons Ratio (z) = 0.27934 0.34267
#
# Static dielectric constant tensor:
#      x y z
#    x 4.176640 0.000000 0.000000 
#    y 0.000000 4.292740 0.000000 
#    z 0.000000 0.000000 3.984360 
# 
# 
# High freq. dielectric constant tensor:
#      x y z
#    x 1.927020 0.000000 0.000000 
#    y 0.000000 1.915010 0.000000 
#    z 0.000000 0.000000 1.918800 
# 
# From -- ./inp_files/15199.got.cif
#   From: 2010.03.12/outbox.cif.g09.slc.cpg/sg39_8_cif.got.tgz:15199.got - 2010.04.14 02:53:20.
