data_PCOD8181588
_publ_section_title
;
Structure prediction by ZEFSAII (Michael W. Deem and Ramdas Pophale) SiO2 
 PCOD8181588
Probable space group: A B M 2
;
_chemical_formula_sum "Si O2"
_cell_formula_units_Z 64
_cell_length_a 11.385637
_cell_length_b 20.371864
_cell_length_c 14.110099
_cell_angle_alpha 90.000000
_cell_angle_beta 90.000000
_cell_angle_gamma 90.000000
_cell_volume 3272.790173
_symmetry_space_group_name_H-M "A B M 2"
_symmetry_group_IT_number 39
_symmetry_cell_setting 'orthorhombic'
loop_
_space_group_symop_operation_xyz
x,y,z
-x,-y,z
-x,1/2+y,z
x,1/2-y,z
x,1/2+y,1/2+z
-x,1/2-y,1/2+z
-x,y,1/2+z
x,-y,1/2+z
loop_
_atom_site_type_symbol
_atom_site_label
_atom_site_fract_x
_atom_site_fract_y
_atom_site_fract_z
Si Si1 0.129605 0.062128 0.460540
Si Si2 0.267105 0.824519 0.051104
Si Si3 0.248932 0.823512 0.438533
Si Si4 0.207078 0.037216 0.254294
Si Si5 0.469781 0.822007 0.551185
Si Si6 0.872331 0.566845 0.050112
Si Si7 0.712897 0.107917 0.249894
Si Si8 0.538806 0.071289 0.706124
O O1 0.191868 0.130133 0.482894
O O2 0.129936 0.054399 0.346683
O O3 0.002245 0.065812 0.507523
O O4 0.193920 0.997857 0.506612
O O5 0.220008 0.750000 0.044761
O O6 0.399159 0.830877 0.012858
O O7 0.262148 0.848185 0.158835
O O8 0.196815 0.750000 0.441493
O O9 0.387552 0.823917 0.459465
O O10 0.185773 0.865574 0.518965
O O11 0.228590 0.853719 0.336023
O O12 0.135207 0.065338 0.164281
O O13 0.339869 0.066400 0.265498
O O14 0.217222 0.959574 0.239827
O O15 0.458262 0.750000 0.602005
O O16 0.432252 0.880253 0.620460
O O17 0.572191 0.098236 0.266486
O O18 0.500000 0.000000 0.665260
#
# Coordination Sequence:
#
# PCOD8181588 Si02
#       8
#     8   8   8   8   8   8   8   8
#     4  11  25  40  66  92 118 167 206 258 310 361
#     4  10  21  40  61  91 128 163 206 253 309 367
#     4  11  22  38  61  92 126 166 207 249 309 372
#     4  11  21  41  63  93 124 154 213 256 310 363
#     4   9  19  35  58  87 126 166 197 247 310 369
#     4  11  24  43  63  90 122 165 208 258 306 365
#     4  10  20  36  61  93 126 165 202 254 308 367
#     4   9  19  34  58  91 124 160 201 256 304 364
#
# _framework density 19.555178999999999
#
# number of rings (size 3 to 8) (size 9 to 14) (size 15 to 20)
#    0.000    1.750    3.750    0.375    1.750    4.000 
#    0.000    1.250    0.000    0.000    0.000    0.000 
#    0.000    0.000    0.000    0.000    0.000    0.000 
#
# Total GULP energy -396666.261257 kJ/mol
# GULP energy per Si atom -12395.820664 kJ/mol
# Density = 1.951067 g / cm^3
# Si number density = 19.555179 Si / 1000 Ang^3
#
#
#
# Elastic Constant Matrix: (Units=GPa)
#
#
# Indices 1 2 3 4 5 6 
#
# 1 71.2186 34.6737 36.9689 0.0000 0.0000 0.0000
# 2 34.6737 138.2979 42.7511 0.0000 0.0000 0.0000
# 3 36.9689 42.7511 118.3954 0.0000 0.0000 0.0000
# 4 0.0000 0.0000 0.0000 28.4734 0.0000 0.0000
# 5 0.0000 0.0000 0.0000 0.0000 21.3467 0.0000
# 6 0.0000 0.0000 0.0000 0.0000 0.0000 23.4677
#
#
#
# Elastic Compliance Matrix: (Units=1/GPa)
#
#
# Indices 1 2 3 4 5 6 
#
# 1 0.017865 -0.003101 -0.004459 0.000000 0.000000 0.000000
# 2 -0.003101 0.008677 -0.002165 0.000000 0.000000 0.000000
# 3 -0.004459 -0.002165 0.010620 0.000000 0.000000 0.000000
# 4 0.000000 0.000000 0.000000 0.035121 0.000000 0.000000
# 5 0.000000 0.000000 0.000000 0.000000 0.046846 0.000000
# 6 0.000000 0.000000 0.000000 0.000000 0.000000 0.042612
#
#
# Mechanical properties :
#
#
# Convention : Reuss Voigt Hill
#
# Bulk Modulus (GPa) = 56.45325 61.85549 59.15437
# Shear Modulus (GPa) = 26.72432 28.89208 27.80820
#
# Velocity S-wave (km/s) = 3.70078 3.84795 3.77508
# Velocity P-wave (km/s) = 6.86967 7.17232 7.02263
#
# Compressibility (1/GPa) = 0.01771377
#
# Stress axis : x y z
#
# Youngs Moduli (GPa) = 55.97385 115.24069 94.15907
#
# Poissons Ratio (x) = 0.35735 0.41984
# Poissons Ratio (y) = 0.17357 0.20386
# Poissons Ratio (z) = 0.24958 0.24951
#
# Static dielectric constant tensor:
#      x y z
#    x 3.507430 0.000000 0.000000 
#    y 0.000000 3.957430 0.000000 
#    z 0.000000 0.000000 3.309510 
# 
# 
# High freq. dielectric constant tensor:
#      x y z
#    x 1.751340 0.000000 0.000000 
#    y 0.000000 1.776270 0.000000 
#    z 0.000000 0.000000 1.745160 
# 
# From -- ./inp_files/9478.got.cif
#   From: 2010.03.12/outbox.cif.g09.slc.cpg/sg39_5_cif.got.tgz:9478.got - 2010.04.14 02:53:20.
