data_PCOD8181934
_publ_section_title
;
Structure prediction by ZEFSAII (Michael W. Deem and Ramdas Pophale) SiO2 
 PCOD8181934
Probable space group: A B M 2
;
_chemical_formula_sum "Si O2"
_cell_formula_units_Z 56
_cell_length_a 15.431908
_cell_length_b 8.920704
_cell_length_c 20.249891
_cell_angle_alpha 90.000000
_cell_angle_beta 90.000000
_cell_angle_gamma 90.000000
_cell_volume 2787.670534
_symmetry_space_group_name_H-M "A B M 2"
_symmetry_group_IT_number 39
_symmetry_cell_setting 'orthorhombic'
loop_
_space_group_symop_operation_xyz
x,y,z
-x,-y,z
-x,1/2+y,z
x,1/2-y,z
x,1/2+y,1/2+z
-x,1/2-y,1/2+z
-x,y,1/2+z
x,-y,1/2+z
loop_
_atom_site_type_symbol
_atom_site_label
_atom_site_fract_x
_atom_site_fract_y
_atom_site_fract_z
Si Si1 0.911674 0.425693 0.380040
Si Si2 0.587520 0.072096 0.827868
Si Si3 0.815505 0.927032 0.005248
Si Si4 0.368359 0.921311 0.459127
Si Si5 0.236949 0.572719 0.279011
Si Si6 0.771074 0.071781 0.645695
Si Si7 0.417393 0.417729 0.105193
O O1 0.924584 0.250000 0.374260
O O2 0.893563 0.474622 0.456490
O O3 0.831191 0.477066 0.335069
O O4 0.000000 0.500000 0.355200
O O5 0.585010 0.250000 0.819446
O O6 0.500000 0.000000 0.796850
O O7 0.588991 0.028485 0.905035
O O8 0.671559 0.008014 0.790629
O O9 0.802793 0.750000 0.007459
O O10 0.828403 0.979441 0.081481
O O11 0.726793 0.988622 0.973834
O O12 0.363872 0.750000 0.431583
O O13 0.423421 0.926765 0.525987
O O14 0.250776 0.750000 0.278540
O O15 0.195956 0.516854 0.209751
O O16 0.777253 0.250000 0.657075
O O17 0.672898 0.016646 0.631712
O O18 0.500000 0.500000 0.136519
O O19 0.423936 0.250000 0.130916
#
# Coordination Sequence:
#
# PCOD8181934 Si02
#       7
#     8   8   8   8   8   8   8
#     4  10  21  39  65  92 118 152 193 240 298 355
#     4  12  24  36  54  82 116 157 203 248 295 347
#     4   8  15  34  61  84 112 151 187 231 291 348
#     4   9  16  32  54  78 111 149 190 238 292 344
#     4  11  23  41  61  84 120 160 197 244 297 350
#     4   9  19  36  58  81 110 154 198 235 289 349
#     4   9  18  30  49  75 108 150 193 239 287 341
#
# _framework density 20.088456999999998
#
# number of rings (size 3 to 8) (size 9 to 14) (size 15 to 20)
#    0.000    2.286    1.429    3.857    0.000    4.000 
#    0.000    5.000    0.000    3.429    0.000    0.000 
#    0.000    0.000    0.000    0.000    0.000    0.000 
#
# Total GULP energy -347048.534769 kJ/mol
# GULP energy per Si atom -12394.590527 kJ/mol
# Density = 2.004273 g / cm^3
# Si number density = 20.088457 Si / 1000 Ang^3
#
#
#
# Elastic Constant Matrix: (Units=GPa)
#
#
# Indices 1 2 3 4 5 6 
#
# 1 94.8367 38.8289 37.5107 0.0000 0.0000 0.0000
# 2 38.8289 73.9098 38.6770 0.0000 0.0000 0.0000
# 3 37.5107 38.6770 122.3171 0.0000 0.0000 0.0000
# 4 0.0000 0.0000 0.0000 27.2770 0.0000 0.0000
# 5 0.0000 0.0000 0.0000 0.0000 8.3917 0.0000
# 6 0.0000 0.0000 0.0000 0.0000 0.0000 27.9414
#
#
#
# Elastic Compliance Matrix: (Units=1/GPa)
#
#
# Indices 1 2 3 4 5 6 
#
# 1 0.013978 -0.006111 -0.002354 0.000000 0.000000 0.000000
# 2 -0.006111 0.018885 -0.004097 0.000000 0.000000 0.000000
# 3 -0.002354 -0.004097 0.010193 0.000000 0.000000 0.000000
# 4 0.000000 0.000000 0.000000 0.036661 0.000000 0.000000
# 5 0.000000 0.000000 0.000000 0.000000 0.119166 0.000000
# 6 0.000000 0.000000 0.000000 0.000000 0.000000 0.035789
#
#
# Mechanical properties :
#
#
# Convention : Reuss Voigt Hill
#
# Bulk Modulus (GPa) = 55.77244 57.89965 56.83605
# Shear Modulus (GPa) = 18.81301 24.45847 21.63574
#
# Velocity S-wave (km/s) = 3.06356 3.49311 3.28536
# Velocity P-wave (km/s) = 6.35119 6.71967 6.53803
#
# Compressibility (1/GPa) = 0.01793000
#
# Stress axis : x y z
#
# Youngs Moduli (GPa) = 71.54232 52.95280 98.10706
#
# Poissons Ratio (x) = 0.32362 0.23095
# Poissons Ratio (y) = 0.43722 0.40197
# Poissons Ratio (z) = 0.16842 0.21696
#
# Static dielectric constant tensor:
#      x y z
#    x 3.502900 0.000000 0.000000 
#    y 0.000000 3.354280 0.000000 
#    z 0.000000 0.000000 3.823490 
# 
# 
# High freq. dielectric constant tensor:
#      x y z
#    x 1.764420 0.000000 0.000000 
#    y 0.000000 1.757690 0.000000 
#    z 0.000000 0.000000 1.791380 
# 
# From -- ./inp_files/14770.got.cif
#   From: 2010.03.12/outbox.cif.g09.slc.cpg/sg39_8_cif.got.tgz:14770.got - 2010.04.14 02:53:20.
