data_PCOD8181462
_publ_section_title
;
Structure prediction by ZEFSAII (Michael W. Deem and Ramdas Pophale) SiO2 
 PCOD8181462
Probable space group: A B M 2
;
_chemical_formula_sum "Si O2"
_cell_formula_units_Z 56
_cell_length_a 14.487894
_cell_length_b 8.748191
_cell_length_c 20.796444
_cell_angle_alpha 90.000000
_cell_angle_beta 90.000000
_cell_angle_gamma 90.000000
_cell_volume 2635.800871
_symmetry_space_group_name_H-M "A B M 2"
_symmetry_group_IT_number 39
_symmetry_cell_setting 'orthorhombic'
loop_
_space_group_symop_operation_xyz
x,y,z
-x,-y,z
-x,1/2+y,z
x,1/2-y,z
x,1/2+y,1/2+z
-x,1/2-y,1/2+z
-x,y,1/2+z
x,-y,1/2+z
loop_
_atom_site_type_symbol
_atom_site_label
_atom_site_fract_x
_atom_site_fract_y
_atom_site_fract_z
Si Si1 0.718798 0.926661 0.533590
Si Si2 0.289917 0.074100 0.676518
Si Si3 0.094027 0.075277 0.859820
Si Si4 0.601180 0.931224 0.921750
Si Si5 0.898454 0.928511 0.998343
Si Si6 0.600095 0.569726 0.289927
Si Si7 0.096631 0.928350 0.220187
O O1 0.717683 0.750000 0.512673
O O2 0.672024 0.947783 0.604124
O O3 0.662592 0.025795 0.482749
O O4 0.824328 0.984001 0.541934
O O5 0.301091 0.250000 0.699357
O O6 0.181371 0.027970 0.674398
O O7 0.341368 0.966124 0.726593
O O8 0.074336 0.250000 0.846550
O O9 0.129204 0.008681 0.791595
O O10 0.149586 0.051744 0.926375
O O11 0.000000 0.000000 0.880319
O O12 0.595030 0.750000 0.916188
O O13 0.500000 0.000000 0.932043
O O14 0.644364 0.996620 0.854902
O O15 0.905166 0.750000 0.016277
O O16 0.000000 0.000000 0.007889
O O17 0.500000 0.500000 0.278631
O O18 0.592924 0.750000 0.299463
O O19 0.078396 0.750000 0.220193
O O20 0.000000 0.000000 0.196960
#
# Coordination Sequence:
#
# PCOD8181462 Si02
#       7
#     8   8   8   8   8   8   8
#     4  11  24  41  60  90 128 168 214 260 313 372
#     4  10  23  41  61  88 127 170 209 256 310 368
#     4   8  15  28  48  75 104 139 189 243 300 356
#     4  11  23  43  70  97 126 160 201 253 314 376
#     4  10  20  35  56  84 118 164 211 261 317 372
#     4  11  23  42  69  99 127 159 201 251 308 373
#     4   9  18  34  55  81 115 158 204 250 304 357
#
# _framework density 21.245916000000001
#
# number of rings (size 3 to 8) (size 9 to 14) (size 15 to 20)
#    0.000    2.000    0.000    4.286    2.000    3.429 
#    0.000    1.429    0.000    0.000    0.000    0.000 
#    0.000    0.000    0.000    0.000    0.000    0.000 
#
# Total GULP energy -346903.485156 kJ/mol
# GULP energy per Si atom -12389.410184 kJ/mol
# Density = 2.119756 g / cm^3
# Si number density = 21.245916 Si / 1000 Ang^3
#
#
#
# Elastic Constant Matrix: (Units=GPa)
#
#
# Indices 1 2 3 4 5 6 
#
# 1 71.1542 42.1039 47.5081 0.0000 0.0000 0.0000
# 2 42.1039 128.5177 50.6352 0.0000 0.0000 0.0000
# 3 47.5081 50.6352 109.5152 0.0000 0.0000 0.0000
# 4 0.0000 0.0000 0.0000 35.7943 0.0000 0.0000
# 5 0.0000 0.0000 0.0000 0.0000 26.3311 0.0000
# 6 0.0000 0.0000 0.0000 0.0000 0.0000 34.5279
#
#
#
# Elastic Compliance Matrix: (Units=1/GPa)
#
#
# Indices 1 2 3 4 5 6 
#
# 1 0.021419 -0.004104 -0.007394 0.000000 0.000000 0.000000
# 2 -0.004104 0.010300 -0.002982 0.000000 0.000000 0.000000
# 3 -0.007394 -0.002982 0.013718 0.000000 0.000000 0.000000
# 4 0.000000 0.000000 0.000000 0.027937 0.000000 0.000000
# 5 0.000000 0.000000 0.000000 0.000000 0.037978 0.000000
# 6 0.000000 0.000000 0.000000 0.000000 0.000000 0.028962
#
#
# Mechanical properties :
#
#
# Convention : Reuss Voigt Hill
#
# Bulk Modulus (GPa) = 60.69196 65.52017 63.10607
# Shear Modulus (GPa) = 28.60933 30.59332 29.60132
#
# Velocity S-wave (km/s) = 3.67356 3.79880 3.73670
# Velocity P-wave (km/s) = 6.82802 7.08146 6.95589
#
# Compressibility (1/GPa) = 0.01647665
#
# Stress axis : x y z
#
# Youngs Moduli (GPa) = 46.68664 97.08267 72.89856
#
# Poissons Ratio (x) = 0.39842 0.53904
# Poissons Ratio (y) = 0.19160 0.21740
# Poissons Ratio (z) = 0.34522 0.28952
#
# Static dielectric constant tensor:
#      x y z
#    x 3.622750 0.000000 0.000000 
#    y 0.000000 3.770260 0.000000 
#    z 0.000000 0.000000 4.091210 
# 
# 
# High freq. dielectric constant tensor:
#      x y z
#    x 1.816560 0.000000 0.000000 
#    y 0.000000 1.831800 0.000000 
#    z 0.000000 0.000000 1.846530 
# 
# From -- ./inp_files/14781.got.cif
#   From: 2010.03.12/outbox.cif.g09.slc.cpg/sg39_8_cif.got.tgz:14781.got - 2010.04.14 02:53:20.
