data_PCOD8181109
_publ_section_title
;
Structure prediction by ZEFSAII (Michael W. Deem and Ramdas Pophale) SiO2 
 PCOD8181109
Probable space group: A B M 2
;
_chemical_formula_sum "Si O2"
_cell_formula_units_Z 64
_cell_length_a 9.559623
_cell_length_b 17.569497
_cell_length_c 17.371248
_cell_angle_alpha 90.000000
_cell_angle_beta 90.000000
_cell_angle_gamma 90.000000
_cell_volume 2917.636035
_symmetry_space_group_name_H-M "A B M 2"
_symmetry_group_IT_number 39
_symmetry_cell_setting 'orthorhombic'
loop_
_space_group_symop_operation_xyz
x,y,z
-x,-y,z
-x,1/2+y,z
x,1/2-y,z
x,1/2+y,1/2+z
-x,1/2-y,1/2+z
-x,y,1/2+z
x,-y,1/2+z
loop_
_atom_site_type_symbol
_atom_site_label
_atom_site_fract_x
_atom_site_fract_y
_atom_site_fract_z
Si Si1 0.399980 0.595893 0.087650
Si Si2 0.705651 0.435990 0.567293
Si Si3 0.028642 0.336985 0.714267
Si Si4 0.760959 0.164868 0.967380
Si Si5 0.769990 0.074620 0.740711
Si Si6 0.435481 0.660211 0.833757
Si Si7 0.959370 0.839481 0.037169
Si Si8 0.689815 0.910566 0.759324
O O1 0.330364 0.522663 0.043352
O O2 0.560812 0.610154 0.064851
O O3 0.395519 0.586201 0.179167
O O4 0.313306 0.665535 0.051720
O O5 0.771677 0.441402 0.651073
O O6 0.822480 0.390877 0.517196
O O7 0.990803 0.250000 0.732373
O O8 0.181736 0.353848 0.747049
O O9 0.921342 0.390506 0.761834
O O10 0.018143 0.353447 0.623203
O O11 0.778774 0.250000 0.938132
O O12 0.657436 0.125480 0.904794
O O13 0.918987 0.132520 0.977753
O O14 0.652278 0.137712 0.758340
O O15 0.740765 0.994769 0.784266
O O16 0.460112 0.750000 0.839083
O O17 0.587854 0.620351 0.826859
O O18 0.922782 0.750000 0.026443
#
# Coordination Sequence:
#
# PCOD8181109 Si02
#       8
#     8   8   8   8   8   8   8   8
#     4  10  19  36  58  87 121 154 197 258 312 363
#     4   9  19  34  57  89 116 146 200 252 308 366
#     4  10  19  33  58  92 122 153 204 260 309 368
#     4  10  22  39  57  83 120 163 205 248 309 372
#     4  10  20  37  58  86 119 159 201 256 314 372
#     4  11  23  39  59  84 120 168 211 252 310 376
#     4   9  18  34  56  87 121 157 200 250 305 366
#     4  11  20  36  61  90 122 160 205 262 318 365
#
# _framework density 21.935566999999999
#
# number of rings (size 3 to 8) (size 9 to 14) (size 15 to 20)
#    0.000    2.000    2.500    1.500    0.000    2.000 
#    4.500    1.250    2.750    3.000    0.000    0.000 
#    0.000    0.000    0.000    0.000    0.000    0.000 
#
# Total GULP energy -396484.981569 kJ/mol
# GULP energy per Si atom -12390.155674 kJ/mol
# Density = 2.188564 g / cm^3
# Si number density = 21.935567 Si / 1000 Ang^3
#
#
#
# Elastic Constant Matrix: (Units=GPa)
#
#
# Indices 1 2 3 4 5 6 
#
# 1 193.5186 69.3423 40.6877 0.0000 0.0000 0.0000
# 2 69.3423 91.9060 34.3578 0.0000 0.0000 0.0000
# 3 40.6877 34.3578 39.5407 0.0000 0.0000 0.0000
# 4 0.0000 0.0000 0.0000 19.9500 0.0000 0.0000
# 5 0.0000 0.0000 0.0000 0.0000 36.7030 0.0000
# 6 0.0000 0.0000 0.0000 0.0000 0.0000 42.6733
#
#
#
# Elastic Compliance Matrix: (Units=1/GPa)
#
#
# Indices 1 2 3 4 5 6 
#
# 1 0.007517 -0.004117 -0.004157 0.000000 0.000000 0.000000
# 2 -0.004117 0.018371 -0.011726 0.000000 0.000000 0.000000
# 3 -0.004157 -0.011726 0.039757 0.000000 0.000000 0.000000
# 4 0.000000 0.000000 0.000000 0.050125 0.000000 0.000000
# 5 0.000000 0.000000 0.000000 0.000000 0.027246 0.000000
# 6 0.000000 0.000000 0.000000 0.000000 0.000000 0.023434
#
#
# Mechanical properties :
#
#
# Convention : Reuss Voigt Hill
#
# Bulk Modulus (GPa) = 38.99602 68.19341 53.59472
# Shear Modulus (GPa) = 23.25593 31.90376 27.57984
#
# Velocity S-wave (km/s) = 3.25959 3.81784 3.54971
# Velocity P-wave (km/s) = 5.65533 7.11267 6.42545
#
# Compressibility (1/GPa) = 0.02564364
#
# Stress axis : x y z
#
# Youngs Moduli (GPa) = 133.03434 54.43443 25.15262
#
# Poissons Ratio (x) = 0.22412 0.10457
# Poissons Ratio (y) = 0.54773 0.29494
# Poissons Ratio (z) = 0.55307 0.63830
#
# Static dielectric constant tensor:
#      x y z
#    x 4.173230 0.000000 0.000000 
#    y 0.000000 3.972030 0.000000 
#    z 0.000000 0.000000 3.641550 
# 
# 
# High freq. dielectric constant tensor:
#      x y z
#    x 1.880980 0.000000 0.000000 
#    y 0.000000 1.853850 0.000000 
#    z 0.000000 0.000000 1.817180 
# 
# From -- ./inp_files/14282.got.cif
#   From: 2010.03.12/outbox.cif.g09.slc.cpg/sg39_8_cif.got.tgz:14282.got - 2010.04.14 02:53:20.
