data_PCOD8181667
_publ_section_title
;
Structure prediction by ZEFSAII (Michael W. Deem and Ramdas Pophale) SiO2 
 PCOD8181667
Probable space group: A B M 2
;
_chemical_formula_sum "Si O2"
_cell_formula_units_Z 36
_cell_length_a 18.618807
_cell_length_b 10.245967
_cell_length_c 9.283274
_cell_angle_alpha 90.000000
_cell_angle_beta 90.000000
_cell_angle_gamma 90.000000
_cell_volume 1770.948663
_symmetry_space_group_name_H-M "A B M 2"
_symmetry_group_IT_number 39
_symmetry_cell_setting 'orthorhombic'
loop_
_space_group_symop_operation_xyz
x,y,z
-x,-y,z
-x,1/2+y,z
x,1/2-y,z
x,1/2+y,1/2+z
-x,1/2-y,1/2+z
-x,y,1/2+z
x,-y,1/2+z
loop_
_atom_site_type_symbol
_atom_site_label
_atom_site_fract_x
_atom_site_fract_y
_atom_site_fract_z
Si Si1 0.248557 0.598510 0.081110
Si Si2 0.941287 0.250000 0.753999
Si Si3 0.500000 0.500000 0.318530
Si Si4 0.594340 0.896069 0.572039
Si Si5 0.085681 0.250000 0.922614
Si Si6 0.841097 0.486650 0.828760
O O1 0.246345 0.750000 0.128032
O O2 0.328749 0.533683 0.096085
O O3 0.192504 0.517132 0.174610
O O4 0.223014 0.579414 0.918273
O O5 0.945957 0.250000 0.582388
O O6 0.904360 0.381469 0.812568
O O7 0.022606 0.250000 0.806568
O O8 0.442576 0.433435 0.421917
O O9 0.542370 0.404147 0.210598
O O10 0.617599 0.750000 0.548508
O O11 0.132315 0.380184 0.902165
#
# Coordination Sequence:
#
# PCOD8181667 Si02
#       6
#     8   4   4   8   4   8
#     4  11  23  40  65  94 127 170 209 263 316 371
#     4  12  28  44  68  96 126 165 210 258 318 379
#     4  10  20  38  60  90 124 166 208 254 300 370
#     4  10  21  37  61  91 126 163 208 254 312 363
#     4  12  28  44  68  96 126 165 210 258 318 379
#     4  12  24  44  66  94 130 164 212 262 312 376
#
# _framework density 20.328087
#
# number of rings (size 3 to 8) (size 9 to 14) (size 15 to 20)
#    0.000    0.889    4.444    2.667    3.111    1.778 
#    0.000    0.000    4.889    0.000    0.000    0.000 
#    0.000    0.000    0.000    0.000    0.000    0.000 
#
# Total GULP energy -223142.344282 kJ/mol
# GULP energy per Si atom -12396.796905 kJ/mol
# Density = 2.028182 g / cm^3
# Si number density = 20.328087 Si / 1000 Ang^3
#
#
#
# Elastic Constant Matrix: (Units=GPa)
#
#
# Indices 1 2 3 4 5 6 
#
# 1 97.4488 14.5805 20.6026 0.0000 0.0000 0.0000
# 2 14.5805 71.6357 12.4345 0.0000 0.0000 0.0000
# 3 20.6026 12.4345 105.2894 0.0000 0.0000 0.0000
# 4 0.0000 0.0000 0.0000 23.9430 0.0000 0.0000
# 5 0.0000 0.0000 0.0000 0.0000 49.9920 0.0000
# 6 0.0000 0.0000 0.0000 0.0000 0.0000 53.0875
#
#
#
# Elastic Compliance Matrix: (Units=1/GPa)
#
#
# Indices 1 2 3 4 5 6 
#
# 1 0.010951 -0.001896 -0.001919 0.000000 0.000000 0.000000
# 2 -0.001896 0.014580 -0.001351 0.000000 0.000000 0.000000
# 3 -0.001919 -0.001351 0.010033 0.000000 0.000000 0.000000
# 4 0.000000 0.000000 0.000000 0.041766 0.000000 0.000000
# 5 0.000000 0.000000 0.000000 0.000000 0.020003 0.000000
# 6 0.000000 0.000000 0.000000 0.000000 0.000000 0.018837
#
#
# Mechanical properties :
#
#
# Convention : Reuss Voigt Hill
#
# Bulk Modulus (GPa) = 39.63182 41.06768 40.34975
# Shear Modulus (GPa) = 37.06124 40.52158 38.79141
#
# Velocity S-wave (km/s) = 4.27447 4.46957 4.37311
# Velocity P-wave (km/s) = 6.62570 6.84707 6.73729
#
# Compressibility (1/GPa) = 0.02523225
#
# Stress axis : x y z
#
# Youngs Moduli (GPa) = 91.31438 68.58768 99.67434
#
# Poissons Ratio (x) = 0.13003 0.19127
# Poissons Ratio (y) = 0.17312 0.13465
# Poissons Ratio (z) = 0.17523 0.09265
#
# Static dielectric constant tensor:
#      x y z
#    x 3.290560 0.000000 0.000000 
#    y 0.000000 3.624830 0.000000 
#    z 0.000000 0.000000 3.808450 
# 
# 
# High freq. dielectric constant tensor:
#      x y z
#    x 1.810000 0.000000 0.000000 
#    y 0.000000 1.788090 0.000000 
#    z 0.000000 0.000000 1.806040 
# 
# From -- ./inp_files/3906.got.cif
#   From: 2010.03.12/outbox.cif.g09.slc.cpg/sg39_2_cif.got.tgz:3906.got - 2010.04.14 02:53:20.
