data_PCOD8181867
_publ_section_title
;
Structure prediction by ZEFSAII (Michael W. Deem and Ramdas Pophale) SiO2 
 PCOD8181867
Probable space group: A B M 2
;
_chemical_formula_sum "Si O2"
_cell_formula_units_Z 64
_cell_length_a 20.580719
_cell_length_b 8.539388
_cell_length_c 18.219631
_cell_angle_alpha 90.000000
_cell_angle_beta 90.000000
_cell_angle_gamma 90.000000
_cell_volume 3202.040841
_symmetry_space_group_name_H-M "A B M 2"
_symmetry_group_IT_number 39
_symmetry_cell_setting 'orthorhombic'
loop_
_space_group_symop_operation_xyz
x,y,z
-x,-y,z
-x,1/2+y,z
x,1/2-y,z
x,1/2+y,1/2+z
-x,1/2-y,1/2+z
-x,y,1/2+z
x,-y,1/2+z
loop_
_atom_site_type_symbol
_atom_site_label
_atom_site_fract_x
_atom_site_fract_y
_atom_site_fract_z
Si Si1 0.430468 0.568630 0.848800
Si Si2 0.313603 0.566276 0.436619
Si Si3 0.932271 0.935636 0.926402
Si Si4 0.690407 0.931406 0.595857
Si Si5 0.569540 0.431077 0.677157
Si Si6 0.067775 0.564596 0.592769
Si Si7 0.807672 0.565267 0.841894
Si Si8 0.808621 0.433126 0.681551
O O1 0.500000 0.500000 0.870614
O O2 0.426336 0.750000 0.871879
O O3 0.378709 0.465848 0.891930
O O4 0.416811 0.546909 0.762959
O O5 0.307964 0.750000 0.454557
O O6 0.314476 0.467535 0.510431
O O7 0.253072 0.503780 0.388893
O O8 0.933680 0.750000 0.924156
O O9 0.874079 0.003721 0.876525
O O10 0.921923 0.996534 0.009627
O O11 0.000000 0.000000 0.894286
O O12 0.706359 0.750000 0.608452
O O13 0.622442 0.971361 0.633314
O O14 0.747161 0.035113 0.630520
O O15 0.500000 0.500000 0.655055
O O16 0.572689 0.250000 0.654002
O O17 0.066325 0.750000 0.594277
O O18 0.126612 0.500140 0.642361
O O19 0.000000 0.500000 0.624992
O O20 0.809545 0.750000 0.845834
O O21 0.798968 0.515509 0.758701
O O22 0.814872 0.250000 0.695158
#
# Coordination Sequence:
#
# PCOD8181867 Si02
#       8
#     8   8   8   8   8   8   8   8
#     4  10  21  38  61  89 119 152 190 232 280 337
#     4  11  23  40  61  84 114 151 191 238 290 341
#     4   9  18  35  57  81 111 147 188 232 281 337
#     4  12  25  40  60  86 116 151 194 240 288 343
#     4  10  21  39  63  90 121 155 192 235 284 339
#     4   9  19  36  58  83 112 149 190 234 285 340
#     4  10  22  39  59  83 114 151 190 235 287 343
#     4  11  23  39  59  84 116 152 192 238 288 342
#
# _framework density 19.987252000000002
#
# number of rings (size 3 to 8) (size 9 to 14) (size 15 to 20)
#    0.000    1.750    0.000    4.125    0.000    9.000 
#    0.000    7.500    0.000    0.000    0.000    0.000 
#    0.000    0.000    0.000    0.000    0.000    0.000 
#
# Total GULP energy -396956.858189 kJ/mol
# GULP energy per Si atom -12404.901818 kJ/mol
# Density = 1.994176 g / cm^3
# Si number density = 19.987252 Si / 1000 Ang^3
#
#
#
# Elastic Constant Matrix: (Units=GPa)
#
#
# Indices 1 2 3 4 5 6 
#
# 1 150.3923 11.7355 62.6872 0.0000 0.0000 0.0000
# 2 11.7355 29.4720 13.1901 0.0000 0.0000 0.0000
# 3 62.6872 13.1901 73.3689 0.0000 0.0000 0.0000
# 4 0.0000 0.0000 0.0000 49.4799 0.0000 0.0000
# 5 0.0000 0.0000 0.0000 0.0000 33.0474 0.0000
# 6 0.0000 0.0000 0.0000 0.0000 0.0000 34.2160
#
#
#
# Elastic Compliance Matrix: (Units=1/GPa)
#
#
# Indices 1 2 3 4 5 6 
#
# 1 0.010328 -0.000177 -0.008793 0.000000 0.000000 0.000000
# 2 -0.000177 0.036902 -0.006483 0.000000 0.000000 0.000000
# 3 -0.008793 -0.006483 0.022308 0.000000 0.000000 0.000000
# 4 0.000000 0.000000 0.000000 0.020210 0.000000 0.000000
# 5 0.000000 0.000000 0.000000 0.000000 0.030260 0.000000
# 6 0.000000 0.000000 0.000000 0.000000 0.000000 0.029226
#
#
# Mechanical properties :
#
#
# Convention : Reuss Voigt Hill
#
# Bulk Modulus (GPa) = 25.88467 47.60654 36.74560
# Shear Modulus (GPa) = 25.90449 34.39003 30.14726
#
# Velocity S-wave (km/s) = 3.60398 4.15251 3.88793
# Velocity P-wave (km/s) = 5.50426 6.84553 6.21121
#
# Compressibility (1/GPa) = 0.03863291
#
# Stress axis : x y z
#
# Youngs Moduli (GPa) = 96.82362 27.09850 44.82774
#
# Poissons Ratio (x) = 0.00481 0.39415
# Poissons Ratio (y) = 0.01718 0.29060
# Poissons Ratio (z) = 0.85132 0.17567
#
# Static dielectric constant tensor:
#      x y z
#    x 3.907550 0.000000 0.000000 
#    y 0.000000 3.537920 0.000000 
#    z 0.000000 0.000000 3.658430 
# 
# 
# High freq. dielectric constant tensor:
#      x y z
#    x 1.798030 0.000000 0.000000 
#    y 0.000000 1.777430 0.000000 
#    z 0.000000 0.000000 1.779520 
# 
# From -- ./inp_files/13090.got.cif
#   From: 2010.03.12/outbox.cif.g09.slc.cpg/sg39_7_cif.got.tgz:13090.got - 2010.04.14 02:53:20.
