data_PCOD8181689
_publ_section_title
;
Structure prediction by ZEFSAII (Michael W. Deem and Ramdas Pophale) SiO2 
 PCOD8181689
Probable space group: A B M 2
;
_chemical_formula_sum "Si O2"
_cell_formula_units_Z 64
_cell_length_a 23.904098
_cell_length_b 8.743201
_cell_length_c 15.350771
_cell_angle_alpha 90.000000
_cell_angle_beta 90.000000
_cell_angle_gamma 90.000000
_cell_volume 3208.285558
_symmetry_space_group_name_H-M "A B M 2"
_symmetry_group_IT_number 39
_symmetry_cell_setting 'orthorhombic'
loop_
_space_group_symop_operation_xyz
x,y,z
-x,-y,z
-x,1/2+y,z
x,1/2-y,z
x,1/2+y,1/2+z
-x,1/2-y,1/2+z
-x,y,1/2+z
x,-y,1/2+z
loop_
_atom_site_type_symbol
_atom_site_label
_atom_site_fract_x
_atom_site_fract_y
_atom_site_fract_z
Si Si1 0.862799 0.070141 0.240060
Si Si2 0.641161 0.572994 0.934917
Si Si3 0.440174 0.930181 0.588507
Si Si4 0.060894 0.569663 0.085074
Si Si5 0.868065 0.428039 0.435128
Si Si6 0.744975 0.070660 0.182702
Si Si7 0.625986 0.927338 0.740751
Si Si8 0.246584 0.928195 0.981607
O O1 0.857754 0.250000 0.223535
O O2 0.905235 0.002272 0.168024
O O3 0.886197 0.033920 0.335941
O O4 0.800604 0.998113 0.226972
O O5 0.657512 0.750000 0.948958
O O6 0.610146 0.550633 0.842161
O O7 0.697158 0.472811 0.931527
O O8 0.601353 0.513185 0.012114
O O9 0.445844 0.750000 0.587863
O O10 0.500000 0.000000 0.568139
O O11 0.418661 0.982867 0.682775
O O12 0.055295 0.750000 0.090529
O O13 0.000000 0.500000 0.084359
O O14 0.093066 0.527785 0.997004
O O15 0.876282 0.250000 0.456593
O O16 0.803440 0.471241 0.443960
O O17 0.744983 0.250000 0.199392
O O18 0.688207 0.003383 0.224386
O O19 0.745607 0.028348 0.081791
O O20 0.623693 0.750000 0.712980
O O21 0.232907 0.750000 0.968711
#
# Coordination Sequence:
#
# PCOD8181689 Si02
#       8
#     8   8   8   8   8   8   8   8
#     4   9  19  37  61  86 117 155 194 235 289 349
#     4  10  22  39  61  89 120 153 194 242 294 349
#     4  11  24  41  60  85 116 152 197 248 295 347
#     4  11  23  42  63  85 116 155 199 246 294 350
#     4  11  22  38  62  91 120 155 196 243 294 347
#     4   9  16  31  58  87 115 151 188 229 285 345
#     4  10  20  38  63  88 117 156 194 237 294 352
#     4  11  20  34  60  91 122 158 195 236 290 350
#
# _framework density 19.948350000000001
#
# number of rings (size 3 to 8) (size 9 to 14) (size 15 to 20)
#    0.000    1.750    2.500    2.250    0.000    4.000 
#    0.000    5.000    0.000    0.000    0.000    0.000 
#    0.000    0.000    0.000    0.000    0.000    0.000 
#
# Total GULP energy -396863.925265 kJ/mol
# GULP energy per Si atom -12401.997665 kJ/mol
# Density = 1.990295 g / cm^3
# Si number density = 19.948350 Si / 1000 Ang^3
#
#
#
# Elastic Constant Matrix: (Units=GPa)
#
#
# Indices 1 2 3 4 5 6 
#
# 1 121.6445 23.6678 39.1158 0.0000 0.0000 0.0000
# 2 23.6678 44.6578 27.2317 0.0000 0.0000 0.0000
# 3 39.1158 27.2317 101.4397 0.0000 0.0000 0.0000
# 4 0.0000 0.0000 0.0000 25.8271 0.0000 0.0000
# 5 0.0000 0.0000 0.0000 0.0000 11.4173 0.0000
# 6 0.0000 0.0000 0.0000 0.0000 0.0000 23.7637
#
#
#
# Elastic Compliance Matrix: (Units=1/GPa)
#
#
# Indices 1 2 3 4 5 6 
#
# 1 0.009812 -0.003459 -0.002855 0.000000 0.000000 0.000000
# 2 -0.003459 0.027995 -0.006181 0.000000 0.000000 0.000000
# 3 -0.002855 -0.006181 0.012618 0.000000 0.000000 0.000000
# 4 0.000000 0.000000 0.000000 0.038719 0.000000 0.000000
# 5 0.000000 0.000000 0.000000 0.000000 0.087586 0.000000
# 6 0.000000 0.000000 0.000000 0.000000 0.000000 0.042081
#
#
# Mechanical properties :
#
#
# Convention : Reuss Voigt Hill
#
# Bulk Modulus (GPa) = 39.31709 49.75254 44.53481
# Shear Modulus (GPa) = 19.81920 24.05007 21.93464
#
# Velocity S-wave (km/s) = 3.15544 3.47597 3.31958
# Velocity P-wave (km/s) = 5.74700 6.41129 6.08821
#
# Compressibility (1/GPa) = 0.02543423
#
# Stress axis : x y z
#
# Youngs Moduli (GPa) = 101.91907 35.72043 79.24969
#
# Poissons Ratio (x) = 0.12356 0.22624
# Poissons Ratio (y) = 0.35256 0.48988
# Poissons Ratio (z) = 0.29096 0.22081
#
# Static dielectric constant tensor:
#      x y z
#    x 3.692780 0.000000 0.000000 
#    y 0.000000 3.369330 0.000000 
#    z 0.000000 0.000000 3.788130 
# 
# 
# High freq. dielectric constant tensor:
#      x y z
#    x 1.777670 0.000000 0.000000 
#    y 0.000000 1.753840 0.000000 
#    z 0.000000 0.000000 1.791830 
# 
# From -- ./inp_files/10641.got.cif
#   From: 2010.03.12/outbox.cif.g09.slc.cpg/sg39_6_cif.got.tgz:10641.got - 2010.04.14 02:53:20.
