data_PCOD8181575
_publ_section_title
;
Structure prediction by ZEFSAII (Michael W. Deem and Ramdas Pophale) SiO2 
 PCOD8181575
Probable space group: A B M 2
;
_chemical_formula_sum "Si O2"
_cell_formula_units_Z 48
_cell_length_a 15.737359
_cell_length_b 29.421366
_cell_length_c 4.888591
_cell_angle_alpha 90.000000
_cell_angle_beta 90.000000
_cell_angle_gamma 90.000000
_cell_volume 2263.489002
_symmetry_space_group_name_H-M "A B M 2"
_symmetry_group_IT_number 39
_symmetry_cell_setting 'orthorhombic'
loop_
_space_group_symop_operation_xyz
x,y,z
-x,-y,z
-x,1/2+y,z
x,1/2-y,z
x,1/2+y,1/2+z
-x,1/2-y,1/2+z
-x,y,1/2+z
x,-y,1/2+z
loop_
_atom_site_type_symbol
_atom_site_label
_atom_site_fract_x
_atom_site_fract_y
_atom_site_fract_z
Si Si1 0.937983 0.750000 0.300431
Si Si2 0.553636 0.750000 0.780634
Si Si3 0.263388 0.375150 0.814831
Si Si4 0.215668 0.528282 0.542302
Si Si5 0.441001 0.653120 0.161903
Si Si6 0.945582 0.575741 0.172153
Si Si7 0.167038 0.841787 0.782131
O O1 0.877006 0.706449 0.339872
O O2 0.017251 0.750000 0.506819
O O3 0.465121 0.750000 0.604325
O O4 0.600694 0.796266 0.694586
O O5 0.254141 0.424523 0.947852
O O6 0.360831 0.378320 0.717119
O O7 0.201748 0.364514 0.560207
O O8 0.243611 0.338244 0.056929
O O9 0.244931 0.512451 0.842812
O O10 0.114044 0.534621 0.572561
O O11 0.520725 0.644921 0.363017
O O12 0.900087 0.624577 0.136008
O O13 0.969646 0.572716 0.490969
#
# Coordination Sequence:
#
# PCOD8181575 Si02
#       7
#     4   4   8   8   8   8   8
#     4  12  24  40  62  88 124 168 216 252 280 334
#     4   8  16  30  50  80 112 140 176 224 276 328
#     4  11  23  41  62  86 121 158 199 247 304 367
#     4  11  23  39  59  84 114 151 192 241 305 364
#     4  10  20  36  60  88 118 154 194 239 294 353
#     4  11  21  36  57  81 113 147 189 243 292 343
#     4  11  23  39  58  87 120 163 204 243 297 348
#
# _framework density 21.206199000000002
#
# number of rings (size 3 to 8) (size 9 to 14) (size 15 to 20)
#    0.000    1.333    0.000    8.000    0.000    3.333 
#    0.000    1.667    0.000    3.000    0.000    0.000 
#    0.000    0.000    0.000    0.000    0.000    0.000 
#
# Total GULP energy -297413.425545 kJ/mol
# GULP energy per Si atom -12392.226064 kJ/mol
# Density = 2.115793 g / cm^3
# Si number density = 21.206199 Si / 1000 Ang^3
#
#
#
# Elastic Constant Matrix: (Units=GPa)
#
#
# Indices 1 2 3 4 5 6 
#
# 1 65.0624 29.6806 11.8913 0.0000 0.0000 0.0000
# 2 29.6806 93.7393 25.9855 0.0000 0.0000 0.0000
# 3 11.8913 25.9855 96.7426 0.0000 0.0000 0.0000
# 4 0.0000 0.0000 0.0000 31.3508 0.0000 0.0000
# 5 0.0000 0.0000 0.0000 0.0000 29.4813 0.0000
# 6 0.0000 0.0000 0.0000 0.0000 0.0000 18.4864
#
#
#
# Elastic Compliance Matrix: (Units=1/GPa)
#
#
# Indices 1 2 3 4 5 6 
#
# 1 0.018013 -0.005499 -0.000737 0.000000 0.000000 0.000000
# 2 -0.005499 0.013205 -0.002871 0.000000 0.000000 0.000000
# 3 -0.000737 -0.002871 0.011198 0.000000 0.000000 0.000000
# 4 0.000000 0.000000 0.000000 0.031897 0.000000 0.000000
# 5 0.000000 0.000000 0.000000 0.000000 0.033920 0.000000
# 6 0.000000 0.000000 0.000000 0.000000 0.000000 0.054094
#
#
# Mechanical properties :
#
#
# Convention : Reuss Voigt Hill
#
# Bulk Modulus (GPa) = 41.31845 43.40657 42.36251
# Shear Modulus (GPa) = 26.50985 28.39616 27.45301
#
# Velocity S-wave (km/s) = 3.53951 3.66327 3.60192
# Velocity P-wave (km/s) = 6.01919 6.19726 6.10887
#
# Compressibility (1/GPa) = 0.02420226
#
# Stress axis : x y z
#
# Youngs Moduli (GPa) = 55.51479 75.72917 89.29801
#
# Poissons Ratio (x) = 0.41645 0.06581
# Poissons Ratio (y) = 0.30529 0.25637
# Poissons Ratio (z) = 0.04091 0.21742
#
# Static dielectric constant tensor:
#      x y z
#    x 3.518130 0.000000 0.000000 
#    y 0.000000 3.809370 0.000000 
#    z 0.000000 0.000000 4.040050 
# 
# 
# High freq. dielectric constant tensor:
#      x y z
#    x 1.800070 0.000000 0.000000 
#    y 0.000000 1.822820 0.000000 
#    z 0.000000 0.000000 1.857300 
# 
# From -- ./inp_files/605.got.cif
#   From: 2010.03.12/outbox.cif.g09.slc.cpg/sg39_1_cif.got.tgz:605.got - 2010.04.14 02:53:20.
