data_PCOD8181176
_publ_section_title
;
Structure prediction by ZEFSAII (Michael W. Deem and Ramdas Pophale) SiO2 
 PCOD8181176
Probable space group: A B M 2
;
_chemical_formula_sum "Si O2"
_cell_formula_units_Z 64
_cell_length_a 24.039377
_cell_length_b 8.862955
_cell_length_c 15.121365
_cell_angle_alpha 90.000000
_cell_angle_beta 90.000000
_cell_angle_gamma 90.000000
_cell_volume 3221.756765
_symmetry_space_group_name_H-M "A B M 2"
_symmetry_group_IT_number 39
_symmetry_cell_setting 'orthorhombic'
loop_
_space_group_symop_operation_xyz
x,y,z
-x,-y,z
-x,1/2+y,z
x,1/2-y,z
x,1/2+y,1/2+z
-x,1/2-y,1/2+z
-x,y,1/2+z
x,-y,1/2+z
loop_
_atom_site_type_symbol
_atom_site_label
_atom_site_fract_x
_atom_site_fract_y
_atom_site_fract_z
Si Si1 0.244999 0.920630 0.694780
Si Si2 0.257369 0.579848 0.486898
Si Si3 0.362168 0.075003 0.248345
Si Si4 0.855528 0.073967 0.979623
Si Si5 0.867932 0.426461 0.181848
Si Si6 0.940839 0.927356 0.327038
Si Si7 0.560093 0.928567 0.094307
Si Si8 0.630210 0.075676 0.945916
O O1 0.231809 0.750000 0.726836
O O2 0.258148 0.923678 0.591823
O O3 0.299444 0.992220 0.742585
O O4 0.192268 0.023274 0.718433
O O5 0.266285 0.750000 0.451989
O O6 0.199177 0.516935 0.450310
O O7 0.305949 0.472319 0.452879
O O8 0.354890 0.250000 0.224577
O O9 0.403672 0.004469 0.175687
O O10 0.388518 0.050072 0.344573
O O11 0.840888 0.250000 0.975978
O O12 0.903369 0.028509 0.911250
O O13 0.874662 0.028682 0.078694
O O14 0.874928 0.250000 0.196993
O O15 0.915684 0.510932 0.235806
O O16 0.947632 0.750000 0.317481
O O17 0.000000 0.000000 0.345051
O O18 0.553960 0.750000 0.098826
O O19 0.500000 0.000000 0.099425
O O20 0.589857 0.972632 0.003404
O O21 0.624197 0.250000 0.973893
#
# Coordination Sequence:
#
# PCOD8181176 Si02
#       8
#     8   8   8   8   8   8   8   8
#     4   9  17  35  59  84 118 160 195 236 295 355
#     4  10  19  34  59  89 122 157 196 244 296 351
#     4   9  20  38  60  85 119 158 198 240 294 354
#     4   9  21  40  60  85 119 158 198 243 296 354
#     4  10  21  38  59  89 121 153 196 247 294 351
#     4  11  24  42  62  85 117 159 202 246 296 355
#     4  11  23  44  65  86 118 159 202 248 296 352
#     4  11  22  37  60  91 121 157 198 243 296 353
#
# _framework density 19.864940000000001
#
# number of rings (size 3 to 8) (size 9 to 14) (size 15 to 20)
#    0.000    2.000    1.250    1.875    1.750    3.000 
#    0.000    5.625    0.000    0.000    0.000    0.000 
#    0.000    0.000    0.000    0.000    0.000    0.000 
#
# Total GULP energy -396881.631922 kJ/mol
# GULP energy per Si atom -12402.550998 kJ/mol
# Density = 1.981973 g / cm^3
# Si number density = 19.864940 Si / 1000 Ang^3
#
#
#
# Elastic Constant Matrix: (Units=GPa)
#
#
# Indices 1 2 3 4 5 6 
#
# 1 117.8095 33.8162 35.3161 0.0000 0.0000 0.0000
# 2 33.8162 67.4342 24.1619 0.0000 0.0000 0.0000
# 3 35.3161 24.1619 63.5676 0.0000 0.0000 0.0000
# 4 0.0000 0.0000 0.0000 26.5316 0.0000 0.0000
# 5 0.0000 0.0000 0.0000 0.0000 17.0104 0.0000
# 6 0.0000 0.0000 0.0000 0.0000 0.0000 35.7359
#
#
#
# Elastic Compliance Matrix: (Units=1/GPa)
#
#
# Indices 1 2 3 4 5 6 
#
# 1 0.010983 -0.003845 -0.004640 0.000000 0.000000 0.000000
# 2 -0.003845 0.018513 -0.004901 0.000000 0.000000 0.000000
# 3 -0.004640 -0.004901 0.020172 0.000000 0.000000 0.000000
# 4 0.000000 0.000000 0.000000 0.037691 0.000000 0.000000
# 5 0.000000 0.000000 0.000000 0.000000 0.058788 0.000000
# 6 0.000000 0.000000 0.000000 0.000000 0.000000 0.027983
#
#
# Mechanical properties :
#
#
# Convention : Reuss Voigt Hill
#
# Bulk Modulus (GPa) = 43.67513 48.37773 46.02643
# Shear Modulus (GPa) = 23.97689 26.22339 25.10014
#
# Velocity S-wave (km/s) = 3.47795 3.63724 3.55849
# Velocity P-wave (km/s) = 6.17754 6.48425 6.33275
#
# Compressibility (1/GPa) = 0.02289633
#
# Stress axis : x y z
#
# Youngs Moduli (GPa) = 91.04990 54.01501 49.57355
#
# Poissons Ratio (x) = 0.20769 0.23004
# Poissons Ratio (y) = 0.35009 0.24295
# Poissons Ratio (z) = 0.42250 0.26471
#
# Static dielectric constant tensor:
#      x y z
#    x 3.642500 0.000000 0.000000 
#    y 0.000000 3.576360 0.000000 
#    z 0.000000 0.000000 3.768700 
# 
# 
# High freq. dielectric constant tensor:
#      x y z
#    x 1.774400 0.000000 0.000000 
#    y 0.000000 1.767730 0.000000 
#    z 0.000000 0.000000 1.780130 
# 
# From -- ./inp_files/10614.got.cif
#   From: 2010.03.12/outbox.cif.g09.slc.cpg/sg39_6_cif.got.tgz:10614.got - 2010.04.14 02:53:20.
