data_PCOD8181143
_publ_section_title
;
Structure prediction by ZEFSAII (Michael W. Deem and Ramdas Pophale) SiO2 
 PCOD8181143
Probable space group: A B M 2
;
_chemical_formula_sum "Si O2"
_cell_formula_units_Z 64
_cell_length_a 19.275402
_cell_length_b 8.793730
_cell_length_c 20.541426
_cell_angle_alpha 90.000000
_cell_angle_beta 90.000000
_cell_angle_gamma 90.000000
_cell_volume 3481.826775
_symmetry_space_group_name_H-M "A B M 2"
_symmetry_group_IT_number 39
_symmetry_cell_setting 'orthorhombic'
loop_
_space_group_symop_operation_xyz
x,y,z
-x,-y,z
-x,1/2+y,z
x,1/2-y,z
x,1/2+y,1/2+z
-x,1/2-y,1/2+z
-x,y,1/2+z
x,-y,1/2+z
loop_
_atom_site_type_symbol
_atom_site_label
_atom_site_fract_x
_atom_site_fract_y
_atom_site_fract_z
Si Si1 0.204568 0.069329 0.972370
Si Si2 0.427608 0.429980 0.891509
Si Si3 0.570317 0.928638 0.041508
Si Si4 0.711517 0.930532 0.096790
Si Si5 0.927215 0.071072 0.174134
Si Si6 0.712427 0.570562 0.353890
Si Si7 0.072377 0.570624 0.024562
Si Si8 0.208999 0.570874 0.722160
O O1 0.203007 0.250000 0.967199
O O2 0.244442 0.004039 0.911217
O O3 0.242483 0.010467 0.037162
O O4 0.127484 0.002669 0.975422
O O5 0.500000 0.500000 0.865956
O O6 0.428687 0.250000 0.881531
O O7 0.364829 0.501613 0.850274
O O8 0.416128 0.476342 0.966787
O O9 0.563103 0.750000 0.046509
O O10 0.633145 0.990814 0.086045
O O11 0.500000 0.000000 0.069117
O O12 0.710646 0.750000 0.096974
O O13 0.742894 0.993870 0.163814
O O14 0.932552 0.250000 0.182807
O O15 0.911390 0.024954 0.099353
O O16 0.866155 0.007598 0.219784
O O17 0.000000 0.000000 0.197181
O O18 0.707293 0.750000 0.364032
O O19 0.752365 0.527214 0.288122
O O20 0.070683 0.750000 0.015147
O O21 0.000000 0.500000 0.002638
O O22 0.197551 0.750000 0.714919
#
# Coordination Sequence:
#
# PCOD8181143 Si02
#       8
#     8   8   8   8   8   8   8   8
#     4  11  20  35  59  82 109 147 186 232 281 329
#     4  10  19  34  56  82 110 145 188 232 281 336
#     4   9  17  31  51  79 107 137 177 225 275 325
#     4   9  17  33  56  79 105 140 183 224 273 329
#     4  10  20  34  56  84 113 145 183 229 277 333
#     4  11  23  37  55  83 117 152 189 232 281 336
#     4  10  20  34  54  85 117 146 183 231 282 336
#     4  10  21  38  58  80 112 152 189 229 277 333
#
# _framework density 18.381155
#
# number of rings (size 3 to 8) (size 9 to 14) (size 15 to 20)
#    0.000    2.000    2.500    1.875    0.000    2.500 
#    0.000    1.875    0.000    4.500    0.000    0.000 
#    0.000    0.000    0.000    0.000    0.000    0.000 
#
# Total GULP energy -396859.606834 kJ/mol
# GULP energy per Si atom -12401.862714 kJ/mol
# Density = 1.833932 g / cm^3
# Si number density = 18.381155 Si / 1000 Ang^3
#
#
#
# Elastic Constant Matrix: (Units=GPa)
#
#
# Indices 1 2 3 4 5 6 
#
# 1 182.3111 58.3512 64.2670 0.0000 0.0000 0.0000
# 2 58.3512 68.7298 42.5540 0.0000 0.0000 0.0000
# 3 64.2670 42.5540 84.0588 0.0000 0.0000 0.0000
# 4 0.0000 0.0000 0.0000 21.7371 0.0000 0.0000
# 5 0.0000 0.0000 0.0000 0.0000 27.4090 0.0000
# 6 0.0000 0.0000 0.0000 0.0000 0.0000 37.5686
#
#
#
# Elastic Compliance Matrix: (Units=1/GPa)
#
#
# Indices 1 2 3 4 5 6 
#
# 1 0.008400 -0.004596 -0.004096 0.000000 0.000000 0.000000
# 2 -0.004596 0.023706 -0.008488 0.000000 0.000000 0.000000
# 3 -0.004096 -0.008488 0.019324 0.000000 0.000000 0.000000
# 4 0.000000 0.000000 0.000000 0.046004 0.000000 0.000000
# 5 0.000000 0.000000 0.000000 0.000000 0.036484 0.000000
# 6 0.000000 0.000000 0.000000 0.000000 0.000000 0.026618
#
#
# Mechanical properties :
#
#
# Convention : Reuss Voigt Hill
#
# Bulk Modulus (GPa) = 58.57149 73.93825 66.25487
# Shear Modulus (GPa) = 24.92697 28.67142 26.79920
#
# Velocity S-wave (km/s) = 3.68654 3.95375 3.82248
# Velocity P-wave (km/s) = 7.07495 7.82018 7.45688
#
# Compressibility (1/GPa) = 0.01707315
#
# Stress axis : x y z
#
# Youngs Moduli (GPa) = 119.05133 42.18261 51.74792
#
# Poissons Ratio (x) = 0.19385 0.21194
# Poissons Ratio (y) = 0.54711 0.43922
# Poissons Ratio (z) = 0.48758 0.35803
#
# Static dielectric constant tensor:
#      x y z
#    x 3.613450 0.000000 0.000000 
#    y 0.000000 3.278190 0.000000 
#    z 0.000000 0.000000 3.250330 
# 
# 
# High freq. dielectric constant tensor:
#      x y z
#    x 1.731760 0.000000 0.000000 
#    y 0.000000 1.709670 0.000000 
#    z 0.000000 0.000000 1.682730 
# 
# From -- ./inp_files/13108.got.cif
#   From: 2010.03.12/outbox.cif.g09.slc.cpg/sg39_7_cif.got.tgz:13108.got - 2010.04.14 02:53:20.
