data_PCOD8181833
_publ_section_title
;
Structure prediction by ZEFSAII (Michael W. Deem and Ramdas Pophale) SiO2 
 PCOD8181833
Probable space group: A B M 2
;
_chemical_formula_sum "Si O2"
_cell_formula_units_Z 64
_cell_length_a 15.319075
_cell_length_b 18.537949
_cell_length_c 11.027959
_cell_angle_alpha 90.000000
_cell_angle_beta 90.000000
_cell_angle_gamma 90.000000
_cell_volume 3131.766457
_symmetry_space_group_name_H-M "A B M 2"
_symmetry_group_IT_number 39
_symmetry_cell_setting 'orthorhombic'
loop_
_space_group_symop_operation_xyz
x,y,z
-x,-y,z
-x,1/2+y,z
x,1/2-y,z
x,1/2+y,1/2+z
-x,1/2-y,1/2+z
-x,y,1/2+z
x,-y,1/2+z
loop_
_atom_site_type_symbol
_atom_site_label
_atom_site_fract_x
_atom_site_fract_y
_atom_site_fract_z
Si Si1 0.143480 0.328209 0.355580
Si Si2 0.742294 0.328367 0.065024
Si Si3 0.684002 0.023668 0.991597
Si Si4 0.596343 0.530957 0.236416
Si Si5 0.865805 0.833448 0.767398
Si Si6 0.026074 0.580918 0.707457
Si Si7 0.821645 0.591125 0.013400
Si Si8 0.305670 0.166982 0.187844
O O1 0.109088 0.250000 0.308749
O O2 0.163419 0.325781 0.497810
O O3 0.073057 0.389255 0.328458
O O4 0.237240 0.345138 0.295408
O O5 0.694658 0.250000 0.051597
O O6 0.682958 0.390117 0.008124
O O7 0.771054 0.342256 0.203565
O O8 0.635365 0.998586 0.112087
O O9 0.640541 0.003822 0.862278
O O10 0.781120 0.988716 0.990814
O O11 0.500000 0.500000 0.244935
O O12 0.609189 0.617910 0.221253
O O13 0.889083 0.750000 0.789700
O O14 0.859233 0.875191 0.892510
O O15 0.940790 0.870548 0.685042
O O16 0.094407 0.586107 0.598666
O O17 0.000000 0.500000 0.735308
O O18 0.743692 0.641419 0.065306
O O19 0.336149 0.250000 0.174024
#
# Coordination Sequence:
#
# PCOD8181833 Si02
#       8
#     8   8   8   8   8   8   8   8
#     4   9  18  35  58  83 109 149 205 251 292 352
#     4  10  21  37  61  88 114 156 213 255 297 360
#     4  11  22  41  67  88 126 166 204 252 306 374
#     4  11  23  39  64  98 128 157 194 249 317 380
#     4  11  24  38  56  85 123 160 200 260 321 358
#     4  11  24  37  55  81 118 156 203 260 311 359
#     4  10  23  39  60  86 118 164 211 254 302 371
#     4   9  18  38  66  89 111 156 208 247 291 364
#
# _framework density 20.435751
#
# number of rings (size 3 to 8) (size 9 to 14) (size 15 to 20)
#    0.000    1.750    1.250    2.625    3.500    2.000 
#    0.000    0.625    0.000    6.750    0.000    0.000 
#    0.000    0.000    0.000    0.000    0.000    0.000 
#
# Total GULP energy -396484.067061 kJ/mol
# GULP energy per Si atom -12390.127096 kJ/mol
# Density = 2.038924 g / cm^3
# Si number density = 20.435751 Si / 1000 Ang^3
#
#
#
# Elastic Constant Matrix: (Units=GPa)
#
#
# Indices 1 2 3 4 5 6 
#
# 1 83.8494 54.4972 29.7556 0.0000 0.0000 0.0000
# 2 54.4972 151.8279 32.3394 0.0000 0.0000 0.0000
# 3 29.7556 32.3394 99.1884 0.0000 0.0000 0.0000
# 4 0.0000 0.0000 0.0000 16.9343 0.0000 0.0000
# 5 0.0000 0.0000 0.0000 0.0000 23.5354 0.0000
# 6 0.0000 0.0000 0.0000 0.0000 0.0000 28.4093
#
#
#
# Elastic Compliance Matrix: (Units=1/GPa)
#
#
# Indices 1 2 3 4 5 6 
#
# 1 0.016469 -0.005222 -0.003238 0.000000 0.000000 0.000000
# 2 -0.005222 0.008734 -0.001281 0.000000 0.000000 0.000000
# 3 -0.003238 -0.001281 0.011471 0.000000 0.000000 0.000000
# 4 0.000000 0.000000 0.000000 0.059052 0.000000 0.000000
# 5 0.000000 0.000000 0.000000 0.000000 0.042489 0.000000
# 6 0.000000 0.000000 0.000000 0.000000 0.000000 0.035200
#
#
# Mechanical properties :
#
#
# Convention : Reuss Voigt Hill
#
# Bulk Modulus (GPa) = 58.16703 63.11666 60.64185
# Shear Modulus (GPa) = 25.17292 28.32739 26.75015
#
# Velocity S-wave (km/s) = 3.51352 3.72717 3.62192
# Velocity P-wave (km/s) = 6.70708 7.03383 6.87240
#
# Compressibility (1/GPa) = 0.01719187
#
# Stress axis : x y z
#
# Youngs Moduli (GPa) = 60.72000 114.50117 87.17726
#
# Poissons Ratio (x) = 0.59789 0.28229
# Poissons Ratio (y) = 0.31706 0.11168
# Poissons Ratio (z) = 0.19662 0.14668
#
# Static dielectric constant tensor:
#      x y z
#    x 3.399030 0.000000 0.000000 
#    y 0.000000 4.022640 0.000000 
#    z 0.000000 0.000000 3.878200 
# 
# 
# High freq. dielectric constant tensor:
#      x y z
#    x 1.757830 0.000000 0.000000 
#    y 0.000000 1.812310 0.000000 
#    z 0.000000 0.000000 1.813390 
# 
# From -- ./inp_files/6625.got.cif
#   From: 2010.03.12/outbox.cif.g09.slc.cpg/sg39_4_cif.got.tgz:6625.got - 2010.04.14 02:53:20.
