data_PCOD8181903
_publ_section_title
;
Structure prediction by ZEFSAII (Michael W. Deem and Ramdas Pophale) SiO2 
 PCOD8181903
Probable space group: A B M 2
;
_chemical_formula_sum "Si O2"
_cell_formula_units_Z 64
_cell_length_a 6.802929
_cell_length_b 16.884483
_cell_length_c 27.582496
_cell_angle_alpha 90.000000
_cell_angle_beta 90.000000
_cell_angle_gamma 90.000000
_cell_volume 3168.234139
_symmetry_space_group_name_H-M "A B M 2"
_symmetry_group_IT_number 39
_symmetry_cell_setting 'orthorhombic'
loop_
_space_group_symop_operation_xyz
x,y,z
-x,-y,z
-x,1/2+y,z
x,1/2-y,z
x,1/2+y,1/2+z
-x,1/2-y,1/2+z
-x,y,1/2+z
x,-y,1/2+z
loop_
_atom_site_type_symbol
_atom_site_label
_atom_site_fract_x
_atom_site_fract_y
_atom_site_fract_z
Si Si1 0.891873 0.584212 0.674900
Si Si2 0.404261 0.657427 0.841657
Si Si3 0.708504 0.161845 0.667744
Si Si4 0.304675 0.160815 0.918668
Si Si5 0.901877 0.585940 0.407766
Si Si6 0.368038 0.657621 0.987093
Si Si7 0.380114 0.841158 0.097958
Si Si8 0.544318 0.913622 0.745591
O O1 0.747508 0.597837 0.629685
O O2 0.768408 0.595517 0.725258
O O3 0.000000 0.500000 0.672255
O O4 0.058313 0.650766 0.669082
O O5 0.358029 0.750000 0.850108
O O6 0.571558 0.618053 0.876066
O O7 0.484646 0.647603 0.787308
O O8 0.205259 0.609553 0.857031
O O9 0.662364 0.250000 0.687215
O O10 0.609690 0.151898 0.614345
O O11 0.606800 0.097588 0.701814
O O12 0.332562 0.250000 0.903239
O O13 0.077777 0.144301 0.919108
O O14 0.404996 0.144884 0.970950
O O15 0.000000 0.500000 0.403974
O O16 0.760601 0.598159 0.454127
O O17 0.305354 0.750000 0.979670
O O18 0.354684 0.631695 0.042704
O O19 0.309159 0.750000 0.104933
O O20 0.500000 0.000000 0.766978
#
# Coordination Sequence:
#
# PCOD8181903 Si02
#       8
#     8   8   8   8   8   8   8   8
#     4  11  22  39  59  89 124 161 202 252 314 366
#     4  10  23  41  61  86 118 159 206 253 306 371
#     4  10  21  39  61  87 121 159 204 256 304 370
#     4   9  19  38  61  83 114 156 197 246 305 356
#     4  11  23  37  59  89 125 159 199 252 307 362
#     4   9  19  38  61  87 121 160 205 249 294 361
#     4   9  20  37  61  90 120 161 207 249 300 363
#     4  11  23  40  63  86 119 157 202 254 318 373
#
# _framework density 20.200527000000001
#
# number of rings (size 3 to 8) (size 9 to 14) (size 15 to 20)
#    0.000    2.000    1.250    2.625    1.750    5.500 
#    0.000    5.000    0.000    0.000    0.000    0.000 
#    0.000    0.000    0.000    0.000    0.000    0.000 
#
# Total GULP energy -396481.017323 kJ/mol
# GULP energy per Si atom -12390.031791 kJ/mol
# Density = 2.015455 g / cm^3
# Si number density = 20.200527 Si / 1000 Ang^3
#
#
#
# Elastic Constant Matrix: (Units=GPa)
#
#
# Indices 1 2 3 4 5 6 
#
# 1 138.4534 36.6019 54.8106 0.0000 0.0000 0.0000
# 2 36.6019 60.0177 43.8824 0.0000 0.0000 0.0000
# 3 54.8106 43.8824 124.4937 0.0000 0.0000 0.0000
# 4 0.0000 0.0000 0.0000 25.4938 0.0000 0.0000
# 5 0.0000 0.0000 0.0000 0.0000 28.6366 0.0000
# 6 0.0000 0.0000 0.0000 0.0000 0.0000 30.3193
#
#
#
# Elastic Compliance Matrix: (Units=1/GPa)
#
#
# Indices 1 2 3 4 5 6 
#
# 1 0.009292 -0.003605 -0.002820 0.000000 0.000000 0.000000
# 2 -0.003605 0.023845 -0.006818 0.000000 0.000000 0.000000
# 3 -0.002820 -0.006818 0.011678 0.000000 0.000000 0.000000
# 4 0.000000 0.000000 0.000000 0.039225 0.000000 0.000000
# 5 0.000000 0.000000 0.000000 0.000000 0.034920 0.000000
# 6 0.000000 0.000000 0.000000 0.000000 0.000000 0.032982
#
#
# Mechanical properties :
#
#
# Convention : Reuss Voigt Hill
#
# Bulk Modulus (GPa) = 54.55983 65.95052 60.25518
# Shear Modulus (GPa) = 27.09461 29.40127 28.24794
#
# Velocity S-wave (km/s) = 3.66633 3.81920 3.74354
# Velocity P-wave (km/s) = 6.70748 7.22269 6.96985
#
# Compressibility (1/GPa) = 0.01832850
#
# Stress axis : x y z
#
# Youngs Moduli (GPa) = 107.61806 41.93726 85.63424
#
# Poissons Ratio (x) = 0.15117 0.24153
# Poissons Ratio (y) = 0.38792 0.58386
# Poissons Ratio (z) = 0.30353 0.28593
#
# Static dielectric constant tensor:
#      x y z
#    x 3.397810 0.000000 0.000000 
#    y 0.000000 3.554020 0.000000 
#    z 0.000000 0.000000 3.543840 
# 
# 
# High freq. dielectric constant tensor:
#      x y z
#    x 1.793570 0.000000 0.000000 
#    y 0.000000 1.784910 0.000000 
#    z 0.000000 0.000000 1.778990 
# 
# From -- ./inp_files/17371.got.cif
#   From: 2010.03.12/outbox.cif.g09.slc.cpg/sg39_9_cif.got.tgz:17371.got - 2010.04.14 02:53:20.
