data_PCOD8181212
_publ_section_title
;
Structure prediction by ZEFSAII (Michael W. Deem and Ramdas Pophale) SiO2 
 PCOD8181212
Probable space group: A B M 2
;
_chemical_formula_sum "Si O2"
_cell_formula_units_Z 64
_cell_length_a 23.427142
_cell_length_b 9.110212
_cell_length_c 15.333736
_cell_angle_alpha 90.000000
_cell_angle_beta 90.000000
_cell_angle_gamma 90.000000
_cell_volume 3272.621469
_symmetry_space_group_name_H-M "A B M 2"
_symmetry_group_IT_number 39
_symmetry_cell_setting 'orthorhombic'
loop_
_space_group_symop_operation_xyz
x,y,z
-x,-y,z
-x,1/2+y,z
x,1/2-y,z
x,1/2+y,1/2+z
-x,1/2-y,1/2+z
-x,y,1/2+z
x,-y,1/2+z
loop_
_atom_site_type_symbol
_atom_site_label
_atom_site_fract_x
_atom_site_fract_y
_atom_site_fract_z
Si Si1 0.759221 0.579444 0.447330
Si Si2 0.440319 0.577630 0.306159
Si Si3 0.876360 0.082877 0.705203
Si Si4 0.940267 0.077336 0.532225
Si Si5 0.644198 0.579162 0.650454
Si Si6 0.139046 0.077497 0.872261
Si Si7 0.628472 0.081842 0.951657
Si Si8 0.244227 0.918094 0.625632
O O1 0.774879 0.750000 0.451395
O O2 0.799186 0.500099 0.376958
O O3 0.693435 0.555967 0.420956
O O4 0.771710 0.509619 0.540681
O O5 0.500000 0.500000 0.291182
O O6 0.449891 0.750000 0.314985
O O7 0.402711 0.537623 0.221839
O O8 0.411770 0.522229 0.395244
O O9 0.893468 0.250000 0.726678
O O10 0.911502 0.025344 0.622105
O O11 0.808655 0.071285 0.690675
O O12 0.893130 0.979369 0.785900
O O13 0.950080 0.250000 0.531342
O O14 0.898562 0.029822 0.454549
O O15 0.000000 0.000000 0.518389
O O16 0.661299 0.750000 0.653706
O O17 0.621240 0.539807 0.553669
O O18 0.700244 0.484681 0.672833
O O19 0.148449 0.250000 0.867250
O O20 0.610132 0.250000 0.936147
O O21 0.256068 0.750000 0.598542
#
# Coordination Sequence:
#
# PCOD8181212 Si02
#       8
#     8   8   8   8   8   8   8   8
#     4  10  20  36  60  89 124 160 197 243 303 362
#     4  11  24  41  61  86 118 156 202 247 294 353
#     4  10  22  40  59  87 124 159 198 246 300 355
#     4  10  23  44  64  85 120 160 203 252 299 354
#     4   9  21  40  59  86 120 156 197 244 296 355
#     4  11  23  39  60  90 123 158 202 249 299 359
#     4   9  20  39  60  85 119 155 194 242 296 352
#     4  10  19  35  60  88 123 159 196 244 300 358
#
# _framework density 19.556187000000001
#
# number of rings (size 3 to 8) (size 9 to 14) (size 15 to 20)
#    0.000    2.000    1.250    2.250    1.750    7.000 
#    0.000    3.750    0.000    0.000    0.000    0.000 
#    0.000    0.000    0.000    0.000    0.000    0.000 
#
# Total GULP energy -396907.401026 kJ/mol
# GULP energy per Si atom -12403.356282 kJ/mol
# Density = 1.951168 g / cm^3
# Si number density = 19.556187 Si / 1000 Ang^3
#
#
#
# Elastic Constant Matrix: (Units=GPa)
#
#
# Indices 1 2 3 4 5 6 
#
# 1 75.8032 39.9278 23.8571 0.0000 0.0000 0.0000
# 2 39.9278 84.0897 36.5519 0.0000 0.0000 0.0000
# 3 23.8571 36.5519 88.6197 0.0000 0.0000 0.0000
# 4 0.0000 0.0000 0.0000 32.6953 0.0000 0.0000
# 5 0.0000 0.0000 0.0000 0.0000 17.7818 0.0000
# 6 0.0000 0.0000 0.0000 0.0000 0.0000 36.4311
#
#
#
# Elastic Compliance Matrix: (Units=1/GPa)
#
#
# Indices 1 2 3 4 5 6 
#
# 1 0.017774 -0.007749 -0.001589 0.000000 0.000000 0.000000
# 2 -0.007749 0.017868 -0.005284 0.000000 0.000000 0.000000
# 3 -0.001589 -0.005284 0.013891 0.000000 0.000000 0.000000
# 4 0.000000 0.000000 0.000000 0.030585 0.000000 0.000000
# 5 0.000000 0.000000 0.000000 0.000000 0.056237 0.000000
# 6 0.000000 0.000000 0.000000 0.000000 0.000000 0.027449
#
#
# Mechanical properties :
#
#
# Convention : Reuss Voigt Hill
#
# Bulk Modulus (GPa) = 49.28465 49.90958 49.59712
# Shear Modulus (GPa) = 25.02371 27.26004 26.14187
#
# Velocity S-wave (km/s) = 3.58100 3.73759 3.66014
# Velocity P-wave (km/s) = 6.50802 6.64851 6.57864
#
# Compressibility (1/GPa) = 0.02029029
#
# Stress axis : x y z
#
# Youngs Moduli (GPa) = 56.26340 55.96575 71.98786
#
# Poissons Ratio (x) = 0.43366 0.11437
# Poissons Ratio (y) = 0.43597 0.38037
# Poissons Ratio (z) = 0.08939 0.29571
#
# Static dielectric constant tensor:
#      x y z
#    x 3.526940 0.000000 0.000000 
#    y 0.000000 3.586170 0.000000 
#    z 0.000000 0.000000 3.571500 
# 
# 
# High freq. dielectric constant tensor:
#      x y z
#    x 1.755810 0.000000 0.000000 
#    y 0.000000 1.765190 0.000000 
#    z 0.000000 0.000000 1.767070 
# 
# From -- ./inp_files/10589.got.cif
#   From: 2010.03.12/outbox.cif.g09.slc.cpg/sg39_6_cif.got.tgz:10589.got - 2010.04.14 02:53:20.
