data_PCOD8181253
_publ_section_title
;
Structure prediction by ZEFSAII (Michael W. Deem and Ramdas Pophale) SiO2 
 PCOD8181253
Probable space group: A B M 2
;
_chemical_formula_sum "Si O2"
_cell_formula_units_Z 48
_cell_length_a 9.542022
_cell_length_b 14.519793
_cell_length_c 16.284956
_cell_angle_alpha 90.000000
_cell_angle_beta 90.000000
_cell_angle_gamma 90.000000
_cell_volume 2256.251084
_symmetry_space_group_name_H-M "A B M 2"
_symmetry_group_IT_number 39
_symmetry_cell_setting 'orthorhombic'
loop_
_space_group_symop_operation_xyz
x,y,z
-x,-y,z
-x,1/2+y,z
x,1/2-y,z
x,1/2+y,1/2+z
-x,1/2-y,1/2+z
-x,y,1/2+z
x,-y,1/2+z
loop_
_atom_site_type_symbol
_atom_site_label
_atom_site_fract_x
_atom_site_fract_y
_atom_site_fract_z
Si Si1 0.030024 0.144618 0.791110
Si Si2 0.760498 0.854386 0.655721
Si Si3 0.258660 0.853172 0.854957
Si Si4 0.529000 0.895225 0.779994
Si Si5 0.737221 0.354396 0.422323
Si Si6 0.338528 0.477194 0.508542
O O1 0.004640 0.250000 0.768506
O O2 0.112913 0.103663 0.712138
O O3 0.119569 0.134398 0.873311
O O4 0.878616 0.099612 0.811948
O O5 0.792691 0.750000 0.625128
O O6 0.619793 0.847349 0.709707
O O7 0.738170 0.922732 0.580729
O O8 0.222401 0.750000 0.887774
O O9 0.378876 0.845157 0.785937
O O10 0.318360 0.917790 0.926296
O O11 0.605759 0.884302 0.867120
O O12 0.500000 0.000000 0.756868
O O13 0.717412 0.250000 0.454193
O O14 0.740021 0.424369 0.499165
O O15 0.500000 0.500000 0.528377
#
# Coordination Sequence:
#
# PCOD8181253 Si02
#       6
#     8   8   8   8   8   8
#     4   8  19  38  65  93 120 162 215 257 310 389
#     4  10  22  41  64  91 131 173 204 260 334 382
#     4  11  20  36  66  98 125 161 211 266 314 373
#     4  11  19  37  62  93 126 160 218 264 304 380
#     4  10  19  37  62  89 124 168 211 260 314 370
#     4  12  23  37  61 101 131 164 214 268 319 395
#
# _framework density 21.274228000000001
#
# number of rings (size 3 to 8) (size 9 to 14) (size 15 to 20)
#    0.000    1.667    3.333    3.500    0.000    1.333 
#    0.000    0.000   14.667    0.000    0.000    1.167 
#    0.000    0.000    0.000    0.000    0.000    0.000 
#
# Total GULP energy -297478.234397 kJ/mol
# GULP energy per Si atom -12394.926433 kJ/mol
# Density = 2.122581 g / cm^3
# Si number density = 21.274228 Si / 1000 Ang^3
#
#
#
# Elastic Constant Matrix: (Units=GPa)
#
#
# Indices 1 2 3 4 5 6 
#
# 1 128.4613 8.5264 32.0678 0.0000 0.0000 0.0000
# 2 8.5264 113.0924 38.7407 0.0000 0.0000 0.0000
# 3 32.0678 38.7407 86.5897 0.0000 0.0000 0.0000
# 4 0.0000 0.0000 0.0000 32.6678 0.0000 0.0000
# 5 0.0000 0.0000 0.0000 0.0000 20.1206 0.0000
# 6 0.0000 0.0000 0.0000 0.0000 0.0000 25.3415
#
#
#
# Elastic Compliance Matrix: (Units=1/GPa)
#
#
# Indices 1 2 3 4 5 6 
#
# 1 0.008604 0.000523 -0.003420 0.000000 0.000000 0.000000
# 2 0.000523 0.010475 -0.004880 0.000000 0.000000 0.000000
# 3 -0.003420 -0.004880 0.014999 0.000000 0.000000 0.000000
# 4 0.000000 0.000000 0.000000 0.030611 0.000000 0.000000
# 5 0.000000 0.000000 0.000000 0.000000 0.049700 0.000000
# 6 0.000000 0.000000 0.000000 0.000000 0.000000 0.039461
#
#
# Mechanical properties :
#
#
# Convention : Reuss Voigt Hill
#
# Bulk Modulus (GPa) = 53.98918 54.09033 54.03976
# Shear Modulus (GPa) = 28.47736 32.21322 30.34529
#
# Velocity S-wave (km/s) = 3.66264 3.89548 3.78085
# Velocity P-wave (km/s) = 6.58175 6.76118 6.67206
#
# Compressibility (1/GPa) = 0.01852223
#
# Stress axis : x y z
#
# Youngs Moduli (GPa) = 116.23139 95.46891 66.67220
#
# Poissons Ratio (x) = -0.04993 0.22803
# Poissons Ratio (y) = -0.06079 0.32537
# Poissons Ratio (z) = 0.39754 0.46590
#
# Static dielectric constant tensor:
#      x y z
#    x 4.122160 0.000000 0.000000 
#    y 0.000000 3.958740 0.000000 
#    z 0.000000 0.000000 3.603780 
# 
# 
# High freq. dielectric constant tensor:
#      x y z
#    x 1.840420 0.000000 0.000000 
#    y 0.000000 1.843860 0.000000 
#    z 0.000000 0.000000 1.795570 
# 
# From -- ./inp_files/11597.got.cif
#   From: 2010.03.12/outbox.cif.g09.slc.cpg/sg39_6_cif.got.tgz:11597.got - 2010.04.14 02:53:20.
