data_PCOD8181896
_publ_section_title
;
Structure prediction by ZEFSAII (Michael W. Deem and Ramdas Pophale) SiO2 
 PCOD8181896
Probable space group: A B M 2
;
_chemical_formula_sum "Si O2"
_cell_formula_units_Z 56
_cell_length_a 5.194370
_cell_length_b 15.793274
_cell_length_c 31.021498
_cell_angle_alpha 90.000000
_cell_angle_beta 90.000000
_cell_angle_gamma 90.000000
_cell_volume 2544.882981
_symmetry_space_group_name_H-M "A B M 2"
_symmetry_group_IT_number 39
_symmetry_cell_setting 'orthorhombic'
loop_
_space_group_symop_operation_xyz
x,y,z
-x,-y,z
-x,1/2+y,z
x,1/2-y,z
x,1/2+y,1/2+z
-x,1/2-y,1/2+z
-x,y,1/2+z
x,-y,1/2+z
loop_
_atom_site_type_symbol
_atom_site_label
_atom_site_fract_x
_atom_site_fract_y
_atom_site_fract_z
Si Si1 0.797222 0.850313 0.933730
Si Si2 0.297035 0.150707 0.486084
Si Si3 0.908275 0.904882 0.664155
Si Si4 0.769176 0.405172 0.338796
Si Si5 0.608816 0.653430 0.209600
Si Si6 0.247771 0.445818 0.572839
Si Si7 0.730482 0.594773 0.301392
O O1 0.800588 0.750000 0.923901
O O2 0.543171 0.879105 0.958983
O O3 0.805202 0.903598 0.889916
O O4 0.040565 0.879589 0.961849
O O5 0.295523 0.250000 0.491893
O O6 0.321377 0.113644 0.533523
O O7 0.658646 0.884279 0.692553
O O8 0.830307 0.889931 0.614404
O O9 0.157012 0.847616 0.675144
O O10 0.000000 0.000000 0.672437
O O11 0.750095 0.499808 0.319873
O O12 0.507647 0.357498 0.324757
O O13 0.008122 0.357661 0.315657
O O14 0.560749 0.750000 0.223607
O O15 0.697004 0.596732 0.250124
O O16 0.500000 0.500000 0.585382
O O17 0.000000 0.500000 0.559017
#
# Coordination Sequence:
#
# PCOD8181896 Si02
#       7
#     8   8   8   8   8   8   8
#     4  10  21  39  62  91 127 170 218 269 324 386
#     4  10  22  41  65  94 132 173 209 262 333 386
#     4  11  25  44  72  95 136 181 220 272 337 400
#     4  10  21  39  59  87 126 167 224 261 329 390
#     4  12  26  43  67 103 136 172 226 283 335 398
#     4  11  23  45  64 102 132 167 221 269 316 390
#     4  10  23  39  58  90 126 164 221 266 330 388
#
# _framework density 22.004939
#
# number of rings (size 3 to 8) (size 9 to 14) (size 15 to 20)
#    0.000    1.429    0.000    5.143    6.000    2.286 
#   15.429    1.429    0.000    0.000    0.000    0.000 
#    0.000    0.000    0.000    0.000    0.000    0.000 
#
# Total GULP energy -347145.837191 kJ/mol
# GULP energy per Si atom -12398.065614 kJ/mol
# Density = 2.195485 g / cm^3
# Si number density = 22.004939 Si / 1000 Ang^3
#
#
#
# Elastic Constant Matrix: (Units=GPa)
#
#
# Indices 1 2 3 4 5 6 
#
# 1 208.7651 28.1106 60.6317 0.0000 0.0000 0.0000
# 2 28.1106 55.7100 54.0602 0.0000 0.0000 0.0000
# 3 60.6317 54.0602 160.3280 0.0000 0.0000 0.0000
# 4 0.0000 0.0000 0.0000 15.4023 0.0000 0.0000
# 5 0.0000 0.0000 0.0000 0.0000 46.0626 0.0000
# 6 0.0000 0.0000 0.0000 0.0000 0.0000 14.4673
#
#
#
# Elastic Compliance Matrix: (Units=1/GPa)
#
#
# Indices 1 2 3 4 5 6 
#
# 1 0.005427 -0.001110 -0.001678 0.000000 0.000000 0.000000
# 2 -0.001110 0.026907 -0.008653 0.000000 0.000000 0.000000
# 3 -0.001678 -0.008653 0.009789 0.000000 0.000000 0.000000
# 4 0.000000 0.000000 0.000000 0.064925 0.000000 0.000000
# 5 0.000000 0.000000 0.000000 0.000000 0.021710 0.000000
# 6 0.000000 0.000000 0.000000 0.000000 0.000000 0.069122
#
#
# Mechanical properties :
#
#
# Convention : Reuss Voigt Hill
#
# Bulk Modulus (GPa) = 51.97129 78.93422 65.45275
# Shear Modulus (GPa) = 22.00949 33.98648 27.99798
#
# Velocity S-wave (km/s) = 3.16604 3.93427 3.57087
# Velocity P-wave (km/s) = 6.08558 7.52243 6.84183
#
# Compressibility (1/GPa) = 0.01924139
#
# Stress axis : x y z
#
# Youngs Moduli (GPa) = 184.26779 37.16541 102.15154
#
# Poissons Ratio (x) = 0.04125 0.17141
# Poissons Ratio (y) = 0.20454 0.88389
# Poissons Ratio (z) = 0.30920 0.32158
#
# Static dielectric constant tensor:
#      x y z
#    x -0.907510 0.000000 0.000000 
#    y 0.000000 3.600050 0.000000 
#    z 0.000000 0.000000 3.948490 
# 
# 
# High freq. dielectric constant tensor:
#      x y z
#    x 1.903820 0.000000 0.000000 
#    y 0.000000 1.834370 0.000000 
#    z 0.000000 0.000000 1.872990 
# 
# From -- ./inp_files/17276.got.cif
#   From: 2010.03.12/outbox.cif.g09.slc.cpg/sg39_9_cif.got.tgz:17276.got - 2010.04.14 02:53:20.
