data_PCOD8181900
_publ_section_title
;
Structure prediction by ZEFSAII (Michael W. Deem and Ramdas Pophale) SiO2 
 PCOD8181900
Probable space group: A B M 2
;
_chemical_formula_sum "Si O2"
_cell_formula_units_Z 56
_cell_length_a 13.443700
_cell_length_b 15.577016
_cell_length_c 12.419586
_cell_angle_alpha 90.000000
_cell_angle_beta 90.000000
_cell_angle_gamma 90.000000
_cell_volume 2600.819410
_symmetry_space_group_name_H-M "A B M 2"
_symmetry_group_IT_number 39
_symmetry_cell_setting 'orthorhombic'
loop_
_space_group_symop_operation_xyz
x,y,z
-x,-y,z
-x,1/2+y,z
x,1/2-y,z
x,1/2+y,1/2+z
-x,1/2-y,1/2+z
-x,y,1/2+z
x,-y,1/2+z
loop_
_atom_site_type_symbol
_atom_site_label
_atom_site_fract_x
_atom_site_fract_y
_atom_site_fract_z
Si Si1 0.817317 0.924653 0.646960
Si Si2 0.616620 0.848556 0.692297
Si Si3 0.682683 0.424653 0.405769
Si Si4 0.250000 0.079045 0.276365
Si Si5 0.401334 0.650384 0.614416
Si Si6 0.098666 0.650384 0.938313
Si Si7 0.883380 0.348556 0.360432
O O1 0.701608 0.899989 0.628115
O O2 0.874320 0.914315 0.535078
O O3 0.870457 0.862252 0.732700
O O4 0.816565 0.021270 0.694236
O O5 0.630575 0.750000 0.663721
O O6 0.629543 0.862252 0.820029
O O7 0.508947 0.880465 0.654676
O O8 0.683435 0.521270 0.358493
O O9 0.625680 0.414315 0.517651
O O10 0.798392 0.399989 0.424614
O O11 0.324106 0.140140 0.211539
O O12 0.175894 0.140140 0.341190
O O13 0.400549 0.750000 0.577421
O O14 0.099451 0.750000 0.975308
O O15 0.991053 0.619535 0.898053
O O16 0.869425 0.250000 0.389009
#
# Coordination Sequence:
#
# PCOD8181900 Si02
#       7
#     8   8   8   8   8   8   8
#     4  10  21  39  61  82 118 159 194 234 289 356
#     4   9  19  36  59  87 117 154 197 237 286 352
#     4  10  21  39  61  82 118 159 194 234 289 356
#     4  10  23  40  57  90 122 152 192 242 291 344
#     4  11  22  38  62  89 118 153 195 245 292 336
#     4  11  22  38  62  89 118 153 195 245 292 336
#     4   9  19  36  59  87 117 154 197 237 286 352
#
# _framework density 21.531676999999998
#
# number of rings (size 3 to 8) (size 9 to 14) (size 15 to 20)
#    0.000    2.286    0.000    4.714    0.000    6.857 
#    0.000    8.571    0.000    0.000    0.000    0.000 
#    0.000    0.000    0.000    0.000    0.000    0.000 
#
# Total GULP energy -347192.439858 kJ/mol
# GULP energy per Si atom -12399.729995 kJ/mol
# Density = 2.148267 g / cm^3
# Si number density = 21.531677 Si / 1000 Ang^3
#
#
#
# Elastic Constant Matrix: (Units=GPa)
#
#
# Indices 1 2 3 4 5 6 
#
# 1 133.5114 9.9705 70.4515 0.0000 0.0000 0.0000
# 2 9.9705 47.6658 13.0210 0.0000 0.0000 0.0000
# 3 70.4515 13.0210 96.5667 0.0000 0.0000 0.0000
# 4 0.0000 0.0000 0.0000 24.5135 0.0000 0.0000
# 5 0.0000 0.0000 0.0000 0.0000 31.9842 0.0000
# 6 0.0000 0.0000 0.0000 0.0000 0.0000 20.3910
#
#
#
# Elastic Compliance Matrix: (Units=1/GPa)
#
#
# Indices 1 2 3 4 5 6 
#
# 1 0.012179 -0.000125 -0.008869 0.000000 0.000000 0.000000
# 2 -0.000125 0.021783 -0.002846 0.000000 0.000000 0.000000
# 3 -0.008869 -0.002846 0.017210 0.000000 0.000000 0.000000
# 4 0.000000 0.000000 0.000000 0.040794 0.000000 0.000000
# 5 0.000000 0.000000 0.000000 0.000000 0.031265 0.000000
# 6 0.000000 0.000000 0.000000 0.000000 0.000000 0.049041
#
#
# Mechanical properties :
#
#
# Convention : Reuss Voigt Hill
#
# Bulk Modulus (GPa) = 36.37361 51.62554 43.99958
# Shear Modulus (GPa) = 24.37652 27.66448 26.02050
#
# Velocity S-wave (km/s) = 3.36835 3.58834 3.48008
# Velocity P-wave (km/s) = 5.66193 6.41847 6.05204
#
# Compressibility (1/GPa) = 0.02749246
#
# Stress axis : x y z
#
# Youngs Moduli (GPa) = 82.10769 45.90734 58.10738
#
# Poissons Ratio (x) = 0.00573 0.51533
# Poissons Ratio (y) = 0.01025 0.16538
# Poissons Ratio (z) = 0.72818 0.13066
#
# Static dielectric constant tensor:
#      x y z
#    x 3.972230 0.000000 0.000000 
#    y 0.000000 3.725110 0.000000 
#    z 0.000000 0.000000 3.798820 
# 
# 
# High freq. dielectric constant tensor:
#      x y z
#    x 1.847250 0.000000 0.000000 
#    y 0.000000 1.842610 0.000000 
#    z 0.000000 0.000000 1.836900 
# 
# From -- ./inp_files/6516.got.cif
#   From: 2010.03.12/outbox.cif.g09.slc.cpg/sg39_4_cif.got.tgz:6516.got - 2010.04.14 02:53:20.
