data_PCOD8181679
_publ_section_title
;
Structure prediction by ZEFSAII (Michael W. Deem and Ramdas Pophale) SiO2 
 PCOD8181679
Probable space group: A B M 2
;
_chemical_formula_sum "Si O2"
_cell_formula_units_Z 56
_cell_length_a 19.089911
_cell_length_b 14.234721
_cell_length_c 10.035534
_cell_angle_alpha 90.000000
_cell_angle_beta 90.000000
_cell_angle_gamma 90.000000
_cell_volume 2727.051563
_symmetry_space_group_name_H-M "A B M 2"
_symmetry_group_IT_number 39
_symmetry_cell_setting 'orthorhombic'
loop_
_space_group_symop_operation_xyz
x,y,z
-x,-y,z
-x,1/2+y,z
x,1/2-y,z
x,1/2+y,1/2+z
-x,1/2-y,1/2+z
-x,y,1/2+z
x,-y,1/2+z
loop_
_atom_site_type_symbol
_atom_site_label
_atom_site_fract_x
_atom_site_fract_y
_atom_site_fract_z
Si Si1 0.944456 0.640759 0.462580
Si Si2 0.734446 0.508157 0.803840
Si Si3 0.347359 0.146659 0.200584
Si Si4 0.541175 0.644590 0.415590
Si Si5 0.824187 0.008064 0.059948
Si Si6 0.602873 0.049787 0.446257
Si Si7 0.069128 0.359653 0.156714
O O1 0.930259 0.750000 0.484106
O O2 0.877178 0.589177 0.519908
O O3 0.957716 0.617285 0.306679
O O4 0.011271 0.608338 0.548843
O O5 0.716075 0.396848 0.788286
O O6 0.771292 0.549419 0.671513
O O7 0.657432 0.554184 0.823307
O O8 0.783529 0.526208 0.929800
O O9 0.322805 0.250000 0.161353
O O10 0.423638 0.148689 0.270197
O O11 0.353846 0.084230 0.071120
O O12 0.549581 0.750000 0.481893
O O13 0.459442 0.619410 0.403654
O O14 0.578474 0.556314 0.488427
O O15 0.861344 0.917924 0.125621
O O16 0.086984 0.250000 0.141993
#
# Coordination Sequence:
#
# PCOD8181679 Si02
#       7
#     8   8   8   8   8   8   8
#     4  10  23  42  65  94 126 163 209 260 316 377
#     4  11  24  40  60  91 124 167 213 250 310 375
#     4  10  21  40  64  89 123 167 210 256 319 383
#     4   9  20  37  61  89 117 160 208 259 320 376
#     4  12  23  42  65  91 126 169 210 256 312 378
#     4  10  20  38  61  90 125 158 210 266 310 367
#     4  10  23  42  66  94 125 164 209 259 315 376
#
# _framework density 20.534998000000002
#
# number of rings (size 3 to 8) (size 9 to 14) (size 15 to 20)
#    0.000    1.714    2.857    0.857    2.000    6.857 
#    0.000    1.429    0.000    4.286    0.000    0.000 
#    0.000    0.000    0.000    0.000    0.000    0.000 
#
# Total GULP energy -347025.298245 kJ/mol
# GULP energy per Si atom -12393.760652 kJ/mol
# Density = 2.048826 g / cm^3
# Si number density = 20.534998 Si / 1000 Ang^3
#
#
#
# Elastic Constant Matrix: (Units=GPa)
#
#
# Indices 1 2 3 4 5 6 
#
# 1 92.4148 29.9019 38.2879 0.0000 0.0000 0.0000
# 2 29.9019 98.3407 33.4787 0.0000 0.0000 0.0000
# 3 38.2879 33.4787 114.8812 0.0000 0.0000 0.0000
# 4 0.0000 0.0000 0.0000 28.3966 0.0000 0.0000
# 5 0.0000 0.0000 0.0000 0.0000 36.7517 0.0000
# 6 0.0000 0.0000 0.0000 0.0000 0.0000 21.8777
#
#
#
# Elastic Compliance Matrix: (Units=1/GPa)
#
#
# Indices 1 2 3 4 5 6 
#
# 1 0.013212 -0.002796 -0.003589 0.000000 0.000000 0.000000
# 2 -0.002796 0.011880 -0.002530 0.000000 0.000000 0.000000
# 3 -0.003589 -0.002530 0.010638 0.000000 0.000000 0.000000
# 4 0.000000 0.000000 0.000000 0.035215 0.000000 0.000000
# 5 0.000000 0.000000 0.000000 0.000000 0.027210 0.000000
# 6 0.000000 0.000000 0.000000 0.000000 0.000000 0.045709
#
#
# Mechanical properties :
#
#
# Convention : Reuss Voigt Hill
#
# Bulk Modulus (GPa) = 55.86263 56.55263 56.20763
# Shear Modulus (GPa) = 29.82215 31.00309 30.41262
#
# Velocity S-wave (km/s) = 3.81499 3.88979 3.85257
# Velocity P-wave (km/s) = 6.83141 6.91183 6.87174
#
# Compressibility (1/GPa) = 0.01790105
#
# Stress axis : x y z
#
# Youngs Moduli (GPa) = 75.68794 84.17349 94.00181
#
# Poissons Ratio (x) = 0.23532 0.33734
# Poissons Ratio (y) = 0.21160 0.23786
# Poissons Ratio (z) = 0.27162 0.21299
#
# Static dielectric constant tensor:
#      x y z
#    x 3.864280 0.000000 0.000000 
#    y 0.000000 3.795610 0.000000 
#    z 0.000000 0.000000 3.751680 
# 
# 
# High freq. dielectric constant tensor:
#      x y z
#    x 1.811340 0.000000 0.000000 
#    y 0.000000 1.798970 0.000000 
#    z 0.000000 0.000000 1.797430 
# 
# From -- ./inp_files/3964.got.cif
#   From: 2010.03.12/outbox.cif.g09.slc.cpg/sg39_2_cif.got.tgz:3964.got - 2010.04.14 02:53:20.
