data_PCOD8181104
_publ_section_title
;
Structure prediction by ZEFSAII (Michael W. Deem and Ramdas Pophale) SiO2 
 PCOD8181104
Probable space group: A B M 2
;
_chemical_formula_sum "Si O2"
_cell_formula_units_Z 40
_cell_length_a 14.375398
_cell_length_b 9.164972
_cell_length_c 15.262550
_cell_angle_alpha 90.000000
_cell_angle_beta 90.000000
_cell_angle_gamma 90.000000
_cell_volume 2010.842796
_symmetry_space_group_name_H-M "A B M 2"
_symmetry_group_IT_number 39
_symmetry_cell_setting 'orthorhombic'
loop_
_space_group_symop_operation_xyz
x,y,z
-x,-y,z
-x,1/2+y,z
x,1/2-y,z
x,1/2+y,1/2+z
-x,1/2-y,1/2+z
-x,y,1/2+z
x,-y,1/2+z
loop_
_atom_site_type_symbol
_atom_site_label
_atom_site_fract_x
_atom_site_fract_y
_atom_site_fract_z
Si Si1 0.410332 0.918216 0.141110
Si Si2 0.770400 0.583457 0.891844
Si Si3 0.791345 0.582745 0.696892
Si Si4 0.591117 0.079713 0.937681
Si Si5 0.097347 0.422466 0.050831
O O1 0.430827 0.750000 0.155924
O O2 0.316251 0.967422 0.189621
O O3 0.500000 0.000000 0.180984
O O4 0.397035 0.957839 0.039647
O O5 0.737975 0.750000 0.907586
O O6 0.822095 0.568433 0.798196
O O7 0.680981 0.480735 0.888595
O O8 0.839916 0.532939 0.967977
O O9 0.801614 0.750000 0.663545
O O10 0.856225 0.478452 0.640099
O O11 0.581462 0.250000 0.919274
O O12 0.500000 0.000000 0.899757
O O13 0.082572 0.250000 0.057887
O O14 0.000000 0.500000 0.036579
#
# Coordination Sequence:
#
# PCOD8181104 Si02
#       5
#     8   8   8   8   8
#     4   9  18  32  54  82 115 156 195 236 281 335
#     4  10  22  39  61  89 121 155 194 241 293 350
#     4  10  21  40  62  88 121 155 195 242 291 346
#     4  10  19  33  56  85 119 161 201 241 288 343
#     4  11  24  42  64  88 115 151 192 242 299 354
#
# _framework density 19.892156
#
# number of rings (size 3 to 8) (size 9 to 14) (size 15 to 20)
#    0.000    2.000    2.000    1.200    0.000    4.800 
#    0.000    4.000    0.000    0.000    0.000    0.000 
#    0.000    0.000    0.000    0.000    0.000    0.000 
#
# Total GULP energy -248069.888537 kJ/mol
# GULP energy per Si atom -12403.494427 kJ/mol
# Density = 1.984688 g / cm^3
# Si number density = 19.892156 Si / 1000 Ang^3
#
#
#
# Elastic Constant Matrix: (Units=GPa)
#
#
# Indices 1 2 3 4 5 6 
#
# 1 123.9840 60.7104 47.3246 0.0000 0.0000 0.0000
# 2 60.7104 90.3953 43.1770 0.0000 0.0000 0.0000
# 3 47.3246 43.1770 89.8628 0.0000 0.0000 0.0000
# 4 0.0000 0.0000 0.0000 25.4041 0.0000 0.0000
# 5 0.0000 0.0000 0.0000 0.0000 6.5099 0.0000
# 6 0.0000 0.0000 0.0000 0.0000 0.0000 41.3369
#
#
#
# Elastic Compliance Matrix: (Units=1/GPa)
#
#
# Indices 1 2 3 4 5 6 
#
# 1 0.012762 -0.006957 -0.003378 0.000000 0.000000 0.000000
# 2 -0.006957 0.018151 -0.005057 0.000000 0.000000 0.000000
# 3 -0.003378 -0.005057 0.015337 0.000000 0.000000 0.000000
# 4 0.000000 0.000000 0.000000 0.039364 0.000000 0.000000
# 5 0.000000 0.000000 0.000000 0.000000 0.153613 0.000000
# 6 0.000000 0.000000 0.000000 0.000000 0.000000 0.024191
#
#
# Mechanical properties :
#
#
# Convention : Reuss Voigt Hill
#
# Bulk Modulus (GPa) = 64.66389 67.40734 66.03562
# Shear Modulus (GPa) = 16.70247 24.85217 20.77732
#
# Velocity S-wave (km/s) = 2.90082 3.53844 3.23538
# Velocity P-wave (km/s) = 6.61796 7.11717 6.87210
#
# Compressibility (1/GPa) = 0.01546458
#
# Stress axis : x y z
#
# Youngs Moduli (GPa) = 78.35949 55.09436 65.20316
#
# Poissons Ratio (x) = 0.38332 0.22024
# Poissons Ratio (y) = 0.54519 0.32973
# Poissons Ratio (z) = 0.26468 0.27861
#
# Static dielectric constant tensor:
#      x y z
#    x 3.627230 0.000000 0.000000 
#    y 0.000000 3.561080 0.000000 
#    z 0.000000 0.000000 3.583070 
# 
# 
# High freq. dielectric constant tensor:
#      x y z
#    x 1.771590 0.000000 0.000000 
#    y 0.000000 1.774490 0.000000 
#    z 0.000000 0.000000 1.775020 
# 
# From -- ./inp_files/9624.got.cif
#   From: 2010.03.12/outbox.cif.g09.slc.cpg/sg39_5_cif.got.tgz:9624.got - 2010.04.14 02:53:20.
