data_PCOD8181321
_publ_section_title
;
Structure prediction by ZEFSAII (Michael W. Deem and Ramdas Pophale) SiO2 
 PCOD8181321
Probable space group: A B M 2
;
_chemical_formula_sum "Si O2"
_cell_formula_units_Z 48
_cell_length_a 15.387451
_cell_length_b 8.778769
_cell_length_c 19.689589
_cell_angle_alpha 90.000000
_cell_angle_beta 90.000000
_cell_angle_gamma 90.000000
_cell_volume 2659.726345
_symmetry_space_group_name_H-M "A B M 2"
_symmetry_group_IT_number 39
_symmetry_cell_setting 'orthorhombic'
loop_
_space_group_symop_operation_xyz
x,y,z
-x,-y,z
-x,1/2+y,z
x,1/2-y,z
x,1/2+y,1/2+z
-x,1/2-y,1/2+z
-x,y,1/2+z
x,-y,1/2+z
loop_
_atom_site_type_symbol
_atom_site_label
_atom_site_fract_x
_atom_site_fract_y
_atom_site_fract_z
Si Si1 0.762977 0.927751 0.245070
Si Si2 0.909141 0.928358 0.134676
Si Si3 0.585780 0.920408 0.732932
Si Si4 0.092319 0.430644 0.492292
Si Si5 0.583076 0.916739 0.894047
Si Si6 0.226718 0.568121 0.389231
O O1 0.756034 0.750000 0.263237
O O2 0.836979 0.961529 0.190498
O O3 0.671312 0.983170 0.213851
O O4 0.789498 0.022342 0.311440
O O5 0.922760 0.750000 0.121577
O O6 0.000000 0.000000 0.159586
O O7 0.877586 0.005805 0.065012
O O8 0.594404 0.750000 0.702854
O O9 0.575100 0.911906 0.813363
O O10 0.500000 0.000000 0.701298
O O11 0.085493 0.250000 0.495087
O O12 0.159845 0.480398 0.435687
O O13 0.000000 0.500000 0.471388
O O14 0.579634 0.750000 0.925735
O O15 0.676845 0.988744 0.912358
O O16 0.500000 0.000000 0.926685
O O17 0.217352 0.750000 0.395686
#
# Coordination Sequence:
#
# PCOD8181321 Si02
#       6
#     8   8   8   8   8   8
#     4  10  20  33  51  78 108 137 172 214 259 303
#     4  10  21  37  56  76 101 134 171 211 255 307
#     4   9  16  27  45  70 101 136 171 209 254 303
#     4  11  22  37  57  77 100 133 172 212 256 310
#     4   8  15  26  43  68  98 132 165 201 244 292
#     4  10  20  34  52  77 108 138 171 213 258 301
#
# _framework density 18.046968
#
# number of rings (size 3 to 8) (size 9 to 14) (size 15 to 20)
#    0.000    2.333    0.000    5.500    0.000    8.000 
#    0.000    1.667    0.000    1.000    0.000    4.667 
#    0.000    0.000    0.000    0.000    0.000    0.000 
#
# Total GULP energy -297524.854302 kJ/mol
# GULP energy per Si atom -12396.868929 kJ/mol
# Density = 1.800589 g / cm^3
# Si number density = 18.046968 Si / 1000 Ang^3
#
#
#
# Elastic Constant Matrix: (Units=GPa)
#
#
# Indices 1 2 3 4 5 6 
#
# 1 144.1973 64.5504 65.0531 0.0000 0.0000 0.0000
# 2 64.5504 116.3206 38.3663 0.0000 0.0000 0.0000
# 3 65.0531 38.3663 58.1948 0.0000 0.0000 0.0000
# 4 0.0000 0.0000 0.0000 23.7971 0.0000 0.0000
# 5 0.0000 0.0000 0.0000 0.0000 25.9659 0.0000
# 6 0.0000 0.0000 0.0000 0.0000 0.0000 36.8310
#
#
#
# Elastic Compliance Matrix: (Units=1/GPa)
#
#
# Indices 1 2 3 4 5 6 
#
# 1 0.015078 -0.003588 -0.014489 0.000000 0.000000 0.000000
# 2 -0.003588 0.011840 -0.003794 0.000000 0.000000 0.000000
# 3 -0.014489 -0.003794 0.035882 0.000000 0.000000 0.000000
# 4 0.000000 0.000000 0.000000 0.042022 0.000000 0.000000
# 5 0.000000 0.000000 0.000000 0.000000 0.038512 0.000000
# 6 0.000000 0.000000 0.000000 0.000000 0.000000 0.027151
#
#
# Mechanical properties :
#
#
# Convention : Reuss Voigt Hill
#
# Bulk Modulus (GPa) = 52.47754 72.73913 62.60834
# Shear Modulus (GPa) = 22.66749 27.36833 25.01791
#
# Velocity S-wave (km/s) = 3.54789 3.89846 3.72730
# Velocity P-wave (km/s) = 6.77679 7.78826 7.30006
#
# Compressibility (1/GPa) = 0.01905577
#
# Stress axis : x y z
#
# Youngs Moduli (GPa) = 66.32236 84.46144 27.86917
#
# Poissons Ratio (x) = 0.30307 0.40380
# Poissons Ratio (y) = 0.23798 0.10575
# Poissons Ratio (z) = 0.96095 0.32049
#
# Static dielectric constant tensor:
#      x y z
#    x 3.601590 0.000000 0.000000 
#    y 0.000000 3.587990 0.000000 
#    z 0.000000 0.000000 2.931350 
# 
# 
# High freq. dielectric constant tensor:
#      x y z
#    x 1.715350 0.000000 0.000000 
#    y 0.000000 1.715670 0.000000 
#    z 0.000000 0.000000 1.652440 
# 
# From -- ./inp_files/12645.got.cif
#   From: 2010.03.12/outbox.cif.g09.slc.cpg/sg39_7_cif.got.tgz:12645.got - 2010.04.14 02:53:20.
