data_PCOD8181783
_publ_section_title
;
Structure prediction by ZEFSAII (Michael W. Deem and Ramdas Pophale) SiO2 
 PCOD8181783
Probable space group: A B M 2
;
_chemical_formula_sum "Si O2"
_cell_formula_units_Z 56
_cell_length_a 14.736389
_cell_length_b 8.843033
_cell_length_c 20.711787
_cell_angle_alpha 90.000000
_cell_angle_beta 90.000000
_cell_angle_gamma 90.000000
_cell_volume 2699.043562
_symmetry_space_group_name_H-M "A B M 2"
_symmetry_group_IT_number 39
_symmetry_cell_setting 'orthorhombic'
loop_
_space_group_symop_operation_xyz
x,y,z
-x,-y,z
-x,1/2+y,z
x,1/2-y,z
x,1/2+y,1/2+z
-x,1/2-y,1/2+z
-x,y,1/2+z
x,-y,1/2+z
loop_
_atom_site_type_symbol
_atom_site_label
_atom_site_fract_x
_atom_site_fract_y
_atom_site_fract_z
Si Si1 0.404050 0.928070 0.047530
Si Si2 0.731755 0.423183 0.939351
Si Si3 0.596869 0.071598 0.193790
Si Si4 0.095929 0.075796 0.124192
Si Si5 0.099947 0.429281 0.750368
Si Si6 0.729994 0.575571 0.296146
Si Si7 0.903031 0.922834 0.981881
O O1 0.414659 0.750000 0.039917
O O2 0.372948 0.971053 0.120483
O O3 0.500000 0.000000 0.031113
O O4 0.333581 0.993011 0.994486
O O5 0.751544 0.250000 0.956632
O O6 0.687069 0.439103 0.868060
O O7 0.828396 0.506014 0.935552
O O8 0.589297 0.250000 0.202618
O O9 0.500000 0.000000 0.209814
O O10 0.668637 0.008580 0.244263
O O11 0.086304 0.250000 0.146303
O O12 0.141228 0.061459 0.053944
O O13 0.143840 0.979910 0.180927
O O14 0.000000 0.000000 0.114195
O O15 0.094183 0.250000 0.756334
O O16 0.170567 0.497845 0.801275
O O17 0.000000 0.500000 0.760091
O O18 0.739857 0.750000 0.275570
O O19 0.918388 0.750000 0.963019
O O20 0.000000 0.000000 0.972729
#
# Coordination Sequence:
#
# PCOD8181783 Si02
#       7
#     8   8   8   8   8   8   8
#     4   9  20  40  65  93 120 152 194 241 298 356
#     4  10  23  41  60  86 122 162 202 248 300 356
#     4  10  21  40  66  95 123 156 197 246 303 364
#     4   9  17  31  51  80 111 145 191 242 297 349
#     4  11  22  37  58  84 117 159 205 253 304 359
#     4  11  24  41  60  87 124 163 205 251 303 361
#     4  10  21  36  57  85 118 159 203 249 299 355
#
# _framework density 20.748090000000001
#
# number of rings (size 3 to 8) (size 9 to 14) (size 15 to 20)
#    0.000    2.000    0.000    3.857    2.000    5.143 
#    0.000    1.429    0.000    0.000    0.000    0.000 
#    0.000    0.000    0.000    0.000    0.000    0.000 
#
# Total GULP energy -347060.996122 kJ/mol
# GULP energy per Si atom -12395.035576 kJ/mol
# Density = 2.070087 g / cm^3
# Si number density = 20.748090 Si / 1000 Ang^3
#
#
#
# Elastic Constant Matrix: (Units=GPa)
#
#
# Indices 1 2 3 4 5 6 
#
# 1 117.8784 50.8919 67.7237 0.0000 0.0000 0.0000
# 2 50.8919 121.0618 47.0139 0.0000 0.0000 0.0000
# 3 67.7237 47.0139 111.8693 0.0000 0.0000 0.0000
# 4 0.0000 0.0000 0.0000 24.9930 0.0000 0.0000
# 5 0.0000 0.0000 0.0000 0.0000 30.6090 0.0000
# 6 0.0000 0.0000 0.0000 0.0000 0.0000 35.2174
#
#
#
# Elastic Compliance Matrix: (Units=1/GPa)
#
#
# Indices 1 2 3 4 5 6 
#
# 1 0.013906 -0.003079 -0.007124 0.000000 0.000000 0.000000
# 2 -0.003079 0.010553 -0.002571 0.000000 0.000000 0.000000
# 3 -0.007124 -0.002571 0.014332 0.000000 0.000000 0.000000
# 4 0.000000 0.000000 0.000000 0.040011 0.000000 0.000000
# 5 0.000000 0.000000 0.000000 0.000000 0.032670 0.000000
# 6 0.000000 0.000000 0.000000 0.000000 0.000000 0.028395
#
#
# Mechanical properties :
#
#
# Convention : Reuss Voigt Hill
#
# Bulk Modulus (GPa) = 75.51425 75.78539 75.64982
# Shear Modulus (GPa) = 29.44116 30.50921 29.97519
#
# Velocity S-wave (km/s) = 3.77102 3.83882 3.80507
# Velocity P-wave (km/s) = 7.44551 7.50029 7.47295
#
# Compressibility (1/GPa) = 0.01324253
#
# Stress axis : x y z
#
# Youngs Moduli (GPa) = 71.91319 94.75948 69.77190
#
# Poissons Ratio (x) = 0.29176 0.49707
# Poissons Ratio (y) = 0.22142 0.17939
# Poissons Ratio (z) = 0.51233 0.24363
#
# Static dielectric constant tensor:
#      x y z
#    x 3.531370 0.000000 0.000000 
#    y 0.000000 3.766040 0.000000 
#    z 0.000000 0.000000 4.202060 
# 
# 
# High freq. dielectric constant tensor:
#      x y z
#    x 1.794990 0.000000 0.000000 
#    y 0.000000 1.817370 0.000000 
#    z 0.000000 0.000000 1.820950 
# 
# From -- ./inp_files/14786.got.cif
#   From: 2010.03.12/outbox.cif.g09.slc.cpg/sg39_8_cif.got.tgz:14786.got - 2010.04.14 02:53:20.
