data_PCOD8181071
_publ_section_title
;
Structure prediction by ZEFSAII (Michael W. Deem and Ramdas Pophale) SiO2 
 PCOD8181071
Probable space group: A B M 2
;
_chemical_formula_sum "Si O2"
_cell_formula_units_Z 60
_cell_length_a 10.887729
_cell_length_b 16.146054
_cell_length_c 18.347655
_cell_angle_alpha 90.000000
_cell_angle_beta 90.000000
_cell_angle_gamma 90.000000
_cell_volume 3225.405101
_symmetry_space_group_name_H-M "A B M 2"
_symmetry_group_IT_number 39
_symmetry_cell_setting 'orthorhombic'
loop_
_space_group_symop_operation_xyz
x,y,z
-x,-y,z
-x,1/2+y,z
x,1/2-y,z
x,1/2+y,1/2+z
-x,1/2-y,1/2+z
-x,y,1/2+z
x,-y,1/2+z
loop_
_atom_site_type_symbol
_atom_site_label
_atom_site_fract_x
_atom_site_fract_y
_atom_site_fract_z
Si Si1 0.379337 0.046400 0.927140
Si Si2 0.862144 0.341756 0.263568
Si Si3 0.915510 0.578593 0.613062
Si Si4 0.124006 0.655625 0.538611
Si Si5 0.500000 0.000000 0.710491
Si Si6 0.117791 0.947143 0.398757
Si Si7 0.697347 0.969663 0.087853
Si Si8 0.585743 0.156757 0.300269
O O1 0.250261 0.004208 0.897190
O O2 0.393522 0.135528 0.886321
O O3 0.500000 0.000000 0.898910
O O4 0.383072 0.047038 0.015191
O O5 0.913689 0.250000 0.280637
O O6 0.907858 0.369362 0.185825
O O7 0.916665 0.405751 0.322433
O O8 0.716197 0.341254 0.261142
O O9 0.783807 0.551282 0.580040
O O10 0.000000 0.500000 0.628636
O O11 0.980798 0.639078 0.555127
O O12 0.159683 0.750000 0.542646
O O13 0.150086 0.623299 0.457546
O O14 0.212125 0.609143 0.596982
O O15 0.616445 0.018198 0.659329
O O16 0.488538 0.083270 0.759261
O O17 0.000000 0.000000 0.424729
O O18 0.526020 0.250000 0.294096
#
# Coordination Sequence:
#
# PCOD8181071 Si02
#       8
#     8   8   8   8   4   8   8   8
#     4  10  19  36  60  82 111 154 198 237 292 354
#     4  10  19  33  54  83 111 146 192 239 287 349
#     4  10  19  34  54  81 113 147 187 233 289 350
#     4  10  20  35  55  80 113 152 192 240 291 349
#     4  12  20  38  62  84 124 158 188 252 304 352
#     4  10  20  35  56  83 111 148 192 245 288 352
#     4  10  21  34  59  87 112 150 194 238 296 356
#     4  10  22  37  58  86 115 156 203 243 292 355
#
# _framework density 18.602315000000001
#
# number of rings (size 3 to 8) (size 9 to 14) (size 15 to 20)
#    0.000    1.867    2.667    3.200    0.000    3.733 
#    0.000    0.000    0.000    6.400    0.000    0.000 
#    0.000    0.000    0.000    0.000    0.000    0.000 
#
# Total GULP energy -371649.781421 kJ/mol
# GULP energy per Si atom -12388.326047 kJ/mol
# Density = 1.855998 g / cm^3
# Si number density = 18.602315 Si / 1000 Ang^3
#
#
#
# Elastic Constant Matrix: (Units=GPa)
#
#
# Indices 1 2 3 4 5 6 
#
# 1 95.3631 41.9211 27.0210 0.0000 0.0000 0.0000
# 2 41.9211 99.4563 32.5788 0.0000 0.0000 0.0000
# 3 27.0210 32.5788 87.4550 0.0000 0.0000 0.0000
# 4 0.0000 0.0000 0.0000 25.1314 0.0000 0.0000
# 5 0.0000 0.0000 0.0000 0.0000 21.3970 0.0000
# 6 0.0000 0.0000 0.0000 0.0000 0.0000 10.4833
#
#
#
# Elastic Compliance Matrix: (Units=1/GPa)
#
#
# Indices 1 2 3 4 5 6 
#
# 1 0.013264 -0.004839 -0.002296 0.000000 0.000000 0.000000
# 2 -0.004839 0.013217 -0.003429 0.000000 0.000000 0.000000
# 3 -0.002296 -0.003429 0.013421 0.000000 0.000000 0.000000
# 4 0.000000 0.000000 0.000000 0.039791 0.000000 0.000000
# 5 0.000000 0.000000 0.000000 0.000000 0.046735 0.000000
# 6 0.000000 0.000000 0.000000 0.000000 0.000000 0.095390
#
#
# Mechanical properties :
#
#
# Convention : Reuss Voigt Hill
#
# Bulk Modulus (GPa) = 53.25940 53.92403 53.59171
# Shear Modulus (GPa) = 20.06394 23.45257 21.75825
#
# Velocity S-wave (km/s) = 3.28773 3.55453 3.42373
# Velocity P-wave (km/s) = 6.56543 6.77473 6.67090
#
# Compressibility (1/GPa) = 0.01877603
#
# Stress axis : x y z
#
# Youngs Moduli (GPa) = 75.39324 75.65810 74.51021
#
# Poissons Ratio (x) = 0.36609 0.17104
# Poissons Ratio (y) = 0.36481 0.25547
# Poissons Ratio (z) = 0.17307 0.25941
#
# Static dielectric constant tensor:
#      x y z
#    x 3.617050 0.000000 0.000000 
#    y 0.000000 3.409960 0.000000 
#    z 0.000000 0.000000 3.385290 
# 
# 
# High freq. dielectric constant tensor:
#      x y z
#    x 1.719710 0.000000 0.000000 
#    y 0.000000 1.702470 0.000000 
#    z 0.000000 0.000000 1.726780 
# 
# From -- ./inp_files/12301.got.cif
#   From: 2010.03.12/outbox.cif.g09.slc.cpg/sg39_7_cif.got.tgz:12301.got - 2010.04.14 02:53:20.
