data_PCOD8181926
_publ_section_title
;
Structure prediction by ZEFSAII (Michael W. Deem and Ramdas Pophale) SiO2 
 PCOD8181926
Probable space group: A B M 2
;
_chemical_formula_sum "Si O2"
_cell_formula_units_Z 48
_cell_length_a 18.744488
_cell_length_b 8.514132
_cell_length_c 14.845841
_cell_angle_alpha 90.000000
_cell_angle_beta 90.000000
_cell_angle_gamma 90.000000
_cell_volume 2369.292972
_symmetry_space_group_name_H-M "A B M 2"
_symmetry_group_IT_number 39
_symmetry_cell_setting 'orthorhombic'
loop_
_space_group_symop_operation_xyz
x,y,z
-x,-y,z
-x,1/2+y,z
x,1/2-y,z
x,1/2+y,1/2+z
-x,1/2-y,1/2+z
-x,y,1/2+z
x,-y,1/2+z
loop_
_atom_site_type_symbol
_atom_site_label
_atom_site_fract_x
_atom_site_fract_y
_atom_site_fract_z
Si Si1 0.330909 0.431662 0.507340
Si Si2 0.924025 0.933249 0.917987
Si Si3 0.827460 0.430038 0.067905
Si Si4 0.163037 0.432607 0.260083
Si Si5 0.310290 0.066851 0.819537
Si Si6 0.422115 0.565223 0.173566
O O1 0.338769 0.250000 0.479324
O O2 0.256483 0.460821 0.557946
O O3 0.339102 0.539831 0.420035
O O4 0.393046 0.485320 0.575692
O O5 0.928332 0.750000 0.896646
O O6 0.899884 0.023705 0.828355
O O7 0.000000 0.000000 0.948636
O O8 0.869136 0.959320 0.999229
O O9 0.847239 0.250000 0.046736
O O10 0.849001 0.469307 0.169584
O O11 0.159557 0.250000 0.236574
O O12 0.237781 0.470862 0.307656
O O13 0.294283 0.250000 0.802838
O O14 0.369150 0.000588 0.750483
O O15 0.500000 0.500000 0.190602
O O16 0.424997 0.750000 0.181675
#
# Coordination Sequence:
#
# PCOD8181926 Si02
#       6
#     8   8   8   8   8   8
#     4  10  21  39  63  91 125 162 208 259 313 375
#     4  12  26  45  67  96 132 169 210 261 320 377
#     4  11  22  41  67  96 129 166 211 262 315 377
#     4  12  24  40  65  97 129 168 215 262 315 375
#     4  11  22  39  63  92 125 164 212 262 314 376
#     4  10  23  42  61  88 127 166 206 260 318 373
#
# _framework density 20.259208000000001
#
# number of rings (size 3 to 8) (size 9 to 14) (size 15 to 20)
#    0.000    1.000    3.333    4.000    0.000    4.000 
#    0.000    6.667    0.000    0.000    0.000    0.000 
#    0.000    0.000    0.000    0.000    0.000    0.000 
#
# Total GULP energy -297779.710826 kJ/mol
# GULP energy per Si atom -12407.487951 kJ/mol
# Density = 2.021310 g / cm^3
# Si number density = 20.259208 Si / 1000 Ang^3
#
#
#
# Elastic Constant Matrix: (Units=GPa)
#
#
# Indices 1 2 3 4 5 6 
#
# 1 77.5112 27.8970 10.1046 0.0000 0.0000 0.0000
# 2 27.8970 68.4705 14.2065 0.0000 0.0000 0.0000
# 3 10.1046 14.2065 100.3236 0.0000 0.0000 0.0000
# 4 0.0000 0.0000 0.0000 35.0145 0.0000 0.0000
# 5 0.0000 0.0000 0.0000 0.0000 25.8120 0.0000
# 6 0.0000 0.0000 0.0000 0.0000 0.0000 31.7541
#
#
#
# Elastic Compliance Matrix: (Units=1/GPa)
#
#
# Indices 1 2 3 4 5 6 
#
# 1 0.015162 -0.006038 -0.000672 0.000000 0.000000 0.000000
# 2 -0.006038 0.017451 -0.001863 0.000000 0.000000 0.000000
# 3 -0.000672 -0.001863 0.010299 0.000000 0.000000 0.000000
# 4 0.000000 0.000000 0.000000 0.028560 0.000000 0.000000
# 5 0.000000 0.000000 0.000000 0.000000 0.038742 0.000000
# 6 0.000000 0.000000 0.000000 0.000000 0.000000 0.031492
#
#
# Mechanical properties :
#
#
# Convention : Reuss Voigt Hill
#
# Bulk Modulus (GPa) = 38.81029 38.96905 38.88967
# Shear Modulus (GPa) = 29.86117 31.45593 30.65855
#
# Velocity S-wave (km/s) = 3.84338 3.94467 3.89435
# Velocity P-wave (km/s) = 6.23649 6.32647 6.28164
#
# Compressibility (1/GPa) = 0.02576636
#
# Stress axis : x y z
#
# Youngs Moduli (GPa) = 65.95379 57.30174 97.09433
#
# Poissons Ratio (x) = 0.34599 0.06526
# Poissons Ratio (y) = 0.39823 0.18090
# Poissons Ratio (z) = 0.04433 0.10676
#
# Static dielectric constant tensor:
#      x y z
#    x 2.337020 0.000000 0.000000 
#    y 0.000000 3.601690 0.000000 
#    z 0.000000 0.000000 3.747640 
# 
# 
# High freq. dielectric constant tensor:
#      x y z
#    x 1.787170 0.000000 0.000000 
#    y 0.000000 1.792360 0.000000 
#    z 0.000000 0.000000 1.805070 
# 
# From -- ./inp_files/10038.got.cif
#   From: 2010.03.12/outbox.cif.g09.slc.cpg/sg39_6_cif.got.tgz:10038.got - 2010.04.14 02:53:20.
