data_PCOD8181598
_publ_section_title
;
Structure prediction by ZEFSAII (Michael W. Deem and Ramdas Pophale) SiO2 
 PCOD8181598
Probable space group: A B M 2
;
_chemical_formula_sum "Si O2"
_cell_formula_units_Z 52
_cell_length_a 18.531697
_cell_length_b 14.025480
_cell_length_c 10.010373
_cell_angle_alpha 90.000000
_cell_angle_beta 90.000000
_cell_angle_gamma 90.000000
_cell_volume 2601.855564
_symmetry_space_group_name_H-M "A B M 2"
_symmetry_group_IT_number 39
_symmetry_cell_setting 'orthorhombic'
loop_
_space_group_symop_operation_xyz
x,y,z
-x,-y,z
-x,1/2+y,z
x,1/2-y,z
x,1/2+y,1/2+z
-x,1/2-y,1/2+z
-x,y,1/2+z
x,-y,1/2+z
loop_
_atom_site_type_symbol
_atom_site_label
_atom_site_fract_x
_atom_site_fract_y
_atom_site_fract_z
Si Si1 0.110193 0.357483 0.897210
Si Si2 0.122291 0.861666 0.093880
Si Si3 0.000000 0.500000 0.994289
Si Si4 0.774057 0.521533 0.018078
Si Si5 0.678349 0.998629 0.765366
Si Si6 0.545391 0.405717 0.157136
Si Si7 0.565309 0.350039 0.864698
O O1 0.086896 0.250000 0.936442
O O2 0.143664 0.359608 0.749343
O O3 0.042836 0.428827 0.897801
O O4 0.166438 0.395331 0.007723
O O5 0.113040 0.750000 0.043962
O O6 0.050608 0.927568 0.079700
O O7 0.188437 0.915856 0.018428
O O8 0.723845 0.537028 0.890263
O O9 0.730716 0.542631 0.153480
O O10 0.621341 0.071260 0.824667
O O11 0.629966 0.917359 0.695782
O O12 0.500000 0.500000 0.129081
O O13 0.508125 0.351684 0.279285
O O14 0.542299 0.350132 0.018862
O O15 0.604281 0.250000 0.836298
#
# Coordination Sequence:
#
# PCOD8181598 Si02
#       7
#     8   8   4   8   8   8   8
#     4  10  21  38  60  89 122 157 201 246 295 353
#     4  10  21  38  61  89 122 160 200 243 298 355
#     4  10  20  36  64  88 122 158 202 248 290 346
#     4  11  22  40  62  87 121 156 202 245 300 350
#     4  11  22  40  63  84 114 163 196 239 301 367
#     4  10  21  39  61  83 115 156 196 241 301 357
#     4  11  23  38  59  89 118 148 199 255 296 353
#
# _framework density 19.985738000000001
#
# number of rings (size 3 to 8) (size 9 to 14) (size 15 to 20)
#    0.000    1.538    3.077    2.769    2.154    1.231 
#    0.000    1.538    0.000    0.000    0.000    0.000 
#    0.000    0.000    0.000    0.000    0.000    0.000 
#
# Total GULP energy -322171.143363 kJ/mol
# GULP energy per Si atom -12391.197822 kJ/mol
# Density = 1.994025 g / cm^3
# Si number density = 19.985738 Si / 1000 Ang^3
#
#
#
# Elastic Constant Matrix: (Units=GPa)
#
#
# Indices 1 2 3 4 5 6 
#
# 1 91.6829 30.6736 33.9867 0.0000 0.0000 0.0000
# 2 30.6736 118.3739 26.8125 0.0000 0.0000 0.0000
# 3 33.9867 26.8125 108.3513 0.0000 0.0000 0.0000
# 4 0.0000 0.0000 0.0000 -66.3235 0.0000 0.0000
# 5 0.0000 0.0000 0.0000 0.0000 36.7958 0.0000
# 6 0.0000 0.0000 0.0000 0.0000 0.0000 -9.1209
#
#
#
# Elastic Compliance Matrix: (Units=1/GPa)
#
#
# Indices 1 2 3 4 5 6 
#
# 1 0.013057 -0.002602 -0.003452 0.000000 0.000000 0.000000
# 2 -0.002602 0.009468 -0.001527 0.000000 0.000000 0.000000
# 3 -0.003452 -0.001527 0.010690 0.000000 0.000000 0.000000
# 4 0.000000 0.000000 0.000000 -0.015078 0.000000 0.000000
# 5 0.000000 0.000000 0.000000 0.000000 0.027177 0.000000
# 6 0.000000 0.000000 0.000000 0.000000 0.000000 -0.109638
#
#
# Mechanical properties :
#
#
# Convention : Reuss Voigt Hill
#
# Bulk Modulus (GPa) = 55.38882 55.70596 55.54739
# Shear Modulus (GPa) = -115.88798 7.39929 -54.24434
#
# Velocity S-wave (km/s) = -7.62307 1.92622 -5.21540
# Velocity P-wave (km/s) = 7.05034 5.73415 2.90059
#
# Compressibility (1/GPa) = 0.01805418
#
# Stress axis : x y z
#
# Youngs Moduli (GPa) = 76.58638 105.62143 93.54688
#
# Poissons Ratio (x) = 0.27478 0.32291
# Poissons Ratio (y) = 0.19924 0.14283
# Poissons Ratio (z) = 0.26437 0.16127
#
# Static dielectric constant tensor:
#      x y z
#    x 4.002440 0.000000 0.000000 
#    y 0.000000 3.697050 0.000000 
#    z 0.000000 0.000000 3.665410 
# 
# 
# High freq. dielectric constant tensor:
#      x y z
#    x 1.782790 0.000000 0.000000 
#    y 0.000000 1.774560 0.000000 
#    z 0.000000 0.000000 1.782830 
# 
# From -- ./inp_files/3951.got.cif
#   From: 2010.03.12/outbox.cif.g09.slc.cpg/sg39_2_cif.got.tgz:3951.got - 2010.04.14 02:53:20.
