data_PCOD8181627
_publ_section_title
;
Structure prediction by ZEFSAII (Michael W. Deem and Ramdas Pophale) SiO2 
 PCOD8181627
Probable space group: A B M 2
;
_chemical_formula_sum "Si O2"
_cell_formula_units_Z 64
_cell_length_a 17.588005
_cell_length_b 8.927004
_cell_length_c 20.326971
_cell_angle_alpha 90.000000
_cell_angle_beta 90.000000
_cell_angle_gamma 90.000000
_cell_volume 3191.500945
_symmetry_space_group_name_H-M "A B M 2"
_symmetry_group_IT_number 39
_symmetry_cell_setting 'orthorhombic'
loop_
_space_group_symop_operation_xyz
x,y,z
-x,-y,z
-x,1/2+y,z
x,1/2-y,z
x,1/2+y,1/2+z
-x,1/2-y,1/2+z
-x,y,1/2+z
x,-y,1/2+z
loop_
_atom_site_type_symbol
_atom_site_label
_atom_site_fract_x
_atom_site_fract_y
_atom_site_fract_z
Si Si1 0.420056 0.572116 0.982290
Si Si2 0.181560 0.572990 0.835802
Si Si3 0.079900 0.423749 0.728667
Si Si4 0.422503 0.575046 0.710257
Si Si5 0.646797 0.072152 0.844780
Si Si6 0.683120 0.074825 0.589514
Si Si7 0.079428 0.425313 0.457982
Si Si8 0.843060 0.576144 0.591725
O O1 0.500000 0.500000 0.002932
O O2 0.427144 0.750000 0.986211
O O3 0.397145 0.515670 0.909512
O O4 0.354571 0.518889 0.031188
O O5 0.179197 0.750000 0.823665
O O6 0.145567 0.493803 0.772994
O O7 0.267104 0.512031 0.844198
O O8 0.138203 0.526090 0.901870
O O9 0.072081 0.250000 0.745657
O O10 0.101624 0.450844 0.653051
O O11 0.000000 0.500000 0.744803
O O12 0.500000 0.500000 0.686557
O O13 0.437340 0.750000 0.715441
O O14 0.396802 0.509005 0.780839
O O15 0.358042 0.536584 0.657704
O O16 0.649151 0.250000 0.843529
O O17 0.678283 0.250000 0.572582
O O18 0.769406 0.025904 0.599046
O O19 0.065864 0.250000 0.458675
O O20 0.111634 0.480023 0.527778
O O21 0.000000 0.500000 0.441584
O O22 0.818715 0.750000 0.585429
#
# Coordination Sequence:
#
# PCOD8181627 Si02
#       8
#     8   8   8   8   8   8   8   8
#     4  11  22  38  60  85 116 151 189 233 281 335
#     4  10  20  37  60  83 111 148 188 231 281 334
#     4  11  23  38  58  85 116 150 188 232 283 338
#     4  10  21  37  57  82 111 145 186 228 274 328
#     4   9  19  37  60  83 110 148 189 231 280 331
#     4  11  23  38  59  86 114 148 189 232 282 338
#     4  10  21  37  58  83 111 147 188 230 280 334
#     4  10  22  40  60  83 112 147 188 233 282 334
#
# _framework density 20.053260999999999
#
# number of rings (size 3 to 8) (size 9 to 14) (size 15 to 20)
#    0.000    1.750    0.000    4.125    0.000    8.000 
#    0.000    3.750    0.000    0.000    0.000    0.000 
#    0.000    0.000    0.000    0.000    0.000    0.000 
#
# Total GULP energy -396985.326922 kJ/mol
# GULP energy per Si atom -12405.791466 kJ/mol
# Density = 2.000762 g / cm^3
# Si number density = 20.053261 Si / 1000 Ang^3
#
#
#
# Elastic Constant Matrix: (Units=GPa)
#
#
# Indices 1 2 3 4 5 6 
#
# 1 95.4963 26.8214 -0.1926 0.0000 0.0000 0.0000
# 2 26.8214 49.9737 27.4216 0.0000 0.0000 0.0000
# 3 -0.1926 27.4216 87.1771 0.0000 0.0000 0.0000
# 4 0.0000 0.0000 0.0000 28.5289 0.0000 0.0000
# 5 0.0000 0.0000 0.0000 0.0000 75.3167 0.0000
# 6 0.0000 0.0000 0.0000 0.0000 0.0000 33.6037
#
#
#
# Elastic Compliance Matrix: (Units=1/GPa)
#
#
# Indices 1 2 3 4 5 6 
#
# 1 0.012817 -0.008333 0.002649 0.000000 0.000000 0.000000
# 2 -0.008333 0.029602 -0.009330 0.000000 0.000000 0.000000
# 3 0.002649 -0.009330 0.014411 0.000000 0.000000 0.000000
# 4 0.000000 0.000000 0.000000 0.035052 0.000000 0.000000
# 5 0.000000 0.000000 0.000000 0.000000 0.013277 0.000000
# 6 0.000000 0.000000 0.000000 0.000000 0.000000 0.029759
#
#
# Mechanical properties :
#
#
# Convention : Reuss Voigt Hill
#
# Bulk Modulus (GPa) = 37.30726 37.86087 37.58407
# Shear Modulus (GPa) = 28.75527 39.39632 34.07579
#
# Velocity S-wave (km/s) = 3.79085 4.43717 4.12669
# Velocity P-wave (km/s) = 6.14860 6.72105 6.44118
#
# Compressibility (1/GPa) = 0.02680443
#
# Stress axis : x y z
#
# Youngs Moduli (GPa) = 78.01895 33.78095 69.38911
#
# Poissons Ratio (x) = 0.28150 -0.18385
# Poissons Ratio (y) = 0.65014 0.64739
# Poissons Ratio (z) = -0.20671 0.31517
#
# Static dielectric constant tensor:
#      x y z
#    x 3.655050 0.000000 0.000000 
#    y 0.000000 3.454930 0.000000 
#    z 0.000000 0.000000 3.928860 
# 
# 
# High freq. dielectric constant tensor:
#      x y z
#    x 1.796030 0.000000 0.000000 
#    y 0.000000 1.766180 0.000000 
#    z 0.000000 0.000000 1.800610 
# 
# From -- ./inp_files/16266.got.cif
#   From: 2010.03.12/outbox.cif.g09.slc.cpg/sg39_9_cif.got.tgz:16266.got - 2010.04.14 02:53:20.
