data_PCOD8181931
_publ_section_title
;
Structure prediction by ZEFSAII (Michael W. Deem and Ramdas Pophale) SiO2 
 PCOD8181931
Probable space group: A B M 2
;
_chemical_formula_sum "Si O2"
_cell_formula_units_Z 60
_cell_length_a 17.271366
_cell_length_b 9.001929
_cell_length_c 18.861767
_cell_angle_alpha 90.000000
_cell_angle_beta 90.000000
_cell_angle_gamma 90.000000
_cell_volume 2932.544739
_symmetry_space_group_name_H-M "A B M 2"
_symmetry_group_IT_number 39
_symmetry_cell_setting 'orthorhombic'
loop_
_space_group_symop_operation_xyz
x,y,z
-x,-y,z
-x,1/2+y,z
x,1/2-y,z
x,1/2+y,1/2+z
-x,1/2-y,1/2+z
-x,y,1/2+z
x,-y,1/2+z
loop_
_atom_site_type_symbol
_atom_site_label
_atom_site_fract_x
_atom_site_fract_y
_atom_site_fract_z
Si Si1 0.578704 0.077095 0.941830
Si Si2 0.873855 0.081307 0.878867
Si Si3 0.127747 0.082845 0.657811
Si Si4 0.576535 0.922175 0.607302
Si Si5 0.000000 0.000000 0.766498
Si Si6 0.291012 0.580705 0.202508
Si Si7 0.286281 0.921733 0.359104
Si Si8 0.078697 0.426428 0.023900
O O1 0.575273 0.250000 0.921565
O O2 0.500000 0.000000 0.913206
O O3 0.655763 0.003588 0.911404
O O4 0.587268 0.049299 0.024717
O O5 0.854258 0.250000 0.899564
O O6 0.941549 0.087895 0.818951
O O7 0.796814 0.999664 0.853443
O O8 0.899012 0.993994 0.948730
O O9 0.136358 0.250000 0.628354
O O10 0.055156 0.089899 0.712420
O O11 0.203082 0.021461 0.699466
O O12 0.131008 0.971693 0.590606
O O13 0.568149 0.750000 0.625651
O O14 0.649344 0.997313 0.648174
O O15 0.500000 0.000000 0.636466
O O16 0.286627 0.750000 0.178281
O O17 0.324126 0.565024 0.281612
O O18 0.275250 0.750000 0.382378
O O19 0.073353 0.250000 0.015985
O O20 0.000000 0.500000 0.049114
#
# Coordination Sequence:
#
# PCOD8181931 Si02
#       8
#     8   8   8   8   4   8   8   8
#     4  10  21  39  64  93 126 166 214 263 320 386
#     4  12  26  43  65  93 127 169 217 269 325 384
#     4  11  23  42  66  92 127 169 210 261 321 378
#     4   9  19  38  63  90 121 161 207 253 309 375
#     4  12  24  40  70  94 130 166 222 268 320 382
#     4   9  20  39  62  90 124 165 206 252 313 376
#     4  11  23  41  63  92 130 167 210 262 321 386
#     4  12  26  43  63  91 123 161 213 266 321 383
#
# _framework density 20.460045000000001
#
# number of rings (size 3 to 8) (size 9 to 14) (size 15 to 20)
#    0.000    1.333    2.667    2.800    1.867    2.667 
#    0.000    3.333    0.000    0.000    0.000    0.000 
#    0.000    0.000    0.000    0.000    0.000    0.000 
#
# Total GULP energy -371738.318348 kJ/mol
# GULP energy per Si atom -12391.277278 kJ/mol
# Density = 2.041348 g / cm^3
# Si number density = 20.460045 Si / 1000 Ang^3
#
#
#
# Elastic Constant Matrix: (Units=GPa)
#
#
# Indices 1 2 3 4 5 6 
#
# 1 148.1632 44.0196 47.8708 0.0000 0.0000 0.0000
# 2 44.0196 125.5933 46.2390 0.0000 0.0000 0.0000
# 3 47.8708 46.2390 94.9168 0.0000 0.0000 0.0000
# 4 0.0000 0.0000 0.0000 20.6503 0.0000 0.0000
# 5 0.0000 0.0000 0.0000 0.0000 38.2309 0.0000
# 6 0.0000 0.0000 0.0000 0.0000 0.0000 31.9339
#
#
#
# Elastic Compliance Matrix: (Units=1/GPa)
#
#
# Indices 1 2 3 4 5 6 
#
# 1 0.008343 -0.001676 -0.003391 0.000000 0.000000 0.000000
# 2 -0.001676 0.010039 -0.004045 0.000000 0.000000 0.000000
# 3 -0.003391 -0.004045 0.014217 0.000000 0.000000 0.000000
# 4 0.000000 0.000000 0.000000 0.048425 0.000000 0.000000
# 5 0.000000 0.000000 0.000000 0.000000 0.026157 0.000000
# 6 0.000000 0.000000 0.000000 0.000000 0.000000 0.031315
#
#
# Mechanical properties :
#
#
# Convention : Reuss Voigt Hill
#
# Bulk Modulus (GPa) = 69.57153 71.65912 70.61533
# Shear Modulus (GPa) = 30.95758 33.53263 32.24510
#
# Velocity S-wave (km/s) = 3.89405 4.05276 3.97420
# Velocity P-wave (km/s) = 7.36855 7.54982 7.45974
#
# Compressibility (1/GPa) = 0.01437369
#
# Stress axis : x y z
#
# Youngs Moduli (GPa) = 119.86278 99.61305 70.33959
#
# Poissons Ratio (x) = 0.16690 0.23855
# Poissons Ratio (y) = 0.20083 0.28455
# Poissons Ratio (z) = 0.40651 0.40298
#
# Static dielectric constant tensor:
#      x y z
#    x 3.954050 0.000000 0.000000 
#    y 0.000000 3.583060 0.000000 
#    z 0.000000 0.000000 3.733560 
# 
# 
# High freq. dielectric constant tensor:
#      x y z
#    x 1.808540 0.000000 0.000000 
#    y 0.000000 1.786570 0.000000 
#    z 0.000000 0.000000 1.809230 
# 
# From -- ./inp_files/12937.got.cif
#   From: 2010.03.12/outbox.cif.g09.slc.cpg/sg39_7_cif.got.tgz:12937.got - 2010.04.14 02:53:20.
