data_PCOD8181964
_publ_section_title
;
Structure prediction by ZEFSAII (Michael W. Deem and Ramdas Pophale) SiO2 
 PCOD8181964
Probable space group: A B M 2
;
_chemical_formula_sum "Si O2"
_cell_formula_units_Z 64
_cell_length_a 20.356693
_cell_length_b 16.774691
_cell_length_c 9.460606
_cell_angle_alpha 90.000000
_cell_angle_beta 90.000000
_cell_angle_gamma 90.000000
_cell_volume 3230.581577
_symmetry_space_group_name_H-M "A B M 2"
_symmetry_group_IT_number 39
_symmetry_cell_setting 'orthorhombic'
loop_
_space_group_symop_operation_xyz
x,y,z
-x,-y,z
-x,1/2+y,z
x,1/2-y,z
x,1/2+y,1/2+z
-x,1/2-y,1/2+z
-x,y,1/2+z
x,-y,1/2+z
loop_
_atom_site_type_symbol
_atom_site_label
_atom_site_fract_x
_atom_site_fract_y
_atom_site_fract_z
Si Si1 0.624476 0.940872 0.214140
Si Si2 0.343441 0.839536 0.179092
Si Si3 0.754604 0.025012 0.227807
Si Si4 0.578840 0.081375 0.402710
Si Si5 0.440153 0.841156 0.925962
Si Si6 0.055683 0.155642 0.073658
Si Si7 0.156638 0.971811 0.483740
Si Si8 0.956840 0.076042 0.871111
O O1 0.601385 0.857356 0.282649
O O2 0.701936 0.953620 0.241349
O O3 0.581952 0.008443 0.293108
O O4 0.612605 0.943614 0.048079
O O5 0.317884 0.750000 0.158395
O O6 0.280970 0.897098 0.164169
O O7 0.379364 0.847257 0.331144
O O8 0.396131 0.863417 0.060139
O O9 0.782140 0.045804 0.382133
O O10 0.816184 0.999344 0.134378
O O11 0.504394 0.104601 0.433179
O O12 0.462380 0.750000 0.926762
O O13 0.065645 0.250000 0.055556
O O14 0.116391 0.110035 0.000903
O O15 0.989215 0.126947 0.997132
O O16 0.051695 0.133919 0.238221
O O17 0.113008 0.044625 0.425676
O O18 0.000000 0.000000 0.824649
#
# Coordination Sequence:
#
# PCOD8181964 Si02
#       8
#     8   8   8   8   8   8   8   8
#     4  11  23  39  60  89 115 156 204 256 302 368
#     4  10  22  40  60  86 121 159 202 254 314 374
#     4  11  22  40  62  85 119 166 212 250 295 355
#     4  11  22  38  61  87 117 148 200 257 319 377
#     4  11  23  39  59  86 120 154 194 253 324 384
#     4  11  23  40  64 100 133 159 199 258 309 352
#     4  11  22  40  66  90 122 169 217 249 292 370
#     4  10  21  40  66  95 128 167 204 245 305 365
#
# _framework density 19.810673000000001
#
# number of rings (size 3 to 8) (size 9 to 14) (size 15 to 20)
#    0.000    1.250    1.250    6.750    1.750    4.500 
#    0.000    1.875    0.000    0.000    0.000    0.000 
#    0.000    0.000    0.000    0.000    0.000    0.000 
#
# Total GULP energy -396895.943205 kJ/mol
# GULP energy per Si atom -12402.998225 kJ/mol
# Density = 1.976558 g / cm^3
# Si number density = 19.810673 Si / 1000 Ang^3
#
#
#
# Elastic Constant Matrix: (Units=GPa)
#
#
# Indices 1 2 3 4 5 6 
#
# 1 103.5678 41.1512 30.2714 0.0000 0.0000 0.0000
# 2 41.1512 86.8431 42.0954 0.0000 0.0000 0.0000
# 3 30.2714 42.0954 105.0610 0.0000 0.0000 0.0000
# 4 0.0000 0.0000 0.0000 29.9000 0.0000 0.0000
# 5 0.0000 0.0000 0.0000 0.0000 41.7782 0.0000
# 6 0.0000 0.0000 0.0000 0.0000 0.0000 21.9432
#
#
#
# Elastic Compliance Matrix: (Units=1/GPa)
#
#
# Indices 1 2 3 4 5 6 
#
# 1 0.012076 -0.005008 -0.001473 0.000000 0.000000 0.000000
# 2 -0.005008 0.016368 -0.005115 0.000000 0.000000 0.000000
# 3 -0.001473 -0.005115 0.011992 0.000000 0.000000 0.000000
# 4 0.000000 0.000000 0.000000 0.033445 0.000000 0.000000
# 5 0.000000 0.000000 0.000000 0.000000 0.023936 0.000000
# 6 0.000000 0.000000 0.000000 0.000000 0.000000 0.045572
#
#
# Mechanical properties :
#
#
# Convention : Reuss Voigt Hill
#
# Bulk Modulus (GPa) = 57.99323 58.05644 58.02483
# Shear Modulus (GPa) = 29.01427 30.85453 29.93440
#
# Velocity S-wave (km/s) = 3.83113 3.95076 3.89141
# Velocity P-wave (km/s) = 6.99338 7.08383 7.03875
#
# Compressibility (1/GPa) = 0.01724339
#
# Stress axis : x y z
#
# Youngs Moduli (GPa) = 82.80891 61.09585 83.38824
#
# Poissons Ratio (x) = 0.30599 0.12281
# Poissons Ratio (y) = 0.41474 0.42654
# Poissons Ratio (z) = 0.12195 0.31251
#
# Static dielectric constant tensor:
#      x y z
#    x 3.580350 0.000000 0.000000 
#    y 0.000000 3.562760 0.000000 
#    z 0.000000 0.000000 3.803900 
# 
# 
# High freq. dielectric constant tensor:
#      x y z
#    x 1.773310 0.000000 0.000000 
#    y 0.000000 1.763510 0.000000 
#    z 0.000000 0.000000 1.787710 
# 
# From -- ./inp_files/4026.got.cif
#   From: 2010.03.12/outbox.cif.g09.slc.cpg/sg39_3_cif.got.tgz:4026.got - 2010.04.14 02:53:20.
