data_PCOD8181404
_publ_section_title
;
Structure prediction by ZEFSAII (Michael W. Deem and Ramdas Pophale) SiO2 
 PCOD8181404
Probable space group: A B M 2
;
_chemical_formula_sum "Si O2"
_cell_formula_units_Z 48
_cell_length_a 9.078464
_cell_length_b 8.835953
_cell_length_c 30.871409
_cell_angle_alpha 90.000000
_cell_angle_beta 90.000000
_cell_angle_gamma 90.000000
_cell_volume 2476.408149
_symmetry_space_group_name_H-M "A B M 2"
_symmetry_group_IT_number 39
_symmetry_cell_setting 'orthorhombic'
loop_
_space_group_symop_operation_xyz
x,y,z
-x,-y,z
-x,1/2+y,z
x,1/2-y,z
x,1/2+y,1/2+z
-x,1/2-y,1/2+z
-x,y,1/2+z
x,-y,1/2+z
loop_
_atom_site_type_symbol
_atom_site_label
_atom_site_fract_x
_atom_site_fract_y
_atom_site_fract_z
Si Si1 0.654426 0.925137 0.304150
Si Si2 0.340530 0.071419 0.642393
Si Si3 0.840133 0.573797 0.877934
Si Si4 0.841967 0.574102 0.218932
Si Si5 0.160616 0.928277 0.058037
Si Si6 0.157978 0.925466 0.473920
O O1 0.628544 0.750000 0.313958
O O2 0.762850 0.951629 0.264386
O O3 0.500000 0.000000 0.292184
O O4 0.721856 0.000820 0.346537
O O5 0.354333 0.250000 0.647360
O O6 0.262006 0.023613 0.597971
O O7 0.500000 0.000000 0.643200
O O8 0.247801 0.008474 0.681913
O O9 0.859124 0.750000 0.867293
O O10 0.771943 0.549839 0.926354
O O11 0.000000 0.500000 0.872054
O O12 0.857070 0.750000 0.207186
O O13 0.000000 0.500000 0.222895
O O14 0.143103 0.750000 0.054542
O O15 0.000000 0.000000 0.064733
O O16 0.240214 0.991817 0.014078
O O17 0.144015 0.750000 0.485361
O O18 0.000000 0.000000 0.471646
#
# Coordination Sequence:
#
# PCOD8181404 Si02
#       6
#     8   8   8   8   8   8
#     4  11  24  40  59  84 115 151 188 230 281 336
#     4  11  24  40  59  84 115 151 189 231 282 337
#     4  10  20  35  57  85 115 149 191 236 282 333
#     4  11  24  41  63  89 115 146 186 231 278 331
#     4  10  20  34  55  83 112 146 188 233 280 331
#     4   9  17  30  52  81 111 145 185 231 280 328
#
# _framework density 19.382912000000001
#
# number of rings (size 3 to 8) (size 9 to 14) (size 15 to 20)
#    0.000    1.667    0.000    5.500    0.000   11.333 
#    0.000    0.833    0.000    2.000    0.000    0.000 
#    0.000    0.000    0.000    0.000    0.000    0.000 
#
# Total GULP energy -297585.345017 kJ/mol
# GULP energy per Si atom -12399.389376 kJ/mol
# Density = 1.933880 g / cm^3
# Si number density = 19.382912 Si / 1000 Ang^3
#
#
#
# Elastic Constant Matrix: (Units=GPa)
#
#
# Indices 1 2 3 4 5 6 
#
# 1 110.1660 55.2658 50.8470 0.0000 0.0000 0.0000
# 2 55.2658 121.3316 73.7561 0.0000 0.0000 0.0000
# 3 50.8470 73.7561 134.7615 0.0000 0.0000 0.0000
# 4 0.0000 0.0000 0.0000 34.0127 0.0000 0.0000
# 5 0.0000 0.0000 0.0000 0.0000 -188.3488 0.0000
# 6 0.0000 0.0000 0.0000 0.0000 0.0000 30.1961
#
#
#
# Elastic Compliance Matrix: (Units=1/GPa)
#
#
# Indices 1 2 3 4 5 6 
#
# 1 0.012242 -0.004149 -0.002349 0.000000 0.000000 0.000000
# 2 -0.004149 0.013757 -0.005964 0.000000 0.000000 0.000000
# 3 -0.002349 -0.005964 0.011571 0.000000 0.000000 0.000000
# 4 0.000000 0.000000 0.000000 0.029401 0.000000 0.000000
# 5 0.000000 0.000000 0.000000 0.000000 -0.005309 0.000000
# 6 0.000000 0.000000 0.000000 0.000000 0.000000 0.033117
#
#
# Mechanical properties :
#
#
# Convention : Reuss Voigt Hill
#
# Bulk Modulus (GPa) = 79.06555 80.66632 79.86593
# Shear Modulus (GPa) = 40.34960 -12.40198 13.97381
#
# Velocity S-wave (km/s) = 4.56753 -2.53225 2.68794
# Velocity P-wave (km/s) = 8.28832 5.75829 7.13632
#
# Compressibility (1/GPa) = 0.01264773
#
# Stress axis : x y z
#
# Youngs Moduli (GPa) = 81.68327 72.69023 86.42436
#
# Poissons Ratio (x) = 0.30157 0.20298
# Poissons Ratio (y) = 0.33888 0.51543
# Poissons Ratio (z) = 0.19184 0.43352
#
# Static dielectric constant tensor:
#      x y z
#    x 3.644870 0.000000 0.000000 
#    y 0.000000 3.771280 0.000000 
#    z 0.000000 0.000000 4.279010 
# 
# 
# High freq. dielectric constant tensor:
#      x y z
#    x 1.732750 0.000000 0.000000 
#    y 0.000000 1.775650 0.000000 
#    z 0.000000 0.000000 1.780180 
# 
# From -- ./inp_files/17604.got.cif
#   From: 2010.03.12/outbox.cif.g09.slc.cpg/sg39_9_cif.got.tgz:17604.got - 2010.04.14 02:53:20.
