data_PCOD8181048
_publ_section_title
;
Structure prediction by ZEFSAII (Michael W. Deem and Ramdas Pophale) SiO2 
 PCOD8181048
Probable space group: A B M 2
;
_chemical_formula_sum "Si O2"
_cell_formula_units_Z 64
_cell_length_a 16.294245
_cell_length_b 8.961658
_cell_length_c 21.815499
_cell_angle_alpha 90.000000
_cell_angle_beta 90.000000
_cell_angle_gamma 90.000000
_cell_volume 3185.574451
_symmetry_space_group_name_H-M "A B M 2"
_symmetry_group_IT_number 39
_symmetry_cell_setting 'orthorhombic'
loop_
_space_group_symop_operation_xyz
x,y,z
-x,-y,z
-x,1/2+y,z
x,1/2-y,z
x,1/2+y,1/2+z
-x,1/2-y,1/2+z
-x,y,1/2+z
x,-y,1/2+z
loop_
_atom_site_type_symbol
_atom_site_label
_atom_site_fract_x
_atom_site_fract_y
_atom_site_fract_z
Si Si1 0.793462 0.086408 0.447760
Si Si2 0.412025 0.069718 0.265985
Si Si3 0.925348 0.588517 0.384192
Si Si4 0.427756 0.920121 0.015004
Si Si5 0.749112 0.080702 0.064600
Si Si6 0.080952 0.917229 0.741142
Si Si7 0.249029 0.928350 0.204844
Si Si8 0.613864 0.417869 0.394832
O O1 0.832121 0.250000 0.453055
O O2 0.706614 0.091157 0.416009
O O3 0.841147 0.989685 0.399083
O O4 0.797618 0.020213 0.516313
O O5 0.413922 0.250000 0.259803
O O6 0.500000 0.000000 0.242974
O O7 0.333301 0.005101 0.228490
O O8 0.399006 0.022873 0.336287
O O9 0.924518 0.750000 0.415029
O O10 0.937013 0.600602 0.312222
O O11 0.000000 0.500000 0.415018
O O12 0.448215 0.750000 0.001726
O O13 0.500000 0.000000 0.054522
O O14 0.432016 0.006598 0.950776
O O15 0.346853 0.940294 0.053862
O O16 0.776810 0.250000 0.053130
O O17 0.764992 0.031167 0.133746
O O18 0.089331 0.750000 0.712248
O O19 0.166065 0.008981 0.735575
O O20 0.000000 0.000000 0.712009
O O21 0.256020 0.750000 0.216009
O O22 0.581178 0.250000 0.380658
#
# Coordination Sequence:
#
# PCOD8181048 Si02
#       8
#     8   8   8   8   8   8   8   8
#     4  10  20  34  56  83 111 143 181 225 277 333
#     4  12  25  40  58  83 116 155 196 240 290 346
#     4  10  20  34  55  83 116 146 177 218 271 333
#     4  10  19  33  53  78 107 140 180 228 280 335
#     4   9  21  39  57  77 106 145 188 231 277 329
#     4  10  21  38  62  92 121 154 192 236 288 344
#     4  11  23  41  62  85 115 153 196 244 291 340
#     4  10  20  35  55  81 111 144 182 228 282 340
#
# _framework density 20.090568999999999
#
# number of rings (size 3 to 8) (size 9 to 14) (size 15 to 20)
#    0.000    1.750    0.000    4.500    0.000    7.000 
#    0.000    1.875    0.000    3.000    0.000    0.000 
#    0.000    0.000    0.000    0.000    0.000    0.000 
#
# Total GULP energy -396527.768799 kJ/mol
# GULP energy per Si atom -12391.492775 kJ/mol
# Density = 2.004484 g / cm^3
# Si number density = 20.090569 Si / 1000 Ang^3
#
#
#
# Elastic Constant Matrix: (Units=GPa)
#
#
# Indices 1 2 3 4 5 6 
#
# 1 95.9300 54.2287 19.6639 0.0000 0.0000 0.0000
# 2 54.2287 151.7402 28.5329 0.0000 0.0000 0.0000
# 3 19.6639 28.5329 32.2664 0.0000 0.0000 0.0000
# 4 0.0000 0.0000 0.0000 27.8455 0.0000 0.0000
# 5 0.0000 0.0000 0.0000 0.0000 60.1141 0.0000
# 6 0.0000 0.0000 0.0000 0.0000 0.0000 32.2035
#
#
#
# Elastic Compliance Matrix: (Units=1/GPa)
#
#
# Indices 1 2 3 4 5 6 
#
# 1 0.013658 -0.003977 -0.004806 0.000000 0.000000 0.000000
# 2 -0.003977 0.009063 -0.005590 0.000000 0.000000 0.000000
# 3 -0.004806 -0.005590 0.038865 0.000000 0.000000 0.000000
# 4 0.000000 0.000000 0.000000 0.035913 0.000000 0.000000
# 5 0.000000 0.000000 0.000000 0.000000 0.016635 0.000000
# 6 0.000000 0.000000 0.000000 0.000000 0.000000 0.031053
#
#
# Mechanical properties :
#
#
# Convention : Reuss Voigt Hill
#
# Bulk Modulus (GPa) = 30.45311 53.86528 42.15919
# Shear Modulus (GPa) = 27.04475 35.86669 31.45572
#
# Velocity S-wave (km/s) = 3.67296 4.22981 3.96118
# Velocity P-wave (km/s) = 5.76006 7.12211 6.47699
#
# Compressibility (1/GPa) = 0.03283737
#
# Stress axis : x y z
#
# Youngs Moduli (GPa) = 73.21830 110.34149 25.73036
#
# Poissons Ratio (x) = 0.43885 0.12367
# Poissons Ratio (y) = 0.29121 0.14384
# Poissons Ratio (z) = 0.35191 0.61684
#
# Static dielectric constant tensor:
#      x y z
#    x 3.687780 0.000000 0.000000 
#    y 0.000000 4.130220 0.000000 
#    z 0.000000 0.000000 3.453470 
# 
# 
# High freq. dielectric constant tensor:
#      x y z
#    x 1.794650 0.000000 0.000000 
#    y 0.000000 1.804580 0.000000 
#    z 0.000000 0.000000 1.758460 
# 
# From -- ./inp_files/16283.got.cif
#   From: 2010.03.12/outbox.cif.g09.slc.cpg/sg39_9_cif.got.tgz:16283.got - 2010.04.14 02:53:20.
