data_PCOD8181871
_publ_section_title
;
Structure prediction by ZEFSAII (Michael W. Deem and Ramdas Pophale) SiO2 
 PCOD8181871
Probable space group: A B M 2
;
_chemical_formula_sum "Si O2"
_cell_formula_units_Z 56
_cell_length_a 7.444265
_cell_length_b 16.709967
_cell_length_c 19.099809
_cell_angle_alpha 90.000000
_cell_angle_beta 90.000000
_cell_angle_gamma 90.000000
_cell_volume 2375.890610
_symmetry_space_group_name_H-M "A B M 2"
_symmetry_group_IT_number 39
_symmetry_cell_setting 'orthorhombic'
loop_
_space_group_symop_operation_xyz
x,y,z
-x,-y,z
-x,1/2+y,z
x,1/2-y,z
x,1/2+y,1/2+z
-x,1/2-y,1/2+z
-x,y,1/2+z
x,-y,1/2+z
loop_
_atom_site_type_symbol
_atom_site_label
_atom_site_fract_x
_atom_site_fract_y
_atom_site_fract_z
Si Si1 0.472889 0.161677 0.776750
Si Si2 0.794592 0.658029 0.999271
Si Si3 0.438914 0.656664 0.934303
Si Si4 0.147047 0.894277 0.742374
Si Si5 0.940864 0.841481 0.617264
Si Si6 0.681376 0.541275 0.671855
Si Si7 0.065151 0.086380 0.402451
O O1 0.397001 0.250000 0.759286
O O2 0.470405 0.144702 0.858882
O O3 0.674589 0.157945 0.747500
O O4 0.356101 0.094293 0.740326
O O5 0.761001 0.750000 0.012976
O O6 0.917229 0.648326 0.930380
O O7 0.591847 0.622996 0.988172
O O8 0.900405 0.623535 0.067026
O O9 0.390542 0.750000 0.946624
O O10 0.743217 0.394646 0.939124
O O11 0.068244 0.909184 0.819082
O O12 0.005570 0.843146 0.697614
O O13 0.177383 0.977113 0.700776
O O14 0.886910 0.750000 0.596544
O O15 0.768584 0.901374 0.611758
O O16 0.500000 0.500000 0.642130
O O17 0.000000 0.000000 0.428436
#
# Coordination Sequence:
#
# PCOD8181871 Si02
#       7
#     8   8   8   8   8   8   8
#     4   9  18  35  62  97 126 166 224 277 332 396
#     4  10  24  44  65  92 129 177 229 278 336 398
#     4   9  20  40  64  93 134 174 218 279 337 389
#     4  10  22  39  63  94 133 173 216 274 344 398
#     4  11  23  41  65  94 128 177 233 277 327 406
#     4  10  21  38  61  91 136 171 212 278 348 397
#     4  11  23  39  66 100 132 175 222 278 337 407
#
# _framework density 23.570108999999999
#
# number of rings (size 3 to 8) (size 9 to 14) (size 15 to 20)
#    0.000    2.000    0.000    2.571    4.000    3.429 
#    5.143    0.000    0.000    0.000    0.000    0.000 
#    0.000    0.000    0.000    0.000    0.000    0.000 
#
# Total GULP energy -347102.751751 kJ/mol
# GULP energy per Si atom -12396.526848 kJ/mol
# Density = 2.351646 g / cm^3
# Si number density = 23.570109 Si / 1000 Ang^3
#
#
#
# Elastic Constant Matrix: (Units=GPa)
#
#
# Indices 1 2 3 4 5 6 
#
# 1 155.1612 45.1606 60.8416 0.0000 0.0000 0.0000
# 2 45.1606 87.6387 36.2718 0.0000 0.0000 0.0000
# 3 60.8416 36.2718 66.4211 0.0000 0.0000 0.0000
# 4 0.0000 0.0000 0.0000 16.8313 0.0000 0.0000
# 5 0.0000 0.0000 0.0000 0.0000 43.4645 0.0000
# 6 0.0000 0.0000 0.0000 0.0000 0.0000 35.6692
#
#
#
# Elastic Compliance Matrix: (Units=1/GPa)
#
#
# Indices 1 2 3 4 5 6 
#
# 1 0.010274 -0.001808 -0.008424 0.000000 0.000000 0.000000
# 2 -0.001808 0.015061 -0.006568 0.000000 0.000000 0.000000
# 3 -0.008424 -0.006568 0.026359 0.000000 0.000000 0.000000
# 4 0.000000 0.000000 0.000000 0.059413 0.000000 0.000000
# 5 0.000000 0.000000 0.000000 0.000000 0.023007 0.000000
# 6 0.000000 0.000000 0.000000 0.000000 0.000000 0.028035
#
#
# Mechanical properties :
#
#
# Convention : Reuss Voigt Hill
#
# Bulk Modulus (GPa) = 55.26964 65.97433 60.62199
# Shear Modulus (GPa) = 24.77932 30.32279 27.55106
#
# Velocity S-wave (km/s) = 3.24590 3.59066 3.42262
# Velocity P-wave (km/s) = 6.12762 6.72621 6.43388
#
# Compressibility (1/GPa) = 0.01809312
#
# Stress axis : x y z
#
# Youngs Moduli (GPa) = 97.33024 66.39829 37.93805
#
# Poissons Ratio (x) = 0.12004 0.31959
# Poissons Ratio (y) = 0.17596 0.24919
# Poissons Ratio (z) = 0.81991 0.43613
#
# Static dielectric constant tensor:
#      x y z
#    x 4.455710 0.000000 0.000000 
#    y 0.000000 4.228610 0.000000 
#    z 0.000000 0.000000 4.119190 
# 
# 
# High freq. dielectric constant tensor:
#      x y z
#    x 1.942640 0.000000 0.000000 
#    y 0.000000 1.926780 0.000000 
#    z 0.000000 0.000000 1.917670 
# 
# From -- ./inp_files/14063.got.cif
#   From: 2010.03.12/outbox.cif.g09.slc.cpg/sg39_8_cif.got.tgz:14063.got - 2010.04.14 02:53:20.
