data_PCOD8181520
_publ_section_title
;
Structure prediction by ZEFSAII (Michael W. Deem and Ramdas Pophale) SiO2 
 PCOD8181520
Probable space group: A B M 2
;
_chemical_formula_sum "Si O2"
_cell_formula_units_Z 56
_cell_length_a 23.490937
_cell_length_b 9.240303
_cell_length_c 14.253815
_cell_angle_alpha 90.000000
_cell_angle_beta 90.000000
_cell_angle_gamma 90.000000
_cell_volume 3093.981200
_symmetry_space_group_name_H-M "A B M 2"
_symmetry_group_IT_number 39
_symmetry_cell_setting 'orthorhombic'
loop_
_space_group_symop_operation_xyz
x,y,z
-x,-y,z
-x,1/2+y,z
x,1/2-y,z
x,1/2+y,1/2+z
-x,1/2-y,1/2+z
-x,y,1/2+z
x,-y,1/2+z
loop_
_atom_site_type_symbol
_atom_site_label
_atom_site_fract_x
_atom_site_fract_y
_atom_site_fract_z
Si Si1 0.559539 0.421005 0.889050
Si Si2 0.648834 0.082369 0.042056
Si Si3 0.056866 0.579088 0.751001
Si Si4 0.053791 0.085079 0.035635
Si Si5 0.742214 0.416425 0.889270
Si Si6 0.857897 0.080670 0.379861
Si Si7 0.350842 0.582312 0.736399
O O1 0.500000 0.500000 0.888486
O O2 0.550153 0.250000 0.888521
O O3 0.594716 0.468988 0.796894
O O4 0.593973 0.467908 0.982201
O O5 0.643710 0.250000 0.065972
O O6 0.652063 0.999647 0.139075
O O7 0.705200 0.051605 0.981614
O O8 0.052166 0.750000 0.770813
O O9 0.065934 0.541668 0.642289
O O10 0.111906 0.512086 0.799591
O O11 0.000000 0.500000 0.788775
O O12 0.035746 0.250000 0.026953
O O13 0.110422 0.050154 0.977783
O O14 0.000000 0.000000 0.993580
O O15 0.763340 0.250000 0.889482
O O16 0.793953 0.527128 0.890930
O O17 0.706018 0.447850 0.795837
O O18 0.858630 0.250000 0.353288
O O19 0.356481 0.750000 0.713017
#
# Coordination Sequence:
#
# PCOD8181520 Si02
#       7
#     8   8   8   8   8   8   8
#     4   9  19  35  53  78 111 142 173 213 257 307
#     4   9  19  36  56  77 104 138 176 215 259 307
#     4  10  20  36  55  76 104 137 170 209 258 311
#     4   9  20  36  53  74 102 133 166 205 252 305
#     4   9  20  38  54  72 102 138 172 212 260 308
#     4  11  22  35  53  79 105 133 172 215 258 308
#     4   9  19  36  56  76 103 139 176 213 259 308
#
# _framework density 18.099658000000002
#
# number of rings (size 3 to 8) (size 9 to 14) (size 15 to 20)
#    0.000    2.571    0.000    3.000    0.000    6.857 
#    0.000   10.000    0.000    0.000    0.000    0.000 
#    0.000    0.000    0.000    0.000    0.000    0.000 
#
# Total GULP energy -347215.357377 kJ/mol
# GULP energy per Si atom -12400.548478 kJ/mol
# Density = 1.805846 g / cm^3
# Si number density = 18.099658 Si / 1000 Ang^3
#
#
#
# Elastic Constant Matrix: (Units=GPa)
#
#
# Indices 1 2 3 4 5 6 
#
# 1 127.4035 61.8850 56.5320 0.0000 0.0000 0.0000
# 2 61.8850 83.7631 61.6655 0.0000 0.0000 0.0000
# 3 56.5320 61.6655 131.9676 0.0000 0.0000 0.0000
# 4 0.0000 0.0000 0.0000 34.4075 0.0000 0.0000
# 5 0.0000 0.0000 0.0000 0.0000 16.9501 0.0000
# 6 0.0000 0.0000 0.0000 0.0000 0.0000 39.9319
#
#
#
# Elastic Compliance Matrix: (Units=1/GPa)
#
#
# Indices 1 2 3 4 5 6 
#
# 1 0.012455 -0.008039 -0.001579 0.000000 0.000000 0.000000
# 2 -0.008039 0.023388 -0.007485 0.000000 0.000000 0.000000
# 3 -0.001579 -0.007485 0.011751 0.000000 0.000000 0.000000
# 4 0.000000 0.000000 0.000000 0.029063 0.000000 0.000000
# 5 0.000000 0.000000 0.000000 0.000000 0.058997 0.000000
# 6 0.000000 0.000000 0.000000 0.000000 0.000000 0.025043
#
#
# Mechanical properties :
#
#
# Convention : Reuss Voigt Hill
#
# Bulk Modulus (GPa) = 74.69160 78.14437 76.41799
# Shear Modulus (GPa) = 25.07947 29.12800 27.10373
#
# Velocity S-wave (km/s) = 3.72645 4.01598 3.87392
# Velocity P-wave (km/s) = 7.73768 8.04812 7.89443
#
# Compressibility (1/GPa) = 0.01338839
#
# Stress axis : x y z
#
# Youngs Moduli (GPa) = 80.29138 42.75627 85.09602
#
# Poissons Ratio (x) = 0.34374 0.13434
# Poissons Ratio (y) = 0.64550 0.63694
# Poissons Ratio (z) = 0.12675 0.32003
#
# Static dielectric constant tensor:
#      x y z
#    x 3.333460 0.000000 0.000000 
#    y 0.000000 3.293400 0.000000 
#    z 0.000000 0.000000 3.464720 
# 
# 
# High freq. dielectric constant tensor:
#      x y z
#    x 1.700760 0.000000 0.000000 
#    y 0.000000 1.701740 0.000000 
#    z 0.000000 0.000000 1.708520 
# 
# From -- ./inp_files/10345.got.cif
#   From: 2010.03.12/outbox.cif.g09.slc.cpg/sg39_6_cif.got.tgz:10345.got - 2010.04.14 02:53:20.
