data_PCOD8181183
_publ_section_title
;
Structure prediction by ZEFSAII (Michael W. Deem and Ramdas Pophale) SiO2 
 PCOD8181183
Probable space group: A B M 2
;
_chemical_formula_sum "Si O2"
_cell_formula_units_Z 64
_cell_length_a 9.096479
_cell_length_b 18.815977
_cell_length_c 19.322234
_cell_angle_alpha 90.000000
_cell_angle_beta 90.000000
_cell_angle_gamma 90.000000
_cell_volume 3307.176947
_symmetry_space_group_name_H-M "A B M 2"
_symmetry_group_IT_number 39
_symmetry_cell_setting 'orthorhombic'
loop_
_space_group_symop_operation_xyz
x,y,z
-x,-y,z
-x,1/2+y,z
x,1/2-y,z
x,1/2+y,1/2+z
-x,1/2-y,1/2+z
-x,y,1/2+z
x,-y,1/2+z
loop_
_atom_site_type_symbol
_atom_site_label
_atom_site_fract_x
_atom_site_fract_y
_atom_site_fract_z
Si Si1 0.396530 0.669860 0.824750
Si Si2 0.625521 0.096707 0.970480
Si Si3 0.071235 0.670458 0.798192
Si Si4 0.904830 0.069991 0.195445
Si Si5 0.167590 0.330421 0.568428
Si Si6 0.383727 0.441348 0.782294
Si Si7 0.307255 0.945864 0.440826
Si Si8 0.061048 0.170520 0.945608
O O1 0.448337 0.750000 0.835490
O O2 0.359970 0.637449 0.898754
O O3 0.244734 0.664233 0.782465
O O4 0.529764 0.633533 0.782758
O O5 0.454264 0.079280 0.979705
O O6 0.726453 0.024997 0.969184
O O7 0.678328 0.144145 0.035026
O O8 0.017355 0.750000 0.779412
O O9 0.990833 0.613514 0.752476
O O10 0.033672 0.653183 0.877722
O O11 0.885095 0.117140 0.127900
O O12 0.744431 0.053507 0.226062
O O13 0.000000 0.000000 0.177522
O O14 0.187358 0.250000 0.596894
O O15 0.045851 0.332849 0.509822
O O16 0.500000 0.500000 0.760186
O O17 0.323114 0.455478 0.858681
O O18 0.183944 0.888660 0.458107
O O19 0.131535 0.250000 0.940117
#
# Coordination Sequence:
#
# PCOD8181183 Si02
#       8
#     8   8   8   8   8   8   8   8
#     4  10  19  34  63  95 122 157 203 256 317 376
#     4  10  20  37  61  90 125 163 199 258 317 373
#     4  10  20  38  62  93 125 159 207 262 320 378
#     4  12  27  41  62  91 124 173 215 264 323 380
#     4  11  25  45  62  88 128 169 212 260 317 383
#     4  11  21  41  59  92 128 163 201 262 317 379
#     4  10  20  36  63  96 127 152 207 261 321 372
#     4  10  21  37  63  94 125 163 208 265 316 372
#
# _framework density 19.351852000000001
#
# number of rings (size 3 to 8) (size 9 to 14) (size 15 to 20)
#    0.000    1.500    5.000    1.500    1.750    3.500 
#    2.250    1.250    0.000    0.000    0.000    0.000 
#    0.000    0.000    0.000    0.000    0.000    0.000 
#
# Total GULP energy -396724.269668 kJ/mol
# GULP energy per Si atom -12397.633427 kJ/mol
# Density = 1.930781 g / cm^3
# Si number density = 19.351852 Si / 1000 Ang^3
#
#
#
# Elastic Constant Matrix: (Units=GPa)
#
#
# Indices 1 2 3 4 5 6 
#
# 1 80.4212 58.6258 35.0057 0.0000 0.0000 0.0000
# 2 58.6258 149.1497 50.2036 0.0000 0.0000 0.0000
# 3 35.0057 50.2036 84.6576 0.0000 0.0000 0.0000
# 4 0.0000 0.0000 0.0000 4.5508 0.0000 0.0000
# 5 0.0000 0.0000 0.0000 0.0000 -7.4052 0.0000
# 6 0.0000 0.0000 0.0000 0.0000 0.0000 40.8489
#
#
#
# Elastic Compliance Matrix: (Units=1/GPa)
#
#
# Indices 1 2 3 4 5 6 
#
# 1 0.018541 -0.005881 -0.004179 0.000000 0.000000 0.000000
# 2 -0.005881 0.010242 -0.003642 0.000000 0.000000 0.000000
# 3 -0.004179 -0.003642 0.015700 0.000000 0.000000 0.000000
# 4 0.000000 0.000000 0.000000 0.219742 0.000000 0.000000
# 5 0.000000 0.000000 0.000000 0.000000 -0.135039 0.000000
# 6 0.000000 0.000000 0.000000 0.000000 0.000000 0.024480
#
#
# Mechanical properties :
#
#
# Convention : Reuss Voigt Hill
#
# Bulk Modulus (GPa) = 58.55177 66.87762 62.71470
# Shear Modulus (GPa) = 26.77191 18.95846 22.86519
#
# Velocity S-wave (km/s) = 3.72348 3.13337 3.44110
# Velocity P-wave (km/s) = 6.98626 6.90829 6.94738
#
# Compressibility (1/GPa) = 0.01707890
#
# Stress axis : x y z
#
# Youngs Moduli (GPa) = 53.93511 97.63480 63.69407
#
# Poissons Ratio (x) = 0.57420 0.26617
# Poissons Ratio (y) = 0.31720 0.23197
# Poissons Ratio (z) = 0.22539 0.35559
#
# Static dielectric constant tensor:
#      x y z
#    x 3.717390 0.000000 0.000000 
#    y 0.000000 3.880300 0.000000 
#    z 0.000000 0.000000 3.273370 
# 
# 
# High freq. dielectric constant tensor:
#      x y z
#    x 1.755210 0.000000 0.000000 
#    y 0.000000 1.775770 0.000000 
#    z 0.000000 0.000000 1.724490 
# 
# From -- ./inp_files/14223.got.cif
#   From: 2010.03.12/outbox.cif.g09.slc.cpg/sg39_8_cif.got.tgz:14223.got - 2010.04.14 02:53:20.
