data_PCOD8181657
_publ_section_title
;
Structure prediction by ZEFSAII (Michael W. Deem and Ramdas Pophale) SiO2 
 PCOD8181657
Probable space group: A B M 2
;
_chemical_formula_sum "Si O2"
_cell_formula_units_Z 64
_cell_length_a 23.379895
_cell_length_b 8.750421
_cell_length_c 15.348794
_cell_angle_alpha 90.000000
_cell_angle_beta 90.000000
_cell_angle_gamma 90.000000
_cell_volume 3140.116508
_symmetry_space_group_name_H-M "A B M 2"
_symmetry_group_IT_number 39
_symmetry_cell_setting 'orthorhombic'
loop_
_space_group_symop_operation_xyz
x,y,z
-x,-y,z
-x,1/2+y,z
x,1/2-y,z
x,1/2+y,1/2+z
-x,1/2-y,1/2+z
-x,y,1/2+z
x,-y,1/2+z
loop_
_atom_site_type_symbol
_atom_site_label
_atom_site_fract_x
_atom_site_fract_y
_atom_site_fract_z
Si Si1 0.379253 0.931405 0.276790
Si Si2 0.745221 0.571368 0.840611
Si Si3 0.140167 0.929919 0.783546
Si Si4 0.439227 0.068291 0.439690
Si Si5 0.061918 0.931121 0.939947
Si Si6 0.756496 0.075126 0.540583
Si Si7 0.131258 0.428872 0.606087
Si Si8 0.630255 0.572442 0.094638
O O1 0.387100 0.750000 0.278942
O O2 0.315058 0.981088 0.301299
O O3 0.422750 0.006234 0.344662
O O4 0.394819 0.995786 0.181645
O O5 0.754981 0.750000 0.827660
O O6 0.794676 0.484814 0.788912
O O7 0.746156 0.524516 0.941449
O O8 0.139736 0.750000 0.783652
O O9 0.102973 0.994404 0.863677
O O10 0.111929 0.988958 0.694499
O O11 0.441702 0.250000 0.437900
O O12 0.500000 0.000000 0.467103
O O13 0.393610 0.013067 0.510444
O O14 0.057875 0.750000 0.936369
O O15 0.088734 0.987656 0.030822
O O16 0.000000 0.000000 0.926675
O O17 0.777764 0.250000 0.545604
O O18 0.698554 0.052854 0.594637
O O19 0.803536 0.966337 0.582445
O O20 0.125707 0.250000 0.619821
O O21 0.612668 0.750000 0.090404
#
# Coordination Sequence:
#
# PCOD8181657 Si02
#       8
#     8   8   8   8   8   8   8   8
#     4  11  23  42  65  96 131 165 208 256 307 371
#     4  10  20  37  63  94 127 164 201 246 304 364
#     4  11  23  40  61  91 124 159 202 250 302 364
#     4  12  26  45  68  93 123 166 212 262 315 366
#     4  10  24  43  62  85 117 156 204 254 305 360
#     4  10  20  37  63  94 127 164 201 246 304 364
#     4  11  23  40  61  91 124 159 202 250 302 364
#     4  11  23  42  65  96 131 165 208 256 307 371
#
# _framework density 20.381409000000001
#
# number of rings (size 3 to 8) (size 9 to 14) (size 15 to 20)
#    0.000    1.250    2.500    3.375    0.000    7.000 
#    0.000    5.000    0.000    0.000    0.000    0.000 
#    0.000    0.000    0.000    0.000    0.000    0.000 
#
# Total GULP energy -397010.101893 kJ/mol
# GULP energy per Si atom -12406.565684 kJ/mol
# Density = 2.033502 g / cm^3
# Si number density = 20.381409 Si / 1000 Ang^3
#
#
#
# Elastic Constant Matrix: (Units=GPa)
#
#
# Indices 1 2 3 4 5 6 
#
# 1 76.7525 28.5044 10.5943 0.0000 0.0000 0.0000
# 2 28.5044 74.0158 28.0182 0.0000 0.0000 0.0000
# 3 10.5943 28.0182 108.5279 0.0000 0.0000 0.0000
# 4 0.0000 0.0000 0.0000 33.8732 0.0000 0.0000
# 5 0.0000 0.0000 0.0000 0.0000 19.0765 0.0000
# 6 0.0000 0.0000 0.0000 0.0000 0.0000 34.7315
#
#
#
# Elastic Compliance Matrix: (Units=1/GPa)
#
#
# Indices 1 2 3 4 5 6 
#
# 1 0.015203 -0.005867 0.000030 0.000000 0.000000 0.000000
# 2 -0.005867 0.017238 -0.003878 0.000000 0.000000 0.000000
# 3 0.000030 -0.003878 0.010212 0.000000 0.000000 0.000000
# 4 0.000000 0.000000 0.000000 0.029522 0.000000 0.000000
# 5 0.000000 0.000000 0.000000 0.000000 0.052421 0.000000
# 6 0.000000 0.000000 0.000000 0.000000 0.000000 0.028792
#
#
# Mechanical properties :
#
#
# Convention : Reuss Voigt Hill
#
# Bulk Modulus (GPa) = 43.05493 43.72557 43.39025
# Shear Modulus (GPa) = 27.69202 30.34819 29.02011
#
# Velocity S-wave (km/s) = 3.69004 3.86296 3.77749
# Velocity P-wave (km/s) = 6.27102 6.43404 6.35305
#
# Compressibility (1/GPa) = 0.02322614
#
# Stress axis : x y z
#
# Youngs Moduli (GPa) = 65.77467 58.01236 97.92114
#
# Poissons Ratio (x) = 0.34033 -0.00298
# Poissons Ratio (y) = 0.38587 0.37969
# Poissons Ratio (z) = -0.00200 0.22494
#
# Static dielectric constant tensor:
#      x y z
#    x 3.659440 0.000000 0.000000 
#    y 0.000000 3.636700 0.000000 
#    z 0.000000 0.000000 3.954730 
# 
# 
# High freq. dielectric constant tensor:
#      x y z
#    x 1.790800 0.000000 0.000000 
#    y 0.000000 1.797570 0.000000 
#    z 0.000000 0.000000 1.814230 
# 
# From -- ./inp_files/10643.got.cif
#   From: 2010.03.12/outbox.cif.g09.slc.cpg/sg39_6_cif.got.tgz:10643.got - 2010.04.14 02:53:20.
