data_PCOD8181757
_publ_section_title
;
Structure prediction by ZEFSAII (Michael W. Deem and Ramdas Pophale) SiO2 
 PCOD8181757
Probable space group: A B M 2
;
_chemical_formula_sum "Si O2"
_cell_formula_units_Z 56
_cell_length_a 15.692965
_cell_length_b 31.473451
_cell_length_c 5.223505
_cell_angle_alpha 90.000000
_cell_angle_beta 90.000000
_cell_angle_gamma 90.000000
_cell_volume 2579.950574
_symmetry_space_group_name_H-M "A B M 2"
_symmetry_group_IT_number 39
_symmetry_cell_setting 'orthorhombic'
loop_
_space_group_symop_operation_xyz
x,y,z
-x,-y,z
-x,1/2+y,z
x,1/2-y,z
x,1/2+y,1/2+z
-x,1/2-y,1/2+z
-x,y,1/2+z
x,-y,1/2+z
loop_
_atom_site_type_symbol
_atom_site_label
_atom_site_fract_x
_atom_site_fract_y
_atom_site_fract_z
Si Si1 0.413177 0.377668 0.222080
Si Si2 0.607033 0.026717 0.711357
Si Si3 0.805256 0.025583 0.694566
Si Si4 0.680872 0.750000 0.709915
Si Si5 0.796087 0.750000 0.210701
Si Si6 0.599755 0.159462 0.222468
Si Si7 0.050604 0.088914 0.242944
Si Si8 0.051536 0.688543 0.736440
O O1 0.438701 0.427453 0.218823
O O2 0.498668 0.349220 0.224022
O O3 0.359715 0.364113 0.473967
O O4 0.359400 0.363781 0.971566
O O5 0.706512 0.037249 0.712655
O O6 0.579485 0.000816 0.458329
O O7 0.856209 0.068822 0.732550
O O8 0.829772 0.006978 0.418829
O O9 0.729377 0.750000 0.441243
O O10 0.619406 0.709283 0.725050
O O11 0.747476 0.750000 0.941324
O O12 0.854954 0.791501 0.229071
O O13 0.065335 0.138695 0.236879
O O14 0.004577 0.073619 0.501156
O O15 0.997937 0.703746 0.490158
#
# Coordination Sequence:
#
# PCOD8181757 Si02
#       8
#     8   8   8   4   4   8   8   8
#     4  10  21  41  66  88 116 163 206 247 315 375
#     4  10  21  39  61  89 122 156 202 257 311 363
#     4  10  21  35  53  79 113 153 193 242 297 349
#     4  12  26  41  61  94 130 160 204 258 310 375
#     4  12  24  41  65  94 122 164 204 246 314 369
#     4  10  23  41  61  90 122 156 203 254 310 375
#     4  10  21  35  54  82 114 152 195 238 289 353
#     4  10  21  40  63  89 121 158 203 252 297 350
#
# _framework density 21.705843000000002
#
# number of rings (size 3 to 8) (size 9 to 14) (size 15 to 20)
#    0.000    1.714    0.000    3.857    0.000    6.286 
#    0.000    8.571    0.000    0.000    0.000    0.000 
#    0.000    0.000    0.000    0.000    0.000    0.000 
#
# Total GULP energy -347183.794514 kJ/mol
# GULP energy per Si atom -12399.421233 kJ/mol
# Density = 2.165644 g / cm^3
# Si number density = 21.705843 Si / 1000 Ang^3
#
#
#
# Elastic Constant Matrix: (Units=GPa)
#
#
# Indices 1 2 3 4 5 6 
#
# 1 79.6768 46.7559 14.4314 0.0000 0.0000 0.0000
# 2 46.7559 132.5337 44.6188 0.0000 0.0000 0.0000
# 3 14.4314 44.6188 184.7171 0.0000 0.0000 0.0000
# 4 0.0000 0.0000 0.0000 21.4731 0.0000 0.0000
# 5 0.0000 0.0000 0.0000 0.0000 41.7185 0.0000
# 6 0.0000 0.0000 0.0000 0.0000 0.0000 27.6956
#
#
#
# Elastic Compliance Matrix: (Units=1/GPa)
#
#
# Indices 1 2 3 4 5 6 
#
# 1 0.015830 -0.005626 0.000122 0.000000 0.000000 0.000000
# 2 -0.005626 0.010212 -0.002027 0.000000 0.000000 0.000000
# 3 0.000122 -0.002027 0.005894 0.000000 0.000000 0.000000
# 4 0.000000 0.000000 0.000000 0.046570 0.000000 0.000000
# 5 0.000000 0.000000 0.000000 0.000000 0.023970 0.000000
# 6 0.000000 0.000000 0.000000 0.000000 0.000000 0.036107
#
#
# Mechanical properties :
#
#
# Convention : Reuss Voigt Hill
#
# Bulk Modulus (GPa) = 59.26117 67.61552 63.43834
# Shear Modulus (GPa) = 31.39336 37.58555 34.48945
#
# Velocity S-wave (km/s) = 3.80716 4.16575 3.99049
# Velocity P-wave (km/s) = 6.83280 7.37268 7.10787
#
# Compressibility (1/GPa) = 0.01687446
#
# Stress axis : x y z
#
# Youngs Moduli (GPa) = 63.17196 97.92012 169.66859
#
# Poissons Ratio (x) = 0.55086 -0.02073
# Poissons Ratio (y) = 0.35538 0.34397
# Poissons Ratio (z) = -0.00772 0.19851
#
# Static dielectric constant tensor:
#      x y z
#    x 3.620150 0.000000 0.000000 
#    y 0.000000 3.831670 0.000000 
#    z 0.000000 0.000000 5.841900 
# 
# 
# High freq. dielectric constant tensor:
#      x y z
#    x 1.830000 0.000000 0.000000 
#    y 0.000000 1.857510 0.000000 
#    z 0.000000 0.000000 1.886840 
# 
# From -- ./inp_files/667.got.cif
#   From: 2010.03.12/outbox.cif.g09.slc.cpg/sg39_1_cif.got.tgz:667.got - 2010.04.14 02:53:20.
