data_PCOD8181937
_publ_section_title
;
Structure prediction by ZEFSAII (Michael W. Deem and Ramdas Pophale) SiO2 
 PCOD8181937
Probable space group: A B M 2
;
_chemical_formula_sum "Si O2"
_cell_formula_units_Z 60
_cell_length_a 11.249313
_cell_length_b 25.969868
_cell_length_c 9.163352
_cell_angle_alpha 90.000000
_cell_angle_beta 90.000000
_cell_angle_gamma 90.000000
_cell_volume 2677.010735
_symmetry_space_group_name_H-M "A B M 2"
_symmetry_group_IT_number 39
_symmetry_cell_setting 'orthorhombic'
loop_
_space_group_symop_operation_xyz
x,y,z
-x,-y,z
-x,1/2+y,z
x,1/2-y,z
x,1/2+y,1/2+z
-x,1/2-y,1/2+z
-x,y,1/2+z
x,-y,1/2+z
loop_
_atom_site_type_symbol
_atom_site_label
_atom_site_fract_x
_atom_site_fract_y
_atom_site_fract_z
Si Si1 0.273859 0.140067 0.057510
Si Si2 0.123974 0.689445 0.011745
Si Si3 0.393095 0.038843 0.626242
Si Si4 0.899420 0.688464 0.836562
Si Si5 0.488809 0.602733 0.389719
Si Si6 0.164978 0.465040 0.132960
Si Si7 0.000000 0.000000 0.883509
Si Si8 0.656943 0.191618 0.826661
O O1 0.220476 0.091002 0.139131
O O2 0.274001 0.187147 0.172800
O O3 0.207779 0.160173 0.915683
O O4 0.406059 0.123070 0.018144
O O5 0.109007 0.750000 0.015504
O O6 0.103998 0.666817 0.172293
O O7 0.254833 0.674715 0.956820
O O8 0.022388 0.668135 0.904760
O O9 0.410827 0.067228 0.469092
O O10 0.406312 0.075308 0.768209
O O11 0.500000 0.000000 0.642372
O O12 0.265206 0.010302 0.627626
O O13 0.883710 0.750000 0.844150
O O14 0.547852 0.652736 0.318177
O O15 0.086396 0.467339 0.279188
O O16 0.082878 0.465757 0.988534
O O17 0.611616 0.250000 0.848348
#
# Coordination Sequence:
#
# PCOD8181937 Si02
#       8
#     8   8   8   8   8   8   4   8
#     4  12  25  42  67 103 133 184 237 286 361 428
#     4   9  20  40  65  93 130 187 237 286 350 413
#     4  12  25  46  76 102 139 182 239 299 345 424
#     4  10  21  39  65  96 135 182 238 291 347 423
#     4  12  26  45  68 108 130 181 243 280 364 424
#     4  11  25  47  72 102 146 182 233 294 355 432
#     4  10  26  48  70 104 144 188 220 288 380 418
#     4  11  25  45  66  97 146 186 234 301 354 423
#
# _framework density 22.413060999999999
#
# number of rings (size 3 to 8) (size 9 to 14) (size 15 to 20)
#    0.000    1.067    2.667    2.400    5.600    5.333 
#    2.400    0.000    0.000    0.000    0.000    0.000 
#    0.000    0.000    0.000    0.000    0.000    0.000 
#
# Total GULP energy -371976.380926 kJ/mol
# GULP energy per Si atom -12399.212698 kJ/mol
# Density = 2.236205 g / cm^3
# Si number density = 22.413061 Si / 1000 Ang^3
#
#
#
# Elastic Constant Matrix: (Units=GPa)
#
#
# Indices 1 2 3 4 5 6 
#
# 1 108.8599 45.4148 40.3340 0.0000 0.0000 0.0000
# 2 45.4148 84.9229 32.8142 0.0000 0.0000 0.0000
# 3 40.3340 32.8142 132.4860 0.0000 0.0000 0.0000
# 4 0.0000 0.0000 0.0000 31.6062 0.0000 0.0000
# 5 0.0000 0.0000 0.0000 0.0000 38.9054 0.0000
# 6 0.0000 0.0000 0.0000 0.0000 0.0000 20.5305
#
#
#
# Elastic Compliance Matrix: (Units=1/GPa)
#
#
# Indices 1 2 3 4 5 6 
#
# 1 0.012463 -0.005749 -0.002370 0.000000 0.000000 0.000000
# 2 -0.005749 0.015673 -0.002132 0.000000 0.000000 0.000000
# 3 -0.002370 -0.002132 0.008798 0.000000 0.000000 0.000000
# 4 0.000000 0.000000 0.000000 0.031639 0.000000 0.000000
# 5 0.000000 0.000000 0.000000 0.000000 0.025703 0.000000
# 6 0.000000 0.000000 0.000000 0.000000 0.000000 0.048708
#
#
# Mechanical properties :
#
#
# Convention : Reuss Voigt Hill
#
# Bulk Modulus (GPa) = 60.85753 62.59943 61.72848
# Shear Modulus (GPa) = 29.59214 32.05546 30.82380
#
# Velocity S-wave (km/s) = 3.63755 3.78592 3.71247
# Velocity P-wave (km/s) = 6.69731 6.86305 6.78069
#
# Compressibility (1/GPa) = 0.01643182
#
# Stress axis : x y z
#
# Youngs Moduli (GPa) = 80.23958 63.80197 113.66763
#
# Poissons Ratio (x) = 0.36679 0.26942
# Poissons Ratio (y) = 0.46129 0.24232
# Poissons Ratio (z) = 0.19019 0.13602
#
# Static dielectric constant tensor:
#      x y z
#    x 4.122360 0.000000 0.000000 
#    y 0.000000 3.886910 0.000000 
#    z 0.000000 0.000000 4.356310 
# 
# 
# High freq. dielectric constant tensor:
#      x y z
#    x 1.886000 0.000000 0.000000 
#    y 0.000000 1.871270 0.000000 
#    z 0.000000 0.000000 1.902440 
# 
# From -- ./inp_files/2826.got.cif
#   From: 2010.03.12/outbox.cif.g09.slc.cpg/sg39_2_cif.got.tgz:2826.got - 2010.04.14 02:53:20.
