data_PCOD8181653
_publ_section_title
;
Structure prediction by ZEFSAII (Michael W. Deem and Ramdas Pophale) SiO2 
 PCOD8181653
Probable space group: A B M 2
;
_chemical_formula_sum "Si O2"
_cell_formula_units_Z 60
_cell_length_a 11.204178
_cell_length_b 14.833898
_cell_length_c 18.166705
_cell_angle_alpha 90.000000
_cell_angle_beta 90.000000
_cell_angle_gamma 90.000000
_cell_volume 3019.336049
_symmetry_space_group_name_H-M "A B M 2"
_symmetry_group_IT_number 39
_symmetry_cell_setting 'orthorhombic'
loop_
_space_group_symop_operation_xyz
x,y,z
-x,-y,z
-x,1/2+y,z
x,1/2-y,z
x,1/2+y,1/2+z
-x,1/2-y,1/2+z
-x,y,1/2+z
x,-y,1/2+z
loop_
_atom_site_type_symbol
_atom_site_label
_atom_site_fract_x
_atom_site_fract_y
_atom_site_fract_z
Si Si1 0.500000 0.000000 0.155000
Si Si2 0.141669 0.509761 0.870228
Si Si3 0.863197 0.852773 0.639178
Si Si4 0.750554 0.352659 0.455892
Si Si5 0.752589 0.852554 0.483222
Si Si6 0.751404 0.010689 0.717015
Si Si7 0.505128 0.645320 0.029318
Si Si8 0.133320 0.647784 0.609379
O O1 0.610137 0.002556 0.211496
O O2 0.500090 0.088543 0.104086
O O3 0.201315 0.414199 0.890099
O O4 0.169733 0.582841 0.932515
O O5 0.204667 0.545592 0.796128
O O6 0.000000 0.500000 0.859765
O O7 0.852453 0.750000 0.665766
O O8 0.784522 0.871663 0.567581
O O9 0.817160 0.915571 0.704385
O O10 0.997732 0.880062 0.621439
O O11 0.748081 0.250000 0.427293
O O12 0.618743 0.384143 0.480875
O O13 0.841013 0.364489 0.523452
O O14 0.784527 0.750000 0.461295
O O15 0.610827 0.871264 0.477948
O O16 0.782291 0.083696 0.655528
O O17 0.515194 0.750000 0.053047
O O18 0.159356 0.750000 0.634222
#
# Coordination Sequence:
#
# PCOD8181653 Si02
#       8
#     4   8   8   8   8   8   8   8
#     4  12  22  38  64  90 120 158 198 252 300 356
#     4  12  26  41  58  86 129 169 199 241 298 361
#     4  10  20  37  62  88 115 154 207 258 299 347
#     4  10  21  39  65  91 117 155 203 252 303 355
#     4  10  21  39  65  91 117 155 203 252 303 355
#     4  12  25  39  58  88 124 163 201 243 300 359
#     4  10  20  39  67  95 119 147 196 260 310 350
#     4  10  20  37  62  88 115 154 207 258 299 347
#
# _framework density 19.871918999999998
#
# number of rings (size 3 to 8) (size 9 to 14) (size 15 to 20)
#    0.000    1.333    2.667    3.600    0.000    3.733 
#    0.000    0.000    0.000    0.000    0.000    0.000 
#    0.000    0.000    0.000    0.000    0.000    0.000 
#
# Total GULP energy -372130.309821 kJ/mol
# GULP energy per Si atom -12404.343661 kJ/mol
# Density = 1.982669 g / cm^3
# Si number density = 19.871919 Si / 1000 Ang^3
#
#
#
# Elastic Constant Matrix: (Units=GPa)
#
#
# Indices 1 2 3 4 5 6 
#
# 1 135.2363 24.3741 14.9757 0.0000 0.0000 0.0000
# 2 24.3741 76.1922 14.6911 0.0000 0.0000 0.0000
# 3 14.9757 14.6911 38.4552 0.0000 0.0000 0.0000
# 4 0.0000 0.0000 0.0000 13.0816 0.0000 0.0000
# 5 0.0000 0.0000 0.0000 0.0000 29.6078 0.0000
# 6 0.0000 0.0000 0.0000 0.0000 0.0000 27.9406
#
#
#
# Elastic Compliance Matrix: (Units=1/GPa)
#
#
# Indices 1 2 3 4 5 6 
#
# 1 0.008034 -0.002123 -0.002317 0.000000 0.000000 0.000000
# 2 -0.002123 0.014729 -0.004800 0.000000 0.000000 0.000000
# 3 -0.002317 -0.004800 0.028741 0.000000 0.000000 0.000000
# 4 0.000000 0.000000 0.000000 0.076443 0.000000 0.000000
# 5 0.000000 0.000000 0.000000 0.000000 0.033775 0.000000
# 6 0.000000 0.000000 0.000000 0.000000 0.000000 0.035790
#
#
# Mechanical properties :
#
#
# Convention : Reuss Voigt Hill
#
# Bulk Modulus (GPa) = 30.28285 39.77395 35.02840
# Shear Modulus (GPa) = 22.02628 27.18219 24.60423
#
# Velocity S-wave (km/s) = 3.33289 3.70248 3.52254
# Velocity P-wave (km/s) = 5.48480 6.19164 5.84891
#
# Compressibility (1/GPa) = 0.03302199
#
# Stress axis : x y z
#
# Youngs Moduli (GPa) = 124.47469 67.89106 34.79395
#
# Poissons Ratio (x) = 0.14414 0.08063
# Poissons Ratio (y) = 0.26428 0.16702
# Poissons Ratio (z) = 0.28847 0.32590
#
# Static dielectric constant tensor:
#      x y z
#    x 3.912410 0.000000 0.000000 
#    y 0.000000 3.747670 0.000000 
#    z 0.000000 0.000000 3.234940 
# 
# 
# High freq. dielectric constant tensor:
#      x y z
#    x 1.796240 0.000000 0.000000 
#    y 0.000000 1.787810 0.000000 
#    z 0.000000 0.000000 1.742820 
# 
# From -- ./inp_files/12309.got.cif
#   From: 2010.03.12/outbox.cif.g09.slc.cpg/sg39_7_cif.got.tgz:12309.got - 2010.04.14 02:53:20.
