data_PCOD8181202
_publ_section_title
;
Structure prediction by ZEFSAII (Michael W. Deem and Ramdas Pophale) SiO2 
 PCOD8181202
Probable space group: A B M 2
;
_chemical_formula_sum "Si O2"
_cell_formula_units_Z 64
_cell_length_a 23.773490
_cell_length_b 8.812625
_cell_length_c 15.354838
_cell_angle_alpha 90.000000
_cell_angle_beta 90.000000
_cell_angle_gamma 90.000000
_cell_volume 3216.943777
_symmetry_space_group_name_H-M "A B M 2"
_symmetry_group_IT_number 39
_symmetry_cell_setting 'orthorhombic'
loop_
_space_group_symop_operation_xyz
x,y,z
-x,-y,z
-x,1/2+y,z
x,1/2-y,z
x,1/2+y,1/2+z
-x,1/2-y,1/2+z
-x,y,1/2+z
x,-y,1/2+z
loop_
_atom_site_type_symbol
_atom_site_label
_atom_site_fract_x
_atom_site_fract_y
_atom_site_fract_z
Si Si1 0.442478 0.570674 0.469790
Si Si2 0.940689 0.070660 0.023971
Si Si3 0.555756 0.573490 0.283385
Si Si4 0.666734 0.426415 0.034634
Si Si5 0.674396 0.576009 0.206175
Si Si6 0.745192 0.927234 0.374792
Si Si7 0.134984 0.071632 0.879148
Si Si8 0.941624 0.071896 0.221247
O O1 0.500000 0.500000 0.507932
O O2 0.448112 0.750000 0.469729
O O3 0.431012 0.510025 0.373292
O O4 0.390422 0.522160 0.529250
O O5 0.945235 0.250000 0.015308
O O6 0.925620 0.020400 0.123040
O O7 0.000000 0.000000 0.994782
O O8 0.891824 0.011316 0.961836
O O9 0.500000 0.500000 0.239863
O O10 0.545353 0.750000 0.303542
O O11 0.607982 0.549713 0.219785
O O12 0.652035 0.250000 0.028819
O O13 0.694843 0.469643 0.127063
O O14 0.710133 0.472839 0.959819
O O15 0.687020 0.750000 0.182704
O O16 0.708121 0.527757 0.291746
O O17 0.761085 0.750000 0.375459
O O18 0.800353 0.028234 0.372935
O O19 0.128272 0.250000 0.892872
O O20 0.105957 0.017942 0.788961
O O21 0.949835 0.250000 0.224436
O O22 0.000000 0.000000 0.251826
#
# Coordination Sequence:
#
# PCOD8181202 Si02
#       8
#     8   8   8   8   8   8   8   8
#     4  11  21  35  59  88 119 153 192 237 294 355
#     4  10  20  37  60  88 123 159 194 235 290 345
#     4  10  19  35  58  86 120 152 188 236 292 354
#     4  11  23  41  63  87 116 153 197 244 300 357
#     4  10  22  41  62  85 117 154 196 244 297 356
#     4  10  23  44  62  80 116 159 197 245 298 347
#     4  11  23  38  59  88 118 153 201 247 288 345
#     4   9  20  37  58  86 121 155 190 234 284 341
#
# _framework density 19.894659000000001
#
# number of rings (size 3 to 8) (size 9 to 14) (size 15 to 20)
#    0.000    1.750    1.250    3.750    0.000    6.500 
#    0.000    5.000    0.000    0.000    0.000    0.000 
#    0.000    0.000    0.000    0.000    0.000    0.000 
#
# Total GULP energy -396911.648757 kJ/mol
# GULP energy per Si atom -12403.489024 kJ/mol
# Density = 1.984938 g / cm^3
# Si number density = 19.894659 Si / 1000 Ang^3
#
#
#
# Elastic Constant Matrix: (Units=GPa)
#
#
# Indices 1 2 3 4 5 6 
#
# 1 119.0824 48.6218 61.5739 0.0000 0.0000 0.0000
# 2 48.6218 91.2094 46.2819 0.0000 0.0000 0.0000
# 3 61.5739 46.2819 125.8795 0.0000 0.0000 0.0000
# 4 0.0000 0.0000 0.0000 33.0790 0.0000 0.0000
# 5 0.0000 0.0000 0.0000 0.0000 5.0185 0.0000
# 6 0.0000 0.0000 0.0000 0.0000 0.0000 36.2415
#
#
#
# Elastic Compliance Matrix: (Units=1/GPa)
#
#
# Indices 1 2 3 4 5 6 
#
# 1 0.012521 -0.004385 -0.004513 0.000000 0.000000 0.000000
# 2 -0.004385 0.015014 -0.003375 0.000000 0.000000 0.000000
# 3 -0.004513 -0.003375 0.011392 0.000000 0.000000 0.000000
# 4 0.000000 0.000000 0.000000 0.030231 0.000000 0.000000
# 5 0.000000 0.000000 0.000000 0.000000 0.199261 0.000000
# 6 0.000000 0.000000 0.000000 0.000000 0.000000 0.027593
#
#
# Mechanical properties :
#
#
# Convention : Reuss Voigt Hill
#
# Bulk Modulus (GPa) = 69.53115 72.12515 70.82815
# Shear Modulus (GPa) = 15.36797 26.84738 21.10767
#
# Velocity S-wave (km/s) = 2.78234 3.67751 3.26079
# Velocity P-wave (km/s) = 6.73405 7.37322 7.06087
#
# Compressibility (1/GPa) = 0.01438204
#
# Stress axis : x y z
#
# Youngs Moduli (GPa) = 79.86401 66.60432 87.77803
#
# Poissons Ratio (x) = 0.29206 0.39610
# Poissons Ratio (y) = 0.35021 0.29627
# Poissons Ratio (z) = 0.36039 0.22480
#
# Static dielectric constant tensor:
#      x y z
#    x 3.540710 0.000000 0.000000 
#    y 0.000000 3.588820 0.000000 
#    z 0.000000 0.000000 3.730970 
# 
# 
# High freq. dielectric constant tensor:
#      x y z
#    x 1.771410 0.000000 0.000000 
#    y 0.000000 1.779200 0.000000 
#    z 0.000000 0.000000 1.783330 
# 
# From -- ./inp_files/10577.got.cif
#   From: 2010.03.12/outbox.cif.g09.slc.cpg/sg39_6_cif.got.tgz:10577.got - 2010.04.14 02:53:20.
