data_PCOD8181076
_publ_section_title
;
Structure prediction by ZEFSAII (Michael W. Deem and Ramdas Pophale) SiO2 
 PCOD8181076
Probable space group: A B M 2
;
_chemical_formula_sum "Si O2"
_cell_formula_units_Z 64
_cell_length_a 8.720166
_cell_length_b 15.568841
_cell_length_c 23.652008
_cell_angle_alpha 90.000000
_cell_angle_beta 90.000000
_cell_angle_gamma 90.000000
_cell_volume 3211.064675
_symmetry_space_group_name_H-M "A B M 2"
_symmetry_group_IT_number 39
_symmetry_cell_setting 'orthorhombic'
loop_
_space_group_symop_operation_xyz
x,y,z
-x,-y,z
-x,1/2+y,z
x,1/2-y,z
x,1/2+y,1/2+z
-x,1/2-y,1/2+z
-x,y,1/2+z
x,-y,1/2+z
loop_
_atom_site_type_symbol
_atom_site_label
_atom_site_fract_x
_atom_site_fract_y
_atom_site_fract_z
Si Si1 0.821284 0.504929 0.484450
Si Si2 0.112484 0.919928 0.192053
Si Si3 0.339366 0.852004 0.782991
Si Si4 0.813031 0.345857 0.669229
Si Si5 0.317009 0.348824 0.787494
Si Si6 0.820962 0.346142 0.407040
Si Si7 0.174147 0.349136 0.395951
Si Si8 0.680177 0.504016 0.103988
O O1 0.775032 0.416488 0.453401
O O2 0.780719 0.588519 0.447270
O O3 0.718150 0.516202 0.539413
O O4 0.000000 0.500000 0.501117
O O5 0.194960 0.901583 0.251171
O O6 0.239748 0.933341 0.143828
O O7 0.998849 0.843722 0.171801
O O8 0.000000 0.000000 0.199547
O O9 0.333550 0.750000 0.784678
O O10 0.248611 0.886274 0.728311
O O11 0.512834 0.885908 0.777707
O O12 0.259128 0.885284 0.840234
O O13 0.751551 0.250000 0.659613
O O14 0.746835 0.401890 0.618028
O O15 0.305364 0.250000 0.768539
O O16 0.287179 0.360069 0.853585
O O17 0.797703 0.250000 0.432527
O O18 0.993663 0.357361 0.384830
O O19 0.219948 0.250000 0.410033
O O20 0.500000 0.500000 0.114340
#
# Coordination Sequence:
#
# PCOD8181076 Si02
#       8
#     8   8   8   8   8   8   8   8
#     4  10  21  38  57  78 107 146 193 237 276 326
#     4  10  21  36  56  80 110 147 187 230 277 331
#     4   9  18  32  54  84 117 145 176 224 283 337
#     4  10  20  37  61  85 110 148 191 232 278 334
#     4  10  19  33  54  84 117 146 179 225 278 335
#     4   9  19  34  55  81 111 147 188 229 273 328
#     4   9  18  35  57  82 111 145 183 228 278 332
#     4  11  24  41  57  80 115 148 186 237 288 339
#
# _framework density 19.931083999999998
#
# number of rings (size 3 to 8) (size 9 to 14) (size 15 to 20)
#    0.000    2.250    0.000    3.000    0.000    7.000 
#    0.000    7.500    0.000    0.000    0.000    0.000 
#    0.000    0.000    0.000    0.000    0.000    0.000 
#
# Total GULP energy -396815.093613 kJ/mol
# GULP energy per Si atom -12400.471675 kJ/mol
# Density = 1.988572 g / cm^3
# Si number density = 19.931084 Si / 1000 Ang^3
#
#
#
# Elastic Constant Matrix: (Units=GPa)
#
#
# Indices 1 2 3 4 5 6 
#
# 1 107.5874 16.5259 37.8351 0.0000 0.0000 0.0000
# 2 16.5259 70.8644 33.8993 0.0000 0.0000 0.0000
# 3 37.8351 33.8993 92.7440 0.0000 0.0000 0.0000
# 4 0.0000 0.0000 0.0000 30.2384 0.0000 0.0000
# 5 0.0000 0.0000 0.0000 0.0000 31.4983 0.0000
# 6 0.0000 0.0000 0.0000 0.0000 0.0000 19.6889
#
#
#
# Elastic Compliance Matrix: (Units=1/GPa)
#
#
# Indices 1 2 3 4 5 6 
#
# 1 0.010866 -0.000501 -0.004250 0.000000 0.000000 0.000000
# 2 -0.000501 0.017125 -0.006055 0.000000 0.000000 0.000000
# 3 -0.004250 -0.006055 0.014729 0.000000 0.000000 0.000000
# 4 0.000000 0.000000 0.000000 0.033071 0.000000 0.000000
# 5 0.000000 0.000000 0.000000 0.000000 0.031748 0.000000
# 6 0.000000 0.000000 0.000000 0.000000 0.000000 0.050790
#
#
# Mechanical properties :
#
#
# Convention : Reuss Voigt Hill
#
# Bulk Modulus (GPa) = 47.37384 49.74626 48.56005
# Shear Modulus (GPa) = 26.74132 28.48081 27.61106
#
# Velocity S-wave (km/s) = 3.66688 3.78427 3.72604
# Velocity P-wave (km/s) = 6.46130 6.64135 6.55195
#
# Compressibility (1/GPa) = 0.02110870
#
# Stress axis : x y z
#
# Youngs Moduli (GPa) = 92.02814 58.39477 67.89228
#
# Poissons Ratio (x) = 0.02926 0.28852
# Poissons Ratio (y) = 0.04612 0.41108
# Poissons Ratio (z) = 0.39110 0.35358
#
# Static dielectric constant tensor:
#      x y z
#    x 3.756250 0.000000 0.000000 
#    y 0.000000 3.724850 0.000000 
#    z 0.000000 0.000000 3.453410 
# 
# 
# High freq. dielectric constant tensor:
#      x y z
#    x 1.780260 0.000000 0.000000 
#    y 0.000000 1.775220 0.000000 
#    z 0.000000 0.000000 1.766960 
# 
# From -- ./inp_files/14168.got.cif
#   From: 2010.03.12/outbox.cif.g09.slc.cpg/sg39_8_cif.got.tgz:14168.got - 2010.04.14 02:53:20.
