data_PCOD8181245
_publ_section_title
;
Structure prediction by ZEFSAII (Michael W. Deem and Ramdas Pophale) SiO2 
 PCOD8181245
Probable space group: A B M 2
;
_chemical_formula_sum "Si O2"
_cell_formula_units_Z 60
_cell_length_a 8.140317
_cell_length_b 24.547095
_cell_length_c 13.766196
_cell_angle_alpha 90.000000
_cell_angle_beta 90.000000
_cell_angle_gamma 90.000000
_cell_volume 2750.776906
_symmetry_space_group_name_H-M "A B M 2"
_symmetry_group_IT_number 39
_symmetry_cell_setting 'orthorhombic'
loop_
_space_group_symop_operation_xyz
x,y,z
-x,-y,z
-x,1/2+y,z
x,1/2-y,z
x,1/2+y,1/2+z
-x,1/2-y,1/2+z
-x,y,1/2+z
x,-y,1/2+z
loop_
_atom_site_type_symbol
_atom_site_label
_atom_site_fract_x
_atom_site_fract_y
_atom_site_fract_z
Si Si1 0.445259 0.186089 0.279590
Si Si2 0.500000 0.000000 0.258357
Si Si3 0.962466 0.112904 0.241586
Si Si4 0.725459 0.866581 0.463132
Si Si5 0.166973 0.311319 0.125072
Si Si6 0.948008 0.187783 0.424713
Si Si7 0.834806 0.033724 0.850146
Si Si8 0.628393 0.396546 0.170040
O O1 0.478720 0.250000 0.296550
O O2 0.387691 0.157757 0.378118
O O3 0.323489 0.173781 0.189701
O O4 0.606367 0.154607 0.243742
O O5 0.332074 0.000433 0.323414
O O6 0.501560 0.053958 0.190220
O O7 0.915554 0.145631 0.339152
O O8 0.807907 0.080264 0.198389
O O9 0.012781 0.153451 0.157068
O O10 0.110737 0.070866 0.259003
O O11 0.790687 0.927156 0.439695
O O12 0.618109 0.873489 0.560598
O O13 0.875566 0.824431 0.474501
O O14 0.115608 0.250000 0.146857
O O15 0.191731 0.319721 0.008713
O O16 0.948675 0.250000 0.385599
O O17 0.000000 0.000000 0.879757
#
# Coordination Sequence:
#
# PCOD8181245 Si02
#       8
#     8   4   8   8   8   8   8   8
#     4  11  24  43  67  97 143 187 229 292 354 425
#     4  12  24  48  72  98 142 184 232 300 364 420
#     4  11  21  39  64  94 131 173 229 282 341 419
#     4  11  23  43  67  99 135 185 233 288 359 417
#     4  10  19  36  62  92 128 176 225 278 344 410
#     4  10  20  35  63  98 132 174 228 282 342 421
#     4  11  23  45  74  98 132 182 231 287 355 426
#     4  12  26  44  68 102 136 185 239 291 358 426
#
# _framework density 21.812021000000001
#
# number of rings (size 3 to 8) (size 9 to 14) (size 15 to 20)
#    0.000    1.067    6.667    0.800    0.000    3.733 
#    2.400    2.667    0.000    0.000    0.000    0.000 
#    0.000    0.000    0.000    0.000    0.000    0.000 
#
# Total GULP energy -371764.238974 kJ/mol
# GULP energy per Si atom -12392.141299 kJ/mol
# Density = 2.176238 g / cm^3
# Si number density = 21.812021 Si / 1000 Ang^3
#
#
#
# Elastic Constant Matrix: (Units=GPa)
#
#
# Indices 1 2 3 4 5 6 
#
# 1 84.7832 26.4659 23.7242 0.0000 0.0000 0.0000
# 2 26.4659 102.9617 28.9992 0.0000 0.0000 0.0000
# 3 23.7242 28.9992 79.8883 0.0000 0.0000 0.0000
# 4 0.0000 0.0000 0.0000 19.6192 0.0000 0.0000
# 5 0.0000 0.0000 0.0000 0.0000 35.2098 0.0000
# 6 0.0000 0.0000 0.0000 0.0000 0.0000 28.6064
#
#
#
# Elastic Compliance Matrix: (Units=1/GPa)
#
#
# Indices 1 2 3 4 5 6 
#
# 1 0.013461 -0.002600 -0.003054 0.000000 0.000000 0.000000
# 2 -0.002600 0.011321 -0.003337 0.000000 0.000000 0.000000
# 3 -0.003054 -0.003337 0.014636 0.000000 0.000000 0.000000
# 4 0.000000 0.000000 0.000000 0.050971 0.000000 0.000000
# 5 0.000000 0.000000 0.000000 0.000000 0.028401 0.000000
# 6 0.000000 0.000000 0.000000 0.000000 0.000000 0.034957
#
#
# Mechanical properties :
#
#
# Convention : Reuss Voigt Hill
#
# Bulk Modulus (GPa) = 46.65173 47.33465 46.99319
# Shear Modulus (GPa) = 27.95279 29.25000 28.60139
#
# Velocity S-wave (km/s) = 3.58373 3.66594 3.62507
# Velocity P-wave (km/s) = 6.20956 6.29819 6.25403
#
# Compressibility (1/GPa) = 0.02143543
#
# Stress axis : x y z
#
# Youngs Moduli (GPa) = 74.28934 88.33451 68.32605
#
# Poissons Ratio (x) = 0.22967 0.20864
# Poissons Ratio (y) = 0.19315 0.22802
# Poissons Ratio (z) = 0.22685 0.29479
#
# Static dielectric constant tensor:
#      x y z
#    x 3.918760 0.000000 0.000000 
#    y 0.000000 4.021230 0.000000 
#    z 0.000000 0.000000 3.870370 
# 
# 
# High freq. dielectric constant tensor:
#      x y z
#    x 1.851250 0.000000 0.000000 
#    y 0.000000 1.862420 0.000000 
#    z 0.000000 0.000000 1.850790 
# 
# From -- ./inp_files/8725.got.cif
#   From: 2010.03.12/outbox.cif.g09.slc.cpg/sg39_5_cif.got.tgz:8725.got - 2010.04.14 02:53:20.
