data_PCOD8181579
_publ_section_title
;
Structure prediction by ZEFSAII (Michael W. Deem and Ramdas Pophale) SiO2 
 PCOD8181579
Probable space group: A B M 2
;
_chemical_formula_sum "Si O2"
_cell_formula_units_Z 64
_cell_length_a 23.700078
_cell_length_b 8.582790
_cell_length_c 15.319254
_cell_angle_alpha 90.000000
_cell_angle_beta 90.000000
_cell_angle_gamma 90.000000
_cell_volume 3116.132235
_symmetry_space_group_name_H-M "A B M 2"
_symmetry_group_IT_number 39
_symmetry_cell_setting 'orthorhombic'
loop_
_space_group_symop_operation_xyz
x,y,z
-x,-y,z
-x,1/2+y,z
x,1/2-y,z
x,1/2+y,1/2+z
-x,1/2-y,1/2+z
-x,y,1/2+z
x,-y,1/2+z
loop_
_atom_site_type_symbol
_atom_site_label
_atom_site_fract_x
_atom_site_fract_y
_atom_site_fract_z
Si Si1 0.173686 0.431031 0.496370
Si Si2 0.439512 0.433094 0.499090
Si Si3 0.640816 0.432618 0.841487
Si Si4 0.237614 0.569580 0.335658
Si Si5 0.172578 0.931171 0.675838
Si Si6 0.940800 0.570322 0.945084
Si Si7 0.439560 0.432950 0.183553
Si Si8 0.059191 0.929684 0.239233
O O1 0.183325 0.250000 0.477225
O O2 0.208269 0.530149 0.426700
O O3 0.196161 0.474018 0.592630
O O4 0.107696 0.473233 0.492695
O O5 0.500000 0.500000 0.471753
O O6 0.445892 0.250000 0.507041
O O7 0.394450 0.481089 0.426472
O O8 0.418484 0.499583 0.591454
O O9 0.655885 0.250000 0.842277
O O10 0.696607 0.534705 0.842393
O O11 0.605811 0.479554 0.755994
O O12 0.227067 0.750000 0.314865
O O13 0.210791 0.468960 0.258741
O O14 0.176982 0.750000 0.654692
O O15 0.107778 0.974219 0.692269
O O16 0.937079 0.750000 0.972925
O O17 0.933210 0.549459 0.842144
O O18 0.000000 0.500000 0.976741
O O19 0.500000 0.500000 0.211302
O O20 0.446258 0.250000 0.174821
O O21 0.063106 0.750000 0.211543
O O22 0.000000 0.000000 0.207595
#
# Coordination Sequence:
#
# PCOD8181579 Si02
#       8
#     8   8   8   8   8   8   8   8
#     4  12  25  43  67  92 123 162 206 256 312 371
#     4  10  20  36  60  90 126 162 201 247 301 359
#     4  10  23  41  61  87 121 164 207 252 303 360
#     4  12  26  45  66  91 123 162 209 260 312 368
#     4  12  25  43  67  92 123 162 206 256 312 371
#     4  10  20  36  61  92 127 161 201 249 306 371
#     4  10  20  36  60  90 126 162 201 247 301 359
#     4  10  20  36  61  92 127 161 201 249 306 371
#
# _framework density 20.538281000000001
#
# number of rings (size 3 to 8) (size 9 to 14) (size 15 to 20)
#    0.000    1.250    1.250    6.000    0.000    4.500 
#    0.000    5.000    0.000    0.000    0.000    0.000 
#    0.000    0.000    0.000    0.000    0.000    0.000 
#
# Total GULP energy -397016.497562 kJ/mol
# GULP energy per Si atom -12406.765549 kJ/mol
# Density = 2.049154 g / cm^3
# Si number density = 20.538281 Si / 1000 Ang^3
#
#
#
# Elastic Constant Matrix: (Units=GPa)
#
#
# Indices 1 2 3 4 5 6 
#
# 1 116.4393 34.0989 55.5293 0.0000 0.0000 0.0000
# 2 34.0989 100.3735 24.1529 0.0000 0.0000 0.0000
# 3 55.5293 24.1529 105.6727 0.0000 0.0000 0.0000
# 4 0.0000 0.0000 0.0000 27.4669 0.0000 0.0000
# 5 0.0000 0.0000 0.0000 0.0000 5.3766 0.0000
# 6 0.0000 0.0000 0.0000 0.0000 0.0000 37.3972
#
#
#
# Elastic Compliance Matrix: (Units=1/GPa)
#
#
# Indices 1 2 3 4 5 6 
#
# 1 0.012132 -0.002738 -0.005749 0.000000 0.000000 0.000000
# 2 -0.002738 0.011161 -0.001112 0.000000 0.000000 0.000000
# 3 -0.005749 -0.001112 0.012739 0.000000 0.000000 0.000000
# 4 0.000000 0.000000 0.000000 0.036407 0.000000 0.000000
# 5 0.000000 0.000000 0.000000 0.000000 0.185991 0.000000
# 6 0.000000 0.000000 0.000000 0.000000 0.000000 0.026740
#
#
# Mechanical properties :
#
#
# Convention : Reuss Voigt Hill
#
# Bulk Modulus (GPa) = 59.41019 61.11641 60.26330
# Shear Modulus (GPa) = 16.13016 27.96178 22.04597
#
# Velocity S-wave (km/s) = 2.80549 3.69378 3.27985
# Velocity P-wave (km/s) = 6.28361 6.92921 6.61429
#
# Compressibility (1/GPa) = 0.01683213
#
# Stress axis : x y z
#
# Youngs Moduli (GPa) = 82.42834 89.60138 78.50211
#
# Poissons Ratio (x) = 0.24532 0.45133
# Poissons Ratio (y) = 0.22569 0.08731
# Poissons Ratio (z) = 0.47390 0.09965
#
# Static dielectric constant tensor:
#      x y z
#    x 3.713550 0.000000 0.000000 
#    y 0.000000 3.761340 0.000000 
#    z 0.000000 0.000000 4.048210 
# 
# 
# High freq. dielectric constant tensor:
#      x y z
#    x 1.800140 0.000000 0.000000 
#    y 0.000000 1.814670 0.000000 
#    z 0.000000 0.000000 1.813290 
# 
# From -- ./inp_files/10680.got.cif
#   From: 2010.03.12/outbox.cif.g09.slc.cpg/sg39_6_cif.got.tgz:10680.got - 2010.04.14 02:53:20.
