data_PCOD8181373
_publ_section_title
;
Structure prediction by ZEFSAII (Michael W. Deem and Ramdas Pophale) SiO2 
 PCOD8181373
Probable space group: A B M 2
;
_chemical_formula_sum "Si O2"
_cell_formula_units_Z 64
_cell_length_a 14.410875
_cell_length_b 27.760422
_cell_length_c 8.739956
_cell_angle_alpha 90.000000
_cell_angle_beta 90.000000
_cell_angle_gamma 90.000000
_cell_volume 3496.436628
_symmetry_space_group_name_H-M "A B M 2"
_symmetry_group_IT_number 39
_symmetry_cell_setting 'orthorhombic'
loop_
_space_group_symop_operation_xyz
x,y,z
-x,-y,z
-x,1/2+y,z
x,1/2-y,z
x,1/2+y,1/2+z
-x,1/2-y,1/2+z
-x,y,1/2+z
x,-y,1/2+z
loop_
_atom_site_type_symbol
_atom_site_label
_atom_site_fract_x
_atom_site_fract_y
_atom_site_fract_z
Si Si1 0.377578 0.433964 0.189030
Si Si2 0.694745 0.541537 0.706029
Si Si3 0.243907 0.893344 0.477535
Si Si4 0.061150 0.438460 0.946463
Si Si5 0.527275 0.803637 0.638556
Si Si6 0.448491 0.902389 0.011932
Si Si7 0.636777 0.696698 0.942016
Si Si8 0.105261 0.963873 0.105888
O O1 0.350080 0.488910 0.219951
O O2 0.448163 0.422915 0.047720
O O3 0.426823 0.413639 0.337892
O O4 0.283615 0.404951 0.146528
O O5 0.721349 0.562081 0.872142
O O6 0.618406 0.573965 0.632120
O O7 0.784940 0.545291 0.596533
O O8 0.131171 0.893406 0.476309
O O9 0.279932 0.841287 0.421458
O O10 0.065619 0.456229 0.774492
O O11 0.091312 0.480969 0.060393
O O12 0.953327 0.427696 0.992898
O O13 0.560710 0.750000 0.585822
O O14 0.569531 0.845507 0.533606
O O15 0.555811 0.812465 0.814824
O O16 0.415264 0.807475 0.607118
O O17 0.680381 0.750000 0.921473
#
# Coordination Sequence:
#
# PCOD8181373 Si02
#       8
#     8   8   8   8   8   8   8   8
#     4  12  24  36  51  74 110 152 188 223 258 322
#     4  11  23  37  52  75 110 147 189 217 265 321
#     4  11  21  37  55  81 109 142 186 223 270 329
#     4  10  20  34  58  77 108 137 180 221 273 322
#     4  10  20  36  56  77 103 141 186 232 275 316
#     4  12  23  36  53  75 108 150 189 224 271 318
#     4  10  20  36  57  78 106 143 186 234 277 319
#     4  10  20  34  53  77 103 142 174 223 262 320
#
# _framework density 18.304351
#
# number of rings (size 3 to 8) (size 9 to 14) (size 15 to 20)
#    0.000    1.250    3.750    4.125    1.750    2.000 
#    0.000    0.000    0.000    0.000    0.000    4.375 
#    0.000    0.000    0.000    0.000    0.000    0.000 
#
# Total GULP energy -396470.482528 kJ/mol
# GULP energy per Si atom -12389.702579 kJ/mol
# Density = 1.826269 g / cm^3
# Si number density = 18.304351 Si / 1000 Ang^3
#
#
#
# Elastic Constant Matrix: (Units=GPa)
#
#
# Indices 1 2 3 4 5 6 
#
# 1 58.9740 24.3922 9.1309 0.0000 0.0000 0.0000
# 2 24.3922 107.0161 19.0035 0.0000 0.0000 0.0000
# 3 9.1309 19.0035 59.4970 0.0000 0.0000 0.0000
# 4 0.0000 0.0000 0.0000 13.0281 0.0000 0.0000
# 5 0.0000 0.0000 0.0000 0.0000 22.1899 0.0000
# 6 0.0000 0.0000 0.0000 0.0000 0.0000 20.6197
#
#
#
# Elastic Compliance Matrix: (Units=1/GPa)
#
#
# Indices 1 2 3 4 5 6 
#
# 1 0.018867 -0.004014 -0.001613 0.000000 0.000000 0.000000
# 2 -0.004014 0.010760 -0.002821 0.000000 0.000000 0.000000
# 3 -0.001613 -0.002821 0.017956 0.000000 0.000000 0.000000
# 4 0.000000 0.000000 0.000000 0.076757 0.000000 0.000000
# 5 0.000000 0.000000 0.000000 0.000000 0.045065 0.000000
# 6 0.000000 0.000000 0.000000 0.000000 0.000000 0.048497
#
#
# Mechanical properties :
#
#
# Convention : Reuss Voigt Hill
#
# Bulk Modulus (GPa) = 32.58722 36.72668 34.65695
# Shear Modulus (GPa) = 20.40586 22.69825 21.55206
#
# Velocity S-wave (km/s) = 3.34250 3.52525 3.43509
# Velocity P-wave (km/s) = 5.72172 6.05623 5.89135
#
# Compressibility (1/GPa) = 0.03068687
#
# Stress axis : x y z
#
# Youngs Moduli (GPa) = 53.00382 92.93547 55.69124
#
# Poissons Ratio (x) = 0.37302 0.08985
# Poissons Ratio (y) = 0.21274 0.15710
# Poissons Ratio (z) = 0.08552 0.26216
#
# Static dielectric constant tensor:
#      x y z
#    x 4.300890 0.000000 0.000000 
#    y 0.000000 3.518430 0.000000 
#    z 0.000000 0.000000 3.465050 
# 
# 
# High freq. dielectric constant tensor:
#      x y z
#    x 1.696890 0.000000 0.000000 
#    y 0.000000 1.689930 0.000000 
#    z 0.000000 0.000000 1.716500 
# 
# From -- ./inp_files/3572.got.cif
#   From: 2010.03.12/outbox.cif.g09.slc.cpg/sg39_2_cif.got.tgz:3572.got - 2010.04.14 02:53:20.
