data_PCOD8181239
_publ_section_title
;
Structure prediction by ZEFSAII (Michael W. Deem and Ramdas Pophale) SiO2 
 PCOD8181239
Probable space group: A B M 2
;
_chemical_formula_sum "Si O2"
_cell_formula_units_Z 48
_cell_length_a 9.539578
_cell_length_b 17.541825
_cell_length_c 14.723197
_cell_angle_alpha 90.000000
_cell_angle_beta 90.000000
_cell_angle_gamma 90.000000
_cell_volume 2463.803459
_symmetry_space_group_name_H-M "A B M 2"
_symmetry_group_IT_number 39
_symmetry_cell_setting 'orthorhombic'
loop_
_space_group_symop_operation_xyz
x,y,z
-x,-y,z
-x,1/2+y,z
x,1/2-y,z
x,1/2+y,1/2+z
-x,1/2-y,1/2+z
-x,y,1/2+z
x,-y,1/2+z
loop_
_atom_site_type_symbol
_atom_site_label
_atom_site_fract_x
_atom_site_fract_y
_atom_site_fract_z
Si Si1 0.737989 0.664429 0.433610
Si Si2 0.050279 0.166437 0.268551
Si Si3 0.164414 0.010613 0.497746
Si Si4 0.243845 0.442154 0.176525
Si Si5 0.480266 0.586995 0.814074
Si Si6 0.214281 0.426423 0.810483
O O1 0.723631 0.750000 0.477220
O O2 0.845049 0.667868 0.351780
O O3 0.793685 0.600693 0.504654
O O4 0.588942 0.637786 0.392665
O O5 0.021766 0.250000 0.229091
O O6 0.119360 0.119173 0.186897
O O7 0.906467 0.135180 0.308988
O O8 0.256567 0.962681 0.570360
O O9 0.206053 0.979463 0.399368
O O10 0.000000 0.000000 0.517622
O O11 0.390806 0.411956 0.219549
O O12 0.192164 0.518036 0.226173
O O13 0.500000 0.500000 0.847658
O O14 0.637790 0.618402 0.799911
#
# Coordination Sequence:
#
# PCOD8181239 Si02
#       6
#     8   8   8   8   8   8
#     4  10  20  36  60  89 119 153 197 252 314 357
#     4  10  19  36  61  86 121 157 193 256 309 354
#     4  12  20  35  64  93 117 161 206 256 298 370
#     4  10  21  37  57  89 119 158 204 246 299 370
#     4   9  18  37  57  86 117 156 201 245 295 377
#     4  11  19  38  58  90 117 151 216 242 301 366
#
# _framework density 19.482074999999998
#
# number of rings (size 3 to 8) (size 9 to 14) (size 15 to 20)
#    0.000    1.667    6.667    1.500    0.000    0.667 
#    9.000    4.167    0.000    1.000    0.000    0.000 
#    0.000    0.000    0.000    0.000    0.000    0.000 
#
# Total GULP energy -297477.528504 kJ/mol
# GULP energy per Si atom -12394.897021 kJ/mol
# Density = 1.943773 g / cm^3
# Si number density = 19.482075 Si / 1000 Ang^3
#
#
#
# Elastic Constant Matrix: (Units=GPa)
#
#
# Indices 1 2 3 4 5 6 
#
# 1 116.4717 59.0571 10.1327 0.0000 0.0000 0.0000
# 2 59.0571 119.5945 20.0128 0.0000 0.0000 0.0000
# 3 10.1327 20.0128 44.9268 0.0000 0.0000 0.0000
# 4 0.0000 0.0000 0.0000 23.0459 0.0000 0.0000
# 5 0.0000 0.0000 0.0000 0.0000 13.6969 0.0000
# 6 0.0000 0.0000 0.0000 0.0000 0.0000 13.7864
#
#
#
# Elastic Compliance Matrix: (Units=1/GPa)
#
#
# Indices 1 2 3 4 5 6 
#
# 1 0.011454 -0.005644 -0.000069 0.000000 0.000000 0.000000
# 2 -0.005644 0.011817 -0.003991 0.000000 0.000000 0.000000
# 3 -0.000069 -0.003991 0.024052 0.000000 0.000000 0.000000
# 4 0.000000 0.000000 0.000000 0.043392 0.000000 0.000000
# 5 0.000000 0.000000 0.000000 0.000000 0.073009 0.000000
# 6 0.000000 0.000000 0.000000 0.000000 0.000000 0.072535
#
#
# Mechanical properties :
#
#
# Convention : Reuss Voigt Hill
#
# Bulk Modulus (GPa) = 35.82445 51.04425 43.43435
# Shear Modulus (GPa) = 18.86999 22.89188 20.88093
#
# Velocity S-wave (km/s) = 3.11558 3.43158 3.27739
# Velocity P-wave (km/s) = 5.60096 6.47754 6.05513
#
# Compressibility (1/GPa) = 0.02791389
#
# Stress axis : x y z
#
# Youngs Moduli (GPa) = 87.30718 84.62592 41.57712
#
# Poissons Ratio (x) = 0.47767 0.00287
# Poissons Ratio (y) = 0.49280 0.16592
# Poissons Ratio (z) = 0.00602 0.33772
#
# Static dielectric constant tensor:
#      x y z
#    x 3.992670 0.000000 0.000000 
#    y 0.000000 3.888500 0.000000 
#    z 0.000000 0.000000 3.201610 
# 
# 
# High freq. dielectric constant tensor:
#      x y z
#    x 1.771780 0.000000 0.000000 
#    y 0.000000 1.747040 0.000000 
#    z 0.000000 0.000000 1.725270 
# 
# From -- ./inp_files/8340.got.cif
#   From: 2010.03.12/outbox.cif.g09.slc.cpg/sg39_5_cif.got.tgz:8340.got - 2010.04.14 02:53:20.
