data_PCOD8181844
_publ_section_title
;
Structure prediction by ZEFSAII (Michael W. Deem and Ramdas Pophale) SiO2 
 PCOD8181844
Probable space group: A B M 2
;
_chemical_formula_sum "Si O2"
_cell_formula_units_Z 32
_cell_length_a 8.542580
_cell_length_b 26.731267
_cell_length_c 5.319964
_cell_angle_alpha 90.000000
_cell_angle_beta 90.000000
_cell_angle_gamma 90.000000
_cell_volume 1214.834989
_symmetry_space_group_name_H-M "A B M 2"
_symmetry_group_IT_number 39
_symmetry_cell_setting 'orthorhombic'
loop_
_space_group_symop_operation_xyz
x,y,z
-x,-y,z
-x,1/2+y,z
x,1/2-y,z
x,1/2+y,1/2+z
-x,1/2-y,1/2+z
-x,y,1/2+z
x,-y,1/2+z
loop_
_atom_site_type_symbol
_atom_site_label
_atom_site_fract_x
_atom_site_fract_y
_atom_site_fract_z
Si Si1 0.556136 0.675557 0.750000
Si Si2 0.090420 0.809478 0.311974
Si Si3 0.936573 0.055697 0.632858
Si Si4 0.574958 0.065985 0.708533
O O1 0.517084 0.705245 0.489925
O O2 0.740116 0.665230 0.780836
O O3 0.458535 0.624832 0.704767
O O4 0.114834 0.750000 0.304167
O O5 0.019294 0.826685 0.579945
O O6 0.757110 0.054824 0.703769
O O7 0.969353 0.083088 0.363035
O O8 0.000000 0.000000 0.578551
O O9 0.495048 0.041343 0.461934
#
# Coordination Sequence:
#
# PCOD8181844 Si02
#       4
#     8   8   8   8
#     4  10  21  38  58  87 119 156 196 241 293 345
#     4  10  21  38  60  87 119 156 198 243 291 345
#     4  10  21  40  62  88 116 151 193 239 295 351
#     4  10  21  40  60  86 120 153 195 241 293 349
#
# _framework density 26.341024999999998
#
# number of rings (size 3 to 8) (size 9 to 14) (size 15 to 20)
#    0.000    2.000    0.000    3.000    0.000    1.000 
#    0.000   45.000    0.000    0.000    0.000    0.000 
#    0.000    0.000    0.000    0.000    0.000    0.000 
#
# Total GULP energy -198336.313314 kJ/mol
# GULP energy per Si atom -12396.019582 kJ/mol
# Density = 2.628107 g / cm^3
# Si number density = 26.341025 Si / 1000 Ang^3
#
#
#
# Elastic Constant Matrix: (Units=GPa)
#
#
# Indices 1 2 3 4 5 6 
#
# 1 214.2726 -1.5052 85.4189 0.0000 0.0000 -0.0002
# 2 -1.5052 39.2208 -12.2462 0.0000 0.0000 0.0000
# 3 85.4189 -12.2462 311.3328 0.0000 0.0000 0.0000
# 4 0.0000 0.0000 0.0000 -84.8754 0.0000 -0.0001
# 5 0.0000 0.0000 0.0000 0.0000 63.1190 0.0000
# 6 -0.0002 0.0000 0.0000 -0.0001 0.0000 289.8272
#
#
#
# Elastic Compliance Matrix: (Units=1/GPa)
#
#
# Indices 1 2 3 4 5 6 
#
# 1 0.005243 -0.000251 -0.001448 0.000000 0.000000 0.000000
# 2 -0.000251 0.025826 0.001085 0.000000 0.000000 0.000000
# 3 -0.001448 0.001085 0.003652 0.000000 0.000000 0.000000
# 4 0.000000 0.000000 0.000000 -0.011782 0.000000 0.000000
# 5 0.000000 0.000000 0.000000 0.000000 0.015843 0.000000
# 6 0.000000 0.000000 0.000000 0.000000 0.000000 0.003450
#
#
# Mechanical properties :
#
#
# Convention : Reuss Voigt Hill
#
# Bulk Modulus (GPa) = 29.85859 78.68458 54.27158
# Shear Modulus (GPa) = 91.53408 86.49142 89.01275
#
# Velocity S-wave (km/s) = 5.90128 5.73642 5.81943
# Velocity P-wave (km/s) = 7.60220 8.59137 8.11188
#
# Compressibility (1/GPa) = 0.03349120
#
# Stress axis : x y z
#
# Youngs Moduli (GPa) = 190.74789 38.72111 273.82183
#
# Poissons Ratio (x) = 0.00972 0.39656
# Poissons Ratio (y) = 0.04788 -0.29702
# Poissons Ratio (z) = 0.27625 -0.04200
#
# Static dielectric constant tensor:
#      x y z
#    x 4.401260 0.000000 0.000000 
#    y 0.000000 5.021630 0.000000 
#    z 0.000000 0.000000 7.056680 
# 
# 
# High freq. dielectric constant tensor:
#      x y z
#    x 2.049430 0.000000 0.000000 
#    y 0.000000 2.051090 0.000000 
#    z 0.000000 0.000000 2.100830 
# 
# From -- ./inp_files/132.got.cif
#   From: 2010.03.12/outbox.cif.g09.slc.cpg/sg39_1_cif.got.tgz:132.got - 2010.04.14 02:53:20.
