data_PCOD8181065
_publ_section_title
;
Structure prediction by ZEFSAII (Michael W. Deem and Ramdas Pophale) SiO2 
 PCOD8181065
Probable space group: A B M 2
;
_chemical_formula_sum "Si O2"
_cell_formula_units_Z 64
_cell_length_a 19.902475
_cell_length_b 8.907241
_cell_length_c 20.174257
_cell_angle_alpha 90.000000
_cell_angle_beta 90.000000
_cell_angle_gamma 90.000000
_cell_volume 3576.414435
_symmetry_space_group_name_H-M "A B M 2"
_symmetry_group_IT_number 39
_symmetry_cell_setting 'orthorhombic'
loop_
_space_group_symop_operation_xyz
x,y,z
-x,-y,z
-x,1/2+y,z
x,1/2-y,z
x,1/2+y,1/2+z
-x,1/2-y,1/2+z
-x,y,1/2+z
x,-y,1/2+z
loop_
_atom_site_type_symbol
_atom_site_label
_atom_site_fract_x
_atom_site_fract_y
_atom_site_fract_z
Si Si1 0.319691 0.073135 0.227500
Si Si2 0.570840 0.072114 0.832917
Si Si3 0.303295 0.073579 0.082355
Si Si4 0.344747 0.571979 0.442004
Si Si5 0.070840 0.427886 0.659799
Si Si6 0.196705 0.073578 0.910360
Si Si7 0.180308 0.073135 0.765216
Si Si8 0.155254 0.571979 0.550712
O O1 0.310354 0.250000 0.233362
O O2 0.378506 0.016159 0.275447
O O3 0.337828 0.025804 0.151615
O O4 0.250000 0.999996 0.246357
O O5 0.564019 0.250000 0.834752
O O6 0.500000 0.000000 0.815370
O O7 0.596080 0.013627 0.903991
O O8 0.296806 0.250000 0.075043
O O9 0.226532 0.014361 0.079987
O O10 0.347279 0.019300 0.019355
O O11 0.355323 0.750000 0.433527
O O12 0.273468 0.514362 0.412729
O O13 0.064020 0.250000 0.657964
O O14 0.121494 0.483843 0.717269
O O15 0.096081 0.486372 0.588724
O O16 0.000000 0.500000 0.677344
O O17 0.203193 0.250000 0.917670
O O18 0.162173 0.025797 0.841101
O O19 0.152721 0.019301 0.973361
O O20 0.189642 0.250000 0.759356
O O21 0.144679 0.750000 0.559189
#
# Coordination Sequence:
#
# PCOD8181065 Si02
#       8
#     8   8   8   8   8   8   8   8
#     4  10  19  33  54  80 107 137 177 220 264 314
#     4  11  23  36  52  76 107 144 179 218 266 318
#     4   8  15  29  53  81 105 133 168 210 262 313
#     4   9  16  31  55  78 103 137 172 210 259 315
#     4  11  23  36  52  76 107 144 179 218 266 318
#     4   8  15  29  53  81 105 133 168 210 262 313
#     4  10  19  33  54  80 107 137 177 220 264 314
#     4   9  16  31  55  78 103 137 172 210 259 315
#
# _framework density 17.895018
#
# number of rings (size 3 to 8) (size 9 to 14) (size 15 to 20)
#    0.000    2.500    2.500    2.250    0.000    1.000 
#    0.000    5.000    0.000    3.000    0.000    0.000 
#    0.000    0.000    0.000    0.000    0.000    0.000 
#
# Total GULP energy -396646.293533 kJ/mol
# GULP energy per Si atom -12395.196673 kJ/mol
# Density = 1.785429 g / cm^3
# Si number density = 17.895018 Si / 1000 Ang^3
#
#
#
# Elastic Constant Matrix: (Units=GPa)
#
#
# Indices 1 2 3 4 5 6 
#
# 1 122.6412 37.8387 74.5902 0.0000 0.0000 0.0000
# 2 37.8387 42.3349 35.5197 0.0000 0.0000 0.0000
# 3 74.5902 35.5197 152.8718 0.0000 0.0000 0.0000
# 4 0.0000 0.0000 0.0000 21.4028 0.0000 0.0000
# 5 0.0000 0.0000 0.0000 0.0000 29.1619 0.0000
# 6 0.0000 0.0000 0.0000 0.0000 0.0000 24.5585
#
#
#
# Elastic Compliance Matrix: (Units=1/GPa)
#
#
# Indices 1 2 3 4 5 6 
#
# 1 0.013531 -0.008142 -0.004710 0.000000 0.000000 0.000000
# 2 -0.008142 0.034240 -0.003983 0.000000 0.000000 0.000000
# 3 -0.004710 -0.003983 0.009765 0.000000 0.000000 0.000000
# 4 0.000000 0.000000 0.000000 0.046723 0.000000 0.000000
# 5 0.000000 0.000000 0.000000 0.000000 0.034291 0.000000
# 6 0.000000 0.000000 0.000000 0.000000 0.000000 0.040719
#
#
# Mechanical properties :
#
#
# Convention : Reuss Voigt Hill
#
# Bulk Modulus (GPa) = 41.90101 68.19391 55.04746
# Shear Modulus (GPa) = 22.63529 26.35126 24.49327
#
# Velocity S-wave (km/s) = 3.56039 3.84154 3.70364
# Velocity P-wave (km/s) = 6.35355 7.60704 7.00838
#
# Compressibility (1/GPa) = 0.02386577
#
# Stress axis : x y z
#
# Youngs Moduli (GPa) = 73.90688 29.20567 102.40488
#
# Poissons Ratio (x) = 0.23778 0.48235
# Poissons Ratio (y) = 0.60172 0.40790
# Poissons Ratio (z) = 0.34812 0.11633
#
# Static dielectric constant tensor:
#      x y z
#    x 3.114740 0.000000 0.000000 
#    y 0.000000 3.034070 0.000000 
#    z 0.000000 0.000000 6.053200 
# 
# 
# High freq. dielectric constant tensor:
#      x y z
#    x 1.665890 0.000000 0.000000 
#    y 0.000000 1.667370 0.000000 
#    z 0.000000 0.000000 1.712320 
# 
# From -- ./inp_files/15082.got.cif
#   From: 2010.03.12/outbox.cif.g09.slc.cpg/sg39_8_cif.got.tgz:15082.got - 2010.04.14 02:53:20.
