data_PCOD8181842
_publ_section_title
;
Structure prediction by ZEFSAII (Michael W. Deem and Ramdas Pophale) SiO2 
 PCOD8181842
Probable space group: A B M 2
;
_chemical_formula_sum "Si O2"
_cell_formula_units_Z 64
_cell_length_a 17.230017
_cell_length_b 13.769667
_cell_length_c 12.882936
_cell_angle_alpha 90.000000
_cell_angle_beta 90.000000
_cell_angle_gamma 90.000000
_cell_volume 3056.497134
_symmetry_space_group_name_H-M "A B M 2"
_symmetry_group_IT_number 39
_symmetry_cell_setting 'orthorhombic'
loop_
_space_group_symop_operation_xyz
x,y,z
-x,-y,z
-x,1/2+y,z
x,1/2-y,z
x,1/2+y,1/2+z
-x,1/2-y,1/2+z
-x,y,1/2+z
x,-y,1/2+z
loop_
_atom_site_type_symbol
_atom_site_label
_atom_site_fract_x
_atom_site_fract_y
_atom_site_fract_z
Si Si1 0.364309 0.636267 0.131640
Si Si2 0.879979 0.357344 0.342587
Si Si3 0.464380 0.860753 0.328645
Si Si4 0.134573 0.144072 0.238370
Si Si5 0.979405 0.105733 0.155298
Si Si6 0.749775 0.012868 0.268420
Si Si7 0.387041 0.955064 0.905387
Si Si8 0.035764 0.364481 0.428916
O O1 0.343787 0.750000 0.114116
O O2 0.438310 0.625876 0.208489
O O3 0.292543 0.581337 0.185230
O O4 0.382151 0.584922 0.022285
O O5 0.857369 0.250000 0.383887
O O6 0.802546 0.420835 0.343015
O O7 0.915310 0.345071 0.227106
O O8 0.948968 0.408376 0.409902
O O9 0.449601 0.750000 0.365182
O O10 0.554817 0.887669 0.338264
O O11 0.416452 0.932693 0.404939
O O12 0.174088 0.250000 0.252185
O O13 0.063439 0.158835 0.157101
O O14 0.100049 0.101096 0.346716
O O15 0.198832 0.065420 0.203624
O O16 0.000000 0.000000 0.196947
O O17 0.938915 0.106182 0.043401
O O18 0.694425 0.951846 0.345304
O O19 0.026693 0.250000 0.412821
#
# Coordination Sequence:
#
# PCOD8181842 Si02
#       8
#     8   8   8   8   8   8   8   8
#     4  10  22  42  67  95 126 161 201 245 298 361
#     4  10  21  38  57  79 112 153 197 249 306 361
#     4   9  20  41  67  93 124 160 199 249 296 347
#     4  10  22  39  54  77 116 154 194 252 308 358
#     4  11  20  33  57  81 107 147 201 259 310 364
#     4  11  23  38  56  87 124 163 199 244 300 368
#     4  10  22  38  63  96 128 158 202 247 293 358
#     4   9  20  35  55  80 104 142 202 258 307 363
#
# _framework density 20.939001999999999
#
# number of rings (size 3 to 8) (size 9 to 14) (size 15 to 20)
#    0.000    2.000    1.250    2.625    1.750    7.500 
#    0.000    1.875    0.000    0.750    0.000    0.000 
#    0.000    0.000    0.000    0.000    0.000    0.000 
#
# Total GULP energy -396586.784880 kJ/mol
# GULP energy per Si atom -12393.337027 kJ/mol
# Density = 2.089134 g / cm^3
# Si number density = 20.939002 Si / 1000 Ang^3
#
#
#
# Elastic Constant Matrix: (Units=GPa)
#
#
# Indices 1 2 3 4 5 6 
#
# 1 103.5084 36.3935 25.0605 0.0000 0.0000 0.0000
# 2 36.3935 117.8093 28.2199 0.0000 0.0000 0.0000
# 3 25.0605 28.2199 103.5368 0.0000 0.0000 0.0000
# 4 0.0000 0.0000 0.0000 28.2000 0.0000 0.0000
# 5 0.0000 0.0000 0.0000 0.0000 14.4261 0.0000
# 6 0.0000 0.0000 0.0000 0.0000 0.0000 25.5275
#
#
#
# Elastic Compliance Matrix: (Units=1/GPa)
#
#
# Indices 1 2 3 4 5 6 
#
# 1 0.011172 -0.002999 -0.001887 0.000000 0.000000 0.000000
# 2 -0.002999 0.009886 -0.001969 0.000000 0.000000 0.000000
# 3 -0.001887 -0.001969 0.010652 0.000000 0.000000 0.000000
# 4 0.000000 0.000000 0.000000 0.035461 0.000000 0.000000
# 5 0.000000 0.000000 0.000000 0.000000 0.069319 0.000000
# 6 0.000000 0.000000 0.000000 0.000000 0.000000 0.039173
#
#
# Mechanical properties :
#
#
# Convention : Reuss Voigt Hill
#
# Bulk Modulus (GPa) = 55.55260 56.02248 55.78754
# Shear Modulus (GPa) = 25.59200 29.30944 27.45072
#
# Velocity S-wave (km/s) = 3.49981 3.74539 3.62468
# Velocity P-wave (km/s) = 6.55133 6.74663 6.64970
#
# Compressibility (1/GPa) = 0.01800096
#
# Stress axis : x y z
#
# Youngs Moduli (GPa) = 89.50597 101.14858 93.88227
#
# Poissons Ratio (x) = 0.30339 0.17713
# Poissons Ratio (y) = 0.26847 0.18482
# Poissons Ratio (z) = 0.16887 0.19913
#
# Static dielectric constant tensor:
#      x y z
#    x 3.748430 0.000000 0.000000 
#    y 0.000000 4.030900 0.000000 
#    z 0.000000 0.000000 3.573760 
# 
# 
# High freq. dielectric constant tensor:
#      x y z
#    x 1.803390 0.000000 0.000000 
#    y 0.000000 1.842770 0.000000 
#    z 0.000000 0.000000 1.798200 
# 
# From -- ./inp_files/6890.got.cif
#   From: 2010.03.12/outbox.cif.g09.slc.cpg/sg39_4_cif.got.tgz:6890.got - 2010.04.14 02:53:20.
