data_PCOD8181198
_publ_section_title
;
Structure prediction by ZEFSAII (Michael W. Deem and Ramdas Pophale) SiO2 
 PCOD8181198
Probable space group: A B M 2
;
_chemical_formula_sum "Si O2"
_cell_formula_units_Z 64
_cell_length_a 19.624688
_cell_length_b 8.782654
_cell_length_c 19.851821
_cell_angle_alpha 90.000000
_cell_angle_beta 90.000000
_cell_angle_gamma 90.000000
_cell_volume 3421.597226
_symmetry_space_group_name_H-M "A B M 2"
_symmetry_group_IT_number 39
_symmetry_cell_setting 'orthorhombic'
loop_
_space_group_symop_operation_xyz
x,y,z
-x,-y,z
-x,1/2+y,z
x,1/2-y,z
x,1/2+y,1/2+z
-x,1/2-y,1/2+z
-x,y,1/2+z
x,-y,1/2+z
loop_
_atom_site_type_symbol
_atom_site_label
_atom_site_fract_x
_atom_site_fract_y
_atom_site_fract_z
Si Si1 0.189359 0.428177 0.879700
Si Si2 0.815317 0.072949 0.018137
Si Si3 0.344166 0.426112 0.843178
Si Si4 0.844715 0.429058 0.743630
Si Si5 0.324301 0.426578 0.059291
Si Si6 0.572653 0.571268 0.457854
Si Si7 0.307537 0.575034 0.711468
Si Si8 0.928759 0.572300 0.628110
O O1 0.175342 0.250000 0.887933
O O2 0.269542 0.463586 0.871915
O O3 0.148085 0.490293 0.815783
O O4 0.161901 0.518699 0.944249
O O5 0.794874 0.250000 0.017393
O O6 0.877570 0.039250 0.067355
O O7 0.752103 0.973262 0.042263
O O8 0.362025 0.250000 0.849054
O O9 0.399513 0.517369 0.885818
O O10 0.349203 0.475104 0.765159
O O11 0.853975 0.250000 0.752838
O O12 0.771890 0.471942 0.710878
O O13 0.903507 0.492967 0.696223
O O14 0.333076 0.250000 0.039865
O O15 0.338831 0.455430 0.138099
O O16 0.377176 0.525460 0.017778
O O17 0.500000 0.500000 0.473264
O O18 0.564823 0.750000 0.456310
O O19 0.314701 0.750000 0.733128
O O20 0.937083 0.750000 0.642256
O O21 0.000000 0.500000 0.606339
#
# Coordination Sequence:
#
# PCOD8181198 Si02
#       8
#     8   8   8   8   8   8   8   8
#     4  10  20  34  57  87 119 151 191 243 292 344
#     4  11  22  36  58  88 119 154 198 248 297 352
#     4  10  20  35  57  86 118 151 192 240 290 346
#     4  10  19  35  58  85 117 152 193 241 293 347
#     4  11  21  37  60  89 121 154 196 243 296 352
#     4  12  25  41  61  85 119 159 200 244 297 357
#     4   9  19  34  57  87 118 151 190 240 291 343
#     4  11  24  40  59  85 119 158 201 244 299 360
#
# _framework density 18.704715
#
# number of rings (size 3 to 8) (size 9 to 14) (size 15 to 20)
#    0.000    1.500    2.500    3.375    0.000    4.000 
#    0.000    1.250    0.000    4.500    0.000    0.000 
#    0.000    0.000    0.000    0.000    0.000    0.000 
#
# Total GULP energy -396986.244183 kJ/mol
# GULP energy per Si atom -12405.820131 kJ/mol
# Density = 1.866214 g / cm^3
# Si number density = 18.704715 Si / 1000 Ang^3
#
#
#
# Elastic Constant Matrix: (Units=GPa)
#
#
# Indices 1 2 3 4 5 6 
#
# 1 82.1755 37.7583 36.9213 0.0000 0.0000 0.0000
# 2 37.7583 95.6819 48.9359 0.0000 0.0000 0.0000
# 3 36.9213 48.9359 111.9341 0.0000 0.0000 0.0000
# 4 0.0000 0.0000 0.0000 34.9686 0.0000 0.0000
# 5 0.0000 0.0000 0.0000 0.0000 23.8976 0.0000
# 6 0.0000 0.0000 0.0000 0.0000 0.0000 30.6633
#
#
#
# Elastic Compliance Matrix: (Units=1/GPa)
#
#
# Indices 1 2 3 4 5 6 
#
# 1 0.015697 -0.004568 -0.003181 0.000000 0.000000 0.000000
# 2 -0.004568 0.014790 -0.004959 0.000000 0.000000 0.000000
# 3 -0.003181 -0.004959 0.012151 0.000000 0.000000 0.000000
# 4 0.000000 0.000000 0.000000 0.028597 0.000000 0.000000
# 5 0.000000 0.000000 0.000000 0.000000 0.041845 0.000000
# 6 0.000000 0.000000 0.000000 0.000000 0.000000 0.032612
#
#
# Mechanical properties :
#
#
# Convention : Reuss Voigt Hill
#
# Bulk Modulus (GPa) = 58.06259 59.66916 58.86587
# Shear Modulus (GPa) = 28.27267 28.98432 28.62850
#
# Velocity S-wave (km/s) = 3.89205 3.94073 3.91647
# Velocity P-wave (km/s) = 7.16286 7.25780 7.21048
#
# Compressibility (1/GPa) = 0.01722279
#
# Stress axis : x y z
#
# Youngs Moduli (GPa) = 63.70677 67.61206 82.29657
#
# Poissons Ratio (x) = 0.30883 0.26176
# Poissons Ratio (y) = 0.29099 0.40815
# Poissons Ratio (z) = 0.20263 0.33532
#
# Static dielectric constant tensor:
#      x y z
#    x 3.305650 0.000000 0.000000 
#    y 0.000000 3.537980 0.000000 
#    z 0.000000 0.000000 3.608740 
# 
# 
# High freq. dielectric constant tensor:
#      x y z
#    x 1.698040 0.000000 0.000000 
#    y 0.000000 1.742170 0.000000 
#    z 0.000000 0.000000 1.740330 
# 
# From -- ./inp_files/13130.got.cif
#   From: 2010.03.12/outbox.cif.g09.slc.cpg/sg39_7_cif.got.tgz:13130.got - 2010.04.14 02:53:20.
