data_PCOD8181649
_publ_section_title
;
Structure prediction by ZEFSAII (Michael W. Deem and Ramdas Pophale) SiO2 
 PCOD8181649
Probable space group: A B M 2
;
_chemical_formula_sum "Si O2"
_cell_formula_units_Z 48
_cell_length_a 9.322895
_cell_length_b 15.645279
_cell_length_c 15.557198
_cell_angle_alpha 90.000000
_cell_angle_beta 90.000000
_cell_angle_gamma 90.000000
_cell_volume 2269.161907
_symmetry_space_group_name_H-M "A B M 2"
_symmetry_group_IT_number 39
_symmetry_cell_setting 'orthorhombic'
loop_
_space_group_symop_operation_xyz
x,y,z
-x,-y,z
-x,1/2+y,z
x,1/2-y,z
x,1/2+y,1/2+z
-x,1/2-y,1/2+z
-x,y,1/2+z
x,-y,1/2+z
loop_
_atom_site_type_symbol
_atom_site_label
_atom_site_fract_x
_atom_site_fract_y
_atom_site_fract_z
Si Si1 0.831202 0.015271 0.857920
Si Si2 0.224969 0.655318 0.998043
Si Si3 0.713939 0.936288 0.177344
Si Si4 0.203407 0.843087 0.288550
Si Si5 0.988805 0.152538 0.640274
Si Si6 0.589399 0.379840 0.147730
O O1 0.771974 0.075949 0.932936
O O2 0.770450 0.062460 0.774365
O O3 0.767197 0.917546 0.859180
O O4 0.000000 0.000000 0.862321
O O5 0.209771 0.750000 0.953816
O O6 0.370683 0.659135 0.054777
O O7 0.091543 0.638367 0.060155
O O8 0.849687 0.905484 0.121556
O O9 0.580188 0.872351 0.164568
O O10 0.657285 0.026148 0.145190
O O11 0.173581 0.750000 0.332363
O O12 0.338820 0.828911 0.226139
O O13 0.068728 0.873630 0.229280
O O14 0.938836 0.250000 0.648498
#
# Coordination Sequence:
#
# PCOD8181649 Si02
#       6
#     8   8   8   8   8   8
#     4  11  22  36  63  96 126 167 199 266 330 366
#     4  10  23  40  60  91 128 166 204 251 319 383
#     4  10  20  37  61  95 115 156 220 252 304 381
#     4   9  18  36  61  91 120 159 210 253 304 370
#     4   9  18  34  60  88 117 152 206 260 299 367
#     4   9  20  37  62  86 121 165 205 254 303 372
#
# _framework density 21.153182999999999
#
# number of rings (size 3 to 8) (size 9 to 14) (size 15 to 20)
#    0.000    2.333    1.667    1.500    2.333    2.667 
#    0.000    6.667    0.000    0.000    0.000    0.000 
#    0.000    0.000    0.000    0.000    0.000    0.000 
#
# Total GULP energy -297331.233657 kJ/mol
# GULP energy per Si atom -12388.801402 kJ/mol
# Density = 2.110504 g / cm^3
# Si number density = 21.153183 Si / 1000 Ang^3
#
#
#
# Elastic Constant Matrix: (Units=GPa)
#
#
# Indices 1 2 3 4 5 6 
#
# 1 118.0088 26.3071 17.8691 0.0000 0.0000 0.0000
# 2 26.3071 125.8888 56.9536 0.0000 0.0000 0.0000
# 3 17.8691 56.9536 74.7687 0.0000 0.0000 0.0000
# 4 0.0000 0.0000 0.0000 -5.0171 0.0000 0.0000
# 5 0.0000 0.0000 0.0000 0.0000 16.0294 0.0000
# 6 0.0000 0.0000 0.0000 0.0000 0.0000 23.5059
#
#
#
# Elastic Compliance Matrix: (Units=1/GPa)
#
#
# Indices 1 2 3 4 5 6 
#
# 1 0.008946 -0.001377 -0.001089 0.000000 0.000000 0.000000
# 2 -0.001377 0.012332 -0.009065 0.000000 0.000000 0.000000
# 3 -0.001089 -0.009065 0.020540 0.000000 0.000000 0.000000
# 4 0.000000 0.000000 0.000000 -0.199320 0.000000 0.000000
# 5 0.000000 0.000000 0.000000 0.000000 0.062385 0.000000
# 6 0.000000 0.000000 0.000000 0.000000 0.000000 0.042543
#
#
# Mechanical properties :
#
#
# Convention : Reuss Voigt Hill
#
# Bulk Modulus (GPa) = 53.31539 57.88064 55.59802
# Shear Modulus (GPa) = -214.95701 21.40607 -96.77547
#
# Velocity S-wave (km/s) = -10.09157 3.18458 -6.77120
# Velocity P-wave (km/s) = 10.51320 6.39875 5.89844
#
# Compressibility (1/GPa) = 0.01875631
#
# Stress axis : x y z
#
# Youngs Moduli (GPa) = 111.78463 81.08847 48.68575
#
# Poissons Ratio (x) = 0.11162 0.05304
# Poissons Ratio (y) = 0.15388 0.44133
# Poissons Ratio (z) = 0.12178 0.73505
#
# Static dielectric constant tensor:
#      x y z
#    x 3.990830 0.000000 0.000000 
#    y 0.000000 4.203520 0.000000 
#    z 0.000000 0.000000 3.453180 
# 
# 
# High freq. dielectric constant tensor:
#      x y z
#    x 1.819080 0.000000 0.000000 
#    y 0.000000 1.847930 0.000000 
#    z 0.000000 0.000000 1.787590 
# 
# From -- ./inp_files/8352.got.cif
#   From: 2010.03.12/outbox.cif.g09.slc.cpg/sg39_5_cif.got.tgz:8352.got - 2010.04.14 02:53:20.
