data_PCOD8181966
_publ_section_title
;
Structure prediction by ZEFSAII (Michael W. Deem and Ramdas Pophale) SiO2 
 PCOD8181966
Probable space group: A B M 2
;
_chemical_formula_sum "Si O2"
_cell_formula_units_Z 48
_cell_length_a 8.461011
_cell_length_b 10.063240
_cell_length_c 27.947984
_cell_angle_alpha 90.000000
_cell_angle_beta 90.000000
_cell_angle_gamma 90.000000
_cell_volume 2379.636249
_symmetry_space_group_name_H-M "A B M 2"
_symmetry_group_IT_number 39
_symmetry_cell_setting 'orthorhombic'
loop_
_space_group_symop_operation_xyz
x,y,z
-x,-y,z
-x,1/2+y,z
x,1/2-y,z
x,1/2+y,1/2+z
-x,1/2-y,1/2+z
-x,y,1/2+z
x,-y,1/2+z
loop_
_atom_site_type_symbol
_atom_site_label
_atom_site_fract_x
_atom_site_fract_y
_atom_site_fract_z
Si Si1 0.357485 0.600131 0.458480
Si Si2 0.321069 0.750000 0.201007
Si Si3 0.688192 0.250000 0.722739
Si Si4 0.813827 0.250000 0.097814
Si Si5 0.818525 0.250000 0.619084
Si Si6 0.311467 0.984767 0.557546
Si Si7 0.184664 0.984523 0.261916
Si Si8 0.353162 0.098512 0.853543
O O1 0.500000 0.500000 0.458729
O O2 0.422021 0.750000 0.464179
O O3 0.251409 0.565895 0.505042
O O4 0.273457 0.583759 0.406568
O O5 0.506202 0.750000 0.209469
O O6 0.294842 0.750000 0.144522
O O7 0.244943 0.618626 0.222718
O O8 0.795864 0.250000 0.675760
O O9 0.725804 0.377427 0.754769
O O10 0.774971 0.377195 0.065997
O O11 0.996253 0.250000 0.110590
O O12 0.738596 0.118993 0.597871
O O13 0.500000 0.000000 0.559164
O O14 0.217802 0.933119 0.315350
O O15 0.000000 0.000000 0.254596
O O16 0.413726 0.250000 0.845934
O O17 0.500000 0.000000 0.846354
#
# Coordination Sequence:
#
# PCOD8181966 Si02
#       8
#     8   4   4   4   4   8   8   8
#     4   9  19  36  64  95 126 162 212 267 309 359
#     4  12  24  46  65  92 121 166 217 258 304 374
#     4  12  26  42  69  90 123 164 217 258 306 374
#     4  12  26  40  63  92 131 166 205 256 322 376
#     4  12  24  44  61  92 129 168 201 260 320 376
#     4  11  22  40  65  94 123 164 215 259 307 368
#     4  12  25  42  63  95 130 165 202 259 323 374
#     4  10  21  40  66  96 127 166 213 260 309 374
#
# _framework density 20.171149
#
# number of rings (size 3 to 8) (size 9 to 14) (size 15 to 20)
#    0.000    1.000    1.667    6.000    4.667    0.000 
#    0.000    1.667    0.000    0.000    0.000    0.000 
#    0.000    0.000    0.000    0.000    0.000    0.000 
#
# Total GULP energy -297607.111909 kJ/mol
# GULP energy per Si atom -12400.296330 kJ/mol
# Density = 2.012524 g / cm^3
# Si number density = 20.171149 Si / 1000 Ang^3
#
#
#
# Elastic Constant Matrix: (Units=GPa)
#
#
# Indices 1 2 3 4 5 6 
#
# 1 115.4101 34.3917 23.3131 0.0000 0.0000 0.0000
# 2 34.3917 164.6021 52.7735 0.0000 0.0000 0.0000
# 3 23.3131 52.7735 129.6987 0.0000 0.0000 0.0000
# 4 0.0000 0.0000 0.0000 38.5896 0.0000 0.0000
# 5 0.0000 0.0000 0.0000 0.0000 25.8814 0.0000
# 6 0.0000 0.0000 0.0000 0.0000 0.0000 69.9049
#
#
#
# Elastic Compliance Matrix: (Units=1/GPa)
#
#
# Indices 1 2 3 4 5 6 
#
# 1 0.009356 -0.001628 -0.001019 0.000000 0.000000 0.000000
# 2 -0.001628 0.007270 -0.002665 0.000000 0.000000 0.000000
# 3 -0.001019 -0.002665 0.008978 0.000000 0.000000 0.000000
# 4 0.000000 0.000000 0.000000 0.025914 0.000000 0.000000
# 5 0.000000 0.000000 0.000000 0.000000 0.038638 0.000000
# 6 0.000000 0.000000 0.000000 0.000000 0.000000 0.014305
#
#
# Mechanical properties :
#
#
# Convention : Reuss Voigt Hill
#
# Bulk Modulus (GPa) = 66.76349 70.07418 68.41883
# Shear Modulus (GPa) = 41.63939 46.82402 44.23170
#
# Velocity S-wave (km/s) = 4.54839 4.82325 4.68784
# Velocity P-wave (km/s) = 7.79450 8.11379 7.95574
#
# Compressibility (1/GPa) = 0.01497825
#
# Stress axis : x y z
#
# Youngs Moduli (GPa) = 106.88580 137.55173 111.38389
#
# Poissons Ratio (x) = 0.22393 0.11353
# Poissons Ratio (y) = 0.17401 0.29689
# Poissons Ratio (z) = 0.10895 0.36664
#
# Static dielectric constant tensor:
#      x y z
#    x 3.403660 0.000000 0.000000 
#    y 0.000000 3.976790 0.000000 
#    z 0.000000 0.000000 4.480270 
# 
# 
# High freq. dielectric constant tensor:
#      x y z
#    x 1.758080 0.000000 0.000000 
#    y 0.000000 1.813790 0.000000 
#    z 0.000000 0.000000 1.811940 
# 
# From -- ./inp_files/17715.got.cif
#   From: 2010.03.12/outbox.cif.g09.slc.cpg/sg39_9_cif.got.tgz:17715.got - 2010.04.14 02:53:20.
