data_PCOD8181863
_publ_section_title
;
Structure prediction by ZEFSAII (Michael W. Deem and Ramdas Pophale) SiO2 
 PCOD8181863
Probable space group: A B M 2
;
_chemical_formula_sum "Si O2"
_cell_formula_units_Z 64
_cell_length_a 11.967082
_cell_length_b 15.053507
_cell_length_c 17.392271
_cell_angle_alpha 90.000000
_cell_angle_beta 90.000000
_cell_angle_gamma 90.000000
_cell_volume 3133.157664
_symmetry_space_group_name_H-M "A B M 2"
_symmetry_group_IT_number 39
_symmetry_cell_setting 'orthorhombic'
loop_
_space_group_symop_operation_xyz
x,y,z
-x,-y,z
-x,1/2+y,z
x,1/2-y,z
x,1/2+y,1/2+z
-x,1/2-y,1/2+z
-x,y,1/2+z
x,-y,1/2+z
loop_
_atom_site_type_symbol
_atom_site_label
_atom_site_fract_x
_atom_site_fract_y
_atom_site_fract_z
Si Si1 0.628166 0.992986 0.515420
Si Si2 0.229345 0.349505 0.427482
Si Si3 0.772564 0.849405 0.956565
Si Si4 0.778032 0.353552 0.749312
Si Si5 0.372399 0.507322 0.193538
Si Si6 0.774645 0.353530 0.278944
Si Si7 0.013907 0.853555 0.179321
Si Si8 0.009248 0.400431 0.509847
O O1 0.684965 0.915314 0.467437
O O2 0.639105 0.967805 0.604354
O O3 0.500000 0.000000 0.489242
O O4 0.688112 0.086420 0.500443
O O5 0.277161 0.250000 0.436210
O O6 0.218557 0.376094 0.338974
O O7 0.107085 0.351268 0.464708
O O8 0.723897 0.750000 0.963778
O O9 0.784870 0.878017 0.868224
O O10 0.893431 0.849906 0.996440
O O11 0.752198 0.250000 0.733508
O O12 0.683758 0.412236 0.708986
O O13 0.896170 0.382994 0.714315
O O14 0.500000 0.500000 0.219101
O O15 0.322332 0.587697 0.242494
O O16 0.745830 0.250000 0.266163
O O17 0.891664 0.379935 0.240351
O O18 0.015860 0.750000 0.160970
O O19 0.038062 0.904356 0.100183
O O20 0.000000 0.500000 0.477980
#
# Coordination Sequence:
#
# PCOD8181863 Si02
#       8
#     8   8   8   8   8   8   8   8
#     4  11  25  44  63  92 123 159 211 255 304 365
#     4  11  23  42  65  92 126 163 203 252 306 365
#     4  11  23  42  65  92 126 163 203 252 306 365
#     4  10  23  41  64  92 123 160 203 250 304 361
#     4  11  25  42  63  88 121 161 205 255 302 359
#     4  10  23  41  64  92 123 160 203 250 304 361
#     4  10  21  38  60  91 126 161 201 247 299 365
#     4  12  23  36  60  96 129 162 201 248 304 367
#
# _framework density 20.426677000000002
#
# number of rings (size 3 to 8) (size 9 to 14) (size 15 to 20)
#    0.000    1.250    1.250    4.125    1.750    8.000 
#    0.000    5.000    0.000    0.000    0.000    0.000 
#    0.000    0.000    0.000    0.000    0.000    0.000 
#
# Total GULP energy -397008.157119 kJ/mol
# GULP energy per Si atom -12406.504910 kJ/mol
# Density = 2.038019 g / cm^3
# Si number density = 20.426677 Si / 1000 Ang^3
#
#
#
# Elastic Constant Matrix: (Units=GPa)
#
#
# Indices 1 2 3 4 5 6 
#
# 1 129.3571 29.4021 19.8681 0.0000 0.0000 0.0000
# 2 29.4021 75.7948 7.0007 0.0000 0.0000 0.0000
# 3 19.8681 7.0007 64.0345 0.0000 0.0000 0.0000
# 4 0.0000 0.0000 0.0000 34.3164 0.0000 0.0000
# 5 0.0000 0.0000 0.0000 0.0000 -11.2265 0.0000
# 6 0.0000 0.0000 0.0000 0.0000 0.0000 19.7432
#
#
#
# Elastic Compliance Matrix: (Units=1/GPa)
#
#
# Indices 1 2 3 4 5 6 
#
# 1 0.008825 -0.003203 -0.002388 0.000000 0.000000 0.000000
# 2 -0.003203 0.014491 -0.000590 0.000000 0.000000 0.000000
# 3 -0.002388 -0.000590 0.016422 0.000000 0.000000 0.000000
# 4 0.000000 0.000000 0.000000 0.029141 0.000000 0.000000
# 5 0.000000 0.000000 0.000000 0.000000 -0.089075 0.000000
# 6 0.000000 0.000000 0.000000 0.000000 0.000000 0.050650
#
#
# Mechanical properties :
#
#
# Convention : Reuss Voigt Hill
#
# Bulk Modulus (GPa) = 36.52960 42.41425 39.47193
# Shear Modulus (GPa) = 96.26184 22.76099 59.51142
#
# Velocity S-wave (km/s) = 6.87225 3.34170 5.40346
# Velocity P-wave (km/s) = 8.99403 5.97482 7.63515
#
# Compressibility (1/GPa) = 0.02737506
#
# Stress axis : x y z
#
# Youngs Moduli (GPa) = 113.31017 69.01064 60.89356
#
# Poissons Ratio (x) = 0.22104 0.14542
# Poissons Ratio (y) = 0.36292 0.03595
# Poissons Ratio (z) = 0.27059 0.04075
#
# Static dielectric constant tensor:
#      x y z
#    x 3.665760 0.000000 0.000000 
#    y 0.000000 3.732130 0.000000 
#    z 0.000000 0.000000 3.810750 
# 
# 
# High freq. dielectric constant tensor:
#      x y z
#    x 1.792660 0.000000 0.000000 
#    y 0.000000 1.810720 0.000000 
#    z 0.000000 0.000000 1.813640 
# 
# From -- ./inp_files/12344.got.cif
#   From: 2010.03.12/outbox.cif.g09.slc.cpg/sg39_7_cif.got.tgz:12344.got - 2010.04.14 02:53:20.
