data_PCOD8181238
_publ_section_title
;
Structure prediction by ZEFSAII (Michael W. Deem and Ramdas Pophale) SiO2 
 PCOD8181238
Probable space group: A B M 2
;
_chemical_formula_sum "Si O2"
_cell_formula_units_Z 48
_cell_length_a 13.982184
_cell_length_b 8.709020
_cell_length_c 19.751164
_cell_angle_alpha 90.000000
_cell_angle_beta 90.000000
_cell_angle_gamma 90.000000
_cell_volume 2405.121364
_symmetry_space_group_name_H-M "A B M 2"
_symmetry_group_IT_number 39
_symmetry_cell_setting 'orthorhombic'
loop_
_space_group_symop_operation_xyz
x,y,z
-x,-y,z
-x,1/2+y,z
x,1/2-y,z
x,1/2+y,1/2+z
-x,1/2-y,1/2+z
-x,y,1/2+z
x,-y,1/2+z
loop_
_atom_site_type_symbol
_atom_site_label
_atom_site_fract_x
_atom_site_fract_y
_atom_site_fract_z
Si Si1 0.597771 0.931211 0.100630
Si Si2 0.209225 0.068657 0.786119
Si Si3 0.598756 0.431865 0.755723
Si Si4 0.101815 0.569372 0.909890
Si Si5 0.789780 0.072721 0.529951
Si Si6 0.897536 0.427832 0.666039
O O1 0.591446 0.750000 0.098728
O O2 0.611512 0.986124 0.177939
O O3 0.687051 0.988223 0.055917
O O4 0.500000 0.000000 0.069970
O O5 0.209884 0.250000 0.792927
O O6 0.315334 0.003182 0.799883
O O7 0.133828 0.999715 0.838610
O O8 0.178905 0.017228 0.711275
O O9 0.500000 0.500000 0.784874
O O10 0.599488 0.250000 0.763479
O O11 0.091540 0.750000 0.902867
O O12 0.000000 0.500000 0.931281
O O13 0.180171 0.529300 0.966469
O O14 0.783420 0.250000 0.507396
O O15 0.868399 0.052063 0.588312
O O16 0.897727 0.250000 0.687486
O O17 0.000000 0.500000 0.678560
#
# Coordination Sequence:
#
# PCOD8181238 Si02
#       6
#     8   8   8   8   8   8
#     4   9  18  34  58  89 124 159 195 242 296 353
#     4  12  24  40  62  89 120 160 205 252 303 360
#     4  10  19  36  60  92 126 161 199 247 304 359
#     4  12  26  44  64  87 119 161 205 252 307 370
#     4  10  21  40  62  88 122 159 200 248 301 359
#     4  11  22  38  59  87 121 154 197 253 305 359
#
# _framework density 19.957412999999999
#
# number of rings (size 3 to 8) (size 9 to 14) (size 15 to 20)
#    0.000    1.333    1.667    5.000    0.000    4.000 
#    0.000    0.833    0.000    2.000    0.000    0.000 
#    0.000    0.000    0.000    0.000    0.000    0.000 
#
# Total GULP energy -297732.626494 kJ/mol
# GULP energy per Si atom -12405.526104 kJ/mol
# Density = 1.991199 g / cm^3
# Si number density = 19.957413 Si / 1000 Ang^3
#
#
#
# Elastic Constant Matrix: (Units=GPa)
#
#
# Indices 1 2 3 4 5 6 
#
# 1 128.7705 42.7288 14.5867 0.0000 0.0000 0.0000
# 2 42.7288 123.6898 27.7843 0.0000 0.0000 0.0000
# 3 14.5867 27.7843 51.0260 0.0000 0.0000 0.0000
# 4 0.0000 0.0000 0.0000 30.8622 0.0000 0.0000
# 5 0.0000 0.0000 0.0000 0.0000 31.9703 0.0000
# 6 0.0000 0.0000 0.0000 0.0000 0.0000 38.8041
#
#
#
# Elastic Compliance Matrix: (Units=1/GPa)
#
#
# Indices 1 2 3 4 5 6 
#
# 1 0.008814 -0.002824 -0.000982 0.000000 0.000000 0.000000
# 2 -0.002824 0.010116 -0.004701 0.000000 0.000000 0.000000
# 3 -0.000982 -0.004701 0.022438 0.000000 0.000000 0.000000
# 4 0.000000 0.000000 0.000000 0.032402 0.000000 0.000000
# 5 0.000000 0.000000 0.000000 0.000000 0.031279 0.000000
# 6 0.000000 0.000000 0.000000 0.000000 0.000000 0.025770
#
#
# Mechanical properties :
#
#
# Convention : Reuss Voigt Hill
#
# Bulk Modulus (GPa) = 41.06032 52.63175 46.84604
# Shear Modulus (GPa) = 32.06090 34.88642 33.47366
#
# Velocity S-wave (km/s) = 4.01242 4.18550 4.09987
# Velocity P-wave (km/s) = 6.48727 7.05600 6.77760
#
# Compressibility (1/GPa) = 0.02435441
#
# Stress axis : x y z
#
# Youngs Moduli (GPa) = 113.45417 98.84930 44.56654
#
# Poissons Ratio (x) = 0.27918 0.04376
# Poissons Ratio (y) = 0.32043 0.20951
# Poissons Ratio (z) = 0.11139 0.46470
#
# Static dielectric constant tensor:
#      x y z
#    x 3.834130 0.000000 0.000000 
#    y 0.000000 3.590820 0.000000 
#    z 0.000000 0.000000 3.413840 
# 
# 
# High freq. dielectric constant tensor:
#      x y z
#    x 1.796700 0.000000 0.000000 
#    y 0.000000 1.783150 0.000000 
#    z 0.000000 0.000000 1.756360 
# 
# From -- ./inp_files/12640.got.cif
#   From: 2010.03.12/outbox.cif.g09.slc.cpg/sg39_7_cif.got.tgz:12640.got - 2010.04.14 02:53:20.
