data_PCOD8181823
_publ_section_title
;
Structure prediction by ZEFSAII (Michael W. Deem and Ramdas Pophale) SiO2 
 PCOD8181823
Probable space group: A B M 2
;
_chemical_formula_sum "Si O2"
_cell_formula_units_Z 48
_cell_length_a 4.967322
_cell_length_b 17.100301
_cell_length_c 25.690338
_cell_angle_alpha 90.000000
_cell_angle_beta 90.000000
_cell_angle_gamma 90.000000
_cell_volume 2182.206709
_symmetry_space_group_name_H-M "A B M 2"
_symmetry_group_IT_number 39
_symmetry_cell_setting 'orthorhombic'
loop_
_space_group_symop_operation_xyz
x,y,z
-x,-y,z
-x,1/2+y,z
x,1/2-y,z
x,1/2+y,1/2+z
-x,1/2-y,1/2+z
-x,y,1/2+z
x,-y,1/2+z
loop_
_atom_site_type_symbol
_atom_site_label
_atom_site_fract_x
_atom_site_fract_y
_atom_site_fract_z
Si Si1 0.031894 0.092954 0.730710
Si Si2 0.693787 0.337285 0.563352
Si Si3 0.818831 0.837537 0.495056
Si Si4 0.466765 0.091566 0.170211
Si Si5 0.070894 0.158546 0.840507
Si Si6 0.575179 0.090032 0.893814
O O1 0.236736 0.122288 0.684978
O O2 0.150538 0.131949 0.782776
O O3 0.739747 0.124502 0.713826
O O4 0.000000 0.000000 0.737470
O O5 0.793037 0.250000 0.578167
O O6 0.401222 0.333907 0.539294
O O7 0.658831 0.388383 0.614539
O O8 0.910357 0.372919 0.521998
O O9 0.877186 0.750000 0.472693
O O10 0.708396 0.892228 0.449504
O O11 0.500000 0.000000 0.173027
O O12 0.008682 0.250000 0.843263
O O13 0.305287 0.139667 0.882388
O O14 0.799195 0.110570 0.851465
O O15 0.500000 0.000000 0.890128
#
# Coordination Sequence:
#
# PCOD8181823 Si02
#       6
#     8   8   8   8   8   8
#     4  10  21  38  59  86 122 164 208 256 310 369
#     4  10  21  37  60  86 117 157 201 250 306 364
#     4  10  21  39  61  88 121 159 201 252 309 366
#     4  10  21  37  58  86 122 162 203 252 309 367
#     4  12  25  42  66  96 128 168 215 268 324 385
#     4  12  25  43  66  94 128 168 214 266 324 389
#
# _framework density 21.996081
#
# number of rings (size 3 to 8) (size 9 to 14) (size 15 to 20)
#    0.000    1.333    0.000    6.000    0.000    4.667 
#    0.000    1.667    0.000    0.000    0.000    0.000 
#    0.000    0.000    0.000    0.000    0.000    0.000 
#
# Total GULP energy -297507.609959 kJ/mol
# GULP energy per Si atom -12396.150415 kJ/mol
# Density = 2.194602 g / cm^3
# Si number density = 21.996081 Si / 1000 Ang^3
#
#
#
# Elastic Constant Matrix: (Units=GPa)
#
#
# Indices 1 2 3 4 5 6 
#
# 1 122.8656 52.4467 36.7293 0.0000 0.0000 0.0000
# 2 52.4467 65.7802 42.2451 0.0000 0.0000 0.0000
# 3 36.7293 42.2451 107.8444 0.0000 0.0000 0.0000
# 4 0.0000 0.0000 0.0000 25.0948 0.0000 0.0000
# 5 0.0000 0.0000 0.0000 0.0000 49.0383 0.0000
# 6 0.0000 0.0000 0.0000 0.0000 0.0000 31.2580
#
#
#
# Elastic Compliance Matrix: (Units=1/GPa)
#
#
# Indices 1 2 3 4 5 6 
#
# 1 0.012356 -0.009552 -0.000466 0.000000 0.000000 0.000000
# 2 -0.009552 0.027696 -0.007596 0.000000 0.000000 0.000000
# 3 -0.000466 -0.007596 0.012407 0.000000 0.000000 0.000000
# 4 0.000000 0.000000 0.000000 0.039849 0.000000 0.000000
# 5 0.000000 0.000000 0.000000 0.000000 0.020392 0.000000
# 6 0.000000 0.000000 0.000000 0.000000 0.000000 0.031992
#
#
# Mechanical properties :
#
#
# Convention : Reuss Voigt Hill
#
# Bulk Modulus (GPa) = 58.03710 62.14804 60.09257
# Shear Modulus (GPa) = 26.93046 32.08283 29.50665
#
# Velocity S-wave (km/s) = 3.50284 3.82327 3.66655
# Velocity P-wave (km/s) = 6.54235 6.91414 6.73081
#
# Compressibility (1/GPa) = 0.01723036
#
# Stress axis : x y z
#
# Youngs Moduli (GPa) = 80.93470 36.10628 80.59938
#
# Poissons Ratio (x) = 0.34487 0.03760
# Poissons Ratio (y) = 0.77306 0.61224
# Poissons Ratio (z) = 0.03775 0.27427
#
# Static dielectric constant tensor:
#      x y z
#    x 4.501020 0.000000 0.000000 
#    y 0.000000 3.807770 0.000000 
#    z 0.000000 0.000000 3.882190 
# 
# 
# High freq. dielectric constant tensor:
#      x y z
#    x 1.889240 0.000000 0.000000 
#    y 0.000000 1.842840 0.000000 
#    z 0.000000 0.000000 1.869120 
# 
# From -- ./inp_files/16495.got.cif
#   From: 2010.03.12/outbox.cif.g09.slc.cpg/sg39_9_cif.got.tgz:16495.got - 2010.04.14 02:53:20.
