data_PCOD8181234
_publ_section_title
;
Structure prediction by ZEFSAII (Michael W. Deem and Ramdas Pophale) SiO2 
 PCOD8181234
Probable space group: A B M 2
;
_chemical_formula_sum "Si O2"
_cell_formula_units_Z 32
_cell_length_a 5.083104
_cell_length_b 16.931462
_cell_length_c 17.722229
_cell_angle_alpha 90.000000
_cell_angle_beta 90.000000
_cell_angle_gamma 90.000000
_cell_volume 1525.252690
_symmetry_space_group_name_H-M "A B M 2"
_symmetry_group_IT_number 39
_symmetry_cell_setting 'orthorhombic'
loop_
_space_group_symop_operation_xyz
x,y,z
-x,-y,z
-x,1/2+y,z
x,1/2-y,z
x,1/2+y,1/2+z
-x,1/2-y,1/2+z
-x,y,1/2+z
x,-y,1/2+z
loop_
_atom_site_type_symbol
_atom_site_label
_atom_site_fract_x
_atom_site_fract_y
_atom_site_fract_z
Si Si1 0.960228 0.156967 0.153870
Si Si2 0.963471 0.408447 0.316738
Si Si3 0.463543 0.342741 0.393155
Si Si4 0.530159 0.342505 0.561201
O O1 0.948898 0.250000 0.172612
O O2 0.692576 0.123646 0.117107
O O3 0.018605 0.109867 0.229699
O O4 0.186623 0.136751 0.094072
O O5 0.166248 0.359437 0.367879
O O6 0.000000 0.500000 0.332854
O O7 0.666254 0.384663 0.336793
O O8 0.518720 0.250000 0.390235
O O9 0.505266 0.377948 0.477195
O O10 0.478988 0.250000 0.555137
#
# Coordination Sequence:
#
# PCOD8181234 Si02
#       4
#     8   8   8   8
#     4  10  19  36  60  86 114 152 197 244 292 348
#     4  12  25  40  58  90 128 160 195 244 298 354
#     4  11  22  41  66  90 116 157 204 247 294 354
#     4   9  19  35  60  88 112 143 198 253 290 338
#
# _framework density 20.980129000000002
#
# number of rings (size 3 to 8) (size 9 to 14) (size 15 to 20)
#    0.000    1.500    0.000    6.000    0.000    6.000 
#    0.000    7.500    0.000    0.000    0.000    0.000 
#    0.000    0.000    0.000    0.000    0.000    0.000 
#
# Total GULP energy -198495.482608 kJ/mol
# GULP energy per Si atom -12405.967663 kJ/mol
# Density = 2.093238 g / cm^3
# Si number density = 20.980129 Si / 1000 Ang^3
#
#
#
# Elastic Constant Matrix: (Units=GPa)
#
#
# Indices 1 2 3 4 5 6 
#
# 1 84.7717 13.2947 4.6820 0.0000 0.0000 0.0000
# 2 13.2947 62.8752 18.6234 0.0000 0.0000 0.0000
# 3 4.6820 18.6234 112.0280 0.0000 0.0000 0.0000
# 4 0.0000 0.0000 0.0000 -1.1347 0.0000 0.0000
# 5 0.0000 0.0000 0.0000 0.0000 40.6470 0.0000
# 6 0.0000 0.0000 0.0000 0.0000 0.0000 20.7973
#
#
#
# Elastic Compliance Matrix: (Units=1/GPa)
#
#
# Indices 1 2 3 4 5 6 
#
# 1 0.012202 -0.002555 -0.000085 0.000000 0.000000 0.000000
# 2 -0.002555 0.017263 -0.002763 0.000000 0.000000 0.000000
# 3 -0.000085 -0.002763 0.009389 0.000000 0.000000 0.000000
# 4 0.000000 0.000000 0.000000 -0.881325 0.000000 0.000000
# 5 0.000000 0.000000 0.000000 0.000000 0.024602 0.000000
# 6 0.000000 0.000000 0.000000 0.000000 0.000000 0.048083
#
#
# Mechanical properties :
#
#
# Convention : Reuss Voigt Hill
#
# Bulk Modulus (GPa) = 35.65315 36.98613 36.31964
# Shear Modulus (GPa) = -6.66996 26.93358 10.13181
#
# Velocity S-wave (km/s) = -1.78496 3.58686 2.19994
# Velocity P-wave (km/s) = 3.57527 5.90097 4.87873
#
# Compressibility (1/GPa) = 0.02804801
#
# Stress axis : x y z
#
# Youngs Moduli (GPa) = 81.95541 57.92697 106.50501
#
# Poissons Ratio (x) = 0.14799 0.00908
# Poissons Ratio (y) = 0.20938 0.29428
# Poissons Ratio (z) = 0.00699 0.16005
#
# Static dielectric constant tensor:
#      x y z
#    x 3.853830 0.000000 0.000000 
#    y 0.000000 3.457490 0.000000 
#    z 0.000000 0.000000 3.918500 
# 
# 
# High freq. dielectric constant tensor:
#      x y z
#    x 1.837360 0.000000 0.000000 
#    y 0.000000 1.788510 0.000000 
#    z 0.000000 0.000000 1.837750 
# 
# From -- ./inp_files/7233.got.cif
#   From: 2010.03.12/outbox.cif.g09.slc.cpg/sg39_4_cif.got.tgz:7233.got - 2010.04.14 02:53:20.
