data_PCOD8181718
_publ_section_title
;
Structure prediction by ZEFSAII (Michael W. Deem and Ramdas Pophale) SiO2 
 PCOD8181718
Probable space group: A B M 2
;
_chemical_formula_sum "Si O2"
_cell_formula_units_Z 48
_cell_length_a 8.743309
_cell_length_b 10.017559
_cell_length_c 27.144565
_cell_angle_alpha 90.000000
_cell_angle_beta 90.000000
_cell_angle_gamma 90.000000
_cell_volume 2377.500530
_symmetry_space_group_name_H-M "A B M 2"
_symmetry_group_IT_number 39
_symmetry_cell_setting 'orthorhombic'
loop_
_space_group_symop_operation_xyz
x,y,z
-x,-y,z
-x,1/2+y,z
x,1/2-y,z
x,1/2+y,1/2+z
-x,1/2-y,1/2+z
-x,y,1/2+z
x,-y,1/2+z
loop_
_atom_site_type_symbol
_atom_site_label
_atom_site_fract_x
_atom_site_fract_y
_atom_site_fract_z
Si Si1 0.803697 0.250000 0.569860
Si Si2 0.323005 0.480449 0.603450
Si Si3 0.138563 0.098575 0.799901
Si Si4 0.324419 0.018932 0.893617
Si Si5 0.363070 0.750000 0.466164
Si Si6 0.840590 0.750000 0.546102
Si Si7 0.283341 0.750000 0.942783
Si Si8 0.361580 0.097641 0.713076
O O1 0.761966 0.378213 0.602289
O O2 0.701895 0.250000 0.520856
O O3 0.983454 0.250000 0.560840
O O4 0.500000 0.500000 0.588965
O O5 0.244857 0.381741 0.564881
O O6 0.302706 0.420574 0.657668
O O7 0.077889 0.250000 0.798123
O O8 0.249991 0.082018 0.845805
O O9 0.224147 0.061914 0.749477
O O10 0.000000 0.000000 0.806681
O O11 0.301462 0.118095 0.939423
O O12 0.500000 0.000000 0.879861
O O13 0.250805 0.877741 0.908528
O O14 0.547142 0.750000 0.466312
O O15 0.837410 0.750000 0.487026
O O16 0.416893 0.250000 0.720829
O O17 0.500000 0.000000 0.725431
#
# Coordination Sequence:
#
# PCOD8181718 Si02
#       8
#     4   8   8   8   4   4   4   8
#     4  12  26  38  65  96 133 174 211 268 332 380
#     4  11  23  43  67  94 126 173 220 266 318 379
#     4  11  25  43  63  94 132 169 206 257 322 387
#     4  10  21  40  65  93 121 166 215 266 313 370
#     4  10  20  40  61  92 125 170 219 264 316 376
#     4  12  24  42  61  98 135 168 215 270 326 390
#     4  10  22  36  65  92 125 166 219 264 316 384
#     4  10  23  44  70  97 124 161 214 267 311 374
#
# _framework density 20.18927
#
# number of rings (size 3 to 8) (size 9 to 14) (size 15 to 20)
#    0.000    1.333    1.667    3.500    4.667    4.667 
#    0.000    0.000    0.000    0.000    0.000    0.000 
#    0.000    0.000    0.000    0.000    0.000    0.000 
#
# Total GULP energy -297745.954164 kJ/mol
# GULP energy per Si atom -12406.081424 kJ/mol
# Density = 2.014332 g / cm^3
# Si number density = 20.189270 Si / 1000 Ang^3
#
#
#
# Elastic Constant Matrix: (Units=GPa)
#
#
# Indices 1 2 3 4 5 6 
#
# 1 79.5611 23.4640 22.3126 0.0000 0.0000 0.0000
# 2 23.4640 118.0799 11.9531 0.0000 0.0000 0.0000
# 3 22.3126 11.9531 60.8753 0.0000 0.0000 0.0000
# 4 0.0000 0.0000 0.0000 -128.7064 0.0000 0.0000
# 5 0.0000 0.0000 0.0000 0.0000 12.4900 0.0000
# 6 0.0000 0.0000 0.0000 0.0000 0.0000 32.5983
#
#
#
# Elastic Compliance Matrix: (Units=1/GPa)
#
#
# Indices 1 2 3 4 5 6 
#
# 1 0.014655 -0.002416 -0.004897 0.000000 0.000000 0.000000
# 2 -0.002416 0.009039 -0.000889 0.000000 0.000000 0.000000
# 3 -0.004897 -0.000889 0.018397 0.000000 0.000000 0.000000
# 4 0.000000 0.000000 0.000000 -0.007770 0.000000 0.000000
# 5 0.000000 0.000000 0.000000 0.000000 0.080064 0.000000
# 6 0.000000 0.000000 0.000000 0.000000 0.000000 0.030676
#
#
# Mechanical properties :
#
#
# Convention : Reuss Voigt Hill
#
# Bulk Modulus (GPa) = 38.93272 41.55284 40.24278
# Shear Modulus (GPa) = 29.40682 -3.33786 13.03448
#
# Velocity S-wave (km/s) = 3.82063 -1.28720 2.54365
# Velocity P-wave (km/s) = 6.22805 4.29152 5.34817
#
# Compressibility (1/GPa) = 0.02568534
#
# Stress axis : x y z
#
# Youngs Moduli (GPa) = 68.23634 110.63144 54.35815
#
# Poissons Ratio (x) = 0.26733 0.26619
# Poissons Ratio (y) = 0.16489 0.04833
# Poissons Ratio (z) = 0.33415 0.09837
#
# Static dielectric constant tensor:
#      x y z
#    x 3.520340 0.000000 0.000000 
#    y 0.000000 3.999420 0.000000 
#    z 0.000000 0.000000 3.661840 
# 
# 
# High freq. dielectric constant tensor:
#      x y z
#    x 1.777960 0.000000 0.000000 
#    y 0.000000 1.810980 0.000000 
#    z 0.000000 0.000000 1.796160 
# 
# From -- ./inp_files/17682.got.cif
#   From: 2010.03.12/outbox.cif.g09.slc.cpg/sg39_9_cif.got.tgz:17682.got - 2010.04.14 02:53:20.
