data_PCOD8181509
_publ_section_title
;
Structure prediction by ZEFSAII (Michael W. Deem and Ramdas Pophale) SiO2 
 PCOD8181509
Probable space group: A B M 2
;
_chemical_formula_sum "Si O2"
_cell_formula_units_Z 64
_cell_length_a 23.770775
_cell_length_b 8.834040
_cell_length_c 15.238301
_cell_angle_alpha 90.000000
_cell_angle_beta 90.000000
_cell_angle_gamma 90.000000
_cell_volume 3199.920956
_symmetry_space_group_name_H-M "A B M 2"
_symmetry_group_IT_number 39
_symmetry_cell_setting 'orthorhombic'
loop_
_space_group_symop_operation_xyz
x,y,z
-x,-y,z
-x,1/2+y,z
x,1/2-y,z
x,1/2+y,1/2+z
-x,1/2-y,1/2+z
-x,y,1/2+z
x,-y,1/2+z
loop_
_atom_site_type_symbol
_atom_site_label
_atom_site_fract_x
_atom_site_fract_y
_atom_site_fract_z
Si Si1 0.871327 0.427999 0.869080
Si Si2 0.939681 0.928471 0.200555
Si Si3 0.633098 0.072316 0.611465
Si Si4 0.559844 0.428014 0.965609
Si Si5 0.645250 0.926286 0.312028
Si Si6 0.138977 0.071366 0.043882
Si Si7 0.749679 0.423903 0.099693
Si Si8 0.239310 0.576660 0.304602
O O1 0.874760 0.250000 0.885485
O O2 0.913391 0.480733 0.792573
O O3 0.807587 0.471134 0.846810
O O4 0.891804 0.517693 0.955176
O O5 0.945934 0.750000 0.195271
O O6 0.898403 0.987813 0.124481
O O7 0.000000 0.000000 0.186774
O O8 0.630316 0.250000 0.595503
O O9 0.624227 0.030656 0.714055
O O10 0.584158 0.993672 0.556086
O O11 0.692774 0.011879 0.576687
O O12 0.500000 0.500000 0.946145
O O13 0.553610 0.250000 0.976925
O O14 0.597852 0.470441 0.881836
O O15 0.661198 0.750000 0.315883
O O16 0.700100 0.021849 0.338098
O O17 0.146544 0.250000 0.046910
O O18 0.200231 0.995239 0.043598
O O19 0.741398 0.250000 0.072648
O O20 0.765077 0.443047 0.200837
O O21 0.229893 0.750000 0.333560
#
# Coordination Sequence:
#
# PCOD8181509 Si02
#       8
#     8   8   8   8   8   8   8   8
#     4  11  23  40  61  90 124 162 203 250 307 364
#     4  10  24  44  66  88 121 164 207 254 306 361
#     4  10  21  39  62  89 121 160 202 250 303 361
#     4  11  24  42  62  87 120 160 206 253 304 365
#     4   9  21  40  61  86 120 161 201 247 304 361
#     4  11  23  40  61  91 123 160 205 252 305 365
#     4  10  20  36  60  91 125 162 201 249 305 365
#     4  10  20  35  60  92 124 159 202 249 302 364
#
# _framework density 20.000494
#
# number of rings (size 3 to 8) (size 9 to 14) (size 15 to 20)
#    0.000    1.750    1.250    2.250    1.750    5.500 
#    0.000    3.750    0.000    0.000    0.000    0.000 
#    0.000    0.000    0.000    0.000    0.000    0.000 
#
# Total GULP energy -396972.846970 kJ/mol
# GULP energy per Si atom -12405.401468 kJ/mol
# Density = 1.995497 g / cm^3
# Si number density = 20.000494 Si / 1000 Ang^3
#
#
#
# Elastic Constant Matrix: (Units=GPa)
#
#
# Indices 1 2 3 4 5 6 
#
# 1 94.2795 29.9923 26.0902 0.0000 0.0000 0.0000
# 2 29.9923 66.4474 24.2099 0.0000 0.0000 0.0000
# 3 26.0902 24.2099 69.7568 0.0000 0.0000 0.0000
# 4 0.0000 0.0000 0.0000 33.1646 0.0000 0.0000
# 5 0.0000 0.0000 0.0000 0.0000 23.3004 0.0000
# 6 0.0000 0.0000 0.0000 0.0000 0.0000 38.7985
#
#
#
# Elastic Compliance Matrix: (Units=1/GPa)
#
#
# Indices 1 2 3 4 5 6 
#
# 1 0.012992 -0.004686 -0.003233 0.000000 0.000000 0.000000
# 2 -0.004686 0.018918 -0.004813 0.000000 0.000000 0.000000
# 3 -0.003233 -0.004813 0.017215 0.000000 0.000000 0.000000
# 4 0.000000 0.000000 0.000000 0.030153 0.000000 0.000000
# 5 0.000000 0.000000 0.000000 0.000000 0.042918 0.000000
# 6 0.000000 0.000000 0.000000 0.000000 0.000000 0.025774
#
#
# Mechanical properties :
#
#
# Convention : Reuss Voigt Hill
#
# Bulk Modulus (GPa) = 42.26346 43.45208 42.85777
# Shear Modulus (GPa) = 27.57526 29.06545 28.32036
#
# Velocity S-wave (km/s) = 3.71715 3.81627 3.76704
# Velocity P-wave (km/s) = 6.29286 6.41804 6.35576
#
# Compressibility (1/GPa) = 0.02366110
#
# Stress axis : x y z
#
# Youngs Moduli (GPa) = 76.96900 52.85846 58.08857
#
# Poissons Ratio (x) = 0.24772 0.18779
# Poissons Ratio (y) = 0.36071 0.27958
# Poissons Ratio (z) = 0.24883 0.25441
#
# Static dielectric constant tensor:
#      x y z
#    x 3.518130 0.000000 0.000000 
#    y 0.000000 3.646860 0.000000 
#    z 0.000000 0.000000 3.841700 
# 
# 
# High freq. dielectric constant tensor:
#      x y z
#    x 1.773970 0.000000 0.000000 
#    y 0.000000 1.786450 0.000000 
#    z 0.000000 0.000000 1.792210 
# 
# From -- ./inp_files/10602.got.cif
#   From: 2010.03.12/outbox.cif.g09.slc.cpg/sg39_6_cif.got.tgz:10602.got - 2010.04.14 02:53:20.
