data_PCOD8181546
_publ_section_title
;
Structure prediction by ZEFSAII (Michael W. Deem and Ramdas Pophale) SiO2 
 PCOD8181546
Probable space group: A B M 2
;
_chemical_formula_sum "Si O2"
_cell_formula_units_Z 48
_cell_length_a 9.460651
_cell_length_b 8.634175
_cell_length_c 30.475839
_cell_angle_alpha 90.000000
_cell_angle_beta 90.000000
_cell_angle_gamma 90.000000
_cell_volume 2489.416359
_symmetry_space_group_name_H-M "A B M 2"
_symmetry_group_IT_number 39
_symmetry_cell_setting 'orthorhombic'
loop_
_space_group_symop_operation_xyz
x,y,z
-x,-y,z
-x,1/2+y,z
x,1/2-y,z
x,1/2+y,1/2+z
-x,1/2-y,1/2+z
-x,y,1/2+z
x,-y,1/2+z
loop_
_atom_site_type_symbol
_atom_site_label
_atom_site_fract_x
_atom_site_fract_y
_atom_site_fract_z
Si Si1 0.345562 0.568102 0.783130
Si Si2 0.150510 0.566261 0.950766
Si Si3 0.151384 0.933163 0.356929
Si Si4 0.150281 0.931238 0.701520
Si Si5 0.345205 0.567302 0.030202
Si Si6 0.847089 0.933554 0.609335
O O1 0.500000 0.500000 0.777487
O O2 0.350830 0.750000 0.792707
O O3 0.270906 0.483491 0.823290
O O4 0.263067 0.529481 0.738655
O O5 0.139251 0.750000 0.946724
O O6 0.197078 0.496449 0.904294
O O7 0.000000 0.500000 0.965814
O O8 0.264859 0.512399 0.986426
O O9 0.139131 0.750000 0.358697
O O10 0.000000 0.000000 0.342091
O O11 0.131016 0.750000 0.693859
O O12 0.205563 0.007311 0.656580
O O13 0.000000 0.000000 0.716142
O O14 0.500000 0.500000 0.029949
O O15 0.354670 0.750000 0.031642
O O16 0.262304 0.505449 0.072895
O O17 0.856821 0.750000 0.609743
O O18 0.000000 0.000000 0.597608
#
# Coordination Sequence:
#
# PCOD8181546 Si02
#       6
#     8   8   8   8   8   8
#     4  11  24  40  58  83 115 151 189 230 281 337
#     4  10  20  37  59  84 112 144 187 233 278 329
#     4  11  22  38  61  87 114 147 188 233 281 332
#     4  10  21  37  59  85 111 144 186 230 277 329
#     4  10  23  38  55  81 113 149 186 226 274 331
#     4  10  20  36  58  84 111 143 185 230 276 326
#
# _framework density 19.281627
#
# number of rings (size 3 to 8) (size 9 to 14) (size 15 to 20)
#    0.000    1.667    0.000    6.500    0.000    8.000 
#    0.000    5.000    0.000    0.000    0.000    0.000 
#    0.000    0.000    0.000    0.000    0.000    0.000 
#
# Total GULP energy -297700.491758 kJ/mol
# GULP energy per Si atom -12404.187157 kJ/mol
# Density = 1.923774 g / cm^3
# Si number density = 19.281627 Si / 1000 Ang^3
#
#
#
# Elastic Constant Matrix: (Units=GPa)
#
#
# Indices 1 2 3 4 5 6 
#
# 1 150.4703 56.1565 104.4441 0.0000 0.0000 0.0000
# 2 56.1565 109.0826 64.4667 0.0000 0.0000 0.0000
# 3 104.4441 64.4667 145.7523 0.0000 0.0000 0.0000
# 4 0.0000 0.0000 0.0000 27.0559 0.0000 0.0000
# 5 0.0000 0.0000 0.0000 0.0000 15.6253 0.0000
# 6 0.0000 0.0000 0.0000 0.0000 0.0000 35.7234
#
#
#
# Elastic Compliance Matrix: (Units=1/GPa)
#
#
# Indices 1 2 3 4 5 6 
#
# 1 0.013442 -0.001662 -0.008897 0.000000 0.000000 0.000000
# 2 -0.001662 0.012617 -0.004390 0.000000 0.000000 0.000000
# 3 -0.008897 -0.004390 0.015178 0.000000 0.000000 0.000000
# 4 0.000000 0.000000 0.000000 0.036960 0.000000 0.000000
# 5 0.000000 0.000000 0.000000 0.000000 0.063999 0.000000
# 6 0.000000 0.000000 0.000000 0.000000 0.000000 0.027993
#
#
# Mechanical properties :
#
#
# Convention : Reuss Voigt Hill
#
# Bulk Modulus (GPa) = 88.18658 95.04886 91.61772
# Shear Modulus (GPa) = 24.52591 27.69680 26.11136
#
# Velocity S-wave (km/s) = 3.57036 3.79414 3.68395
# Velocity P-wave (km/s) = 7.92666 8.28228 8.10642
#
# Compressibility (1/GPa) = 0.01133959
#
# Stress axis : x y z
#
# Youngs Moduli (GPa) = 74.39571 79.25692 65.88429
#
# Poissons Ratio (x) = 0.13171 0.58618
# Poissons Ratio (y) = 0.12363 0.28922
# Poissons Ratio (z) = 0.66191 0.34792
#
# Static dielectric constant tensor:
#      x y z
#    x 3.347700 0.000000 0.000000 
#    y 0.000000 3.629310 0.000000 
#    z 0.000000 0.000000 3.808070 
# 
# 
# High freq. dielectric constant tensor:
#      x y z
#    x 1.747710 0.000000 0.000000 
#    y 0.000000 1.764010 0.000000 
#    z 0.000000 0.000000 1.766360 
# 
# From -- ./inp_files/17607.got.cif
#   From: 2010.03.12/outbox.cif.g09.slc.cpg/sg39_9_cif.got.tgz:17607.got - 2010.04.14 02:53:20.
