data_PCOD8181442
_publ_section_title
;
Structure prediction by ZEFSAII (Michael W. Deem and Ramdas Pophale) SiO2 
 PCOD8181442
Probable space group: A B M 2
;
_chemical_formula_sum "Si O2"
_cell_formula_units_Z 64
_cell_length_a 14.204779
_cell_length_b 8.808074
_cell_length_c 25.196430
_cell_angle_alpha 90.000000
_cell_angle_beta 90.000000
_cell_angle_gamma 90.000000
_cell_volume 3152.495297
_symmetry_space_group_name_H-M "A B M 2"
_symmetry_group_IT_number 39
_symmetry_cell_setting 'orthorhombic'
loop_
_space_group_symop_operation_xyz
x,y,z
-x,-y,z
-x,1/2+y,z
x,1/2-y,z
x,1/2+y,1/2+z
-x,1/2-y,1/2+z
-x,y,1/2+z
x,-y,1/2+z
loop_
_atom_site_type_symbol
_atom_site_label
_atom_site_fract_x
_atom_site_fract_y
_atom_site_fract_z
Si Si1 0.713980 0.569618 0.148290
Si Si2 0.713610 0.576895 0.448725
Si Si3 0.898685 0.427653 0.297178
Si Si4 0.398196 0.069859 0.552277
Si Si5 0.402612 0.074074 0.860512
Si Si6 0.102370 0.928887 0.178207
Si Si7 0.901265 0.076424 0.899667
Si Si8 0.399635 0.570224 0.239696
O O1 0.714691 0.750000 0.145013
O O2 0.643610 0.502386 0.105091
O O3 0.820357 0.506110 0.139857
O O4 0.679058 0.512383 0.205239
O O5 0.683567 0.750000 0.437822
O O6 0.671927 0.523042 0.504776
O O7 0.676547 0.475323 0.401081
O O8 0.827460 0.559618 0.448484
O O9 0.900735 0.250000 0.307005
O O10 0.860765 0.463134 0.238294
O O11 0.847357 0.504631 0.347621
O O12 0.000000 0.500000 0.302133
O O13 0.406743 0.250000 0.559459
O O14 0.500000 0.000000 0.540201
O O15 0.419384 0.250000 0.865264
O O16 0.373027 0.031923 0.800423
O O17 0.500000 0.000000 0.877534
O O18 0.096210 0.750000 0.167111
O O19 0.000000 0.000000 0.167484
O O20 0.923344 0.250000 0.886803
O O21 0.000000 0.000000 0.915953
O O22 0.500000 0.500000 0.224437
O O23 0.400042 0.750000 0.228400
#
# Coordination Sequence:
#
# PCOD8181442 Si02
#       8
#     8   8   8   8   8   8   8   8
#     4  12  25  40  62  90 119 158 205 251 306 363
#     4  10  23  40  61  88 119 157 202 249 303 360
#     4   9  17  30  51  79 114 156 198 239 287 342
#     4  11  24  45  68  90 119 154 199 255 309 367
#     4  10  21  36  58  86 120 156 193 240 298 363
#     4  10  21  38  59  87 124 162 205 251 300 359
#     4  10  20  35  55  84 120 159 201 246 294 349
#     4  10  21  38  58  86 121 158 196 243 303 367
#
# _framework density 20.301378
#
# number of rings (size 3 to 8) (size 9 to 14) (size 15 to 20)
#    0.000    1.750    0.000    4.875    1.750    6.000 
#    0.000    0.625    0.000    1.500    0.000    0.000 
#    0.000    0.000    0.000    0.000    0.000    0.000 
#
# Total GULP energy -396704.972940 kJ/mol
# GULP energy per Si atom -12397.030404 kJ/mol
# Density = 2.025517 g / cm^3
# Si number density = 20.301378 Si / 1000 Ang^3
#
#
#
# Elastic Constant Matrix: (Units=GPa)
#
#
# Indices 1 2 3 4 5 6 
#
# 1 98.8204 39.6112 38.0734 0.0000 0.0000 0.0000
# 2 39.6112 79.3364 14.6041 0.0000 0.0000 0.0000
# 3 38.0734 14.6041 54.7986 0.0000 0.0000 0.0000
# 4 0.0000 0.0000 0.0000 22.9611 0.0000 0.0000
# 5 0.0000 0.0000 0.0000 0.0000 37.9454 0.0000
# 6 0.0000 0.0000 0.0000 0.0000 0.0000 33.1542
#
#
#
# Elastic Compliance Matrix: (Units=1/GPa)
#
#
# Indices 1 2 3 4 5 6 
#
# 1 0.016431 -0.006417 -0.009706 0.000000 0.000000 0.000000
# 2 -0.006417 0.015761 0.000258 0.000000 0.000000 0.000000
# 3 -0.009706 0.000258 0.024923 0.000000 0.000000 0.000000
# 4 0.000000 0.000000 0.000000 0.043552 0.000000 0.000000
# 5 0.000000 0.000000 0.000000 0.000000 0.026354 0.000000
# 6 0.000000 0.000000 0.000000 0.000000 0.000000 0.030162
#
#
# Mechanical properties :
#
#
# Convention : Reuss Voigt Hill
#
# Bulk Modulus (GPa) = 39.39222 46.39252 42.89237
# Shear Modulus (GPa) = 25.33250 28.18992 26.76121
#
# Velocity S-wave (km/s) = 3.53628 3.73040 3.63464
# Velocity P-wave (km/s) = 6.00996 6.43863 6.22798
#
# Compressibility (1/GPa) = 0.02538572
#
# Stress axis : x y z
#
# Youngs Moduli (GPa) = 60.86020 63.44789 40.12287
#
# Poissons Ratio (x) = 0.40715 0.38943
# Poissons Ratio (y) = 0.39055 -0.01036
# Poissons Ratio (z) = 0.59071 -0.01638
#
# Static dielectric constant tensor:
#      x y z
#    x 3.679070 0.000000 0.000000 
#    y 0.000000 3.789570 0.000000 
#    z 0.000000 0.000000 3.973740 
# 
# 
# High freq. dielectric constant tensor:
#      x y z
#    x 1.799560 0.000000 0.000000 
#    y 0.000000 1.804710 0.000000 
#    z 0.000000 0.000000 1.777130 
# 
# From -- ./inp_files/16245.got.cif
#   From: 2010.03.12/outbox.cif.g09.slc.cpg/sg39_9_cif.got.tgz:16245.got - 2010.04.14 02:53:20.
