data_PCOD8181408
_publ_section_title
;
Structure prediction by ZEFSAII (Michael W. Deem and Ramdas Pophale) SiO2 
 PCOD8181408
Probable space group: A B M 2
;
_chemical_formula_sum "Si O2"
_cell_formula_units_Z 60
_cell_length_a 7.075248
_cell_length_b 19.373529
_cell_length_c 21.937919
_cell_angle_alpha 90.000000
_cell_angle_beta 90.000000
_cell_angle_gamma 90.000000
_cell_volume 3007.085892
_symmetry_space_group_name_H-M "A B M 2"
_symmetry_group_IT_number 39
_symmetry_cell_setting 'orthorhombic'
loop_
_space_group_symop_operation_xyz
x,y,z
-x,-y,z
-x,1/2+y,z
x,1/2-y,z
x,1/2+y,1/2+z
-x,1/2-y,1/2+z
-x,y,1/2+z
x,-y,1/2+z
loop_
_atom_site_type_symbol
_atom_site_label
_atom_site_fract_x
_atom_site_fract_y
_atom_site_fract_z
Si Si1 0.712951 0.170015 0.812970
Si Si2 0.338740 0.444155 0.222830
Si Si3 0.065331 0.613446 0.382911
Si Si4 0.537913 0.169632 0.420591
Si Si5 0.023965 0.078490 0.016307
Si Si6 0.324622 0.332532 0.541472
Si Si7 0.396382 0.929803 0.584677
Si Si8 0.000000 0.500000 0.296014
O O1 0.687280 0.250000 0.798346
O O2 0.637872 0.131879 0.751901
O O3 0.573294 0.139001 0.863546
O O4 0.922911 0.159025 0.841481
O O5 0.500000 0.500000 0.239806
O O6 0.306007 0.441553 0.150795
O O7 0.141573 0.462750 0.252236
O O8 0.242015 0.655827 0.409194
O O9 0.974497 0.583564 0.444712
O O10 0.123216 0.550378 0.339371
O O11 0.502677 0.250000 0.424332
O O12 0.439027 0.140550 0.481576
O O13 0.237960 0.096353 0.036437
O O14 0.882417 0.133482 0.047448
O O15 0.000000 0.000000 0.039443
O O16 0.307885 0.250000 0.548383
O O17 0.451661 0.367677 0.594104
O O18 0.500000 0.000000 0.561408
#
# Coordination Sequence:
#
# PCOD8181408 Si02
#       8
#     8   8   8   8   8   8   8   4
#     4  10  21  38  59  87 124 163 204 255 314 376
#     4  10  23  41  63  87 119 166 214 260 313 371
#     4  11  20  34  58  90 124 155 199 253 314 376
#     4  10  20  34  56  85 120 159 196 246 311 374
#     4  12  23  38  63  94 128 163 208 262 321 383
#     4  11  24  40  60  94 131 164 210 265 323 384
#     4  11  24  42  66  89 122 171 219 266 318 382
#     4  10  22  36  56  92 120 156 202 266 312 368
#
# _framework density 19.952871999999999
#
# number of rings (size 3 to 8) (size 9 to 14) (size 15 to 20)
#    0.000    1.333    4.667    1.200    0.933    1.600 
#    0.000    1.333    0.000    0.000    0.000    0.000 
#    0.000    0.000    0.000    0.000    0.000    0.000 
#
# Total GULP energy -371656.376321 kJ/mol
# GULP energy per Si atom -12388.545877 kJ/mol
# Density = 1.990746 g / cm^3
# Si number density = 19.952872 Si / 1000 Ang^3
#
#
#
# Elastic Constant Matrix: (Units=GPa)
#
#
# Indices 1 2 3 4 5 6 
#
# 1 95.2538 34.0147 17.9602 0.0000 0.0000 0.0000
# 2 34.0147 105.0516 20.0626 0.0000 0.0000 0.0000
# 3 17.9602 20.0626 68.1702 0.0000 0.0000 0.0000
# 4 0.0000 0.0000 0.0000 33.3662 0.0000 0.0000
# 5 0.0000 0.0000 0.0000 0.0000 24.7306 0.0000
# 6 0.0000 0.0000 0.0000 0.0000 0.0000 31.7079
#
#
#
# Elastic Compliance Matrix: (Units=1/GPa)
#
#
# Indices 1 2 3 4 5 6 
#
# 1 0.012166 -0.003525 -0.002168 0.000000 0.000000 0.000000
# 2 -0.003525 0.011107 -0.002340 0.000000 0.000000 0.000000
# 3 -0.002168 -0.002340 0.015929 0.000000 0.000000 0.000000
# 4 0.000000 0.000000 0.000000 0.029970 0.000000 0.000000
# 5 0.000000 0.000000 0.000000 0.000000 0.040436 0.000000
# 6 0.000000 0.000000 0.000000 0.000000 0.000000 0.031538
#
#
# Mechanical properties :
#
#
# Convention : Reuss Voigt Hill
#
# Bulk Modulus (GPa) = 43.22261 45.83896 44.53079
# Shear Modulus (GPa) = 30.31689 31.05683 30.68686
#
# Velocity S-wave (km/s) = 3.90221 3.94954 3.92595
# Velocity P-wave (km/s) = 6.48169 6.61982 6.55112
#
# Compressibility (1/GPa) = 0.02313604
#
# Stress axis : x y z
#
# Youngs Moduli (GPa) = 82.19743 90.02945 62.77857
#
# Poissons Ratio (x) = 0.31737 0.13609
# Poissons Ratio (y) = 0.28976 0.14691
# Poissons Ratio (z) = 0.17818 0.21069
#
# Static dielectric constant tensor:
#      x y z
#    x 3.535880 0.000000 0.000000 
#    y 0.000000 3.500810 0.000000 
#    z 0.000000 0.000000 3.599330 
# 
# 
# High freq. dielectric constant tensor:
#      x y z
#    x 1.782080 0.000000 0.000000 
#    y 0.000000 1.778110 0.000000 
#    z 0.000000 0.000000 1.769900 
# 
# From -- ./inp_files/15328.got.cif
#   From: 2010.03.12/outbox.cif.g09.slc.cpg/sg39_8_cif.got.tgz:15328.got - 2010.04.14 02:53:20.
