data_PCOD8181498
_publ_section_title
;
Structure prediction by ZEFSAII (Michael W. Deem and Ramdas Pophale) SiO2 
 PCOD8181498
Probable space group: A B M 2
;
_chemical_formula_sum "Si O2"
_cell_formula_units_Z 64
_cell_length_a 9.902821
_cell_length_b 16.905292
_cell_length_c 18.749093
_cell_angle_alpha 90.000000
_cell_angle_beta 90.000000
_cell_angle_gamma 90.000000
_cell_volume 3138.787171
_symmetry_space_group_name_H-M "A B M 2"
_symmetry_group_IT_number 39
_symmetry_cell_setting 'orthorhombic'
loop_
_space_group_symop_operation_xyz
x,y,z
-x,-y,z
-x,1/2+y,z
x,1/2-y,z
x,1/2+y,1/2+z
-x,1/2-y,1/2+z
-x,y,1/2+z
x,-y,1/2+z
loop_
_atom_site_type_symbol
_atom_site_label
_atom_site_fract_x
_atom_site_fract_y
_atom_site_fract_z
Si Si1 0.891179 0.842468 0.058480
Si Si2 0.032541 0.091038 0.908576
Si Si3 0.457542 0.344080 0.268215
Si Si4 0.249082 0.842995 0.883669
Si Si5 0.239795 0.843958 0.301693
Si Si6 0.861476 0.841906 0.651916
Si Si7 0.394142 0.843833 0.611293
Si Si8 0.340391 0.844140 0.035074
O O1 0.885358 0.750000 0.038277
O O2 0.746317 0.877483 0.080845
O O3 0.985647 0.856980 0.127273
O O4 0.952048 0.888124 0.991448
O O5 0.171161 0.113392 0.868861
O O6 0.908436 0.138298 0.872641
O O7 0.000000 0.000000 0.900049
O O8 0.453661 0.250000 0.264537
O O9 0.341079 0.378333 0.320134
O O10 0.604043 0.370752 0.297059
O O11 0.429552 0.378935 0.189252
O O12 0.269820 0.750000 0.884417
O O13 0.301298 0.880153 0.958329
O O14 0.226672 0.750000 0.312054
O O15 0.163190 0.875845 0.230843
O O16 0.824899 0.750000 0.655811
O O17 0.759718 0.880642 0.594472
O O18 0.383452 0.750000 0.617560
O O19 0.507991 0.869533 0.554872
O O20 0.324489 0.750000 0.032714
#
# Coordination Sequence:
#
# PCOD8181498 Si02
#       8
#     8   8   8   8   8   8   8   8
#     4  10  20  35  59  87 115 146 189 243 293 342
#     4  12  26  41  54  79 116 164 203 238 279 337
#     4   9  18  32  55  91 120 142 179 239 302 357
#     4  10  20  35  59  85 114 148 189 238 294 349
#     4  10  20  36  61  89 117 148 189 238 295 355
#     4   9  16  30  55  85 112 143 178 226 288 342
#     4   9  17  29  52  89 122 137 173 238 299 349
#     4   9  15  28  51  82 114 142 172 225 288 341
#
# _framework density 20.390041
#
# number of rings (size 3 to 8) (size 9 to 14) (size 15 to 20)
#    0.000    2.250    2.500    1.125    3.500    0.000 
#    0.000    1.250    0.000    0.000    3.250    0.000 
#    0.000    0.000    0.000    0.000    0.000    0.000 
#
# Total GULP energy -396760.763036 kJ/mol
# GULP energy per Si atom -12398.773845 kJ/mol
# Density = 2.034363 g / cm^3
# Si number density = 20.390041 Si / 1000 Ang^3
#
#
#
# Elastic Constant Matrix: (Units=GPa)
#
#
# Indices 1 2 3 4 5 6 
#
# 1 137.2245 10.9848 31.6499 0.0000 0.0000 0.0000
# 2 10.9848 21.4949 12.1482 0.0000 0.0000 0.0000
# 3 31.6499 12.1482 85.4298 0.0000 0.0000 0.0000
# 4 0.0000 0.0000 0.0000 5.6871 0.0000 0.0000
# 5 0.0000 0.0000 0.0000 0.0000 43.8038 0.0000
# 6 0.0000 0.0000 0.0000 0.0000 0.0000 5.3210
#
#
#
# Elastic Compliance Matrix: (Units=1/GPa)
#
#
# Indices 1 2 3 4 5 6 
#
# 1 0.008106 -0.002659 -0.002625 0.000000 0.000000 0.000000
# 2 -0.002659 0.051460 -0.006333 0.000000 0.000000 0.000000
# 3 -0.002625 -0.006333 0.013578 0.000000 0.000000 0.000000
# 4 0.000000 0.000000 0.000000 0.175837 0.000000 0.000000
# 5 0.000000 0.000000 0.000000 0.000000 0.022829 0.000000
# 6 0.000000 0.000000 0.000000 0.000000 0.000000 0.187935
#
#
# Mechanical properties :
#
#
# Convention : Reuss Voigt Hill
#
# Bulk Modulus (GPa) = 20.03537 39.30167 29.66852
# Shear Modulus (GPa) = 10.00768 23.58679 16.79724
#
# Velocity S-wave (km/s) = 2.21783 3.40484 2.87330
# Velocity P-wave (km/s) = 4.05040 5.89695 5.05864
#
# Compressibility (1/GPa) = 0.04991173
#
# Stress axis : x y z
#
# Youngs Moduli (GPa) = 123.37199 19.43242 73.64591
#
# Poissons Ratio (x) = 0.05167 0.19331
# Poissons Ratio (y) = 0.32802 0.46638
# Poissons Ratio (z) = 0.32383 0.12306
#
# Static dielectric constant tensor:
#      x y z
#    x 3.897420 0.000000 0.000000 
#    y 0.000000 2.964330 0.000000 
#    z 0.000000 0.000000 3.924950 
# 
# 
# High freq. dielectric constant tensor:
#      x y z
#    x 1.812760 0.000000 0.000000 
#    y 0.000000 1.721990 0.000000 
#    z 0.000000 0.000000 1.807170 
# 
# From -- ./inp_files/11938.got.cif
#   From: 2010.03.12/outbox.cif.g09.slc.cpg/sg39_6_cif.got.tgz:11938.got - 2010.04.14 02:53:20.
