data_PCOD8181000
_publ_section_title
;
Structure prediction by ZEFSAII (Michael W. Deem and Ramdas Pophale) SiO2 
 PCOD8181000
Probable space group: A B M 2
;
_chemical_formula_sum "Si O2"
_cell_formula_units_Z 64
_cell_length_a 19.802505
_cell_length_b 8.975980
_cell_length_c 20.097735
_cell_angle_alpha 90.000000
_cell_angle_beta 90.000000
_cell_angle_gamma 90.000000
_cell_volume 3572.309869
_symmetry_space_group_name_H-M "A B M 2"
_symmetry_group_IT_number 39
_symmetry_cell_setting 'orthorhombic'
loop_
_space_group_symop_operation_xyz
x,y,z
-x,-y,z
-x,1/2+y,z
x,1/2-y,z
x,1/2+y,1/2+z
-x,1/2-y,1/2+z
-x,y,1/2+z
x,-y,1/2+z
loop_
_atom_site_type_symbol
_atom_site_label
_atom_site_fract_x
_atom_site_fract_y
_atom_site_fract_z
Si Si1 0.823405 0.924321 0.280370
Si Si2 0.204608 0.422428 0.428217
Si Si3 0.684621 0.576164 0.745064
Si Si4 0.162733 0.575815 0.068130
Si Si5 0.688348 0.577671 0.595969
Si Si6 0.659315 0.575688 0.967644
Si Si7 0.429522 0.076188 0.846318
Si Si8 0.927927 0.072643 0.184799
O O1 0.831797 0.750000 0.263672
O O2 0.832862 0.955405 0.359176
O O3 0.749874 0.976842 0.257946
O O4 0.880325 0.020599 0.244684
O O5 0.225537 0.250000 0.434097
O O6 0.154167 0.464490 0.489762
O O7 0.273198 0.514788 0.433143
O O8 0.702799 0.750000 0.757199
O O9 0.659079 0.550570 0.669444
O O10 0.625166 0.519576 0.792705
O O11 0.161669 0.750000 0.080957
O O12 0.235080 0.514409 0.093031
O O13 0.103204 0.510954 0.114706
O O14 0.687331 0.750000 0.576077
O O15 0.644242 0.492731 0.540374
O O16 0.668683 0.750000 0.975090
O O17 0.596328 0.535780 0.920206
O O18 0.440355 0.250000 0.837377
O O19 0.500000 0.000000 0.831480
O O20 0.934848 0.250000 0.187004
O O21 0.000000 0.000000 0.194757
#
# Coordination Sequence:
#
# PCOD8181000 Si02
#       8
#     8   8   8   8   8   8   8   8
#     4  11  21  33  55  86 114 143 183 231 276 328
#     4   9  18  33  54  80 108 140 179 220 270 327
#     4  10  19  36  57  79 109 147 186 227 278 331
#     4   8  15  31  54  76 101 139 177 214 264 322
#     4   9  17  32  55  79 105 140 177 217 274 330
#     4  10  19  32  52  80 109 137 175 228 274 319
#     4  10  22  37  55  78 109 148 188 227 278 335
#     4  11  22  38  57  78 110 149 187 229 277 336
#
# _framework density 17.915578
#
# number of rings (size 3 to 8) (size 9 to 14) (size 15 to 20)
#    0.000    2.250    2.500    1.875    0.000    2.500 
#    0.000    1.875    0.000    4.500    0.000    0.000 
#    0.000    0.000    0.000    0.000    0.000    0.000 
#
# Total GULP energy -396706.483024 kJ/mol
# GULP energy per Si atom -12397.077594 kJ/mol
# Density = 1.787480 g / cm^3
# Si number density = 17.915578 Si / 1000 Ang^3
#
#
#
# Elastic Constant Matrix: (Units=GPa)
#
#
# Indices 1 2 3 4 5 6 
#
# 1 102.7213 38.0611 55.0651 0.0000 0.0000 0.0000
# 2 38.0611 62.0057 45.9676 0.0000 0.0000 0.0000
# 3 55.0651 45.9676 134.8948 0.0000 0.0000 0.0000
# 4 0.0000 0.0000 0.0000 26.8834 0.0000 0.0000
# 5 0.0000 0.0000 0.0000 0.0000 21.3264 0.0000
# 6 0.0000 0.0000 0.0000 0.0000 0.0000 28.1352
#
#
#
# Elastic Compliance Matrix: (Units=1/GPa)
#
#
# Indices 1 2 3 4 5 6 
#
# 1 0.013849 -0.005767 -0.003688 0.000000 0.000000 0.000000
# 2 -0.005767 0.023980 -0.005818 0.000000 0.000000 0.000000
# 3 -0.003688 -0.005818 0.010901 0.000000 0.000000 0.000000
# 4 0.000000 0.000000 0.000000 0.037198 0.000000 0.000000
# 5 0.000000 0.000000 0.000000 0.000000 0.046890 0.000000
# 6 0.000000 0.000000 0.000000 0.000000 0.000000 0.035543
#
#
# Mechanical properties :
#
#
# Convention : Reuss Voigt Hill
#
# Bulk Modulus (GPa) = 54.98944 64.20107 59.59526
# Shear Modulus (GPa) = 24.39411 25.97087 25.18249
#
# Velocity S-wave (km/s) = 3.69401 3.81152 3.75323
# Velocity P-wave (km/s) = 6.99675 7.43528 7.21935
#
# Compressibility (1/GPa) = 0.01818531
#
# Stress axis : x y z
#
# Youngs Moduli (GPa) = 72.20807 41.70100 91.73339
#
# Poissons Ratio (x) = 0.24048 0.33832
# Poissons Ratio (y) = 0.41640 0.53367
# Poissons Ratio (z) = 0.26631 0.24260
#
# Static dielectric constant tensor:
#      x y z
#    x 3.185440 0.000000 0.000000 
#    y 0.000000 3.223090 0.000000 
#    z 0.000000 0.000000 3.781670 
# 
# 
# High freq. dielectric constant tensor:
#      x y z
#    x 1.660770 0.000000 0.000000 
#    y 0.000000 1.684860 0.000000 
#    z 0.000000 0.000000 1.713460 
# 
# From -- ./inp_files/15035.got.cif
#   From: 2010.03.12/outbox.cif.g09.slc.cpg/sg39_8_cif.got.tgz:15035.got - 2010.04.14 02:53:20.
