data_PCOD8181370
_publ_section_title
;
Structure prediction by ZEFSAII (Michael W. Deem and Ramdas Pophale) SiO2 
 PCOD8181370
Probable space group: A B M 2
;
_chemical_formula_sum "Si O2"
_cell_formula_units_Z 56
_cell_length_a 23.707088
_cell_length_b 8.948570
_cell_length_c 14.304041
_cell_angle_alpha 90.000000
_cell_angle_beta 90.000000
_cell_angle_gamma 90.000000
_cell_volume 3034.524148
_symmetry_space_group_name_H-M "A B M 2"
_symmetry_group_IT_number 39
_symmetry_cell_setting 'orthorhombic'
loop_
_space_group_symop_operation_xyz
x,y,z
-x,-y,z
-x,1/2+y,z
x,1/2-y,z
x,1/2+y,1/2+z
-x,1/2-y,1/2+z
-x,y,1/2+z
x,-y,1/2+z
loop_
_atom_site_type_symbol
_atom_site_label
_atom_site_fract_x
_atom_site_fract_y
_atom_site_fract_z
Si Si1 0.944771 0.423327 0.930160
Si Si2 0.348171 0.072288 0.227788
Si Si3 0.271243 0.426515 0.579262
Si Si4 0.559590 0.077428 0.579635
Si Si5 0.056778 0.074216 0.218956
Si Si6 0.140427 0.922890 0.086293
Si Si7 0.348583 0.072872 0.930169
O O1 0.957673 0.250000 0.931609
O O2 0.934702 0.480300 0.825179
O O3 0.000000 0.500000 0.974724
O O4 0.889219 0.464294 0.988505
O O5 0.339063 0.250000 0.233204
O O6 0.404886 0.030600 0.171157
O O7 0.295704 0.999211 0.173649
O O8 0.353184 0.002829 0.329805
O O9 0.283689 0.250000 0.578092
O O10 0.205505 0.464061 0.577489
O O11 0.296691 0.502184 0.486705
O O12 0.546515 0.250000 0.582508
O O13 0.594074 0.035737 0.486155
O O14 0.500000 0.000000 0.579286
O O15 0.050510 0.250000 0.209131
O O16 0.112654 0.021094 0.166806
O O17 0.000000 0.000000 0.176927
O O18 0.131755 0.750000 0.111804
O O19 0.339045 0.250000 0.920757
#
# Coordination Sequence:
#
# PCOD8181370 Si02
#       7
#     8   8   8   8   8   8   8
#     4   9  19  35  52  73 102 134 168 209 257 313
#     4  10  21  38  58  81 110 147 187 227 272 322
#     4  10  21  37  56  80 110 144 181 228 278 326
#     4   9  20  36  55  82 115 146 181 225 269 319
#     4  10  20  34  53  76 104 138 174 215 265 318
#     4  10  21  36  54  78 106 135 173 218 267 321
#     4  10  21  38  58  82 111 146 186 226 271 325
#
# _framework density 18.454291999999999
#
# number of rings (size 3 to 8) (size 9 to 14) (size 15 to 20)
#    0.000    2.286    0.000    3.000    0.000    8.571 
#    0.000    4.286    0.000    0.000    0.000    0.000 
#    0.000    0.000    0.000    0.000    0.000    0.000 
#
# Total GULP energy -347237.576879 kJ/mol
# GULP energy per Si atom -12401.342031 kJ/mol
# Density = 1.841229 g / cm^3
# Si number density = 18.454292 Si / 1000 Ang^3
#
#
#
# Elastic Constant Matrix: (Units=GPa)
#
#
# Indices 1 2 3 4 5 6 
#
# 1 160.2137 69.1254 71.9206 0.0000 0.0000 0.0000
# 2 69.1254 86.2521 59.6049 0.0000 0.0000 0.0000
# 3 71.9206 59.6049 137.3767 0.0000 0.0000 0.0000
# 4 0.0000 0.0000 0.0000 32.8094 0.0000 0.0000
# 5 0.0000 0.0000 0.0000 0.0000 20.2988 0.0000
# 6 0.0000 0.0000 0.0000 0.0000 0.0000 35.1485
#
#
#
# Elastic Compliance Matrix: (Units=1/GPa)
#
#
# Indices 1 2 3 4 5 6 
#
# 1 0.010127 -0.006359 -0.002543 0.000000 0.000000 0.000000
# 2 -0.006359 0.020552 -0.005588 0.000000 0.000000 0.000000
# 3 -0.002543 -0.005588 0.011035 0.000000 0.000000 0.000000
# 4 0.000000 0.000000 0.000000 0.030479 0.000000 0.000000
# 5 0.000000 0.000000 0.000000 0.000000 0.049264 0.000000
# 6 0.000000 0.000000 0.000000 0.000000 0.000000 0.028451
#
#
# Mechanical properties :
#
#
# Convention : Reuss Voigt Hill
#
# Bulk Modulus (GPa) = 78.52695 87.23826 82.88260
# Shear Modulus (GPa) = 27.30298 29.86411 28.58354
#
# Velocity S-wave (km/s) = 3.85059 4.02714 3.93986
# Velocity P-wave (km/s) = 7.90025 8.30657 8.10595
#
# Compressibility (1/GPa) = 0.01273448
#
# Stress axis : x y z
#
# Youngs Moduli (GPa) = 98.75018 48.65812 90.62158
#
# Poissons Ratio (x) = 0.30940 0.23042
# Poissons Ratio (y) = 0.62792 0.50639
# Poissons Ratio (z) = 0.25109 0.27190
#
# Static dielectric constant tensor:
#      x y z
#    x 3.487740 0.000000 0.000000 
#    y 0.000000 3.451040 0.000000 
#    z 0.000000 0.000000 3.609370 
# 
# 
# High freq. dielectric constant tensor:
#      x y z
#    x 1.715190 0.000000 0.000000 
#    y 0.000000 1.724130 0.000000 
#    z 0.000000 0.000000 1.723210 
# 
# From -- ./inp_files/10347.got.cif
#   From: 2010.03.12/outbox.cif.g09.slc.cpg/sg39_6_cif.got.tgz:10347.got - 2010.04.14 02:53:20.
