data_PCOD8181455
_publ_section_title
;
Structure prediction by ZEFSAII (Michael W. Deem and Ramdas Pophale) SiO2 
 PCOD8181455
Probable space group: A B M 2
;
_chemical_formula_sum "Si O2"
_cell_formula_units_Z 64
_cell_length_a 8.501057
_cell_length_b 23.186071
_cell_length_c 16.746021
_cell_angle_alpha 90.000000
_cell_angle_beta 90.000000
_cell_angle_gamma 90.000000
_cell_volume 3300.743077
_symmetry_space_group_name_H-M "A B M 2"
_symmetry_group_IT_number 39
_symmetry_cell_setting 'orthorhombic'
loop_
_space_group_symop_operation_xyz
x,y,z
-x,-y,z
-x,1/2+y,z
x,1/2-y,z
x,1/2+y,1/2+z
-x,1/2-y,1/2+z
-x,y,1/2+z
x,-y,1/2+z
loop_
_atom_site_type_symbol
_atom_site_label
_atom_site_fract_x
_atom_site_fract_y
_atom_site_fract_z
Si Si1 0.890404 0.407314 0.402030
Si Si2 0.183942 0.873426 0.988779
Si Si3 0.816062 0.873425 0.668218
Si Si4 0.320822 0.999018 0.986551
Si Si5 0.890410 0.407316 0.754970
Si Si6 0.681025 0.683843 0.340227
Si Si7 0.320823 0.000984 0.670455
Si Si8 0.318976 0.316156 0.816769
O O1 0.787679 0.460782 0.432023
O O2 0.778196 0.355344 0.377038
O O3 0.998815 0.381860 0.472279
O O4 0.999991 0.427921 0.328498
O O5 0.265600 0.827086 0.931227
O O6 0.265763 0.934363 0.974866
O O7 0.206787 0.850730 0.078499
O O8 0.734424 0.827082 0.725772
O O9 0.001188 0.881868 0.684714
O O10 0.734223 0.934360 0.682135
O O11 0.500000 0.000000 0.956330
O O12 0.307731 0.019531 0.078503
O O13 0.778212 0.355344 0.779963
O O14 0.787680 0.460786 0.724985
O O15 0.714990 0.750000 0.318494
O O16 0.500003 0.668116 0.328490
O O17 0.500000 0.000000 0.700676
O O18 0.285020 0.250000 0.838508
#
# Coordination Sequence:
#
# PCOD8181455 Si02
#       8
#     8   8   8   8   8   8   8   8
#     4  10  21  35  55  81 112 146 181 223 271 324
#     4  10  21  36  57  84 112 144 181 223 273 326
#     4  10  21  36  57  84 112 144 181 223 273 326
#     4  10  20  35  56  82 113 145 179 222 270 322
#     4  10  21  35  55  81 112 146 181 223 271 324
#     4  10  22  40  59  79 107 144 186 230 272 319
#     4  10  20  35  56  82 113 145 179 222 270 322
#     4  10  22  40  59  79 107 144 186 230 272 319
#
# _framework density 19.389574
#
# number of rings (size 3 to 8) (size 9 to 14) (size 15 to 20)
#    0.000    2.000    0.000    3.000    0.000   14.000 
#    0.000    7.500    0.000    5.250    0.000    0.000 
#    0.000    0.000    0.000    0.000    0.000    0.000 
#
# Total GULP energy -396885.815613 kJ/mol
# GULP energy per Si atom -12402.681738 kJ/mol
# Density = 1.934544 g / cm^3
# Si number density = 19.389574 Si / 1000 Ang^3
#
#
#
# Elastic Constant Matrix: (Units=GPa)
#
#
# Indices 1 2 3 4 5 6 
#
# 1 128.5865 30.4319 23.9401 0.0000 0.0000 0.0000
# 2 30.4319 39.7236 10.6366 0.0000 0.0000 0.0000
# 3 23.9401 10.6366 41.2656 0.0000 0.0000 0.0000
# 4 0.0000 0.0000 0.0000 28.7134 0.0000 0.0000
# 5 0.0000 0.0000 0.0000 0.0000 26.2318 0.0000
# 6 0.0000 0.0000 0.0000 0.0000 0.0000 6.0117
#
#
#
# Elastic Compliance Matrix: (Units=1/GPa)
#
#
# Indices 1 2 3 4 5 6 
#
# 1 0.010123 -0.006641 -0.004161 0.000000 0.000000 0.000000
# 2 -0.006641 0.031397 -0.004240 0.000000 0.000000 0.000000
# 3 -0.004161 -0.004240 0.027740 0.000000 0.000000 0.000000
# 4 0.000000 0.000000 0.000000 0.034827 0.000000 0.000000
# 5 0.000000 0.000000 0.000000 0.000000 0.038122 0.000000
# 6 0.000000 0.000000 0.000000 0.000000 0.000000 0.166343
#
#
# Mechanical properties :
#
#
# Convention : Reuss Voigt Hill
#
# Bulk Modulus (GPa) = 25.52591 37.73253 31.62922
# Shear Modulus (GPa) = 14.21685 21.82919 18.02302
#
# Velocity S-wave (km/s) = 2.71074 3.35897 3.05211
# Velocity P-wave (km/s) = 4.79488 5.87758 5.36362
#
# Compressibility (1/GPa) = 0.03917589
#
# Stress axis : x y z
#
# Youngs Moduli (GPa) = 98.78175 31.85012 36.04866
#
# Poissons Ratio (x) = 0.21152 0.15001
# Poissons Ratio (y) = 0.65603 0.15285
# Poissons Ratio (z) = 0.41105 0.13505
#
# Static dielectric constant tensor:
#      x y z
#    x 3.898570 0.000000 0.000000 
#    y 0.000000 3.328570 0.000000 
#    z 0.000000 0.000000 3.660580 
# 
# 
# High freq. dielectric constant tensor:
#      x y z
#    x 1.773980 0.000000 0.000000 
#    y 0.000000 1.745820 0.000000 
#    z 0.000000 0.000000 1.755890 
# 
# From -- ./inp_files/11942.got.cif
#   From: 2010.03.12/outbox.cif.g09.slc.cpg/sg39_6_cif.got.tgz:11942.got - 2010.04.14 02:53:20.
