data_PCOD8181990
_publ_section_title
;
Structure prediction by ZEFSAII (Michael W. Deem and Ramdas Pophale) SiO2 
 PCOD8181990
Probable space group: A B M 2
;
_chemical_formula_sum "Si O2"
_cell_formula_units_Z 64
_cell_length_a 14.510716
_cell_length_b 8.518030
_cell_length_c 24.977022
_cell_angle_alpha 90.000000
_cell_angle_beta 90.000000
_cell_angle_gamma 90.000000
_cell_volume 3087.227712
_symmetry_space_group_name_H-M "A B M 2"
_symmetry_group_IT_number 39
_symmetry_cell_setting 'orthorhombic'
loop_
_space_group_symop_operation_xyz
x,y,z
-x,-y,z
-x,1/2+y,z
x,1/2-y,z
x,1/2+y,1/2+z
-x,1/2-y,1/2+z
-x,y,1/2+z
x,-y,1/2+z
loop_
_atom_site_type_symbol
_atom_site_label
_atom_site_fract_x
_atom_site_fract_y
_atom_site_fract_z
Si Si1 0.786010 0.563163 0.812810
Si Si2 0.595352 0.567542 0.344600
Si Si3 0.897109 0.434207 0.713012
Si Si4 0.841852 0.922880 0.923995
Si Si5 0.094127 0.937857 0.531989
Si Si6 0.778863 0.433504 0.117521
Si Si7 0.364979 0.424564 0.955578
Si Si8 0.402962 0.936623 0.575189
O O1 0.784250 0.750000 0.816034
O O2 0.679996 0.508505 0.811682
O O3 0.845077 0.508254 0.763169
O O4 0.834357 0.489336 0.866685
O O5 0.500000 0.500000 0.320764
O O6 0.599546 0.750000 0.333648
O O7 0.597918 0.534941 0.408299
O O8 0.904471 0.250000 0.721252
O O9 0.836265 0.471046 0.661389
O O10 0.000000 0.500000 0.707035
O O11 0.879987 0.750000 0.911466
O O12 0.744093 0.913494 0.953172
O O13 0.906767 0.997870 0.969724
O O14 0.104317 0.750000 0.537287
O O15 0.177942 0.024925 0.560410
O O16 0.000000 0.000000 0.558717
O O17 0.784762 0.250000 0.130798
O O18 0.673016 0.487808 0.114579
O O19 0.407384 0.250000 0.947568
O O20 0.392297 0.494157 0.013527
O O21 0.395448 0.750000 0.578888
O O22 0.500000 0.000000 0.597101
#
# Coordination Sequence:
#
# PCOD8181990 Si02
#       8
#     8   8   8   8   8   8   8   8
#     4  10  21  41  65  93 126 163 206 261 315 372
#     4  11  21  34  55  88 127 171 216 259 308 368
#     4  12  26  47  72  97 122 159 207 262 317 375
#     4   8  16  33  57  84 122 165 200 245 305 362
#     4  11  21  37  58  88 124 164 204 251 309 375
#     4  12  25  43  65  92 123 162 208 262 315 372
#     4   9  17  33  55  82 120 167 212 256 305 361
#     4  11  22  38  60  90 127 168 210 257 310 371
#
# _framework density 20.730573
#
# number of rings (size 3 to 8) (size 9 to 14) (size 15 to 20)
#    0.000    1.500    1.250    6.000    0.000    2.500 
#    0.000    3.750    0.000    0.000    0.000    0.000 
#    0.000    0.000    0.000    0.000    0.000    0.000 
#
# Total GULP energy -396665.400864 kJ/mol
# GULP energy per Si atom -12395.793777 kJ/mol
# Density = 2.068339 g / cm^3
# Si number density = 20.730573 Si / 1000 Ang^3
#
#
#
# Elastic Constant Matrix: (Units=GPa)
#
#
# Indices 1 2 3 4 5 6 
#
# 1 128.2190 24.1079 44.4890 0.0000 0.0000 0.0000
# 2 24.1079 86.7184 12.5818 0.0000 0.0000 0.0000
# 3 44.4890 12.5818 87.4928 0.0000 0.0000 0.0000
# 4 0.0000 0.0000 0.0000 27.5056 0.0000 0.0000
# 5 0.0000 0.0000 0.0000 0.0000 23.1414 0.0000
# 6 0.0000 0.0000 0.0000 0.0000 0.0000 33.7640
#
#
#
# Elastic Compliance Matrix: (Units=1/GPa)
#
#
# Indices 1 2 3 4 5 6 
#
# 1 0.009813 -0.002047 -0.004696 0.000000 0.000000 0.000000
# 2 -0.002047 0.012204 -0.000714 0.000000 0.000000 0.000000
# 3 -0.004696 -0.000714 0.013920 0.000000 0.000000 0.000000
# 4 0.000000 0.000000 0.000000 0.036356 0.000000 0.000000
# 5 0.000000 0.000000 0.000000 0.000000 0.043213 0.000000
# 6 0.000000 0.000000 0.000000 0.000000 0.000000 0.029617
#
#
# Mechanical properties :
#
#
# Convention : Reuss Voigt Hill
#
# Bulk Modulus (GPa) = 47.56450 51.64306 49.60378
# Shear Modulus (GPa) = 29.93212 31.63233 30.78222
#
# Velocity S-wave (km/s) = 3.80394 3.91049 3.85758
# Velocity P-wave (km/s) = 6.50286 6.73460 6.61975
#
# Compressibility (1/GPa) = 0.02102408
#
# Stress axis : x y z
#
# Youngs Moduli (GPa) = 101.90293 81.93883 71.83978
#
# Poissons Ratio (x) = 0.16772 0.33733
# Poissons Ratio (y) = 0.20858 0.05131
# Poissons Ratio (z) = 0.47849 0.05852
#
# Static dielectric constant tensor:
#      x y z
#    x 3.935550 0.000000 0.000000 
#    y 0.000000 3.661200 0.000000 
#    z 0.000000 0.000000 3.724270 
# 
# 
# High freq. dielectric constant tensor:
#      x y z
#    x 1.822000 0.000000 0.000000 
#    y 0.000000 1.804650 0.000000 
#    z 0.000000 0.000000 1.796760 
# 
# From -- ./inp_files/16142.got.cif
#   From: 2010.03.12/outbox.cif.g09.slc.cpg/sg39_9_cif.got.tgz:16142.got - 2010.04.14 02:53:20.
