data_PCOD8181963
_publ_section_title
;
Structure prediction by ZEFSAII (Michael W. Deem and Ramdas Pophale) SiO2 
 PCOD8181963
Probable space group: A B M 2
;
_chemical_formula_sum "Si O2"
_cell_formula_units_Z 64
_cell_length_a 11.436025
_cell_length_b 17.952934
_cell_length_c 15.050049
_cell_angle_alpha 90.000000
_cell_angle_beta 90.000000
_cell_angle_gamma 90.000000
_cell_volume 3089.928601
_symmetry_space_group_name_H-M "A B M 2"
_symmetry_group_IT_number 39
_symmetry_cell_setting 'orthorhombic'
loop_
_space_group_symop_operation_xyz
x,y,z
-x,-y,z
-x,1/2+y,z
x,1/2-y,z
x,1/2+y,1/2+z
-x,1/2-y,1/2+z
-x,y,1/2+z
x,-y,1/2+z
loop_
_atom_site_type_symbol
_atom_site_label
_atom_site_fract_x
_atom_site_fract_y
_atom_site_fract_z
Si Si1 0.542579 0.664016 0.950830
Si Si2 0.305629 0.832974 0.625614
Si Si3 0.337281 0.550292 0.993900
Si Si4 0.969572 0.913615 0.845039
Si Si5 0.042353 0.834653 0.671062
Si Si6 0.375709 0.984378 0.683757
Si Si7 0.297887 0.931277 0.343115
Si Si8 0.069084 0.922410 0.023949
O O1 0.507017 0.750000 0.936653
O O2 0.424077 0.619241 0.974523
O O3 0.607183 0.634235 0.861231
O O4 0.638455 0.655497 0.028978
O O5 0.335877 0.750000 0.662495
O O6 0.166299 0.844158 0.621550
O O7 0.351002 0.896078 0.693319
O O8 0.336529 0.496346 0.909891
O O9 0.206606 0.573783 0.013139
O O10 0.378999 0.506242 0.080651
O O11 0.831688 0.899029 0.854319
O O12 0.037314 0.871863 0.767201
O O13 0.021304 0.881489 0.936505
O O14 0.000000 0.000000 0.835582
O O15 0.007113 0.750000 0.684560
O O16 0.945779 0.872382 0.610125
O O17 0.291027 0.035603 0.742999
O O18 0.500000 0.000000 0.728157
O O19 0.000000 0.000000 0.038349
#
# Coordination Sequence:
#
# PCOD8181963 Si02
#       8
#     8   8   8   8   8   8   8   8
#     4  11  24  44  67  96 136 179 221 274 337 403
#     4  10  21  40  66  94 130 173 215 267 332 392
#     4  12  22  43  65  96 132 171 224 278 330 389
#     4  11  22  42  66  99 130 166 223 279 326 384
#     4  11  24  41  64  96 135 175 214 266 332 401
#     4  12  22  38  66  97 125 168 219 269 322 390
#     4  12  23  42  68  98 132 173 223 276 331 396
#     4  11  22  40  67  96 125 169 224 272 328 385
#
# _framework density 20.712453
#
# number of rings (size 3 to 8) (size 9 to 14) (size 15 to 20)
#    0.000    0.750    5.000    4.500    0.000    1.500 
#    0.000    3.125    0.000    0.000    0.000    0.000 
#    0.000    0.000    0.000    0.000    0.000    0.000 
#
# Total GULP energy -396699.892933 kJ/mol
# GULP energy per Si atom -12396.871654 kJ/mol
# Density = 2.066531 g / cm^3
# Si number density = 20.712453 Si / 1000 Ang^3
#
#
#
# Elastic Constant Matrix: (Units=GPa)
#
#
# Indices 1 2 3 4 5 6 
#
# 1 115.9466 37.4795 2.3262 0.0000 0.0000 0.0000
# 2 37.4795 111.8531 30.7161 0.0000 0.0000 0.0000
# 3 2.3262 30.7161 75.0564 0.0000 0.0000 0.0000
# 4 0.0000 0.0000 0.0000 -39.3465 0.0000 0.0000
# 5 0.0000 0.0000 0.0000 0.0000 25.4283 0.0000
# 6 0.0000 0.0000 0.0000 0.0000 0.0000 27.1249
#
#
#
# Elastic Compliance Matrix: (Units=1/GPa)
#
#
# Indices 1 2 3 4 5 6 
#
# 1 0.009762 -0.003592 0.001167 0.000000 0.000000 0.000000
# 2 -0.003592 0.011394 -0.004551 0.000000 0.000000 0.000000
# 3 0.001167 -0.004551 0.015150 0.000000 0.000000 0.000000
# 4 0.000000 0.000000 0.000000 -0.025415 0.000000 0.000000
# 5 0.000000 0.000000 0.000000 0.000000 0.039326 0.000000
# 6 0.000000 0.000000 0.000000 0.000000 0.000000 0.036867
#
#
# Mechanical properties :
#
#
# Convention : Reuss Voigt Hill
#
# Bulk Modulus (GPa) = 44.73458 49.32219 47.02839
# Shear Modulus (GPa) = 46.08881 18.13028 32.10955
#
# Velocity S-wave (km/s) = 4.72229 2.96181 3.94160
# Velocity P-wave (km/s) = 7.16786 5.96330 6.59315
#
# Compressibility (1/GPa) = 0.02235407
#
# Stress axis : x y z
#
# Youngs Moduli (GPa) = 102.43553 87.76807 66.00756
#
# Poissons Ratio (x) = 0.31523 -0.07705
# Poissons Ratio (y) = 0.36791 0.30043
# Poissons Ratio (z) = -0.11957 0.39947
#
# Static dielectric constant tensor:
#      x y z
#    x 3.824050 0.000000 0.000000 
#    y 0.000000 3.857810 0.000000 
#    z 0.000000 0.000000 3.778130 
# 
# 
# High freq. dielectric constant tensor:
#      x y z
#    x 1.824090 0.000000 0.000000 
#    y 0.000000 1.801910 0.000000 
#    z 0.000000 0.000000 1.810630 
# 
# From -- ./inp_files/9437.got.cif
#   From: 2010.03.12/outbox.cif.g09.slc.cpg/sg39_5_cif.got.tgz:9437.got - 2010.04.14 02:53:20.
