data_PCOD8181117
_publ_section_title
;
Structure prediction by ZEFSAII (Michael W. Deem and Ramdas Pophale) SiO2 
 PCOD8181117
Probable space group: A B M 2
;
_chemical_formula_sum "Si O2"
_cell_formula_units_Z 56
_cell_length_a 14.334179
_cell_length_b 8.870273
_cell_length_c 25.392395
_cell_angle_alpha 90.000000
_cell_angle_beta 90.000000
_cell_angle_gamma 90.000000
_cell_volume 3228.594295
_symmetry_space_group_name_H-M "A B M 2"
_symmetry_group_IT_number 39
_symmetry_cell_setting 'orthorhombic'
loop_
_space_group_symop_operation_xyz
x,y,z
-x,-y,z
-x,1/2+y,z
x,1/2-y,z
x,1/2+y,1/2+z
-x,1/2-y,1/2+z
-x,y,1/2+z
x,-y,1/2+z
loop_
_atom_site_type_symbol
_atom_site_label
_atom_site_fract_x
_atom_site_fract_y
_atom_site_fract_z
Si Si1 0.093567 0.926469 0.371890
Si Si2 0.096071 0.929085 0.759485
Si Si3 0.403658 0.927355 0.006304
Si Si4 0.405149 0.926112 0.125376
Si Si5 0.399199 0.927724 0.316635
Si Si6 0.288322 0.075383 0.919477
Si Si7 0.273920 0.427426 0.718751
O O1 0.077724 0.750000 0.360579
O O2 0.178120 0.952624 0.412119
O O3 0.118433 0.006792 0.317237
O O4 0.000000 0.000000 0.396499
O O5 0.088005 0.750000 0.761329
O O6 0.178097 0.980105 0.720544
O O7 0.000000 0.000000 0.737984
O O8 0.414077 0.750000 0.001742
O O9 0.500000 0.000000 0.986030
O O10 0.318774 0.981779 0.970304
O O11 0.381827 0.979619 0.066031
O O12 0.422808 0.750000 0.127522
O O13 0.320534 0.972139 0.163294
O O14 0.500000 0.000000 0.146311
O O15 0.411239 0.750000 0.316528
O O16 0.344017 0.982764 0.368332
O O17 0.341625 0.980732 0.265702
O O18 0.500000 0.000000 0.315501
O O19 0.309821 0.250000 0.929438
O O20 0.252645 0.250000 0.723180
#
# Coordination Sequence:
#
# PCOD8181117 Si02
#       7
#     8   8   8   8   8   8   8
#     4  10  19  34  53  75 104 134 170 209 254 305
#     4  11  21  33  52  77 104 135 171 208 252 305
#     4  10  20  34  52  76 102 135 177 215 254 301
#     4   9  19  34  54  76 102 136 174 215 256 298
#     4  10  20  32  46  69 102 134 165 201 249 302
#     4  10  20  34  51  73 102 137 170 208 256 302
#     4  10  19  35  53  72 103 137 168 212 257 299
#
# _framework density 17.345009999999998
#
# number of rings (size 3 to 8) (size 9 to 14) (size 15 to 20)
#    0.000    2.000    1.429    3.857    0.000    4.571 
#    0.000    0.000    0.000    0.857    0.000    2.000 
#    0.000    0.000    0.000    0.000    0.000    0.000 
#
# Total GULP energy -347269.471059 kJ/mol
# GULP energy per Si atom -12402.481109 kJ/mol
# Density = 1.730553 g / cm^3
# Si number density = 17.345010 Si / 1000 Ang^3
#
#
#
# Elastic Constant Matrix: (Units=GPa)
#
#
# Indices 1 2 3 4 5 6 
#
# 1 139.3925 56.8430 61.1321 0.0000 0.0000 0.0000
# 2 56.8430 79.9653 39.3511 0.0000 0.0000 0.0000
# 3 61.1321 39.3511 88.5939 0.0000 0.0000 0.0000
# 4 0.0000 0.0000 0.0000 22.3534 0.0000 0.0000
# 5 0.0000 0.0000 0.0000 0.0000 22.9126 0.0000
# 6 0.0000 0.0000 0.0000 0.0000 0.0000 34.7035
#
#
#
# Elastic Compliance Matrix: (Units=1/GPa)
#
#
# Indices 1 2 3 4 5 6 
#
# 1 0.012033 -0.005717 -0.005764 0.000000 0.000000 0.000000
# 2 -0.005717 0.018720 -0.004370 0.000000 0.000000 0.000000
# 3 -0.005764 -0.004370 0.017206 0.000000 0.000000 0.000000
# 4 0.000000 0.000000 0.000000 0.044736 0.000000 0.000000
# 5 0.000000 0.000000 0.000000 0.000000 0.043644 0.000000
# 6 0.000000 0.000000 0.000000 0.000000 0.000000 0.028816
#
#
# Mechanical properties :
#
#
# Convention : Reuss Voigt Hill
#
# Bulk Modulus (GPa) = 61.51222 69.17824 65.34523
# Shear Modulus (GPa) = 24.71880 26.03560 25.37720
#
# Velocity S-wave (km/s) = 3.77918 3.87853 3.82918
# Velocity P-wave (km/s) = 7.38809 7.74775 7.57005
#
# Compressibility (1/GPa) = 0.01625693
#
# Stress axis : x y z
#
# Youngs Moduli (GPa) = 83.10312 53.41875 58.12088
#
# Poissons Ratio (x) = 0.30542 0.33499
# Poissons Ratio (y) = 0.47514 0.25398
# Poissons Ratio (z) = 0.47898 0.23343
#
# Static dielectric constant tensor:
#      x y z
#    x 3.334760 0.000000 0.000000 
#    y 0.000000 3.207780 0.000000 
#    z 0.000000 0.000000 3.218890 
# 
# 
# High freq. dielectric constant tensor:
#      x y z
#    x 1.673870 0.000000 0.000000 
#    y 0.000000 1.673160 0.000000 
#    z 0.000000 0.000000 1.650890 
# 
# From -- ./inp_files/14811.got.cif
#   From: 2010.03.12/outbox.cif.g09.slc.cpg/sg39_8_cif.got.tgz:14811.got - 2010.04.14 02:53:20.
