data_PCOD8181420
_publ_section_title
;
Structure prediction by ZEFSAII (Michael W. Deem and Ramdas Pophale) SiO2 
 PCOD8181420
Probable space group: A B M 2
;
_chemical_formula_sum "Si O2"
_cell_formula_units_Z 64
_cell_length_a 19.934061
_cell_length_b 17.880711
_cell_length_c 9.822371
_cell_angle_alpha 90.000000
_cell_angle_beta 90.000000
_cell_angle_gamma 90.000000
_cell_volume 3501.038613
_symmetry_space_group_name_H-M "A B M 2"
_symmetry_group_IT_number 39
_symmetry_cell_setting 'orthorhombic'
loop_
_space_group_symop_operation_xyz
x,y,z
-x,-y,z
-x,1/2+y,z
x,1/2-y,z
x,1/2+y,1/2+z
-x,1/2-y,1/2+z
-x,y,1/2+z
x,-y,1/2+z
loop_
_atom_site_type_symbol
_atom_site_label
_atom_site_fract_x
_atom_site_fract_y
_atom_site_fract_z
Si Si1 0.310599 0.578877 0.013120
Si Si2 0.784257 0.167137 0.662324
Si Si3 0.670301 0.442406 0.705569
Si Si4 0.185680 0.332773 0.479772
Si Si5 0.556631 0.662587 0.522689
Si Si6 0.521803 0.414193 0.754028
Si Si7 0.041440 0.160791 0.415952
Si Si8 0.069458 0.839234 0.618156
O O1 0.331073 0.520001 0.126691
O O2 0.309791 0.541947 0.862638
O O3 0.237658 0.611652 0.053159
O O4 0.364028 0.646277 0.015740
O O5 0.767177 0.250000 0.605067
O O6 0.722789 0.112263 0.629716
O O7 0.795224 0.173025 0.822419
O O8 0.853241 0.135701 0.594432
O O9 0.597032 0.405424 0.695927
O O10 0.190748 0.250000 0.545880
O O11 0.109839 0.364310 0.493282
O O12 0.544875 0.750000 0.500649
O O13 0.527780 0.636606 0.666737
O O14 0.517445 0.616181 0.407344
O O15 0.500000 0.500000 0.753353
O O16 0.040096 0.250000 0.412979
O O17 0.040835 0.129517 0.261840
O O18 0.977187 0.128651 0.497236
O O19 0.067496 0.750000 0.622407
#
# Coordination Sequence:
#
# PCOD8181420 Si02
#       8
#     8   8   8   8   8   8   8   8
#     4  10  20  35  53  75 101 133 174 211 257 311
#     4   8  15  29  49  73  98 128 170 216 254 298
#     4  10  21  34  56  74  99 137 173 209 256 318
#     4   8  14  27  48  71  96 126 166 211 250 299
#     4  11  23  37  58  84 109 139 179 224 266 314
#     4  11  22  38  58  80 111 144 177 217 270 328
#     4   8  13  22  40  66  93 124 157 197 253 304
#     4   8  13  23  41  66  96 124 158 204 252 303
#
# _framework density 18.280290000000001
#
# number of rings (size 3 to 8) (size 9 to 14) (size 15 to 20)
#    0.000    2.750    1.250    2.625    1.750    3.500 
#    0.000    1.250    0.000    3.750    0.000    5.250 
#    0.000    0.000    0.000    0.000    0.000    0.000 
#
# Total GULP energy -396683.017642 kJ/mol
# GULP energy per Si atom -12396.344301 kJ/mol
# Density = 1.823868 g / cm^3
# Si number density = 18.280290 Si / 1000 Ang^3
#
#
#
# Elastic Constant Matrix: (Units=GPa)
#
#
# Indices 1 2 3 4 5 6 
#
# 1 92.8059 29.2457 22.9896 0.0000 0.0000 0.0000
# 2 29.2457 60.3929 19.1602 0.0000 0.0000 0.0000
# 3 22.9896 19.1602 45.4751 0.0000 0.0000 0.0000
# 4 0.0000 0.0000 0.0000 17.1869 0.0000 0.0000
# 5 0.0000 0.0000 0.0000 0.0000 26.2324 0.0000
# 6 0.0000 0.0000 0.0000 0.0000 0.0000 24.5888
#
#
#
# Elastic Compliance Matrix: (Units=1/GPa)
#
#
# Indices 1 2 3 4 5 6 
#
# 1 0.013537 -0.005061 -0.004711 0.000000 0.000000 0.000000
# 2 -0.005061 0.021005 -0.006292 0.000000 0.000000 0.000000
# 3 -0.004711 -0.006292 0.027023 0.000000 0.000000 0.000000
# 4 0.000000 0.000000 0.000000 0.058184 0.000000 0.000000
# 5 0.000000 0.000000 0.000000 0.000000 0.038121 0.000000
# 6 0.000000 0.000000 0.000000 0.000000 0.000000 0.040669
#
#
# Mechanical properties :
#
#
# Convention : Reuss Voigt Hill
#
# Bulk Modulus (GPa) = 33.97048 37.94055 35.95551
# Shear Modulus (GPa) = 20.79189 22.08683 21.43936
#
# Velocity S-wave (km/s) = 3.37619 3.47973 3.42835
# Velocity P-wave (km/s) = 5.81564 6.07821 5.94837
#
# Compressibility (1/GPa) = 0.02943733
#
# Stress axis : x y z
#
# Youngs Moduli (GPa) = 73.87157 47.60768 37.00588
#
# Poissons Ratio (x) = 0.24093 0.17435
# Poissons Ratio (y) = 0.37384 0.23283
# Poissons Ratio (z) = 0.34803 0.29954
#
# Static dielectric constant tensor:
#      x y z
#    x 3.756690 0.000000 0.000000 
#    y 0.000000 3.136350 0.000000 
#    z 0.000000 0.000000 3.223980 
# 
# 
# High freq. dielectric constant tensor:
#      x y z
#    x 1.723140 0.000000 0.000000 
#    y 0.000000 1.675450 0.000000 
#    z 0.000000 0.000000 1.682950 
# 
# From -- ./inp_files/4020.got.cif
#   From: 2010.03.12/outbox.cif.g09.slc.cpg/sg39_3_cif.got.tgz:4020.got - 2010.04.14 02:53:20.
