data_PCOD8181400
_publ_section_title
;
Structure prediction by ZEFSAII (Michael W. Deem and Ramdas Pophale) SiO2 
 PCOD8181400
Probable space group: A B M 2
;
_chemical_formula_sum "Si O2"
_cell_formula_units_Z 40
_cell_length_a 9.954699
_cell_length_b 8.784049
_cell_length_c 24.977492
_cell_angle_alpha 90.000000
_cell_angle_beta 90.000000
_cell_angle_gamma 90.000000
_cell_volume 2184.095938
_symmetry_space_group_name_H-M "A B M 2"
_symmetry_group_IT_number 39
_symmetry_cell_setting 'orthorhombic'
loop_
_space_group_symop_operation_xyz
x,y,z
-x,-y,z
-x,1/2+y,z
x,1/2-y,z
x,1/2+y,1/2+z
-x,1/2-y,1/2+z
-x,y,1/2+z
x,-y,1/2+z
loop_
_atom_site_type_symbol
_atom_site_label
_atom_site_fract_x
_atom_site_fract_y
_atom_site_fract_z
Si Si1 0.144729 0.072858 0.142630
Si Si2 0.145580 0.926916 0.524841
Si Si3 0.361870 0.425781 0.450137
Si Si4 0.639877 0.072822 0.824924
Si Si5 0.851585 0.430444 0.248058
O O1 0.133425 0.250000 0.157213
O O2 0.211987 0.048241 0.084185
O O3 0.217907 0.986963 0.192058
O O4 0.000000 0.000000 0.137806
O O5 0.129366 0.750000 0.512484
O O6 0.239145 0.999928 0.480715
O O7 0.000000 0.000000 0.520359
O O8 0.500000 0.500000 0.469870
O O9 0.368637 0.250000 0.464722
O O10 0.338970 0.454503 0.387623
O O11 0.639573 0.250000 0.809815
O O12 0.500000 0.000000 0.805533
O O13 0.762300 0.988003 0.796823
O O14 0.860404 0.250000 0.249236
O O15 0.000000 0.500000 0.253860
#
# Coordination Sequence:
#
# PCOD8181400 Si02
#       5
#     8   8   8   8   8
#     4   9  17  31  51  76 106 139 173 213 261 312
#     4  10  20  34  55  81 109 140 176 217 261 309
#     4  10  21  37  57  78 105 140 176 216 264 315
#     4  10  21  38  57  78 105 139 176 216 264 317
#     4  11  21  34  55  81 108 140 176 218 262 309
#
# _framework density 18.314214
#
# number of rings (size 3 to 8) (size 9 to 14) (size 15 to 20)
#    0.000    2.000    0.000    5.400    0.000    5.600 
#    0.000    1.000    0.000    4.800    0.000    0.000 
#    0.000    0.000    0.000    0.000    0.000    0.000 
#
# Total GULP energy -247946.060144 kJ/mol
# GULP energy per Si atom -12397.303007 kJ/mol
# Density = 1.827253 g / cm^3
# Si number density = 18.314214 Si / 1000 Ang^3
#
#
#
# Elastic Constant Matrix: (Units=GPa)
#
#
# Indices 1 2 3 4 5 6 
#
# 1 97.2142 63.9478 57.8232 0.0000 0.0000 0.0000
# 2 63.9478 165.2843 68.5096 0.0000 0.0000 0.0000
# 3 57.8232 68.5096 77.9810 0.0000 0.0000 0.0000
# 4 0.0000 0.0000 0.0000 24.9293 0.0000 0.0000
# 5 0.0000 0.0000 0.0000 0.0000 -6.5324 0.0000
# 6 0.0000 0.0000 0.0000 0.0000 0.0000 33.9488
#
#
#
# Elastic Compliance Matrix: (Units=1/GPa)
#
#
# Indices 1 2 3 4 5 6 
#
# 1 0.018978 -0.002374 -0.011986 0.000000 0.000000 0.000000
# 2 -0.002374 0.009812 -0.006860 0.000000 0.000000 0.000000
# 3 -0.011986 -0.006860 0.027738 0.000000 0.000000 0.000000
# 4 0.000000 0.000000 0.000000 0.040113 0.000000 0.000000
# 5 0.000000 0.000000 0.000000 0.000000 -0.153084 0.000000
# 6 0.000000 0.000000 0.000000 0.000000 0.000000 0.029456
#
#
# Mechanical properties :
#
#
# Convention : Reuss Voigt Hill
#
# Bulk Modulus (GPa) = 70.98543 80.11566 75.55054
# Shear Modulus (GPa) = 248.12910 20.48240 134.30575
#
# Velocity S-wave (km/s) = 11.65241 3.34786 8.57283
# Velocity P-wave (km/s) = 14.82842 7.66709 11.80395
#
# Compressibility (1/GPa) = 0.01408740
#
# Stress axis : x y z
#
# Youngs Moduli (GPa) = 52.69326 101.91450 36.05127
#
# Poissons Ratio (x) = 0.24196 0.43212
# Poissons Ratio (y) = 0.12510 0.24731
# Poissons Ratio (z) = 0.63160 0.69913
#
# Static dielectric constant tensor:
#      x y z
#    x 3.175910 0.000000 0.000000 
#    y 0.000000 3.615330 0.000000 
#    z 0.000000 0.000000 3.887520 
# 
# 
# High freq. dielectric constant tensor:
#      x y z
#    x 1.682600 0.000000 0.000000 
#    y 0.000000 1.733780 0.000000 
#    z 0.000000 0.000000 1.721970 
# 
# From -- ./inp_files/14364.got.cif
#   From: 2010.03.12/outbox.cif.g09.slc.cpg/sg39_8_cif.got.tgz:14364.got - 2010.04.14 02:53:20.
