data_PCOD8181051
_publ_section_title
;
Structure prediction by ZEFSAII (Michael W. Deem and Ramdas Pophale) SiO2 
 PCOD8181051
Probable space group: A B M 2
;
_chemical_formula_sum "Si O2"
_cell_formula_units_Z 56
_cell_length_a 15.189279
_cell_length_b 8.842096
_cell_length_c 20.020427
_cell_angle_alpha 90.000000
_cell_angle_beta 90.000000
_cell_angle_gamma 90.000000
_cell_volume 2688.844711
_symmetry_space_group_name_H-M "A B M 2"
_symmetry_group_IT_number 39
_symmetry_cell_setting 'orthorhombic'
loop_
_space_group_symop_operation_xyz
x,y,z
-x,-y,z
-x,1/2+y,z
x,1/2-y,z
x,1/2+y,1/2+z
-x,1/2-y,1/2+z
-x,y,1/2+z
x,-y,1/2+z
loop_
_atom_site_type_symbol
_atom_site_label
_atom_site_fract_x
_atom_site_fract_y
_atom_site_fract_z
Si Si1 0.223589 0.927199 0.462490
Si Si2 0.645870 0.078613 0.636047
Si Si3 0.824200 0.928609 0.593138
Si Si4 0.414041 0.073457 0.767448
Si Si5 0.221495 0.576480 0.312736
Si Si6 0.089140 0.428285 0.213891
Si Si7 0.585551 0.081892 0.491755
O O1 0.225108 0.750000 0.481719
O O2 0.187175 0.954844 0.388004
O O3 0.323196 0.992959 0.466803
O O4 0.163476 0.013223 0.516825
O O5 0.677148 0.250000 0.652542
O O6 0.582470 0.079764 0.572048
O O7 0.730144 0.974751 0.622500
O O8 0.592107 0.008048 0.696278
O O9 0.835720 0.750000 0.595161
O O10 0.897894 0.004430 0.639767
O O11 0.429857 0.250000 0.756488
O O12 0.326011 0.042528 0.810355
O O13 0.500000 0.000000 0.803648
O O14 0.203436 0.750000 0.292054
O O15 0.170552 0.468996 0.261973
O O16 0.079627 0.250000 0.210004
O O17 0.000000 0.500000 0.244063
O O18 0.581085 0.250000 0.462255
O O19 0.500000 0.000000 0.462443
#
# Coordination Sequence:
#
# PCOD8181051 Si02
#       7
#     8   8   8   8   8   8   8
#     4   9  20  39  60  83 119 166 208 252 310 367
#     4  10  19  33  53  79 114 157 204 257 314 366
#     4  11  21  37  62  93 124 155 199 251 309 371
#     4  11  22  34  53  83 122 167 214 262 311 366
#     4  10  22  42  64  89 126 169 212 259 311 369
#     4  12  25  43  70  99 128 160 201 252 312 376
#     4   9  18  30  47  74 109 152 204 254 304 356
#
# _framework density 20.826788000000001
#
# number of rings (size 3 to 8) (size 9 to 14) (size 15 to 20)
#    0.000    1.714    1.429    4.714    0.000    5.714 
#    0.000    0.714    0.000    3.429    0.000    0.000 
#    0.000    0.000    0.000    0.000    0.000    0.000 
#
# Total GULP energy -347206.986474 kJ/mol
# GULP energy per Si atom -12400.249517 kJ/mol
# Density = 2.077939 g / cm^3
# Si number density = 20.826788 Si / 1000 Ang^3
#
#
#
# Elastic Constant Matrix: (Units=GPa)
#
#
# Indices 1 2 3 4 5 6 
#
# 1 73.2260 41.1472 23.8454 0.0000 0.0000 0.0000
# 2 41.1472 140.3566 48.1596 0.0000 0.0000 0.0000
# 3 23.8454 48.1596 97.9658 0.0000 0.0000 0.0000
# 4 0.0000 0.0000 0.0000 24.4380 0.0000 0.0000
# 5 0.0000 0.0000 0.0000 0.0000 10.1701 0.0000
# 6 0.0000 0.0000 0.0000 0.0000 0.0000 33.5193
#
#
#
# Elastic Compliance Matrix: (Units=1/GPa)
#
#
# Indices 1 2 3 4 5 6 
#
# 1 0.016666 -0.004203 -0.001991 0.000000 0.000000 0.000000
# 2 -0.004203 0.009630 -0.003711 0.000000 0.000000 0.000000
# 3 -0.001991 -0.003711 0.012517 0.000000 0.000000 0.000000
# 4 0.000000 0.000000 0.000000 0.040920 0.000000 0.000000
# 5 0.000000 0.000000 0.000000 0.000000 0.098327 0.000000
# 6 0.000000 0.000000 0.000000 0.000000 0.000000 0.029834
#
#
# Mechanical properties :
#
#
# Convention : Reuss Voigt Hill
#
# Bulk Modulus (GPa) = 52.62102 59.76143 56.19122
# Shear Modulus (GPa) = 21.36409 26.85189 24.10799
#
# Velocity S-wave (km/s) = 3.20628 3.59457 3.40597
# Velocity P-wave (km/s) = 6.24723 6.78120 6.51969
#
# Compressibility (1/GPa) = 0.01900381
#
# Stress axis : x y z
#
# Youngs Moduli (GPa) = 60.00152 103.83963 79.89432
#
# Poissons Ratio (x) = 0.43643 0.15903
# Poissons Ratio (y) = 0.25218 0.29650
# Poissons Ratio (z) = 0.11943 0.38537
#
# Static dielectric constant tensor:
#      x y z
#    x 3.605610 0.000000 0.000000 
#    y 0.000000 3.696780 0.000000 
#    z 0.000000 0.000000 3.759980 
# 
# 
# High freq. dielectric constant tensor:
#      x y z
#    x 1.797280 0.000000 0.000000 
#    y 0.000000 1.812750 0.000000 
#    z 0.000000 0.000000 1.812360 
# 
# From -- ./inp_files/14795.got.cif
#   From: 2010.03.12/outbox.cif.g09.slc.cpg/sg39_8_cif.got.tgz:14795.got - 2010.04.14 02:53:20.
