data_PCOD8181766
_publ_section_title
;
Structure prediction by ZEFSAII (Michael W. Deem and Ramdas Pophale) SiO2 
 PCOD8181766
Probable space group: A B M 2
;
_chemical_formula_sum "Si O2"
_cell_formula_units_Z 40
_cell_length_a 11.069350
_cell_length_b 17.887370
_cell_length_c 9.011517
_cell_angle_alpha 90.000000
_cell_angle_beta 90.000000
_cell_angle_gamma 90.000000
_cell_volume 1784.294416
_symmetry_space_group_name_H-M "A B M 2"
_symmetry_group_IT_number 39
_symmetry_cell_setting 'orthorhombic'
loop_
_space_group_symop_operation_xyz
x,y,z
-x,-y,z
-x,1/2+y,z
x,1/2-y,z
x,1/2+y,1/2+z
-x,1/2-y,1/2+z
-x,y,1/2+z
x,-y,1/2+z
loop_
_atom_site_type_symbol
_atom_site_label
_atom_site_fract_x
_atom_site_fract_y
_atom_site_fract_z
Si Si1 0.586866 0.666235 0.751590
Si Si2 0.008545 0.884993 0.890016
Si Si3 0.153677 0.462528 0.133741
Si Si4 0.155788 0.139971 0.646160
Si Si5 0.579859 0.425083 0.546924
O O1 0.555663 0.750000 0.807899
O O2 0.709649 0.670285 0.656168
O O3 0.482696 0.638751 0.643218
O O4 0.601820 0.607402 0.883665
O O5 0.922464 0.832795 0.788151
O O6 0.098599 0.933147 0.787263
O O7 0.920593 0.935570 0.991367
O O8 0.092125 0.831766 0.994246
O O9 0.146369 0.550904 0.139842
O O10 0.293321 0.440260 0.124413
O O11 0.500000 0.500000 0.536288
#
# Coordination Sequence:
#
# PCOD8181766 Si02
#       5
#     8   8   8   8   8
#     4  12  28  47  66  97 143 185 223 280 352 408
#     4  10  21  35  64 103 136 167 218 285 345 385
#     4  11  20  37  65 105 132 166 222 289 331 388
#     4  11  20  37  63  95 135 171 219 276 337 402
#     4  12  26  45  73 103 133 176 240 285 326 402
#
# _framework density 22.417824
#
# number of rings (size 3 to 8) (size 9 to 14) (size 15 to 20)
#    0.000    0.800    4.000    6.000    2.800    0.000 
#    0.000    1.000    0.000    0.000    0.000    0.000 
#    0.000    0.000    0.000    0.000    0.000    0.000 
#
# Total GULP energy -247954.394356 kJ/mol
# GULP energy per Si atom -12397.719718 kJ/mol
# Density = 2.236680 g / cm^3
# Si number density = 22.417824 Si / 1000 Ang^3
#
#
#
# Elastic Constant Matrix: (Units=GPa)
#
#
# Indices 1 2 3 4 5 6 
#
# 1 184.5442 26.5466 59.4576 0.0000 0.0000 0.0000
# 2 26.5466 69.4281 14.9465 0.0000 0.0000 0.0000
# 3 59.4576 14.9465 131.6195 0.0000 0.0000 0.0000
# 4 0.0000 0.0000 0.0000 8.6653 0.0000 0.0000
# 5 0.0000 0.0000 0.0000 0.0000 41.8740 0.0000
# 6 0.0000 0.0000 0.0000 0.0000 0.0000 7.6111
#
#
#
# Elastic Compliance Matrix: (Units=1/GPa)
#
#
# Indices 1 2 3 4 5 6 
#
# 1 0.006583 -0.001924 -0.002755 0.000000 0.000000 0.000000
# 2 -0.001924 0.015327 -0.000871 0.000000 0.000000 0.000000
# 3 -0.002755 -0.000871 0.008941 0.000000 0.000000 0.000000
# 4 0.000000 0.000000 0.000000 0.115403 0.000000 0.000000
# 5 0.000000 0.000000 0.000000 0.000000 0.023881 0.000000
# 6 0.000000 0.000000 0.000000 0.000000 0.000000 0.131387
#
#
# Mechanical properties :
#
#
# Convention : Reuss Voigt Hill
#
# Bulk Modulus (GPa) = 50.63356 65.27702 57.95529
# Shear Modulus (GPa) = 15.66381 30.60615 23.13498
#
# Velocity S-wave (km/s) = 2.64620 3.69895 3.21595
# Velocity P-wave (km/s) = 5.65436 6.88655 6.30065
#
# Compressibility (1/GPa) = 0.01974975
#
# Stress axis : x y z
#
# Youngs Moduli (GPa) = 151.89983 65.24589 111.84004
#
# Poissons Ratio (x) = 0.12553 0.30817
# Poissons Ratio (y) = 0.29226 0.09745
# Poissons Ratio (z) = 0.41855 0.05685
#
# Static dielectric constant tensor:
#      x y z
#    x 4.497010 0.000000 0.000000 
#    y 0.000000 3.736450 0.000000 
#    z 0.000000 0.000000 4.573910 
# 
# 
# High freq. dielectric constant tensor:
#      x y z
#    x 1.904150 0.000000 0.000000 
#    y 0.000000 1.857580 0.000000 
#    z 0.000000 0.000000 1.900820 
# 
# From -- ./inp_files/2513.got.cif
#   From: 2010.03.12/outbox.cif.g09.slc.cpg/sg39_2_cif.got.tgz:2513.got - 2010.04.14 02:53:20.
