data_PCOD8181484
_publ_section_title
;
Structure prediction by ZEFSAII (Michael W. Deem and Ramdas Pophale) SiO2 
 PCOD8181484
Probable space group: A B M 2
;
_chemical_formula_sum "Si O2"
_cell_formula_units_Z 64
_cell_length_a 24.034000
_cell_length_b 8.767285
_cell_length_c 15.323383
_cell_angle_alpha 90.000000
_cell_angle_beta 90.000000
_cell_angle_gamma 90.000000
_cell_volume 3228.834894
_symmetry_space_group_name_H-M "A B M 2"
_symmetry_group_IT_number 39
_symmetry_cell_setting 'orthorhombic'
loop_
_space_group_symop_operation_xyz
x,y,z
-x,-y,z
-x,1/2+y,z
x,1/2-y,z
x,1/2+y,1/2+z
-x,1/2-y,1/2+z
-x,y,1/2+z
x,-y,1/2+z
loop_
_atom_site_type_symbol
_atom_site_label
_atom_site_fract_x
_atom_site_fract_y
_atom_site_fract_z
Si Si1 0.837166 0.076063 0.518200
Si Si2 0.943963 0.429827 0.958584
Si Si3 0.761128 0.929561 0.859505
Si Si4 0.056914 0.930789 0.269105
Si Si5 0.366019 0.070011 0.863181
Si Si6 0.441331 0.430145 0.218036
Si Si7 0.166674 0.575930 0.712066
Si Si8 0.557894 0.570652 0.020504
O O1 0.855068 0.250000 0.497763
O O2 0.792911 0.017836 0.447012
O O3 0.809328 0.064439 0.613745
O O4 0.891572 0.969516 0.518596
O O5 0.950944 0.250000 0.947955
O O6 0.933089 0.507336 0.865802
O O7 0.000000 0.500000 0.000917
O O8 0.766072 0.750000 0.845776
O O9 0.697710 0.982499 0.868777
O O10 0.787093 0.009660 0.775698
O O11 0.052160 0.750000 0.269942
O O12 0.109404 0.981776 0.212548
O O13 0.000000 0.000000 0.229255
O O14 0.371876 0.250000 0.850823
O O15 0.394743 0.015615 0.953285
O O16 0.392774 0.989679 0.779813
O O17 0.500000 0.500000 0.248289
O O18 0.445698 0.250000 0.225921
O O19 0.427009 0.482303 0.118885
O O20 0.154053 0.750000 0.738626
O O21 0.500000 0.500000 0.988989
O O22 0.550762 0.750000 0.017509
#
# Coordination Sequence:
#
# PCOD8181484 Si02
#       8
#     8   8   8   8   8   8   8   8
#     4  10  22  40  61  84 114 153 193 237 293 351
#     4  11  21  35  59  88 118 150 188 234 288 349
#     4  10  22  41  61  81 113 155 194 240 293 342
#     4  11  21  36  59  86 118 152 188 233 292 349
#     4  10  21  37  58  84 114 152 196 237 285 340
#     4  10  20  35  57  86 119 153 189 233 286 339
#     4  11  23  39  61  88 115 149 195 242 290 346
#     4   9  19  35  56  83 117 152 189 230 281 340
#
# _framework density 19.821391999999999
#
# number of rings (size 3 to 8) (size 9 to 14) (size 15 to 20)
#    0.000    1.750    1.250    4.125    0.000    5.000 
#    0.000    2.500    0.000    0.000    0.000    0.000 
#    0.000    0.000    0.000    0.000    0.000    0.000 
#
# Total GULP energy -396881.172860 kJ/mol
# GULP energy per Si atom -12402.536652 kJ/mol
# Density = 1.977628 g / cm^3
# Si number density = 19.821392 Si / 1000 Ang^3
#
#
#
# Elastic Constant Matrix: (Units=GPa)
#
#
# Indices 1 2 3 4 5 6 
#
# 1 159.5878 56.0911 79.7525 0.0000 0.0000 0.0000
# 2 56.0911 88.2727 40.2311 0.0000 0.0000 0.0000
# 3 79.7525 40.2311 120.5405 0.0000 0.0000 0.0000
# 4 0.0000 0.0000 0.0000 26.3535 0.0000 0.0000
# 5 0.0000 0.0000 0.0000 0.0000 16.9310 0.0000
# 6 0.0000 0.0000 0.0000 0.0000 0.0000 31.0621
#
#
#
# Elastic Compliance Matrix: (Units=1/GPa)
#
#
# Indices 1 2 3 4 5 6 
#
# 1 0.010502 -0.004136 -0.005568 0.000000 0.000000 0.000000
# 2 -0.004136 0.014990 -0.002267 0.000000 0.000000 0.000000
# 3 -0.005568 -0.002267 0.012737 0.000000 0.000000 0.000000
# 4 0.000000 0.000000 0.000000 0.037946 0.000000 0.000000
# 5 0.000000 0.000000 0.000000 0.000000 0.059063 0.000000
# 6 0.000000 0.000000 0.000000 0.000000 0.000000 0.032194
#
#
# Mechanical properties :
#
#
# Convention : Reuss Voigt Hill
#
# Bulk Modulus (GPa) = 69.99222 80.06117 75.02670
# Shear Modulus (GPa) = 25.49269 27.69108 26.59189
#
# Velocity S-wave (km/s) = 3.59014 3.74174 3.66673
# Velocity P-wave (km/s) = 7.25077 7.69068 7.47396
#
# Compressibility (1/GPa) = 0.01428730
#
# Stress axis : x y z
#
# Youngs Moduli (GPa) = 95.21543 66.71328 78.51389
#
# Poissons Ratio (x) = 0.27591 0.43719
# Poissons Ratio (y) = 0.39379 0.17795
# Poissons Ratio (z) = 0.53019 0.15121
#
# Static dielectric constant tensor:
#      x y z
#    x 3.629700 0.000000 0.000000 
#    y 0.000000 3.577540 0.000000 
#    z 0.000000 0.000000 3.695660 
# 
# 
# High freq. dielectric constant tensor:
#      x y z
#    x 1.767850 0.000000 0.000000 
#    y 0.000000 1.773110 0.000000 
#    z 0.000000 0.000000 1.777890 
# 
# From -- ./inp_files/10686.got.cif
#   From: 2010.03.12/outbox.cif.g09.slc.cpg/sg39_6_cif.got.tgz:10686.got - 2010.04.14 02:53:20.
