data_PCOD8181701
_publ_section_title
;
Structure prediction by ZEFSAII (Michael W. Deem and Ramdas Pophale) SiO2 
 PCOD8181701
Probable space group: A B M 2
;
_chemical_formula_sum "Si O2"
_cell_formula_units_Z 64
_cell_length_a 13.927171
_cell_length_b 14.154732
_cell_length_c 15.144547
_cell_angle_alpha 90.000000
_cell_angle_beta 90.000000
_cell_angle_gamma 90.000000
_cell_volume 2985.525922
_symmetry_space_group_name_H-M "A B M 2"
_symmetry_group_IT_number 39
_symmetry_cell_setting 'orthorhombic'
loop_
_space_group_symop_operation_xyz
x,y,z
-x,-y,z
-x,1/2+y,z
x,1/2-y,z
x,1/2+y,1/2+z
-x,1/2-y,1/2+z
-x,y,1/2+z
x,-y,1/2+z
loop_
_atom_site_type_symbol
_atom_site_label
_atom_site_fract_x
_atom_site_fract_y
_atom_site_fract_z
Si Si1 0.458312 0.362901 0.162480
Si Si2 0.257756 0.646294 0.921834
Si Si3 0.458312 0.637099 0.981071
Si Si4 0.887188 0.494142 0.468193
Si Si5 0.112812 0.494142 0.675357
Si Si6 0.585545 0.137540 0.321775
Si Si7 0.257756 0.353706 0.221717
Si Si8 0.194831 0.636991 0.321775
O O1 0.455760 0.250000 0.166717
O O2 0.529710 0.402904 0.236954
O O3 0.348779 0.399861 0.171311
O O4 0.500000 0.402255 0.071776
O O5 0.232736 0.750000 0.960702
O O6 0.348779 0.600139 0.972240
O O7 0.161909 0.585171 0.925878
O O8 0.292425 0.656056 0.821775
O O9 0.455760 0.750000 0.976834
O O10 0.529710 0.597096 0.906597
O O11 0.859698 0.500000 0.571775
O O12 0.851768 0.402205 0.413219
O O13 0.000000 0.500000 0.454340
O O14 0.161909 0.585171 0.717674
O O15 0.148232 0.402204 0.730332
O O16 0.000000 0.500000 0.689210
O O17 0.586088 0.250000 0.321775
O O18 0.695067 0.101600 0.321775
O O19 0.232736 0.250000 0.182849
O O20 0.183618 0.750000 0.321775
#
# Coordination Sequence:
#
# PCOD8181701 Si02
#       8
#     8   8   8   8   8   8   8   8
#     4   9  17  31  56  90 129 169 208 256 317 384
#     4  10  20  38  67  96 125 168 218 265 323 393
#     4   9  17  31  56  90 129 169 208 256 317 384
#     4  11  26  47  67  93 132 170 218 284 337 390
#     4  11  26  47  67  93 132 170 218 284 337 390
#     4   9  18  34  55  88 127 164 206 256 316 381
#     4  10  20  38  67  96 125 168 218 265 323 393
#     4  11  25  44  70  98 133 178 221 270 334 401
#
# _framework density 21.43676
#
# number of rings (size 3 to 8) (size 9 to 14) (size 15 to 20)
#    0.000    2.000    2.500    0.375    3.500    2.000 
#    0.000    5.000    0.000    0.000    0.000    0.000 
#    0.000    0.000    0.000    0.000    0.000    0.000 
#
# Total GULP energy -396671.511886 kJ/mol
# GULP energy per Si atom -12395.984746 kJ/mol
# Density = 2.138797 g / cm^3
# Si number density = 21.436760 Si / 1000 Ang^3
#
#
#
# Elastic Constant Matrix: (Units=GPa)
#
#
# Indices 1 2 3 4 5 6 
#
# 1 161.1217 51.2502 62.4137 0.0000 0.0000 0.0000
# 2 51.2502 84.4618 31.4975 0.0000 0.0000 0.0000
# 3 62.4137 31.4975 157.0305 0.0000 0.0000 0.0000
# 4 0.0000 0.0000 0.0000 9.1897 0.0000 0.0000
# 5 0.0000 0.0000 0.0000 0.0000 34.1927 0.0000
# 6 0.0000 0.0000 0.0000 0.0000 0.0000 28.6323
#
#
#
# Elastic Compliance Matrix: (Units=1/GPa)
#
#
# Indices 1 2 3 4 5 6 
#
# 1 0.008538 -0.004232 -0.002545 0.000000 0.000000 0.000000
# 2 -0.004232 0.014894 -0.001306 0.000000 0.000000 0.000000
# 3 -0.002545 -0.001306 0.007642 0.000000 0.000000 0.000000
# 4 0.000000 0.000000 0.000000 0.108818 0.000000 0.000000
# 5 0.000000 0.000000 0.000000 0.000000 0.029246 0.000000
# 6 0.000000 0.000000 0.000000 0.000000 0.000000 0.034926
#
#
# Mechanical properties :
#
#
# Convention : Reuss Voigt Hill
#
# Bulk Modulus (GPa) = 67.07030 76.99299 72.03164
# Shear Modulus (GPa) = 22.20265 31.56644 26.88454
#
# Velocity S-wave (km/s) = 3.22176 3.84153 3.54522
# Velocity P-wave (km/s) = 6.72273 7.46128 7.10162
#
# Compressibility (1/GPa) = 0.01490973
#
# Stress axis : x y z
#
# Youngs Moduli (GPa) = 117.11799 67.13934 130.86387
#
# Poissons Ratio (x) = 0.28413 0.33303
# Poissons Ratio (y) = 0.49564 0.17084
# Poissons Ratio (z) = 0.29805 0.08765
#
# Static dielectric constant tensor:
#      x y z
#    x 3.874110 0.000000 0.000000 
#    y 0.000000 3.598980 0.000000 
#    z 0.000000 0.000000 4.145630 
# 
# 
# High freq. dielectric constant tensor:
#      x y z
#    x 1.848450 0.000000 0.000000 
#    y 0.000000 1.830850 0.000000 
#    z 0.000000 0.000000 1.846450 
# 
# From -- ./inp_files/9429.got.cif
#   From: 2010.03.12/outbox.cif.g09.slc.cpg/sg39_5_cif.got.tgz:9429.got - 2010.04.14 02:53:20.
