data_PCOD8181706
_publ_section_title
;
Structure prediction by ZEFSAII (Michael W. Deem and Ramdas Pophale) SiO2 
 PCOD8181706
Probable space group: A B M 2
;
_chemical_formula_sum "Si O2"
_cell_formula_units_Z 56
_cell_length_a 9.595178
_cell_length_b 18.623429
_cell_length_c 16.259058
_cell_angle_alpha 90.000000
_cell_angle_beta 90.000000
_cell_angle_gamma 90.000000
_cell_volume 2905.414259
_symmetry_space_group_name_H-M "A B M 2"
_symmetry_group_IT_number 39
_symmetry_cell_setting 'orthorhombic'
loop_
_space_group_symop_operation_xyz
x,y,z
-x,-y,z
-x,1/2+y,z
x,1/2-y,z
x,1/2+y,1/2+z
-x,1/2-y,1/2+z
-x,y,1/2+z
x,-y,1/2+z
loop_
_atom_site_type_symbol
_atom_site_label
_atom_site_fract_x
_atom_site_fract_y
_atom_site_fract_z
Si Si1 0.539345 0.421535 0.430920
Si Si2 0.056705 0.333659 0.522638
Si Si3 0.227510 0.101234 0.052951
Si Si4 0.403321 0.066698 0.744448
Si Si5 0.357236 0.833874 0.710023
Si Si6 0.141463 0.462150 0.634337
Si Si7 0.718496 0.332248 0.890769
O O1 0.500000 0.500000 0.462002
O O2 0.642803 0.385033 0.494552
O O3 0.613165 0.423602 0.342041
O O4 0.399973 0.375935 0.436822
O O5 0.069811 0.250000 0.549267
O O6 0.116711 0.384127 0.594689
O O7 0.134905 0.347180 0.435765
O O8 0.897621 0.356390 0.508905
O O9 0.256079 0.134225 0.141926
O O10 0.198369 0.016207 0.063959
O O11 0.484896 0.135145 0.706796
O O12 0.251146 0.052470 0.707138
O O13 0.500000 0.000000 0.722207
O O14 0.372378 0.750000 0.697108
O O15 0.278624 0.855084 0.795041
O O16 0.000000 0.500000 0.669731
O O17 0.674660 0.250000 0.897739
#
# Coordination Sequence:
#
# PCOD8181706 Si02
#       7
#     8   8   8   8   8   8   8
#     4  10  22  37  60  89 116 150 197 249 294 353
#     4  10  22  40  60  85 122 159 199 241 297 359
#     4  11  22  38  60  89 121 153 199 247 299 351
#     4  10  20  39  60  87 118 155 197 243 303 357
#     4  10  21  36  61  89 119 157 203 250 299 355
#     4  10  22  39  58  89 122 156 197 249 298 353
#     4   9  20  39  59  84 119 159 197 240 298 358
#
# _framework density 19.274360999999999
#
# number of rings (size 3 to 8) (size 9 to 14) (size 15 to 20)
#    0.000    2.000    1.429    1.286    4.000    1.714 
#    5.143    0.714    0.000    0.000    0.000    0.000 
#    0.000    0.000    0.000    0.000    0.000    0.000 
#
# Total GULP energy -347179.438427 kJ/mol
# GULP energy per Si atom -12399.265658 kJ/mol
# Density = 1.923049 g / cm^3
# Si number density = 19.274361 Si / 1000 Ang^3
#
#
#
# Elastic Constant Matrix: (Units=GPa)
#
#
# Indices 1 2 3 4 5 6 
#
# 1 137.0042 55.9401 77.8000 0.0000 0.0000 0.0000
# 2 55.9401 106.2569 48.8929 0.0000 0.0000 0.0000
# 3 77.8000 48.8929 89.5555 0.0000 0.0000 0.0000
# 4 0.0000 0.0000 0.0000 20.7781 0.0000 0.0000
# 5 0.0000 0.0000 0.0000 0.0000 35.2254 0.0000
# 6 0.0000 0.0000 0.0000 0.0000 0.0000 26.8743
#
#
#
# Elastic Compliance Matrix: (Units=1/GPa)
#
#
# Indices 1 2 3 4 5 6 
#
# 1 0.014895 -0.002521 -0.011563 0.000000 0.000000 0.000000
# 2 -0.002521 0.012995 -0.004905 0.000000 0.000000 0.000000
# 3 -0.011563 -0.004905 0.023890 0.000000 0.000000 0.000000
# 4 0.000000 0.000000 0.000000 0.048128 0.000000 0.000000
# 5 0.000000 0.000000 0.000000 0.000000 0.028389 0.000000
# 6 0.000000 0.000000 0.000000 0.000000 0.000000 0.037210
#
#
# Mechanical properties :
#
#
# Convention : Reuss Voigt Hill
#
# Bulk Modulus (GPa) = 72.45583 77.56473 75.01028
# Shear Modulus (GPa) = 24.02874 26.58781 25.30827
#
# Velocity S-wave (km/s) = 3.53465 3.71811 3.62754
# Velocity P-wave (km/s) = 7.37101 7.66565 7.51977
#
# Compressibility (1/GPa) = 0.01380151
#
# Stress axis : x y z
#
# Youngs Moduli (GPa) = 67.13788 76.95188 41.85934
#
# Poissons Ratio (x) = 0.19398 0.48403
# Poissons Ratio (y) = 0.16924 0.20531
# Poissons Ratio (z) = 0.77634 0.37744
#
# Static dielectric constant tensor:
#      x y z
#    x 3.725990 0.000000 0.000000 
#    y 0.000000 3.718040 0.000000 
#    z 0.000000 0.000000 3.423130 
# 
# 
# High freq. dielectric constant tensor:
#      x y z
#    x 1.748830 0.000000 0.000000 
#    y 0.000000 1.763120 0.000000 
#    z 0.000000 0.000000 1.740210 
# 
# From -- ./inp_files/8645.got.cif
#   From: 2010.03.12/outbox.cif.g09.slc.cpg/sg39_5_cif.got.tgz:8645.got - 2010.04.14 02:53:20.
