data_PCOD8181440
_publ_section_title
;
Structure prediction by ZEFSAII (Michael W. Deem and Ramdas Pophale) SiO2 
 PCOD8181440
Probable space group: A B M 2
;
_chemical_formula_sum "Si O2"
_cell_formula_units_Z 64
_cell_length_a 23.985793
_cell_length_b 9.283169
_cell_length_c 15.311540
_cell_angle_alpha 90.000000
_cell_angle_beta 90.000000
_cell_angle_gamma 90.000000
_cell_volume 3409.331346
_symmetry_space_group_name_H-M "A B M 2"
_symmetry_group_IT_number 39
_symmetry_cell_setting 'orthorhombic'
loop_
_space_group_symop_operation_xyz
x,y,z
-x,-y,z
-x,1/2+y,z
x,1/2-y,z
x,1/2+y,1/2+z
-x,1/2-y,1/2+z
-x,y,1/2+z
x,-y,1/2+z
loop_
_atom_site_type_symbol
_atom_site_label
_atom_site_fract_x
_atom_site_fract_y
_atom_site_fract_z
Si Si1 0.173204 0.420419 0.807190
Si Si2 0.630748 0.080649 0.465720
Si Si3 0.557460 0.079476 0.826776
Si Si4 0.444854 0.584128 0.627513
Si Si5 0.826747 0.079543 0.636540
Si Si6 0.946897 0.916997 0.072974
Si Si7 0.241697 0.579699 0.472038
Si Si8 0.946875 0.417046 0.370994
O O1 0.179616 0.250000 0.796202
O O2 0.195961 0.500272 0.721988
O O3 0.210719 0.479761 0.886430
O O4 0.108984 0.464912 0.821714
O O5 0.624971 0.250000 0.443501
O O6 0.603528 0.043608 0.559396
O O7 0.694446 0.030372 0.472417
O O8 0.604457 0.987091 0.388394
O O9 0.551118 0.250000 0.844128
O O10 0.574546 0.046926 0.726204
O O11 0.500000 0.000000 0.849927
O O12 0.500000 0.500000 0.599998
O O13 0.461059 0.750000 0.620770
O O14 0.820076 0.250000 0.647262
O O15 0.891032 0.035415 0.622319
O O16 0.789433 0.019175 0.557289
O O17 0.958926 0.750000 0.085426
O O18 0.938432 0.957262 0.971989
O O19 0.000000 0.000000 0.112995
O O20 0.236088 0.750000 0.473122
O O21 0.958803 0.250000 0.358462
O O22 0.000000 0.500000 0.330999
#
# Coordination Sequence:
#
# PCOD8181440 Si02
#       8
#     8   8   8   8   8   8   8   8
#     4  10  20  36  56  77 103 138 177 220 268 319
#     4  10  20  35  57  81 105 142 186 221 261 314
#     4  10  20  35  55  82 116 146 175 217 264 311
#     4   9  19  34  53  79 110 141 173 210 256 307
#     4  10  20  36  57  78 102 138 180 220 265 321
#     4   9  17  31  52  76 102 134 171 212 264 323
#     4   9  19  38  58  74 103 145 182 216 263 322
#     4   9  17  31  52  75 102 134 170 212 264 323
#
# _framework density 18.772009000000001
#
# number of rings (size 3 to 8) (size 9 to 14) (size 15 to 20)
#    0.000    2.500    1.250    0.750    0.000    4.500 
#    0.000    5.625    0.000    0.000    0.000    0.000 
#    0.000    0.000    0.000    0.000    0.000    0.000 
#
# Total GULP energy -396825.495706 kJ/mol
# GULP energy per Si atom -12400.796741 kJ/mol
# Density = 1.872928 g / cm^3
# Si number density = 18.772009 Si / 1000 Ang^3
#
#
#
# Elastic Constant Matrix: (Units=GPa)
#
#
# Indices 1 2 3 4 5 6 
#
# 1 144.4955 52.0343 86.8086 0.0000 0.0000 0.0000
# 2 52.0343 49.3179 47.8380 0.0000 0.0000 0.0000
# 3 86.8086 47.8380 139.1854 0.0000 0.0000 0.0000
# 4 0.0000 0.0000 0.0000 29.7452 0.0000 0.0000
# 5 0.0000 0.0000 0.0000 0.0000 12.2684 0.0000
# 6 0.0000 0.0000 0.0000 0.0000 0.0000 24.4541
#
#
#
# Elastic Compliance Matrix: (Units=1/GPa)
#
#
# Indices 1 2 3 4 5 6 
#
# 1 0.013269 -0.008959 -0.005196 0.000000 0.000000 0.000000
# 2 -0.008959 0.036467 -0.006946 0.000000 0.000000 0.000000
# 3 -0.005196 -0.006946 0.012813 0.000000 0.000000 0.000000
# 4 0.000000 0.000000 0.000000 0.033619 0.000000 0.000000
# 5 0.000000 0.000000 0.000000 0.000000 0.081510 0.000000
# 6 0.000000 0.000000 0.000000 0.000000 0.000000 0.040893
#
#
# Mechanical properties :
#
#
# Convention : Reuss Voigt Hill
#
# Bulk Modulus (GPa) = 49.15075 78.48450 63.81763
# Shear Modulus (GPa) = 18.68778 23.04807 20.86793
#
# Velocity S-wave (km/s) = 3.15860 3.50778 3.33776
# Velocity P-wave (km/s) = 6.28826 7.63585 6.99458
#
# Compressibility (1/GPa) = 0.02034557
#
# Stress axis : x y z
#
# Youngs Moduli (GPa) = 75.36543 27.42238 78.04681
#
# Poissons Ratio (x) = 0.24568 0.40555
# Poissons Ratio (y) = 0.67521 0.54210
# Poissons Ratio (z) = 0.39162 0.19047
#
# Static dielectric constant tensor:
#      x y z
#    x 3.526820 0.000000 0.000000 
#    y 0.000000 3.227470 0.000000 
#    z 0.000000 0.000000 3.521000 
# 
# 
# High freq. dielectric constant tensor:
#      x y z
#    x 1.727120 0.000000 0.000000 
#    y 0.000000 1.708250 0.000000 
#    z 0.000000 0.000000 1.736430 
# 
# From -- ./inp_files/10628.got.cif
#   From: 2010.03.12/outbox.cif.g09.slc.cpg/sg39_6_cif.got.tgz:10628.got - 2010.04.14 02:53:20.
