data_PCOD8181746
_publ_section_title
;
Structure prediction by ZEFSAII (Michael W. Deem and Ramdas Pophale) SiO2 
 PCOD8181746
Probable space group: A B M 2
;
_chemical_formula_sum "Si O2"
_cell_formula_units_Z 56
_cell_length_a 5.161715
_cell_length_b 14.203133
_cell_length_c 34.436319
_cell_angle_alpha 90.000000
_cell_angle_beta 90.000000
_cell_angle_gamma 90.000000
_cell_volume 2524.613486
_symmetry_space_group_name_H-M "A B M 2"
_symmetry_group_IT_number 39
_symmetry_cell_setting 'orthorhombic'
loop_
_space_group_symop_operation_xyz
x,y,z
-x,-y,z
-x,1/2+y,z
x,1/2-y,z
x,1/2+y,1/2+z
-x,1/2-y,1/2+z
-x,y,1/2+z
x,-y,1/2+z
loop_
_atom_site_type_symbol
_atom_site_label
_atom_site_fract_x
_atom_site_fract_y
_atom_site_fract_z
Si Si1 0.847522 0.642821 0.216250
Si Si2 0.790292 0.750000 0.983334
Si Si3 0.045469 0.111773 0.047727
Si Si4 0.748701 0.063950 0.882464
Si Si5 0.353015 0.361485 0.676233
Si Si6 0.246662 0.438435 0.294755
Si Si7 0.722948 0.750000 0.433065
Si Si8 0.545147 0.106113 0.087918
O O1 0.865681 0.750000 0.202968
O O2 0.612925 0.592094 0.193567
O O3 0.784105 0.641990 0.262271
O O4 0.113206 0.594506 0.200886
O O5 0.496141 0.750000 0.966889
O O6 0.985123 0.750000 0.947770
O O7 0.853700 0.844825 0.007432
O O8 0.766620 0.153732 0.060769
O O9 0.259042 0.148124 0.079770
O O10 0.000000 0.000000 0.043757
O O11 0.763057 0.102786 0.838258
O O12 0.702782 0.155256 0.908278
O O13 0.500000 0.000000 0.888598
O O14 0.000000 0.000000 0.892987
O O15 0.361271 0.250000 0.682138
O O16 0.345296 0.386675 0.631111
O O17 0.500000 0.500000 0.287855
O O18 0.000000 0.500000 0.286647
O O19 0.500000 0.000000 0.074878
#
# Coordination Sequence:
#
# PCOD8181746 Si02
#       8
#     8   4   8   8   8   8   4   8
#     4  10  21  36  53  83 122 159 203 254 308 360
#     4  12  26  42  68 100 125 166 213 256 326 402
#     4  10  23  41  61  90 124 160 207 260 312 376
#     4  10  23  44  68  99 136 172 216 269 320 385
#     4  10  21  34  53  84 118 158 205 255 309 359
#     4  10  21  38  61  88 118 162 211 251 308 368
#     4  12  26  44  70 104 131 170 219 254 332 408
#     4  10  21  38  59  84 117 161 209 252 310 369
#
# _framework density 22.181612000000001
#
# number of rings (size 3 to 8) (size 9 to 14) (size 15 to 20)
#    0.000    1.714    0.000    3.429    3.000    3.429 
#    0.000    0.000    0.000    0.000    0.000    0.000 
#    0.000    0.000    0.000    0.000    0.000    0.000 
#
# Total GULP energy -346916.178626 kJ/mol
# GULP energy per Si atom -12389.863522 kJ/mol
# Density = 2.213113 g / cm^3
# Si number density = 22.181612 Si / 1000 Ang^3
#
#
#
# Elastic Constant Matrix: (Units=GPa)
#
#
# Indices 1 2 3 4 5 6 
#
# 1 179.9904 33.3136 39.8067 0.0000 0.0000 0.0000
# 2 33.3136 57.7463 30.5675 0.0000 0.0000 0.0000
# 3 39.8067 30.5675 111.2822 0.0000 0.0000 0.0000
# 4 0.0000 0.0000 0.0000 41.8781 0.0000 0.0000
# 5 0.0000 0.0000 0.0000 0.0000 40.6200 0.0000
# 6 0.0000 0.0000 0.0000 0.0000 0.0000 12.4028
#
#
#
# Elastic Compliance Matrix: (Units=1/GPa)
#
#
# Indices 1 2 3 4 5 6 
#
# 1 0.006427 -0.002914 -0.001498 0.000000 0.000000 0.000000
# 2 -0.002914 0.021585 -0.004887 0.000000 0.000000 0.000000
# 3 -0.001498 -0.004887 0.010864 0.000000 0.000000 0.000000
# 4 0.000000 0.000000 0.000000 0.023879 0.000000 0.000000
# 5 0.000000 0.000000 0.000000 0.000000 0.024618 0.000000
# 6 0.000000 0.000000 0.000000 0.000000 0.000000 0.080627
#
#
# Mechanical properties :
#
#
# Convention : Reuss Voigt Hill
#
# Bulk Modulus (GPa) = 49.31563 61.82158 55.56860
# Shear Modulus (GPa) = 25.85873 35.33558 30.59715
#
# Velocity S-wave (km/s) = 3.41805 3.99559 3.71805
# Velocity P-wave (km/s) = 6.15291 7.01551 6.59832
#
# Compressibility (1/GPa) = 0.02027755
#
# Stress axis : x y z
#
# Youngs Moduli (GPa) = 155.60252 46.32826 92.04370
#
# Poissons Ratio (x) = 0.13502 0.13791
# Poissons Ratio (y) = 0.45348 0.44978
# Poissons Ratio (z) = 0.23314 0.22639
#
# Static dielectric constant tensor:
#      x y z
#    x 4.721630 0.000000 0.000000 
#    y 0.000000 5.338650 0.000000 
#    z 0.000000 0.000000 4.155830 
# 
# 
# High freq. dielectric constant tensor:
#      x y z
#    x 1.904020 0.000000 0.000000 
#    y 0.000000 1.862710 0.000000 
#    z 0.000000 0.000000 1.868040 
# 
# From -- ./inp_files/17337.got.cif
#   From: 2010.03.12/outbox.cif.g09.slc.cpg/sg39_9_cif.got.tgz:17337.got - 2010.04.14 02:53:20.
