data_PCOD8181938
_publ_section_title
;
Structure prediction by ZEFSAII (Michael W. Deem and Ramdas Pophale) SiO2 
 PCOD8181938
Probable space group: A B M 2
;
_chemical_formula_sum "Si O2"
_cell_formula_units_Z 40
_cell_length_a 6.073801
_cell_length_b 20.185603
_cell_length_c 14.285964
_cell_angle_alpha 90.000000
_cell_angle_beta 90.000000
_cell_angle_gamma 90.000000
_cell_volume 1751.506840
_symmetry_space_group_name_H-M "A B M 2"
_symmetry_group_IT_number 39
_symmetry_cell_setting 'orthorhombic'
loop_
_space_group_symop_operation_xyz
x,y,z
-x,-y,z
-x,1/2+y,z
x,1/2-y,z
x,1/2+y,1/2+z
-x,1/2-y,1/2+z
-x,y,1/2+z
x,-y,1/2+z
loop_
_atom_site_type_symbol
_atom_site_label
_atom_site_fract_x
_atom_site_fract_y
_atom_site_fract_z
Si Si1 0.497398 0.894526 0.575760
Si Si2 0.874735 0.177845 0.173351
Si Si3 0.837339 0.941099 0.431373
Si Si4 0.876625 0.677640 0.982320
Si Si5 0.843627 0.940069 0.224685
O O1 0.632678 0.847586 0.645856
O O2 0.653215 0.941361 0.512418
O O3 0.367499 0.851167 0.498822
O O4 0.338964 0.936987 0.643434
O O5 0.851218 0.250000 0.223613
O O6 0.004531 0.125324 0.236901
O O7 0.018310 0.187420 0.082370
O O8 0.736109 0.953122 0.327341
O O9 0.972621 0.872510 0.424042
O O10 0.000000 0.000000 0.460017
O O11 0.861197 0.750000 0.932187
O O12 0.000000 0.000000 0.194169
#
# Coordination Sequence:
#
# PCOD8181938 Si02
#       5
#     8   8   8   8   8
#     4  10  21  39  66  90 119 165 210 254 309 371
#     4   9  19  36  59  89 124 161 204 253 303 359
#     4  10  23  41  61  91 128 163 205 257 311 371
#     4   9  19  36  59  89 124 161 204 253 303 359
#     4  10  23  41  61  91 128 163 205 257 311 371
#
# _framework density 22.837478000000001
#
# number of rings (size 3 to 8) (size 9 to 14) (size 15 to 20)
#    0.000    2.400    0.000    0.600    0.000   14.400 
#    0.000    4.000    0.000    1.200    0.000    0.000 
#    0.000    0.000    0.000    0.000    0.000    0.000 
#
# Total GULP energy -247875.657260 kJ/mol
# GULP energy per Si atom -12393.782863 kJ/mol
# Density = 2.278550 g / cm^3
# Si number density = 22.837478 Si / 1000 Ang^3
#
#
#
# Elastic Constant Matrix: (Units=GPa)
#
#
# Indices 1 2 3 4 5 6 
#
# 1 125.2455 55.4550 54.5659 0.0000 0.0000 0.0000
# 2 55.4550 150.4058 49.4154 0.0000 0.0000 0.0000
# 3 54.5659 49.4154 99.6480 0.0000 0.0000 0.0000
# 4 0.0000 0.0000 0.0000 -68.3541 0.0000 0.0000
# 5 0.0000 0.0000 0.0000 0.0000 21.4700 0.0000
# 6 0.0000 0.0000 0.0000 0.0000 0.0000 57.8045
#
#
#
# Elastic Compliance Matrix: (Units=1/GPa)
#
#
# Indices 1 2 3 4 5 6 
#
# 1 0.011241 -0.002535 -0.004898 0.000000 0.000000 0.000000
# 2 -0.002535 0.008515 -0.002834 0.000000 0.000000 0.000000
# 3 -0.004898 -0.002834 0.014123 0.000000 0.000000 0.000000
# 4 0.000000 0.000000 0.000000 -0.014630 0.000000 0.000000
# 5 0.000000 0.000000 0.000000 0.000000 0.046577 0.000000
# 6 0.000000 0.000000 0.000000 0.000000 0.000000 0.017300
#
#
# Mechanical properties :
#
#
# Convention : Reuss Voigt Hill
#
# Bulk Modulus (GPa) = 74.94357 77.13023 76.03690
# Shear Modulus (GPa) = 46.25020 16.57493 31.41256
#
# Velocity S-wave (km/s) = 4.50509 2.69695 3.71277
# Velocity P-wave (km/s) = 7.74264 6.59886 7.19352
#
# Compressibility (1/GPa) = 0.01334337
#
# Stress axis : x y z
#
# Youngs Moduli (GPa) = 88.96153 117.44566 70.80714
#
# Poissons Ratio (x) = 0.29776 0.34682
# Poissons Ratio (y) = 0.22554 0.20067
# Poissons Ratio (z) = 0.43574 0.33285
#
# Static dielectric constant tensor:
#      x y z
#    x 4.758080 0.000000 0.000000 
#    y 0.000000 4.816500 0.000000 
#    z 0.000000 0.000000 3.839390 
# 
# 
# High freq. dielectric constant tensor:
#      x y z
#    x 1.893680 0.000000 0.000000 
#    y 0.000000 1.915860 0.000000 
#    z 0.000000 0.000000 1.886240 
# 
# From -- ./inp_files/7406.got.cif
#   From: 2010.03.12/outbox.cif.g09.slc.cpg/sg39_4_cif.got.tgz:7406.got - 2010.04.14 02:53:20.
