data_PCOD8181704
_publ_section_title
;
Structure prediction by ZEFSAII (Michael W. Deem and Ramdas Pophale) SiO2 
 PCOD8181704
Probable space group: A B M 2
;
_chemical_formula_sum "Si O2"
_cell_formula_units_Z 44
_cell_length_a 9.305780
_cell_length_b 26.516549
_cell_length_c 8.773462
_cell_angle_alpha 90.000000
_cell_angle_beta 90.000000
_cell_angle_gamma 90.000000
_cell_volume 2164.914666
_symmetry_space_group_name_H-M "A B M 2"
_symmetry_group_IT_number 39
_symmetry_cell_setting 'orthorhombic'
loop_
_space_group_symop_operation_xyz
x,y,z
-x,-y,z
-x,1/2+y,z
x,1/2-y,z
x,1/2+y,1/2+z
-x,1/2-y,1/2+z
-x,y,1/2+z
x,-y,1/2+z
loop_
_atom_site_type_symbol
_atom_site_label
_atom_site_fract_x
_atom_site_fract_y
_atom_site_fract_z
Si Si1 0.916639 0.196404 0.161500
Si Si2 0.600103 0.310732 0.702047
Si Si3 0.000000 0.000000 0.607345
Si Si4 0.134298 0.351284 0.352648
Si Si5 0.894037 0.431484 0.351225
Si Si6 0.318240 0.159126 0.862020
O O1 0.906207 0.250000 0.078098
O O2 0.809432 0.194635 0.304564
O O3 0.072266 0.191156 0.238021
O O4 0.884922 0.155120 0.033667
O O5 0.608611 0.250000 0.735285
O O6 0.698563 0.346446 0.810846
O O7 0.444053 0.333251 0.739393
O O8 0.631768 0.322212 0.526456
O O9 0.883150 0.970294 0.710624
O O10 0.095099 0.961942 0.507708
O O11 0.044544 0.401831 0.317460
O O12 0.750353 0.397322 0.361680
#
# Coordination Sequence:
#
# PCOD8181704 Si02
#       6
#     8   8   4   8   8   8
#     4  11  20  34  53  82 117 159 201 245 279 335
#     4  12  23  38  58  87 124 171 203 234 275 344
#     4  10  20  38  70  90 112 136 198 248 312 374
#     4  11  22  35  58  86 122 153 198 239 293 344
#     4  10  21  40  63  92 112 150 187 252 307 354
#     4  11  24  39  58  82 122 158 205 244 294 346
#
# _framework density 20.324128000000002
#
# number of rings (size 3 to 8) (size 9 to 14) (size 15 to 20)
#    0.000    1.091    0.000    9.818    0.000    0.000 
#    0.000    0.000    0.000   18.545    0.000    0.000 
#    0.000    0.000    0.000    0.000    0.000    0.000 
#
# Total GULP energy -272589.346901 kJ/mol
# GULP energy per Si atom -12390.424859 kJ/mol
# Density = 2.027787 g / cm^3
# Si number density = 20.324128 Si / 1000 Ang^3
#
#
#
# Elastic Constant Matrix: (Units=GPa)
#
#
# Indices 1 2 3 4 5 6 
#
# 1 61.9418 36.9056 11.2312 0.0000 0.0000 0.0000
# 2 36.9056 109.1068 38.5690 0.0000 0.0000 0.0000
# 3 11.2312 38.5690 111.5201 0.0000 0.0000 0.0000
# 4 0.0000 0.0000 0.0000 34.3536 0.0000 0.0000
# 5 0.0000 0.0000 0.0000 0.0000 34.3686 0.0000
# 6 0.0000 0.0000 0.0000 0.0000 0.0000 24.0917
#
#
#
# Elastic Compliance Matrix: (Units=1/GPa)
#
#
# Indices 1 2 3 4 5 6 
#
# 1 0.020233 -0.006976 0.000375 0.000000 0.000000 0.000000
# 2 -0.006976 0.012847 -0.003741 0.000000 0.000000 0.000000
# 3 0.000375 -0.003741 0.010223 0.000000 0.000000 0.000000
# 4 0.000000 0.000000 0.000000 0.029109 0.000000 0.000000
# 5 0.000000 0.000000 0.000000 0.000000 0.029096 0.000000
# 6 0.000000 0.000000 0.000000 0.000000 0.000000 0.041508
#
#
# Mechanical properties :
#
#
# Convention : Reuss Voigt Hill
#
# Bulk Modulus (GPa) = 44.21011 50.66450 47.43730
# Shear Modulus (GPa) = 29.19877 31.62032 30.40954
#
# Velocity S-wave (km/s) = 3.79444 3.94864 3.87231
# Velocity P-wave (km/s) = 6.40287 6.76546 6.58666
#
# Compressibility (1/GPa) = 0.02261926
#
# Stress axis : x y z
#
# Youngs Moduli (GPa) = 49.42473 77.83662 97.81952
#
# Poissons Ratio (x) = 0.54302 -0.03669
# Poissons Ratio (y) = 0.34481 0.36591
# Poissons Ratio (z) = -0.01854 0.29116
#
# Static dielectric constant tensor:
#      x y z
#    x 3.674630 0.000000 0.000000 
#    y 0.000000 3.751810 0.000000 
#    z 0.000000 0.000000 3.757870 
# 
# 
# High freq. dielectric constant tensor:
#      x y z
#    x 1.777530 0.000000 0.000000 
#    y 0.000000 1.785130 0.000000 
#    z 0.000000 0.000000 1.819710 
# 
# From -- ./inp_files/2246.got.cif
#   From: 2010.03.12/outbox.cif.g09.slc.cpg/sg39_2_cif.got.tgz:2246.got - 2010.04.14 02:53:20.
