data_PCOD8181510
_publ_section_title
;
Structure prediction by ZEFSAII (Michael W. Deem and Ramdas Pophale) SiO2 
 PCOD8181510
Probable space group: A B M 2
;
_chemical_formula_sum "Si O2"
_cell_formula_units_Z 64
_cell_length_a 23.615473
_cell_length_b 8.949121
_cell_length_c 15.318612
_cell_angle_alpha 90.000000
_cell_angle_beta 90.000000
_cell_angle_gamma 90.000000
_cell_volume 3237.400616
_symmetry_space_group_name_H-M "A B M 2"
_symmetry_group_IT_number 39
_symmetry_cell_setting 'orthorhombic'
loop_
_space_group_symop_operation_xyz
x,y,z
-x,-y,z
-x,1/2+y,z
x,1/2-y,z
x,1/2+y,1/2+z
-x,1/2-y,1/2+z
-x,y,1/2+z
x,-y,1/2+z
loop_
_atom_site_type_symbol
_atom_site_label
_atom_site_fract_x
_atom_site_fract_y
_atom_site_fract_z
Si Si1 0.248107 0.423418 0.776010
Si Si2 0.642664 0.577560 0.525476
Si Si3 0.862731 0.926284 0.216644
Si Si4 0.244265 0.424195 0.979279
Si Si5 0.939758 0.073899 0.876803
Si Si6 0.373072 0.421607 0.721314
Si Si7 0.559792 0.925783 0.370171
Si Si8 0.131529 0.426800 0.541764
O O1 0.235227 0.250000 0.757979
O O2 0.201816 0.521189 0.726194
O O3 0.246770 0.462428 0.877563
O O4 0.308621 0.471455 0.738241
O O5 0.660846 0.750000 0.512633
O O6 0.697635 0.474260 0.523585
O O7 0.612422 0.555569 0.619241
O O8 0.600383 0.525191 0.449489
O O9 0.863961 0.750000 0.205549
O O10 0.898926 0.980518 0.299316
O O11 0.890568 0.001625 0.131607
O O12 0.234261 0.250000 0.996934
O O13 0.194262 0.516859 0.022362
O O14 0.947633 0.250000 0.874788
O O15 0.911665 0.019973 0.966916
O O16 0.000000 0.000000 0.864364
O O17 0.381245 0.250000 0.750193
O O18 0.415257 0.521690 0.777758
O O19 0.551495 0.750000 0.366773
O O20 0.500000 0.000000 0.388234
O O21 0.133034 0.250000 0.549718
#
# Coordination Sequence:
#
# PCOD8181510 Si02
#       8
#     8   8   8   8   8   8   8   8
#     4  10  20  35  60  92 125 161 195 240 301 357
#     4  10  22  39  62  90 122 160 197 240 299 357
#     4  11  23  40  62  92 123 157 201 248 297 359
#     4  11  21  35  61  95 124 158 200 244 296 355
#     4  10  24  43  63  86 118 158 203 251 302 354
#     4  10  21  40  62  88 121 155 195 242 294 354
#     4  11  24  41  61  86 116 156 202 248 298 350
#     4  11  23  41  62  89 123 161 199 245 302 358
#
# _framework density 19.768946
#
# number of rings (size 3 to 8) (size 9 to 14) (size 15 to 20)
#    0.000    1.500    2.500    2.250    0.000    6.000 
#    0.000    3.750    0.000    0.000    0.000    0.000 
#    0.000    0.000    0.000    0.000    0.000    0.000 
#
# Total GULP energy -396998.256987 kJ/mol
# GULP energy per Si atom -12406.195531 kJ/mol
# Density = 1.972395 g / cm^3
# Si number density = 19.768946 Si / 1000 Ang^3
#
#
#
# Elastic Constant Matrix: (Units=GPa)
#
#
# Indices 1 2 3 4 5 6 
#
# 1 88.5174 29.1182 17.9989 0.0000 0.0000 0.0000
# 2 29.1182 61.9799 31.2227 0.0000 0.0000 0.0000
# 3 17.9989 31.2227 105.6186 0.0000 0.0000 0.0000
# 4 0.0000 0.0000 0.0000 19.2304 0.0000 0.0000
# 5 0.0000 0.0000 0.0000 0.0000 12.3683 0.0000
# 6 0.0000 0.0000 0.0000 0.0000 0.0000 33.3788
#
#
#
# Elastic Compliance Matrix: (Units=1/GPa)
#
#
# Indices 1 2 3 4 5 6 
#
# 1 0.013384 -0.006038 -0.000496 0.000000 0.000000 0.000000
# 2 -0.006038 0.021681 -0.005380 0.000000 0.000000 0.000000
# 3 -0.000496 -0.005380 0.011143 0.000000 0.000000 0.000000
# 4 0.000000 0.000000 0.000000 0.052001 0.000000 0.000000
# 5 0.000000 0.000000 0.000000 0.000000 0.080852 0.000000
# 6 0.000000 0.000000 0.000000 0.000000 0.000000 0.029959
#
#
# Mechanical properties :
#
#
# Convention : Reuss Voigt Hill
#
# Bulk Modulus (GPa) = 44.68300 45.86618 45.27459
# Shear Modulus (GPa) = 20.80648 24.84724 22.82686
#
# Velocity S-wave (km/s) = 3.24772 3.54910 3.40175
# Velocity P-wave (km/s) = 6.05931 6.32822 6.19522
#
# Compressibility (1/GPa) = 0.02237988
#
# Stress axis : x y z
#
# Youngs Moduli (GPa) = 74.71424 46.12251 89.74179
#
# Poissons Ratio (x) = 0.27849 0.04450
# Poissons Ratio (y) = 0.45114 0.48285
# Poissons Ratio (z) = 0.03705 0.24816
#
# Static dielectric constant tensor:
#      x y z
#    x 3.488550 0.000000 0.000000 
#    y 0.000000 3.712640 0.000000 
#    z 0.000000 0.000000 3.903540 
# 
# 
# High freq. dielectric constant tensor:
#      x y z
#    x 1.763770 0.000000 0.000000 
#    y 0.000000 1.770270 0.000000 
#    z 0.000000 0.000000 1.789440 
# 
# From -- ./inp_files/10595.got.cif
#   From: 2010.03.12/outbox.cif.g09.slc.cpg/sg39_6_cif.got.tgz:10595.got - 2010.04.14 02:53:20.
