data_PCOD8181943
_publ_section_title
;
Structure prediction by ZEFSAII (Michael W. Deem and Ramdas Pophale) SiO2 
 PCOD8181943
Probable space group: A B M 2
;
_chemical_formula_sum "Si O2"
_cell_formula_units_Z 52
_cell_length_a 14.358441
_cell_length_b 19.915076
_cell_length_c 8.652701
_cell_angle_alpha 90.000000
_cell_angle_beta 90.000000
_cell_angle_gamma 90.000000
_cell_volume 2474.235038
_symmetry_space_group_name_H-M "A B M 2"
_symmetry_group_IT_number 39
_symmetry_cell_setting 'orthorhombic'
loop_
_space_group_symop_operation_xyz
x,y,z
-x,-y,z
-x,1/2+y,z
x,1/2-y,z
x,1/2+y,1/2+z
-x,1/2-y,1/2+z
-x,y,1/2+z
x,-y,1/2+z
loop_
_atom_site_type_symbol
_atom_site_label
_atom_site_fract_x
_atom_site_fract_y
_atom_site_fract_z
Si Si1 0.570102 0.328870 0.180750
Si Si2 0.880540 0.750000 0.684841
Si Si3 0.132156 0.476765 0.724484
Si Si4 0.616357 0.169764 0.838694
Si Si5 0.197385 0.371696 0.185029
Si Si6 0.082578 0.750000 0.819932
Si Si7 0.244334 0.636735 0.326996
Si Si8 0.000000 0.000000 0.475414
O O1 0.562622 0.250000 0.173158
O O2 0.469714 0.355906 0.234410
O O3 0.646660 0.348713 0.308206
O O4 0.597283 0.356097 0.012333
O O5 0.901193 0.750000 0.503043
O O6 0.818697 0.813991 0.726431
O O7 0.973138 0.750000 0.786963
O O8 0.151514 0.555884 0.712979
O O9 0.227095 0.436275 0.748767
O O10 0.069560 0.453809 0.577969
O O11 0.067263 0.455157 0.869405
O O12 0.631425 0.250000 0.830257
O O13 0.707839 0.132115 0.781551
O O14 0.125908 0.315989 0.242922
O O15 0.219918 0.358937 0.006297
#
# Coordination Sequence:
#
# PCOD8181943 Si02
#       8
#     8   4   8   8   8   4   8   4
#     4  10  21  39  66  96 131 172 215 267 326 390
#     4  12  28  42  63  92 133 170 214 272 330 382
#     4  11  26  42  69  92 130 170 229 266 327 380
#     4  10  21  39  66  96 131 172 215 267 326 390
#     4  12  25  43  66  98 131 172 216 271 325 392
#     4  12  28  42  63  92 133 170 214 272 330 382
#     4  12  25  43  66  98 131 172 216 271 325 392
#     4  10  24  46  64  92 122 182 224 272 308 398
#
# _framework density 21.016597000000001
#
# number of rings (size 3 to 8) (size 9 to 14) (size 15 to 20)
#    0.000    0.923    3.077    3.231    8.615    1.231 
#    0.000    0.769    0.000    3.692    0.000    0.000 
#    0.000    0.000    0.000    0.000    0.000    0.000 
#
# Total GULP energy -322348.641384 kJ/mol
# GULP energy per Si atom -12398.024669 kJ/mol
# Density = 2.096876 g / cm^3
# Si number density = 21.016597 Si / 1000 Ang^3
#
#
#
# Elastic Constant Matrix: (Units=GPa)
#
#
# Indices 1 2 3 4 5 6 
#
# 1 113.3577 24.1504 14.8597 0.0000 0.0000 0.0000
# 2 24.1504 77.8087 23.1621 0.0000 0.0000 0.0000
# 3 14.8597 23.1621 117.6194 0.0000 0.0000 0.0000
# 4 0.0000 0.0000 0.0000 18.6942 0.0000 0.0000
# 5 0.0000 0.0000 0.0000 0.0000 30.9781 0.0000
# 6 0.0000 0.0000 0.0000 0.0000 0.0000 14.2587
#
#
#
# Elastic Compliance Matrix: (Units=1/GPa)
#
#
# Indices 1 2 3 4 5 6 
#
# 1 0.009494 -0.002751 -0.000658 0.000000 0.000000 0.000000
# 2 -0.002751 0.014449 -0.002498 0.000000 0.000000 0.000000
# 3 -0.000658 -0.002498 0.009077 0.000000 0.000000 0.000000
# 4 0.000000 0.000000 0.000000 0.053493 0.000000 0.000000
# 5 0.000000 0.000000 0.000000 0.000000 0.032281 0.000000
# 6 0.000000 0.000000 0.000000 0.000000 0.000000 0.070132
#
#
# Mechanical properties :
#
#
# Convention : Reuss Voigt Hill
#
# Bulk Modulus (GPa) = 47.15367 48.12556 47.63961
# Shear Modulus (GPa) = 24.06063 29.22712 26.64388
#
# Velocity S-wave (km/s) = 3.38722 3.73321 3.56442
# Velocity P-wave (km/s) = 6.14677 6.44446 6.29737
#
# Compressibility (1/GPa) = 0.02120726
#
# Stress axis : x y z
#
# Youngs Moduli (GPa) = 105.33046 69.20677 110.16867
#
# Poissons Ratio (x) = 0.19038 0.07246
# Poissons Ratio (y) = 0.28976 0.27519
# Poissons Ratio (z) = 0.06928 0.17287
#
# Static dielectric constant tensor:
#      x y z
#    x 4.045960 0.000000 0.000000 
#    y 0.000000 3.601640 0.000000 
#    z 0.000000 0.000000 4.274290 
# 
# 
# High freq. dielectric constant tensor:
#      x y z
#    x 1.839230 0.000000 0.000000 
#    y 0.000000 1.790100 0.000000 
#    z 0.000000 0.000000 1.849060 
# 
# From -- ./inp_files/3363.got.cif
#   From: 2010.03.12/outbox.cif.g09.slc.cpg/sg39_2_cif.got.tgz:3363.got - 2010.04.14 02:53:20.
