data_PCOD8181281
_publ_section_title
;
Structure prediction by ZEFSAII (Michael W. Deem and Ramdas Pophale) SiO2 
 PCOD8181281
Probable space group: A B M 2
;
_chemical_formula_sum "Si O2"
_cell_formula_units_Z 40
_cell_length_a 11.310386
_cell_length_b 19.988013
_cell_length_c 8.881867
_cell_angle_alpha 90.000000
_cell_angle_beta 90.000000
_cell_angle_gamma 90.000000
_cell_volume 2007.942701
_symmetry_space_group_name_H-M "A B M 2"
_symmetry_group_IT_number 39
_symmetry_cell_setting 'orthorhombic'
loop_
_space_group_symop_operation_xyz
x,y,z
-x,-y,z
-x,1/2+y,z
x,1/2-y,z
x,1/2+y,1/2+z
-x,1/2-y,1/2+z
-x,y,1/2+z
x,-y,1/2+z
loop_
_atom_site_type_symbol
_atom_site_label
_atom_site_fract_x
_atom_site_fract_y
_atom_site_fract_z
Si Si1 0.843238 0.945261 0.039380
Si Si2 0.500000 0.500000 0.310055
Si Si3 0.582429 0.673986 0.409555
Si Si4 0.344168 0.058183 0.557925
Si Si5 0.658119 0.326919 0.573905
Si Si6 0.000000 0.000000 0.789540
O O1 0.764607 0.878428 0.036590
O O2 0.922929 0.948988 0.188640
O O3 0.769986 0.014050 0.036216
O O4 0.922400 0.948850 0.889469
O O5 0.565909 0.551312 0.416901
O O6 0.405650 0.541192 0.214057
O O7 0.617188 0.750000 0.434229
O O8 0.673167 0.637384 0.529811
O O9 0.444254 0.662211 0.451082
O O10 0.604552 0.653327 0.235962
O O11 0.704921 0.250000 0.570807
#
# Coordination Sequence:
#
# PCOD8181281 Si02
#       6
#     8   4   8   8   8   4
#     4  11  22  39  59  79 107 143 188 237 281 315
#     4  10  20  28  48  84 110 132 180 216 256 340
#     4  10  20  33  52  84 121 150 177 208 256 335
#     4  11  19  32  53  79 110 146 177 217 271 327
#     4  10  21  37  57  83 117 150 176 213 269 332
#     4  10  24  40  58  80 100 134 196 254 278 304
#
# _framework density 19.920888000000001
#
# number of rings (size 3 to 8) (size 9 to 14) (size 15 to 20)
#    0.000    1.600    0.000    7.200    0.000    1.600 
#    0.000    1.000    0.000    4.800    0.000    0.000 
#    0.000    0.000    0.000    0.000    0.000    0.000 
#
# Total GULP energy -247871.571870 kJ/mol
# GULP energy per Si atom -12393.578593 kJ/mol
# Density = 1.987555 g / cm^3
# Si number density = 19.920888 Si / 1000 Ang^3
#
#
#
# Elastic Constant Matrix: (Units=GPa)
#
#
# Indices 1 2 3 4 5 6 
#
# 1 85.8896 44.0399 22.8236 0.0000 0.0000 0.0000
# 2 44.0399 89.6571 18.2217 0.0000 0.0000 0.0000
# 3 22.8236 18.2217 75.8168 0.0000 0.0000 0.0000
# 4 0.0000 0.0000 0.0000 23.4510 0.0000 0.0000
# 5 0.0000 0.0000 0.0000 0.0000 26.8585 0.0000
# 6 0.0000 0.0000 0.0000 0.0000 0.0000 34.9553
#
#
#
# Elastic Compliance Matrix: (Units=1/GPa)
#
#
# Indices 1 2 3 4 5 6 
#
# 1 0.016237 -0.007341 -0.003124 0.000000 0.000000 0.000000
# 2 -0.007341 0.015045 -0.001406 0.000000 0.000000 0.000000
# 3 -0.003124 -0.001406 0.014468 0.000000 0.000000 0.000000
# 4 0.000000 0.000000 0.000000 0.042642 0.000000 0.000000
# 5 0.000000 0.000000 0.000000 0.000000 0.037232 0.000000
# 6 0.000000 0.000000 0.000000 0.000000 0.000000 0.028608
#
#
# Mechanical properties :
#
#
# Convention : Reuss Voigt Hill
#
# Bulk Modulus (GPa) = 45.43589 46.83710 46.13649
# Shear Modulus (GPa) = 26.98188 28.13819 27.56003
#
# Velocity S-wave (km/s) = 3.68428 3.76240 3.72354
# Velocity P-wave (km/s) = 6.39971 6.51435 6.45728
#
# Compressibility (1/GPa) = 0.02200903
#
# Stress axis : x y z
#
# Youngs Moduli (GPa) = 61.58817 66.46637 69.11826
#
# Poissons Ratio (x) = 0.48792 0.21590
# Poissons Ratio (y) = 0.45211 0.09719
# Poissons Ratio (z) = 0.19238 0.09346
#
# Static dielectric constant tensor:
#      x y z
#    x 3.508870 0.000000 0.000000 
#    y 0.000000 3.950480 0.000000 
#    z 0.000000 0.000000 3.915980 
# 
# 
# High freq. dielectric constant tensor:
#      x y z
#    x 1.747850 0.000000 0.000000 
#    y 0.000000 1.783570 0.000000 
#    z 0.000000 0.000000 1.798640 
# 
# From -- ./inp_files/2630.got.cif
#   From: 2010.03.12/outbox.cif.g09.slc.cpg/sg39_2_cif.got.tgz:2630.got - 2010.04.14 02:53:20.
