data_PCOD8181877
_publ_section_title
;
Structure prediction by ZEFSAII (Michael W. Deem and Ramdas Pophale) SiO2 
 PCOD8181877
Probable space group: A B M 2
;
_chemical_formula_sum "Si O2"
_cell_formula_units_Z 48
_cell_length_a 21.524979
_cell_length_b 19.705847
_cell_length_c 5.266455
_cell_angle_alpha 90.000000
_cell_angle_beta 90.000000
_cell_angle_gamma 90.000000
_cell_volume 2233.861383
_symmetry_space_group_name_H-M "A B M 2"
_symmetry_group_IT_number 39
_symmetry_cell_setting 'orthorhombic'
loop_
_space_group_symop_operation_xyz
x,y,z
-x,-y,z
-x,1/2+y,z
x,1/2-y,z
x,1/2+y,1/2+z
-x,1/2-y,1/2+z
-x,y,1/2+z
x,-y,1/2+z
loop_
_atom_site_type_symbol
_atom_site_label
_atom_site_fract_x
_atom_site_fract_y
_atom_site_fract_z
Si Si1 0.968866 0.829159 0.316960
Si Si2 0.297789 0.827058 0.903795
Si Si3 0.473632 0.425755 0.863024
Si Si4 0.168797 0.672670 0.668779
Si Si5 0.332544 0.403365 0.911877
Si Si6 0.204770 0.538929 0.431651
O O1 0.985114 0.750000 0.319055
O O2 0.895424 0.842180 0.311451
O O3 0.997837 0.862658 0.570692
O O4 0.317916 0.750000 0.927113
O O5 0.223409 0.836144 0.874592
O O6 0.332483 0.855766 0.657921
O O7 0.318372 0.862019 0.159642
O O8 0.500000 0.500000 0.811925
O O9 0.494344 0.387128 0.602626
O O10 0.400155 0.435481 0.890571
O O11 0.169504 0.750000 0.553487
O O12 0.179522 0.616786 0.446856
O O13 0.280200 0.461658 0.939902
O O14 0.180341 0.495809 0.673842
#
# Coordination Sequence:
#
# PCOD8181877 Si02
#       6
#     8   8   8   8   8   8
#     4   9  18  32  55  87 119 155 205 264 306 349
#     4  10  21  38  62  90 118 159 203 254 305 368
#     4  10  22  36  57  84 113 149 191 246 292 370
#     4   9  20  40  63  91 125 166 213 253 312 382
#     4  11  22  38  61  87 123 155 200 248 313 371
#     4  11  24  38  60  90 127 160 194 258 314 360
#
# _framework density 21.487456000000002
#
# number of rings (size 3 to 8) (size 9 to 14) (size 15 to 20)
#    0.000    2.000    0.000    3.500    4.667    4.667 
#    0.000   10.833    0.000   13.000    0.000    0.000 
#    0.000    0.000    0.000    0.000    0.000    0.000 
#
# Total GULP energy -297505.899747 kJ/mol
# GULP energy per Si atom -12396.079156 kJ/mol
# Density = 2.143855 g / cm^3
# Si number density = 21.487456 Si / 1000 Ang^3
#
#
#
# Elastic Constant Matrix: (Units=GPa)
#
#
# Indices 1 2 3 4 5 6 
#
# 1 116.3475 21.1122 27.6360 0.0000 0.0000 0.0000
# 2 21.1122 78.6696 36.4837 0.0000 0.0000 0.0000
# 3 27.6360 36.4837 174.6489 0.0000 0.0000 0.0000
# 4 0.0000 0.0000 0.0000 24.0146 0.0000 0.0000
# 5 0.0000 0.0000 0.0000 0.0000 28.5319 0.0000
# 6 0.0000 0.0000 0.0000 0.0000 0.0000 26.0418
#
#
#
# Elastic Compliance Matrix: (Units=1/GPa)
#
#
# Indices 1 2 3 4 5 6 
#
# 1 0.009203 -0.001987 -0.001041 0.000000 0.000000 0.000000
# 2 -0.001987 0.014504 -0.002715 0.000000 0.000000 0.000000
# 3 -0.001041 -0.002715 0.006458 0.000000 0.000000 0.000000
# 4 0.000000 0.000000 0.000000 0.041641 0.000000 0.000000
# 5 0.000000 0.000000 0.000000 0.000000 0.035048 0.000000
# 6 0.000000 0.000000 0.000000 0.000000 0.000000 0.038400
#
#
# Mechanical properties :
#
#
# Convention : Reuss Voigt Hill
#
# Bulk Modulus (GPa) = 53.54027 60.01441 56.77734
# Shear Modulus (GPa) = 30.68110 34.67994 32.68052
#
# Velocity S-wave (km/s) = 3.78280 4.02177 3.90412
# Velocity P-wave (km/s) = 6.63706 7.03966 6.84132
#
# Compressibility (1/GPa) = 0.01867753
#
# Stress axis : x y z
#
# Youngs Moduli (GPa) = 108.66282 68.94703 154.85216
#
# Poissons Ratio (x) = 0.13699 0.16123
# Poissons Ratio (y) = 0.21590 0.42049
# Poissons Ratio (z) = 0.11314 0.18722
#
# Static dielectric constant tensor:
#      x y z
#    x 3.921930 0.000000 0.000000 
#    y 0.000000 3.742060 0.000000 
#    z 0.000000 0.000000 4.464260 
# 
# 
# High freq. dielectric constant tensor:
#      x y z
#    x 1.837090 0.000000 0.000000 
#    y 0.000000 1.804790 0.000000 
#    z 0.000000 0.000000 1.861730 
# 
# From -- ./inp_files/1036.got.cif
#   From: 2010.03.12/outbox.cif.g09.slc.cpg/sg39_1_cif.got.tgz:1036.got - 2010.04.14 02:53:20.
