data_PCOD8181690
_publ_section_title
;
Structure prediction by ZEFSAII (Michael W. Deem and Ramdas Pophale) SiO2 
 PCOD8181690
Probable space group: A B M 2
;
_chemical_formula_sum "Si O2"
_cell_formula_units_Z 64
_cell_length_a 15.900330
_cell_length_b 18.615804
_cell_length_c 10.735013
_cell_angle_alpha 90.000000
_cell_angle_beta 90.000000
_cell_angle_gamma 90.000000
_cell_volume 3177.536225
_symmetry_space_group_name_H-M "A B M 2"
_symmetry_group_IT_number 39
_symmetry_cell_setting 'orthorhombic'
loop_
_space_group_symop_operation_xyz
x,y,z
-x,-y,z
-x,1/2+y,z
x,1/2-y,z
x,1/2+y,1/2+z
-x,1/2-y,1/2+z
-x,y,1/2+z
x,-y,1/2+z
loop_
_atom_site_type_symbol
_atom_site_label
_atom_site_fract_x
_atom_site_fract_y
_atom_site_fract_z
Si Si1 0.788979 0.920629 0.239980
Si Si2 0.232744 0.075542 0.655252
Si Si3 0.654980 0.956107 0.441509
Si Si4 0.650431 0.885909 0.862419
Si Si5 0.481518 0.418189 0.258982
Si Si6 0.651419 0.669881 0.114442
Si Si7 0.076568 0.332682 0.591589
Si Si8 0.950773 0.166770 0.812166
O O1 0.736536 0.936761 0.362167
O O2 0.739132 0.865579 0.153233
O O3 0.875745 0.885126 0.276945
O O4 0.806082 0.995991 0.170237
O O5 0.321043 0.070037 0.579316
O O6 0.262996 0.112343 0.783739
O O7 0.163008 0.123366 0.588281
O O8 0.572182 0.916942 0.388027
O O9 0.638741 0.040644 0.439950
O O10 0.567981 0.875040 0.777144
O O11 0.654391 0.823272 0.964381
O O12 0.500000 0.500000 0.214099
O O13 0.428365 0.377707 0.154126
O O14 0.644447 0.750000 0.170941
O O15 0.102301 0.250000 0.600246
O O16 0.026629 0.346155 0.459620
O O17 0.024952 0.354711 0.715839
O O18 0.925894 0.250000 0.791007
#
# Coordination Sequence:
#
# PCOD8181690 Si02
#       8
#     8   8   8   8   8   8   8   8
#     4  10  20  38  63  88 117 158 203 249 303 369
#     4  11  21  38  64  92 123 158 206 257 307 374
#     4   9  18  37  59  88 116 152 206 251 295 359
#     4  10  22  35  58  87 121 159 197 257 308 360
#     4   9  21  37  62  85 113 162 211 253 301 360
#     4  11  23  38  57  88 126 157 201 256 310 370
#     4  10  23  42  65  92 125 163 211 258 315 380
#     4  10  21  41  64  89 122 164 207 257 312 378
#
# _framework density 20.141392
#
# number of rings (size 3 to 8) (size 9 to 14) (size 15 to 20)
#    0.000    2.000    2.500    1.125    1.750    3.000 
#    0.000    2.500    0.000    0.000    0.000    0.000 
#    0.000    0.000    0.000    0.000    0.000    0.000 
#
# Total GULP energy -396675.808619 kJ/mol
# GULP energy per Si atom -12396.119019 kJ/mol
# Density = 2.009555 g / cm^3
# Si number density = 20.141392 Si / 1000 Ang^3
#
#
#
# Elastic Constant Matrix: (Units=GPa)
#
#
# Indices 1 2 3 4 5 6 
#
# 1 81.1603 35.7033 32.1230 0.0000 0.0000 0.0000
# 2 35.7033 76.2865 32.0772 0.0000 0.0000 0.0000
# 3 32.1230 32.0772 104.0362 0.0000 0.0000 0.0000
# 4 0.0000 0.0000 0.0000 20.8807 0.0000 0.0000
# 5 0.0000 0.0000 0.0000 0.0000 27.6193 0.0000
# 6 0.0000 0.0000 0.0000 0.0000 0.0000 21.2722
#
#
#
# Elastic Compliance Matrix: (Units=1/GPa)
#
#
# Indices 1 2 3 4 5 6 
#
# 1 0.016335 -0.006347 -0.003087 0.000000 0.000000 0.000000
# 2 -0.006347 0.017527 -0.003444 0.000000 0.000000 0.000000
# 3 -0.003087 -0.003444 0.011627 0.000000 0.000000 0.000000
# 4 0.000000 0.000000 0.000000 0.047891 0.000000 0.000000
# 5 0.000000 0.000000 0.000000 0.000000 0.036207 0.000000
# 6 0.000000 0.000000 0.000000 0.000000 0.000000 0.047010
#
#
# Mechanical properties :
#
#
# Convention : Reuss Voigt Hill
#
# Bulk Modulus (GPa) = 50.67639 51.25444 50.96541
# Shear Modulus (GPa) = 23.93128 24.72640 24.32884
#
# Velocity S-wave (km/s) = 3.45072 3.50757 3.47926
# Velocity P-wave (km/s) = 6.41027 6.47353 6.44198
#
# Compressibility (1/GPa) = 0.01973305
#
# Stress axis : x y z
#
# Youngs Moduli (GPa) = 61.21731 57.05362 86.00581
#
# Poissons Ratio (x) = 0.36213 0.26548
# Poissons Ratio (y) = 0.38856 0.29623
# Poissons Ratio (z) = 0.18896 0.19651
#
# Static dielectric constant tensor:
#      x y z
#    x 3.501170 0.000000 0.000000 
#    y 0.000000 3.521350 0.000000 
#    z 0.000000 0.000000 3.795900 
# 
# 
# High freq. dielectric constant tensor:
#      x y z
#    x 1.776220 0.000000 0.000000 
#    y 0.000000 1.769180 0.000000 
#    z 0.000000 0.000000 1.794640 
# 
# From -- ./inp_files/6653.got.cif
#   From: 2010.03.12/outbox.cif.g09.slc.cpg/sg39_4_cif.got.tgz:6653.got - 2010.04.14 02:53:20.
