data_PCOD8181422
_publ_section_title
;
Structure prediction by ZEFSAII (Michael W. Deem and Ramdas Pophale) SiO2 
 PCOD8181422
Probable space group: A B M 2
;
_chemical_formula_sum "Si O2"
_cell_formula_units_Z 64
_cell_length_a 20.303730
_cell_length_b 8.696570
_cell_length_c 19.344319
_cell_angle_alpha 90.000000
_cell_angle_beta 90.000000
_cell_angle_gamma 90.000000
_cell_volume 3415.680748
_symmetry_space_group_name_H-M "A B M 2"
_symmetry_group_IT_number 39
_symmetry_cell_setting 'orthorhombic'
loop_
_space_group_symop_operation_xyz
x,y,z
-x,-y,z
-x,1/2+y,z
x,1/2-y,z
x,1/2+y,1/2+z
-x,1/2-y,1/2+z
-x,y,1/2+z
x,-y,1/2+z
loop_
_atom_site_type_symbol
_atom_site_label
_atom_site_fract_x
_atom_site_fract_y
_atom_site_fract_z
Si Si1 0.685613 0.570997 0.781300
Si Si2 0.069631 0.930730 0.025076
Si Si3 0.930161 0.930967 0.878996
Si Si4 0.687455 0.570672 0.621645
Si Si5 0.175520 0.926861 0.621264
Si Si6 0.430643 0.931678 0.869789
Si Si7 0.431684 0.569700 0.028312
Si Si8 0.176735 0.927363 0.783007
O O1 0.696643 0.750000 0.795850
O O2 0.669970 0.538959 0.701213
O O3 0.625281 0.509105 0.824833
O O4 0.750731 0.481178 0.805268
O O5 0.061862 0.750000 0.016579
O O6 0.092761 0.000833 0.952260
O O7 0.000000 0.000000 0.048780
O O8 0.122992 0.967944 0.082878
O O9 0.937690 0.750000 0.886217
O O10 0.876572 0.970443 0.821777
O O11 0.000000 0.000000 0.855653
O O12 0.700845 0.750000 0.607834
O O13 0.751682 0.477190 0.598383
O O14 0.627464 0.506611 0.575608
O O15 0.164684 0.750000 0.600964
O O16 0.165745 0.955521 0.702209
O O17 0.430419 0.750000 0.858539
O O18 0.500000 0.000000 0.844625
O O19 0.417831 0.977787 0.949309
O O20 0.500000 0.500000 0.055342
O O21 0.437791 0.750000 0.036675
O O22 0.168051 0.750000 0.803584
#
# Coordination Sequence:
#
# PCOD8181422 Si02
#       8
#     8   8   8   8   8   8   8   8
#     4  10  20  35  55  79 108 141 178 221 268 321
#     4  11  22  38  59  82 112 146 182 225 272 323
#     4  11  22  38  59  83 112 144 182 226 273 326
#     4   9  19  36  55  77 106 140 178 220 268 319
#     4  10  21  37  57  82 111 144 184 226 269 321
#     4  10  20  35  54  76 105 139 177 221 269 323
#     4   9  19  35  54  76 103 136 174 217 263 314
#     4  10  21  38  58  81 111 146 184 226 272 323
#
# _framework density 18.737113000000001
#
# number of rings (size 3 to 8) (size 9 to 14) (size 15 to 20)
#    0.000    2.000    0.000    4.500    0.000    5.000 
#    0.000    5.000    0.000    0.000    0.000    0.000 
#    0.000    0.000    0.000    0.000    0.000    0.000 
#
# Total GULP energy -396952.561380 kJ/mol
# GULP energy per Si atom -12404.767543 kJ/mol
# Density = 1.869447 g / cm^3
# Si number density = 18.737113 Si / 1000 Ang^3
#
#
#
# Elastic Constant Matrix: (Units=GPa)
#
#
# Indices 1 2 3 4 5 6 
#
# 1 139.0195 51.6539 73.3506 0.0000 0.0000 0.0000
# 2 51.6539 105.3697 40.2919 0.0000 0.0000 0.0000
# 3 73.3506 40.2919 70.7656 0.0000 0.0000 0.0000
# 4 0.0000 0.0000 0.0000 28.6211 0.0000 0.0000
# 5 0.0000 0.0000 0.0000 0.0000 43.1038 0.0000
# 6 0.0000 0.0000 0.0000 0.0000 0.0000 39.3557
#
#
#
# Elastic Compliance Matrix: (Units=1/GPa)
#
#
# Indices 1 2 3 4 5 6 
#
# 1 0.016180 -0.001941 -0.015666 0.000000 0.000000 0.000000
# 2 -0.001941 0.012365 -0.005028 0.000000 0.000000 0.000000
# 3 -0.015666 -0.005028 0.033232 0.000000 0.000000 0.000000
# 4 0.000000 0.000000 0.000000 0.034939 0.000000 0.000000
# 5 0.000000 0.000000 0.000000 0.000000 0.023200 0.000000
# 6 0.000000 0.000000 0.000000 0.000000 0.000000 0.025409
#
#
# Mechanical properties :
#
#
# Convention : Reuss Voigt Hill
#
# Bulk Modulus (GPa) = 60.58135 71.74973 66.16554
# Shear Modulus (GPa) = 25.49740 32.20670 28.85205
#
# Velocity S-wave (km/s) = 3.69290 4.15043 3.92833
# Velocity P-wave (km/s) = 7.11237 7.83224 7.48097
#
# Compressibility (1/GPa) = 0.01650673
#
# Stress axis : x y z
#
# Youngs Moduli (GPa) = 61.80289 80.87575 30.09133
#
# Poissons Ratio (x) = 0.15701 0.47141
# Poissons Ratio (y) = 0.11999 0.15129
# Poissons Ratio (z) = 0.96821 0.40662
#
# Static dielectric constant tensor:
#      x y z
#    x 3.502450 0.000000 0.000000 
#    y 0.000000 3.528310 0.000000 
#    z 0.000000 0.000000 3.420580 
# 
# 
# High freq. dielectric constant tensor:
#      x y z
#    x 1.736450 0.000000 0.000000 
#    y 0.000000 1.740180 0.000000 
#    z 0.000000 0.000000 1.723180 
# 
# From -- ./inp_files/13132.got.cif
#   From: 2010.03.12/outbox.cif.g09.slc.cpg/sg39_7_cif.got.tgz:13132.got - 2010.04.14 02:53:20.
