data_PCOD8181181
_publ_section_title
;
Structure prediction by ZEFSAII (Michael W. Deem and Ramdas Pophale) SiO2 
 PCOD8181181
Probable space group: A B M 2
;
_chemical_formula_sum "Si O2"
_cell_formula_units_Z 64
_cell_length_a 22.340179
_cell_length_b 15.089016
_cell_length_c 9.437211
_cell_angle_alpha 90.000000
_cell_angle_beta 90.000000
_cell_angle_gamma 90.000000
_cell_volume 3181.201898
_symmetry_space_group_name_H-M "A B M 2"
_symmetry_group_IT_number 39
_symmetry_cell_setting 'orthorhombic'
loop_
_space_group_symop_operation_xyz
x,y,z
-x,-y,z
-x,1/2+y,z
x,1/2-y,z
x,1/2+y,1/2+z
-x,1/2-y,1/2+z
-x,y,1/2+z
x,-y,1/2+z
loop_
_atom_site_type_symbol
_atom_site_label
_atom_site_fract_x
_atom_site_fract_y
_atom_site_fract_z
Si Si1 0.551391 0.904451 0.486830
Si Si2 0.941478 0.648859 0.033281
Si Si3 0.849519 0.000283 0.621413
Si Si4 0.440674 0.088343 0.823601
Si Si5 0.309607 0.649376 0.296638
Si Si6 0.679686 0.847273 0.472712
Si Si7 0.763966 0.013636 0.871641
Si Si8 0.058143 0.851152 0.205608
O O1 0.542463 0.920258 0.656256
O O2 0.492982 0.859940 0.411873
O O3 0.608058 0.842282 0.459000
O O4 0.564522 0.994447 0.401555
O O5 0.922845 0.750000 0.070620
O O6 0.887832 0.583626 0.070302
O O7 0.999676 0.619349 0.119965
O O8 0.958288 0.639518 0.869554
O O9 0.804562 0.965599 0.504763
O O10 0.888168 0.915927 0.667123
O O11 0.807882 0.034906 0.744934
O O12 0.378165 0.138580 0.846151
O O13 0.289654 0.750000 0.327310
O O14 0.303746 0.624266 0.132086
O O15 0.263504 0.585343 0.377929
O O16 0.704966 0.750000 0.437343
O O17 0.708843 0.917388 0.365460
O O18 0.076788 0.750000 0.168080
#
# Coordination Sequence:
#
# PCOD8181181 Si02
#       8
#     8   8   8   8   8   8   8   8
#     4  10  19  34  60  87 118 153 197 251 312 370
#     4  10  23  43  66  96 131 161 201 251 304 359
#     4  12  25  40  67  93 123 169 205 253 300 360
#     4  10  19  34  60  88 117 154 197 251 311 371
#     4  10  22  41  64  86 120 165 205 251 313 373
#     4  10  22  41  63  87 121 162 204 256 313 367
#     4  12  24  42  63  89 124 162 214 254 297 357
#     4  10  23  43  67  96 129 164 201 249 304 361
#
# _framework density 20.118182999999998
#
# number of rings (size 3 to 8) (size 9 to 14) (size 15 to 20)
#    0.000    1.500    3.750    1.875    1.750    3.500 
#    2.250    0.000    0.000    0.000    0.000    0.000 
#    0.000    0.000    0.000    0.000    0.000    0.000 
#
# Total GULP energy -396701.039487 kJ/mol
# GULP energy per Si atom -12396.907484 kJ/mol
# Density = 2.007239 g / cm^3
# Si number density = 20.118183 Si / 1000 Ang^3
#
#
#
# Elastic Constant Matrix: (Units=GPa)
#
#
# Indices 1 2 3 4 5 6 
#
# 1 101.7163 37.6808 37.7711 0.0000 0.0000 0.0000
# 2 37.6808 83.2433 20.8639 0.0000 0.0000 0.0000
# 3 37.7711 20.8639 106.9133 0.0000 0.0000 0.0000
# 4 0.0000 0.0000 0.0000 25.2957 0.0000 0.0000
# 5 0.0000 0.0000 0.0000 0.0000 42.9662 0.0000
# 6 0.0000 0.0000 0.0000 0.0000 0.0000 3.0765
#
#
#
# Elastic Compliance Matrix: (Units=1/GPa)
#
#
# Indices 1 2 3 4 5 6 
#
# 1 0.013026 -0.004987 -0.003629 0.000000 0.000000 0.000000
# 2 -0.004987 0.014540 -0.001076 0.000000 0.000000 0.000000
# 3 -0.003629 -0.001076 0.010845 0.000000 0.000000 0.000000
# 4 0.000000 0.000000 0.000000 0.039532 0.000000 0.000000
# 5 0.000000 0.000000 0.000000 0.000000 0.023274 0.000000
# 6 0.000000 0.000000 0.000000 0.000000 0.000000 0.325041
#
#
# Mechanical properties :
#
#
# Convention : Reuss Voigt Hill
#
# Bulk Modulus (GPa) = 52.55208 53.83384 53.19296
# Shear Modulus (GPa) = 11.06232 27.30483 19.18357
#
# Velocity S-wave (km/s) = 2.34747 3.68805 3.09130
# Velocity P-wave (km/s) = 5.79015 6.70466 6.26412
#
# Compressibility (1/GPa) = 0.01902874
#
# Stress axis : x y z
#
# Youngs Moduli (GPa) = 76.76847 68.77609 92.20596
#
# Poissons Ratio (x) = 0.34298 0.33460
# Poissons Ratio (y) = 0.38284 0.09918
# Poissons Ratio (z) = 0.27858 0.07398
#
# Static dielectric constant tensor:
#      x y z
#    x 3.912290 0.000000 0.000000 
#    y 0.000000 3.533100 0.000000 
#    z 0.000000 0.000000 3.696070 
# 
# 
# High freq. dielectric constant tensor:
#      x y z
#    x 1.796840 0.000000 0.000000 
#    y 0.000000 1.781360 0.000000 
#    z 0.000000 0.000000 1.784950 
# 
# From -- ./inp_files/4083.got.cif
#   From: 2010.03.12/outbox.cif.g09.slc.cpg/sg39_3_cif.got.tgz:4083.got - 2010.04.14 02:53:20.
