data_PCOD8181443
_publ_section_title
;
Structure prediction by ZEFSAII (Michael W. Deem and Ramdas Pophale) SiO2 
 PCOD8181443
Probable space group: A B M 2
;
_chemical_formula_sum "Si O2"
_cell_formula_units_Z 64
_cell_length_a 24.018193
_cell_length_b 8.793773
_cell_length_c 15.395064
_cell_angle_alpha 90.000000
_cell_angle_beta 90.000000
_cell_angle_gamma 90.000000
_cell_volume 3251.599736
_symmetry_space_group_name_H-M "A B M 2"
_symmetry_group_IT_number 39
_symmetry_cell_setting 'orthorhombic'
loop_
_space_group_symop_operation_xyz
x,y,z
-x,-y,z
-x,1/2+y,z
x,1/2-y,z
x,1/2+y,1/2+z
-x,1/2-y,1/2+z
-x,y,1/2+z
x,-y,1/2+z
loop_
_atom_site_type_symbol
_atom_site_label
_atom_site_fract_x
_atom_site_fract_y
_atom_site_fract_z
Si Si1 0.057976 0.571548 0.733720
Si Si2 0.134114 0.569591 0.576303
Si Si3 0.330850 0.569491 0.742657
Si Si4 0.557528 0.426936 0.978998
Si Si5 0.669131 0.069564 0.418565
Si Si6 0.941046 0.929789 0.430698
Si Si7 0.739861 0.069492 0.580816
Si Si8 0.442479 0.073077 0.682516
O O1 0.050036 0.750000 0.729629
O O2 0.104909 0.517103 0.665961
O O3 0.074062 0.521253 0.831728
O O4 0.000000 0.500000 0.703790
O O5 0.131192 0.750000 0.564775
O O6 0.106418 0.493582 0.492816
O O7 0.197163 0.508794 0.580846
O O8 0.330758 0.750000 0.746595
O O9 0.305443 0.500549 0.830772
O O10 0.292170 0.506828 0.665173
O O11 0.393531 0.511430 0.732514
O O12 0.500000 0.500000 0.946536
O O13 0.558079 0.250000 0.955268
O O14 0.606483 0.511459 0.929049
O O15 0.565635 0.455749 0.080759
O O16 0.669070 0.250000 0.414031
O O17 0.707895 0.008061 0.496172
O O18 0.944914 0.750000 0.440686
O O19 0.000000 0.000000 0.458702
O O20 0.739234 0.250000 0.582019
O O21 0.441943 0.250000 0.706254
O O22 0.500000 0.000000 0.714985
#
# Coordination Sequence:
#
# PCOD8181443 Si02
#       8
#     8   8   8   8   8   8   8   8
#     4   9  19  34  55  81 115 149 184 225 275 330
#     4  10  20  37  59  83 111 151 193 234 280 335
#     4  11  22  39  61  85 112 150 193 236 287 345
#     4  10  20  35  58  87 116 148 184 230 286 346
#     4  11  22  39  60  84 113 150 192 238 287 342
#     4  10  20  35  55  85 118 152 186 231 281 333
#     4   9  21  40  60  80 112 152 191 233 286 339
#     4  10  20  35  58  87 117 148 184 231 286 346
#
# _framework density 19.682618999999999
#
# number of rings (size 3 to 8) (size 9 to 14) (size 15 to 20)
#    0.000    2.000    1.250    2.250    0.000    4.500 
#    0.000    6.250    0.000    0.000    0.000    0.000 
#    0.000    0.000    0.000    0.000    0.000    0.000 
#
# Total GULP energy -396913.436959 kJ/mol
# GULP energy per Si atom -12403.544905 kJ/mol
# Density = 1.963782 g / cm^3
# Si number density = 19.682619 Si / 1000 Ang^3
#
#
#
# Elastic Constant Matrix: (Units=GPa)
#
#
# Indices 1 2 3 4 5 6 
#
# 1 156.6825 36.8104 89.3607 0.0000 0.0000 0.0000
# 2 36.8104 68.2836 44.6674 0.0000 0.0000 0.0000
# 3 89.3607 44.6674 147.0889 0.0000 0.0000 0.0000
# 4 0.0000 0.0000 0.0000 30.0347 0.0000 0.0000
# 5 0.0000 0.0000 0.0000 0.0000 17.9830 0.0000
# 6 0.0000 0.0000 0.0000 0.0000 0.0000 24.6503
#
#
#
# Elastic Compliance Matrix: (Units=1/GPa)
#
#
# Indices 1 2 3 4 5 6 
#
# 1 0.009932 -0.001756 -0.005501 0.000000 0.000000 0.000000
# 2 -0.001756 0.018586 -0.004577 0.000000 0.000000 0.000000
# 3 -0.005501 -0.004577 0.011531 0.000000 0.000000 0.000000
# 4 0.000000 0.000000 0.000000 0.033295 0.000000 0.000000
# 5 0.000000 0.000000 0.000000 0.000000 0.055608 0.000000
# 6 0.000000 0.000000 0.000000 0.000000 0.000000 0.040567
#
#
# Mechanical properties :
#
#
# Convention : Reuss Voigt Hill
#
# Bulk Modulus (GPa) = 61.04899 79.30356 70.17628
# Shear Modulus (GPa) = 25.17033 27.94804 26.55919
#
# Velocity S-wave (km/s) = 3.57993 3.77229 3.67737
# Velocity P-wave (km/s) = 6.94059 7.70404 7.33226
#
# Compressibility (1/GPa) = 0.01638029
#
# Stress axis : x y z
#
# Youngs Moduli (GPa) = 100.68315 53.80527 86.72625
#
# Poissons Ratio (x) = 0.09448 0.47707
# Poissons Ratio (y) = 0.17679 0.39697
# Poissons Ratio (z) = 0.55384 0.24628
#
# Static dielectric constant tensor:
#      x y z
#    x 3.599010 0.000000 0.000000 
#    y 0.000000 3.451400 0.000000 
#    z 0.000000 0.000000 3.827120 
# 
# 
# High freq. dielectric constant tensor:
#      x y z
#    x 1.762830 0.000000 0.000000 
#    y 0.000000 1.759000 0.000000 
#    z 0.000000 0.000000 1.779110 
# 
# From -- ./inp_files/10623.got.cif
#   From: 2010.03.12/outbox.cif.g09.slc.cpg/sg39_6_cif.got.tgz:10623.got - 2010.04.14 02:53:20.
