data_PCOD8181942
_publ_section_title
;
Structure prediction by ZEFSAII (Michael W. Deem and Ramdas Pophale) SiO2 
 PCOD8181942
Probable space group: A B M 2
;
_chemical_formula_sum "Si O2"
_cell_formula_units_Z 48
_cell_length_a 15.220724
_cell_length_b 27.367132
_cell_length_c 5.246237
_cell_angle_alpha 90.000000
_cell_angle_beta 90.000000
_cell_angle_gamma 90.000000
_cell_volume 2185.307236
_symmetry_space_group_name_H-M "A B M 2"
_symmetry_group_IT_number 39
_symmetry_cell_setting 'orthorhombic'
loop_
_space_group_symop_operation_xyz
x,y,z
-x,-y,z
-x,1/2+y,z
x,1/2-y,z
x,1/2+y,1/2+z
-x,1/2-y,1/2+z
-x,y,1/2+z
x,-y,1/2+z
loop_
_atom_site_type_symbol
_atom_site_label
_atom_site_fract_x
_atom_site_fract_y
_atom_site_fract_z
Si Si1 0.462895 0.944967 0.558460
Si Si2 0.189159 0.883414 0.955293
Si Si3 0.301484 0.611035 0.450554
Si Si4 0.444312 0.693886 0.395123
Si Si5 0.098785 0.020467 0.410937
Si Si6 0.947890 0.807132 0.539929
O O1 0.512527 0.918117 0.323580
O O2 0.359158 0.938002 0.510431
O O3 0.500000 0.000000 0.589428
O O4 0.234281 0.881317 0.680764
O O5 0.107319 0.921511 0.945828
O O6 0.147788 0.831133 0.019098
O O7 0.255005 0.898459 0.180615
O O8 0.360754 0.659197 0.431758
O O9 0.411454 0.750000 0.410347
O O10 0.512883 0.683156 0.621109
O O11 0.147511 0.994274 0.648255
O O12 0.000000 0.000000 0.380457
O O13 0.930597 0.750000 0.533399
O O14 0.992321 0.823897 0.802967
#
# Coordination Sequence:
#
# PCOD8181942 Si02
#       6
#     8   8   8   8   8   8
#     4  10  21  41  63  82 114 167 211 250 305 374
#     4  12  26  41  66  98 133 164 208 277 328 373
#     4  12  24  41  62  99 130 162 209 268 332 372
#     4  10  21  39  66  95 128 174 217 253 303 387
#     4  10  23  43  65  89 119 171 216 258 313 387
#     4  10  23  43  70  97 128 174 219 252 307 393
#
# _framework density 21.964873999999998
#
# number of rings (size 3 to 8) (size 9 to 14) (size 15 to 20)
#    0.000    1.333    0.000    5.000    4.667    1.333 
#   18.000    0.000    0.000    0.000    0.000    0.000 
#    0.000    0.000    0.000    0.000    0.000    0.000 
#
# Total GULP energy -297489.552884 kJ/mol
# GULP energy per Si atom -12395.398037 kJ/mol
# Density = 2.191488 g / cm^3
# Si number density = 21.964874 Si / 1000 Ang^3
#
#
#
# Elastic Constant Matrix: (Units=GPa)
#
#
# Indices 1 2 3 4 5 6 
#
# 1 83.0113 34.5872 9.1143 0.0000 0.0000 0.0000
# 2 34.5872 52.2310 -2.6348 0.0000 0.0000 0.0000
# 3 9.1143 -2.6348 151.0068 0.0000 0.0000 0.0000
# 4 0.0000 0.0000 0.0000 21.2971 0.0000 0.0000
# 5 0.0000 0.0000 0.0000 0.0000 14.2684 0.0000
# 6 0.0000 0.0000 0.0000 0.0000 0.0000 40.4315
#
#
#
# Elastic Compliance Matrix: (Units=1/GPa)
#
#
# Indices 1 2 3 4 5 6 
#
# 1 0.016856 -0.011223 -0.001213 0.000000 0.000000 0.000000
# 2 -0.011223 0.026635 0.001142 0.000000 0.000000 0.000000
# 3 -0.001213 0.001142 0.006715 0.000000 0.000000 0.000000
# 4 0.000000 0.000000 0.000000 0.046955 0.000000 0.000000
# 5 0.000000 0.000000 0.000000 0.000000 0.070085 0.000000
# 6 0.000000 0.000000 0.000000 0.000000 0.000000 0.024733
#
#
# Mechanical properties :
#
#
# Convention : Reuss Voigt Hill
#
# Bulk Modulus (GPa) = 36.20806 40.93139 38.56973
# Shear Modulus (GPa) = 22.34395 31.54489 26.94442
#
# Velocity S-wave (km/s) = 3.19291 3.79377 3.50623
# Velocity P-wave (km/s) = 5.48755 6.15351 5.83005
#
# Compressibility (1/GPa) = 0.02761816
#
# Stress axis : x y z
#
# Youngs Moduli (GPa) = 59.32616 37.54414 148.91206
#
# Poissons Ratio (x) = 0.42136 0.18066
# Poissons Ratio (y) = 0.66583 -0.17008
# Poissons Ratio (z) = 0.07197 -0.04288
#
# Static dielectric constant tensor:
#      x y z
#    x 3.898110 0.000000 0.000000 
#    y 0.000000 4.061080 0.000000 
#    z 0.000000 0.000000 5.318790 
# 
# 
# High freq. dielectric constant tensor:
#      x y z
#    x 1.840020 0.000000 0.000000 
#    y 0.000000 1.865770 0.000000 
#    z 0.000000 0.000000 1.904760 
# 
# From -- ./inp_files/597.got.cif
#   From: 2010.03.12/outbox.cif.g09.slc.cpg/sg39_1_cif.got.tgz:597.got - 2010.04.14 02:53:20.
