data_PCOD8181224
_publ_section_title
;
Structure prediction by ZEFSAII (Michael W. Deem and Ramdas Pophale) SiO2 
 PCOD8181224
Probable space group: A B M 2
;
_chemical_formula_sum "Si O2"
_cell_formula_units_Z 56
_cell_length_a 23.845884
_cell_length_b 8.670596
_cell_length_c 14.399074
_cell_angle_alpha 90.000000
_cell_angle_beta 90.000000
_cell_angle_gamma 90.000000
_cell_volume 2977.124123
_symmetry_space_group_name_H-M "A B M 2"
_symmetry_group_IT_number 39
_symmetry_cell_setting 'orthorhombic'
loop_
_space_group_symop_operation_xyz
x,y,z
-x,-y,z
-x,1/2+y,z
x,1/2-y,z
x,1/2+y,1/2+z
-x,1/2-y,1/2+z
-x,y,1/2+z
x,-y,1/2+z
loop_
_atom_site_type_symbol
_atom_site_label
_atom_site_fract_x
_atom_site_fract_y
_atom_site_fract_z
Si Si1 0.147722 0.933293 0.671980
Si Si2 0.644813 0.431922 0.816159
Si Si3 0.441252 0.067327 0.954044
Si Si4 0.938554 0.067466 0.311815
Si Si5 0.233397 0.068171 0.809518
Si Si6 0.557056 0.929649 0.166675
Si Si7 0.148594 0.931676 0.463043
O O1 0.143650 0.750000 0.673085
O O2 0.148705 0.001352 0.566775
O O3 0.093342 0.002179 0.722151
O O4 0.204939 0.985034 0.721789
O O5 0.656333 0.250000 0.817795
O O6 0.702332 0.523435 0.815239
O O7 0.610337 0.485976 0.725494
O O8 0.610147 0.482203 0.905840
O O9 0.439113 0.250000 0.937328
O O10 0.433831 0.020147 0.061032
O O11 0.500000 0.000000 0.916013
O O12 0.940698 0.250000 0.302423
O O13 0.906560 0.015822 0.405933
O O14 0.000000 0.000000 0.316133
O O15 0.226151 0.250000 0.795601
O O16 0.203217 0.013758 0.904935
O O17 0.549789 0.750000 0.177157
O O18 0.500000 0.000000 0.207966
O O19 0.149542 0.750000 0.472487
#
# Coordination Sequence:
#
# PCOD8181224 Si02
#       7
#     8   8   8   8   8   8   8
#     4  10  19  36  59  81 105 140 179 220 265 312
#     4  11  22  36  54  79 106 138 177 219 263 314
#     4  10  20  36  55  77 104 137 172 214 264 318
#     4  10  20  36  55  82 115 146 179 219 261 309
#     4  10  21  38  55  77 107 140 176 220 266 315
#     4   9  20  36  54  75 104 137 172 212 262 317
#     4   8  18  36  57  77 105 142 179 216 263 313
#
# _framework density 18.810099000000001
#
# number of rings (size 3 to 8) (size 9 to 14) (size 15 to 20)
#    0.000    2.286    0.000    3.429    0.000    4.571 
#    0.000   15.714    0.000    0.000    0.000    0.000 
#    0.000    0.000    0.000    0.000    0.000    0.000 
#
# Total GULP energy -347210.100806 kJ/mol
# GULP energy per Si atom -12400.360743 kJ/mol
# Density = 1.876729 g / cm^3
# Si number density = 18.810099 Si / 1000 Ang^3
#
#
#
# Elastic Constant Matrix: (Units=GPa)
#
#
# Indices 1 2 3 4 5 6 
#
# 1 160.4576 29.1222 73.4869 0.0000 0.0000 0.0000
# 2 29.1222 53.5759 33.3153 0.0000 0.0000 0.0000
# 3 73.4869 33.3153 148.0034 0.0000 0.0000 0.0000
# 4 0.0000 0.0000 0.0000 24.2514 0.0000 0.0000
# 5 0.0000 0.0000 0.0000 0.0000 18.5715 0.0000
# 6 0.0000 0.0000 0.0000 0.0000 0.0000 35.5869
#
#
#
# Elastic Compliance Matrix: (Units=1/GPa)
#
#
# Indices 1 2 3 4 5 6 
#
# 1 0.008296 -0.002265 -0.003609 0.000000 0.000000 0.000000
# 2 -0.002265 0.022321 -0.003900 0.000000 0.000000 0.000000
# 3 -0.003609 -0.003900 0.009427 0.000000 0.000000 0.000000
# 4 0.000000 0.000000 0.000000 0.041235 0.000000 0.000000
# 5 0.000000 0.000000 0.000000 0.000000 0.053846 0.000000
# 6 0.000000 0.000000 0.000000 0.000000 0.000000 0.028100
#
#
# Mechanical properties :
#
#
# Convention : Reuss Voigt Hill
#
# Bulk Modulus (GPa) = 48.79108 70.43173 59.61141
# Shear Modulus (GPa) = 26.37047 30.75612 28.56329
#
# Velocity S-wave (km/s) = 3.74830 4.04801 3.90103
# Velocity P-wave (km/s) = 6.68791 7.70541 7.21462
#
# Compressibility (1/GPa) = 0.02049555
#
# Stress axis : x y z
#
# Youngs Moduli (GPa) = 120.53494 44.80006 106.08282
#
# Poissons Ratio (x) = 0.10148 0.38290
# Poissons Ratio (y) = 0.27303 0.41370
# Poissons Ratio (z) = 0.43506 0.17471
#
# Static dielectric constant tensor:
#      x y z
#    x 3.478010 0.000000 0.000000 
#    y 0.000000 3.386670 0.000000 
#    z 0.000000 0.000000 3.838750 
# 
# 
# High freq. dielectric constant tensor:
#      x y z
#    x 1.733260 0.000000 0.000000 
#    y 0.000000 1.728510 0.000000 
#    z 0.000000 0.000000 1.738610 
# 
# From -- ./inp_files/10368.got.cif
#   From: 2010.03.12/outbox.cif.g09.slc.cpg/sg39_6_cif.got.tgz:10368.got - 2010.04.14 02:53:20.
