data_PCOD8181216
_publ_section_title
;
Structure prediction by ZEFSAII (Michael W. Deem and Ramdas Pophale) SiO2 
 PCOD8181216
Probable space group: A B M 2
;
_chemical_formula_sum "Si O2"
_cell_formula_units_Z 48
_cell_length_a 11.228874
_cell_length_b 13.675556
_cell_length_c 16.835456
_cell_angle_alpha 90.000000
_cell_angle_beta 90.000000
_cell_angle_gamma 90.000000
_cell_volume 2585.271062
_symmetry_space_group_name_H-M "A B M 2"
_symmetry_group_IT_number 39
_symmetry_cell_setting 'orthorhombic'
loop_
_space_group_symop_operation_xyz
x,y,z
-x,-y,z
-x,1/2+y,z
x,1/2-y,z
x,1/2+y,1/2+z
-x,1/2-y,1/2+z
-x,y,1/2+z
x,-y,1/2+z
loop_
_atom_site_type_symbol
_atom_site_label
_atom_site_fract_x
_atom_site_fract_y
_atom_site_fract_z
Si Si1 0.468261 0.388462 0.945800
Si Si2 0.637672 0.974849 0.661916
Si Si3 0.285790 0.637157 0.316125
Si Si4 0.864529 0.025709 0.444028
Si Si5 0.261134 0.859248 0.569825
Si Si6 0.705828 0.355873 0.007445
O O1 0.500000 0.500000 0.959348
O O2 0.412890 0.366330 0.860111
O O3 0.375055 0.355654 0.012476
O O4 0.591767 0.331300 0.952456
O O5 0.699482 0.919393 0.734119
O O6 0.654058 0.905659 0.586236
O O7 0.500000 0.000000 0.678190
O O8 0.708989 0.076233 0.647358
O O9 0.247522 0.750000 0.301863
O O10 0.185614 0.581430 0.367091
O O11 0.850214 0.094849 0.521435
O O12 0.795593 0.924521 0.459474
O O13 0.000000 0.000000 0.427987
O O14 0.227635 0.750000 0.597709
O O15 0.766286 0.250000 0.025899
#
# Coordination Sequence:
#
# PCOD8181216 Si02
#       6
#     8   8   8   8   8   8
#     4  11  16  34  55  83 116 145 181 234 287 348
#     4  11  21  35  54  89 126 149 182 228 286 360
#     4  11  23  37  57  82 116 158 193 231 290 350
#     4  10  22  40  60  82 111 151 204 249 276 325
#     4  10  19  35  61  86 114 150 185 228 289 347
#     4  11  20  34  58  86 114 147 188 240 293 341
#
# _framework density 18.56672
#
# number of rings (size 3 to 8) (size 9 to 14) (size 15 to 20)
#    0.000    1.333    6.667    4.000    0.000    2.000 
#    0.000    4.167    0.000    4.000    0.000    0.000 
#    0.000    0.000    0.000    0.000    0.000    0.000 
#
# Total GULP energy -297489.525937 kJ/mol
# GULP energy per Si atom -12395.396914 kJ/mol
# Density = 1.852446 g / cm^3
# Si number density = 18.566720 Si / 1000 Ang^3
#
#
#
# Elastic Constant Matrix: (Units=GPa)
#
#
# Indices 1 2 3 4 5 6 
#
# 1 108.4306 44.0353 47.0863 0.0000 0.0000 0.0000
# 2 44.0353 178.1611 52.7940 0.0000 0.0000 0.0000
# 3 47.0863 52.7940 92.0565 0.0000 0.0000 0.0000
# 4 0.0000 0.0000 0.0000 19.5059 0.0000 0.0000
# 5 0.0000 0.0000 0.0000 0.0000 12.4455 0.0000
# 6 0.0000 0.0000 0.0000 0.0000 0.0000 9.0251
#
#
#
# Elastic Compliance Matrix: (Units=1/GPa)
#
#
# Indices 1 2 3 4 5 6 
#
# 1 0.012138 -0.001398 -0.005407 0.000000 0.000000 0.000000
# 2 -0.001398 0.006923 -0.003255 0.000000 0.000000 0.000000
# 3 -0.005407 -0.003255 0.015495 0.000000 0.000000 0.000000
# 4 0.000000 0.000000 0.000000 0.051267 0.000000 0.000000
# 5 0.000000 0.000000 0.000000 0.000000 0.080350 0.000000
# 6 0.000000 0.000000 0.000000 0.000000 0.000000 0.110802
#
#
# Mechanical properties :
#
#
# Convention : Reuss Voigt Hill
#
# Bulk Modulus (GPa) = 69.26956 74.05327 71.66142
# Shear Modulus (GPa) = 16.56130 23.84412 20.20271
#
# Velocity S-wave (km/s) = 2.98986 3.58752 3.30224
# Velocity P-wave (km/s) = 7.02200 7.55857 7.29522
#
# Compressibility (1/GPa) = 0.01443636
#
# Stress axis : x y z
#
# Youngs Moduli (GPa) = 82.38476 144.44489 64.53531
#
# Poissons Ratio (x) = 0.20192 0.34894
# Poissons Ratio (y) = 0.11517 0.21008
# Poissons Ratio (z) = 0.44545 0.47021
#
# Static dielectric constant tensor:
#      x y z
#    x 3.228380 0.000000 0.000000 
#    y 0.000000 3.797110 0.000000 
#    z 0.000000 0.000000 3.283580 
# 
# 
# High freq. dielectric constant tensor:
#      x y z
#    x 1.690610 0.000000 0.000000 
#    y 0.000000 1.747020 0.000000 
#    z 0.000000 0.000000 1.699710 
# 
# From -- ./inp_files/9205.got.cif
#   From: 2010.03.12/outbox.cif.g09.slc.cpg/sg39_5_cif.got.tgz:9205.got - 2010.04.14 02:53:20.
