data_PCOD8181989
_publ_section_title
;
Structure prediction by ZEFSAII (Michael W. Deem and Ramdas Pophale) SiO2 
 PCOD8181989
Probable space group: A B M 2
;
_chemical_formula_sum "Si O2"
_cell_formula_units_Z 64
_cell_length_a 21.898047
_cell_length_b 14.974003
_cell_length_c 9.355773
_cell_angle_alpha 90.000000
_cell_angle_beta 90.000000
_cell_angle_gamma 90.000000
_cell_volume 3067.771266
_symmetry_space_group_name_H-M "A B M 2"
_symmetry_group_IT_number 39
_symmetry_cell_setting 'orthorhombic'
loop_
_space_group_symop_operation_xyz
x,y,z
-x,-y,z
-x,1/2+y,z
x,1/2-y,z
x,1/2+y,1/2+z
-x,1/2-y,1/2+z
-x,y,1/2+z
x,-y,1/2+z
loop_
_atom_site_type_symbol
_atom_site_label
_atom_site_fract_x
_atom_site_fract_y
_atom_site_fract_z
Si Si1 0.820277 0.853195 0.081600
Si Si2 0.946429 0.143686 0.076206
Si Si3 0.425527 0.152864 0.990210
Si Si4 0.730328 0.988238 0.636952
Si Si5 0.470299 0.406841 0.289799
Si Si6 0.828759 0.146950 0.250750
Si Si7 0.939387 0.644130 0.253643
Si Si8 0.646919 0.011998 0.892234
O O1 0.801548 0.750000 0.111066
O O2 0.875532 0.884014 0.183317
O O3 0.764015 0.917228 0.117244
O O4 0.841951 0.865017 0.918427
O O5 0.949384 0.250000 0.072811
O O6 0.887251 0.111704 0.163804
O O7 0.005805 0.104549 0.157034
O O8 0.943219 0.105385 0.914791
O O9 0.395044 0.250000 0.974813
O O10 0.451926 0.145281 0.148889
O O11 0.481483 0.148641 0.880072
O O12 0.372359 0.083370 0.956658
O O13 0.771674 0.911752 0.704120
O O14 0.703560 0.951874 0.486747
O O15 0.670421 0.002501 0.731800
O O16 0.500000 0.500000 0.240963
O O17 0.411118 0.422386 0.391158
O O18 0.814496 0.250000 0.213847
O O19 0.945481 0.750000 0.258101
#
# Coordination Sequence:
#
# PCOD8181989 Si02
#       8
#     8   8   8   8   8   8   8   8
#     4  10  22  40  62  87 119 162 206 253 310 369
#     4   9  17  31  55  86 119 155 199 254 312 371
#     4  11  23  40  66  97 126 155 199 252 300 353
#     4  12  24  43  63  89 124 166 210 252 300 357
#     4  10  21  41  65  91 124 161 197 241 302 361
#     4  10  22  40  62  87 120 161 206 255 310 367
#     4   9  17  31  55  86 119 155 200 253 313 372
#     4  11  24  42  65  87 121 169 204 242 300 363
#
# _framework density 20.862051999999998
#
# number of rings (size 3 to 8) (size 9 to 14) (size 15 to 20)
#    0.000    1.750    2.500    2.250    3.500    4.000 
#    0.000    1.875    0.000    3.000    0.000    0.000 
#    0.000    0.000    0.000    0.000    0.000    0.000 
#
# Total GULP energy -396867.042530 kJ/mol
# GULP energy per Si atom -12402.095079 kJ/mol
# Density = 2.081457 g / cm^3
# Si number density = 20.862052 Si / 1000 Ang^3
#
#
#
# Elastic Constant Matrix: (Units=GPa)
#
#
# Indices 1 2 3 4 5 6 
#
# 1 93.7780 13.4515 42.0358 0.0000 0.0000 0.0000
# 2 13.4515 51.8427 29.3394 0.0000 0.0000 0.0000
# 3 42.0358 29.3394 129.8118 0.0000 0.0000 0.0000
# 4 0.0000 0.0000 0.0000 -127.8431 0.0000 0.0000
# 5 0.0000 0.0000 0.0000 0.0000 48.4292 0.0000
# 6 0.0000 0.0000 0.0000 0.0000 0.0000 18.3277
#
#
#
# Elastic Compliance Matrix: (Units=1/GPa)
#
#
# Indices 1 2 3 4 5 6 
#
# 1 0.012528 -0.001095 -0.003809 0.000000 0.000000 0.000000
# 2 -0.001095 0.022214 -0.004666 0.000000 0.000000 0.000000
# 3 -0.003809 -0.004666 0.009992 0.000000 0.000000 0.000000
# 4 0.000000 0.000000 0.000000 -0.007822 0.000000 0.000000
# 5 0.000000 0.000000 0.000000 0.000000 0.020649 0.000000
# 6 0.000000 0.000000 0.000000 0.000000 0.000000 0.054562
#
#
# Mechanical properties :
#
#
# Convention : Reuss Voigt Hill
#
# Bulk Modulus (GPa) = 39.07328 49.45399 44.26364
# Shear Modulus (GPa) = 35.76688 0.48983 18.12835
#
# Velocity S-wave (km/s) = 4.14508 0.48508 2.95102
# Velocity P-wave (km/s) = 6.45592 4.90616 5.73365
#
# Compressibility (1/GPa) = 0.02559294
#
# Stress axis : x y z
#
# Youngs Moduli (GPa) = 79.82065 45.01688 100.08356
#
# Poissons Ratio (x) = 0.04928 0.38126
# Poissons Ratio (y) = 0.08738 0.46701
# Poissons Ratio (z) = 0.30407 0.21006
#
# Static dielectric constant tensor:
#      x y z
#    x 3.758610 0.000000 0.000000 
#    y 0.000000 4.191740 0.000000 
#    z 0.000000 0.000000 3.939700 
# 
# 
# High freq. dielectric constant tensor:
#      x y z
#    x 1.821890 0.000000 0.000000 
#    y 0.000000 1.793770 0.000000 
#    z 0.000000 0.000000 1.832190 
# 
# From -- ./inp_files/4022.got.cif
#   From: 2010.03.12/outbox.cif.g09.slc.cpg/sg39_3_cif.got.tgz:4022.got - 2010.04.14 02:53:20.
