data_PCOD8181311
_publ_section_title
;
Structure prediction by ZEFSAII (Michael W. Deem and Ramdas Pophale) SiO2 
 PCOD8181311
Probable space group: A B M 2
;
_chemical_formula_sum "Si O2"
_cell_formula_units_Z 56
_cell_length_a 14.767782
_cell_length_b 9.060349
_cell_length_c 20.913900
_cell_angle_alpha 90.000000
_cell_angle_beta 90.000000
_cell_angle_gamma 90.000000
_cell_volume 2798.306148
_symmetry_space_group_name_H-M "A B M 2"
_symmetry_group_IT_number 39
_symmetry_cell_setting 'orthorhombic'
loop_
_space_group_symop_operation_xyz
x,y,z
-x,-y,z
-x,1/2+y,z
x,1/2-y,z
x,1/2+y,1/2+z
-x,1/2-y,1/2+z
-x,y,1/2+z
x,-y,1/2+z
loop_
_atom_site_type_symbol
_atom_site_label
_atom_site_fract_x
_atom_site_fract_y
_atom_site_fract_z
Si Si1 0.904582 0.922995 0.477330
Si Si2 0.905450 0.923168 0.332651
Si Si3 0.222097 0.424905 0.220896
Si Si4 0.593998 0.918918 0.268184
Si Si5 0.216209 0.580422 0.579988
Si Si6 0.405336 0.580298 0.909753
Si Si7 0.405299 0.420003 0.029875
O O1 0.918211 0.750000 0.487484
O O2 0.870157 0.956810 0.404847
O O3 0.830543 0.978719 0.527439
O O4 0.000000 0.000000 0.491037
O O5 0.919135 0.750000 0.322981
O O6 0.838300 0.989739 0.278735
O O7 0.000000 0.000000 0.320669
O O8 0.227723 0.250000 0.229354
O O9 0.325555 0.485443 0.224902
O O10 0.182156 0.466396 0.151091
O O11 0.571952 0.750000 0.252478
O O12 0.637530 0.933918 0.339653
O O13 0.500000 0.000000 0.256189
O O14 0.190755 0.750000 0.564970
O O15 0.325993 0.562532 0.582139
O O16 0.500000 0.500000 0.904591
O O17 0.415042 0.750000 0.930388
O O18 0.356541 0.492038 0.966917
O O19 0.500000 0.500000 0.049475
O O20 0.429138 0.250000 0.017288
#
# Coordination Sequence:
#
# PCOD8181311 Si02
#       7
#     8   8   8   8   8   8   8
#     4  10  21  38  63  89 114 143 181 227 279 335
#     4   9  19  37  62  86 109 140 178 223 273 327
#     4   9  19  37  57  79 110 150 187 222 273 331
#     4   9  18  32  52  76 106 143 185 228 274 325
#     4  10  22  38  56  81 115 152 189 230 278 330
#     4   9  16  27  47  72  99 132 176 227 275 323
#     4  10  20  33  50  75 108 148 189 231 278 325
#
# _framework density 20.012104999999998
#
# number of rings (size 3 to 8) (size 9 to 14) (size 15 to 20)
#    0.000    2.571    0.000    2.143    2.000    3.429 
#    0.000    3.571    0.000    0.000    0.000    0.000 
#    0.000    0.000    0.000    0.000    0.000    0.000 
#
# Total GULP energy -346889.817456 kJ/mol
# GULP energy per Si atom -12388.922052 kJ/mol
# Density = 1.996656 g / cm^3
# Si number density = 20.012105 Si / 1000 Ang^3
#
#
#
# Elastic Constant Matrix: (Units=GPa)
#
#
# Indices 1 2 3 4 5 6 
#
# 1 101.1139 42.1794 69.0372 0.0000 0.0000 0.0000
# 2 42.1794 86.9443 43.6565 0.0000 0.0000 0.0000
# 3 69.0372 43.6565 125.4705 0.0000 0.0000 0.0000
# 4 0.0000 0.0000 0.0000 21.0476 0.0000 0.0000
# 5 0.0000 0.0000 0.0000 0.0000 27.2070 0.0000
# 6 0.0000 0.0000 0.0000 0.0000 0.0000 26.1816
#
#
#
# Elastic Compliance Matrix: (Units=1/GPa)
#
#
# Indices 1 2 3 4 5 6 
#
# 1 0.017085 -0.004323 -0.007896 0.000000 0.000000 0.000000
# 2 -0.004323 0.015031 -0.002851 0.000000 0.000000 0.000000
# 3 -0.007896 -0.002851 0.013307 0.000000 0.000000 0.000000
# 4 0.000000 0.000000 0.000000 0.047511 0.000000 0.000000
# 5 0.000000 0.000000 0.000000 0.000000 0.036755 0.000000
# 6 0.000000 0.000000 0.000000 0.000000 0.000000 0.038195
#
#
# Mechanical properties :
#
#
# Convention : Reuss Voigt Hill
#
# Bulk Modulus (GPa) = 65.44139 69.25277 67.34708
# Shear Modulus (GPa) = 24.61631 25.46427 25.04029
#
# Velocity S-wave (km/s) = 3.51104 3.57100 3.54115
# Velocity P-wave (km/s) = 7.01487 7.18911 7.10253
#
# Compressibility (1/GPa) = 0.01528085
#
# Stress axis : x y z
#
# Youngs Moduli (GPa) = 58.53257 66.53117 75.15103
#
# Poissons Ratio (x) = 0.28765 0.59339
# Poissons Ratio (y) = 0.25306 0.21425
# Poissons Ratio (z) = 0.46217 0.18967
#
# Static dielectric constant tensor:
#      x y z
#    x 3.478670 0.000000 0.000000 
#    y 0.000000 3.509580 0.000000 
#    z 0.000000 0.000000 4.701040 
# 
# 
# High freq. dielectric constant tensor:
#      x y z
#    x 1.770430 0.000000 0.000000 
#    y 0.000000 1.763530 0.000000 
#    z 0.000000 0.000000 1.787840 
# 
# From -- ./inp_files/14748.got.cif
#   From: 2010.03.12/outbox.cif.g09.slc.cpg/sg39_8_cif.got.tgz:14748.got - 2010.04.14 02:53:20.
