data_PCOD8181283
_publ_section_title
;
Structure prediction by ZEFSAII (Michael W. Deem and Ramdas Pophale) SiO2 
 PCOD8181283
Probable space group: A B M 2
;
_chemical_formula_sum "Si O2"
_cell_formula_units_Z 64
_cell_length_a 17.726865
_cell_length_b 9.039473
_cell_length_c 22.836358
_cell_angle_alpha 90.000000
_cell_angle_beta 90.000000
_cell_angle_gamma 90.000000
_cell_volume 3659.332661
_symmetry_space_group_name_H-M "A B M 2"
_symmetry_group_IT_number 39
_symmetry_cell_setting 'orthorhombic'
loop_
_space_group_symop_operation_xyz
x,y,z
-x,-y,z
-x,1/2+y,z
x,1/2-y,z
x,1/2+y,1/2+z
-x,1/2-y,1/2+z
-x,y,1/2+z
x,-y,1/2+z
loop_
_atom_site_type_symbol
_atom_site_label
_atom_site_fract_x
_atom_site_fract_y
_atom_site_fract_z
Si Si1 0.294625 0.587177 0.781380
Si Si2 0.865376 0.416590 0.718252
Si Si3 0.646962 0.424494 0.663444
Si Si4 0.925676 0.425352 0.325921
Si Si5 0.426768 0.425311 0.563669
Si Si6 0.204082 0.921262 0.120399
Si Si7 0.770166 0.076871 0.383285
Si Si8 0.270935 0.081036 0.500965
O O1 0.306552 0.750000 0.808346
O O2 0.218258 0.582286 0.744027
O O3 0.361036 0.550983 0.734150
O O4 0.291965 0.475688 0.835798
O O5 0.897459 0.250000 0.713945
O O6 0.918710 0.514132 0.759694
O O7 0.862867 0.488248 0.652859
O O8 0.657955 0.250000 0.649722
O O9 0.577368 0.493181 0.627376
O O10 0.716468 0.520952 0.642020
O O11 0.934427 0.250000 0.324687
O O12 0.853720 0.476630 0.364301
O O13 0.000000 0.500000 0.354412
O O14 0.500000 0.500000 0.532781
O O15 0.436378 0.250000 0.571673
O O16 0.353522 0.464002 0.524799
O O17 0.195935 0.750000 0.137674
O O18 0.205457 0.942056 0.049996
O O19 0.766151 0.250000 0.384615
O O20 0.750520 0.019736 0.446901
O O21 0.272394 0.250000 0.479996
#
# Coordination Sequence:
#
# PCOD8181283 Si02
#       8
#     8   8   8   8   8   8   8   8
#     4   8  15  27  44  66  93 122 151 185 232 283
#     4   9  16  27  45  69  94 122 152 188 236 287
#     4   9  16  27  45  69  94 122 153 189 235 286
#     4  10  20  33  49  72  99 128 162 203 251 303
#     4  10  20  33  50  73  99 129 162 202 251 302
#     4   9  16  27  44  68  95 122 153 193 237 283
#     4  10  20  31  48  73  98 127 168 212 249 289
#     4   9  19  33  49  70  98 132 169 206 247 293
#
# _framework density 17.489528
#
# number of rings (size 3 to 8) (size 9 to 14) (size 15 to 20)
#    0.000    2.750    0.000    3.750    0.000    8.000 
#    0.000    0.000    0.000    1.500    0.000    5.250 
#    0.000    0.000    0.000    0.000    0.000    0.000 
#
# Total GULP energy -396528.235979 kJ/mol
# GULP energy per Si atom -12391.507374 kJ/mol
# Density = 1.744972 g / cm^3
# Si number density = 17.489528 Si / 1000 Ang^3
#
#
#
# Elastic Constant Matrix: (Units=GPa)
#
#
# Indices 1 2 3 4 5 6 
#
# 1 55.4352 30.2993 34.7908 0.0000 0.0000 0.0000
# 2 30.2993 87.8912 54.8747 0.0000 0.0000 0.0000
# 3 34.7908 54.8747 102.4953 0.0000 0.0000 0.0000
# 4 0.0000 0.0000 0.0000 33.6126 0.0000 0.0000
# 5 0.0000 0.0000 0.0000 0.0000 14.5755 0.0000
# 6 0.0000 0.0000 0.0000 0.0000 0.0000 25.6696
#
#
#
# Elastic Compliance Matrix: (Units=1/GPa)
#
#
# Indices 1 2 3 4 5 6 
#
# 1 0.024215 -0.004831 -0.005633 0.000000 0.000000 0.000000
# 2 -0.004831 0.018054 -0.008026 0.000000 0.000000 0.000000
# 3 -0.005633 -0.008026 0.015966 0.000000 0.000000 0.000000
# 4 0.000000 0.000000 0.000000 0.029751 0.000000 0.000000
# 5 0.000000 0.000000 0.000000 0.000000 0.068608 0.000000
# 6 0.000000 0.000000 0.000000 0.000000 0.000000 0.038957
#
#
# Mechanical properties :
#
#
# Convention : Reuss Voigt Hill
#
# Bulk Modulus (GPa) = 47.04865 53.97235 50.51050
# Shear Modulus (GPa) = 20.86678 23.16200 22.01439
#
# Velocity S-wave (km/s) = 3.45788 3.64309 3.55169
# Velocity P-wave (km/s) = 6.54996 6.97302 6.76480
#
# Compressibility (1/GPa) = 0.02125460
#
# Stress axis : x y z
#
# Youngs Moduli (GPa) = 41.29724 55.38873 62.63389
#
# Poissons Ratio (x) = 0.26757 0.35282
# Poissons Ratio (y) = 0.19949 0.50272
# Poissons Ratio (z) = 0.23263 0.44457
#
# Static dielectric constant tensor:
#      x y z
#    x 3.180800 0.000000 0.000000 
#    y 0.000000 3.369520 0.000000 
#    z 0.000000 0.000000 3.374580 
# 
# 
# High freq. dielectric constant tensor:
#      x y z
#    x 1.637830 0.000000 0.000000 
#    y 0.000000 1.690960 0.000000 
#    z 0.000000 0.000000 1.662720 
# 
# From -- ./inp_files/16337.got.cif
#   From: 2010.03.12/outbox.cif.g09.slc.cpg/sg39_9_cif.got.tgz:16337.got - 2010.04.14 02:53:20.
