data_PCOD8181799
_publ_section_title
;
Structure prediction by ZEFSAII (Michael W. Deem and Ramdas Pophale) SiO2 
 PCOD8181799
Probable space group: A B M 2
;
_chemical_formula_sum "Si O2"
_cell_formula_units_Z 56
_cell_length_a 27.480995
_cell_length_b 18.222940
_cell_length_c 5.181645
_cell_angle_alpha 90.000000
_cell_angle_beta 90.000000
_cell_angle_gamma 90.000000
_cell_volume 2594.887620
_symmetry_space_group_name_H-M "A B M 2"
_symmetry_group_IT_number 39
_symmetry_cell_setting 'orthorhombic'
loop_
_space_group_symop_operation_xyz
x,y,z
-x,-y,z
-x,1/2+y,z
x,1/2-y,z
x,1/2+y,1/2+z
-x,1/2-y,1/2+z
-x,y,1/2+z
x,-y,1/2+z
loop_
_atom_site_type_symbol
_atom_site_label
_atom_site_fract_x
_atom_site_fract_y
_atom_site_fract_z
Si Si1 0.796130 0.166275 0.591360
Si Si2 0.312429 0.970744 0.224067
Si Si3 0.579755 0.469482 0.731470
Si Si4 0.266186 0.331264 0.591122
Si Si5 0.530761 0.167998 0.594533
Si Si6 0.117630 0.448481 0.122945
Si Si7 0.031615 0.833104 0.595279
O O1 0.816690 0.250000 0.616383
O O2 0.775264 0.154714 0.304330
O O3 0.836664 0.105526 0.636607
O O4 0.754807 0.154477 0.807335
O O5 0.311607 0.885459 0.144938
O O6 0.284937 0.983542 0.497162
O O7 0.365773 0.002448 0.290106
O O8 0.553134 0.516746 0.505834
O O9 0.576854 0.384444 0.650334
O O10 0.287967 0.250000 0.616009
O O11 0.551119 0.250000 0.620995
O O12 0.510718 0.153236 0.308343
O O13 0.117823 0.503629 0.363715
O O14 0.071360 0.395556 0.135603
O O15 0.053410 0.750000 0.617467
O O16 0.009230 0.844366 0.312425
#
# Coordination Sequence:
#
# PCOD8181799 Si02
#       7
#     8   8   8   8   8   8   8
#     4  10  22  40  60  84 116 153 191 235 288 348
#     4  10  21  37  56  82 115 149 186 229 282 340
#     4  10  21  37  55  83 115 148 187 229 282 336
#     4  10  21  38  61  85 111 148 192 236 284 340
#     4  10  21  37  58  84 114 150 192 237 283 335
#     4  12  25  38  58  90 122 152 190 241 299 345
#     4  10  22  41  63  84 113 159 204 239 283 344
#
# _framework density 21.580897
#
# number of rings (size 3 to 8) (size 9 to 14) (size 15 to 20)
#    0.000    1.714    0.000    3.857    0.000    6.857 
#    0.000   11.429    0.000    0.000    0.000    0.000 
#    0.000    0.000    0.000    0.000    0.000    0.000 
#
# Total GULP energy -346985.128162 kJ/mol
# GULP energy per Si atom -12392.326006 kJ/mol
# Density = 2.153178 g / cm^3
# Si number density = 21.580897 Si / 1000 Ang^3
#
#
#
# Elastic Constant Matrix: (Units=GPa)
#
#
# Indices 1 2 3 4 5 6 
#
# 1 47.0172 42.0772 -4.6070 0.0000 0.0000 0.0000
# 2 42.0772 132.9079 16.9390 0.0000 0.0000 0.0000
# 3 -4.6070 16.9390 138.4956 0.0000 0.0000 0.0000
# 4 0.0000 0.0000 0.0000 39.6443 0.0000 0.0000
# 5 0.0000 0.0000 0.0000 0.0000 8.6558 0.0000
# 6 0.0000 0.0000 0.0000 0.0000 0.0000 50.9074
#
#
#
# Elastic Compliance Matrix: (Units=1/GPa)
#
#
# Indices 1 2 3 4 5 6 
#
# 1 0.030333 -0.009886 0.002218 0.000000 0.000000 0.000000
# 2 -0.009886 0.010865 -0.001658 0.000000 0.000000 0.000000
# 3 0.002218 -0.001658 0.007497 0.000000 0.000000 0.000000
# 4 0.000000 0.000000 0.000000 0.025224 0.000000 0.000000
# 5 0.000000 0.000000 0.000000 0.000000 0.115530 0.000000
# 6 0.000000 0.000000 0.000000 0.000000 0.000000 0.019643
#
#
# Mechanical properties :
#
#
# Convention : Reuss Voigt Hill
#
# Bulk Modulus (GPa) = 33.28406 47.47102 40.37754
# Shear Modulus (GPa) = 21.02971 37.44227 29.23599
#
# Velocity S-wave (km/s) = 3.12502 4.16982 3.68464
# Velocity P-wave (km/s) = 5.33642 6.72516 6.07063
#
# Compressibility (1/GPa) = 0.03004441
#
# Stress axis : x y z
#
# Youngs Moduli (GPa) = 32.96697 92.03811 133.38700
#
# Poissons Ratio (x) = 0.90988 -0.29587
# Poissons Ratio (y) = 0.32591 0.22112
# Poissons Ratio (z) = -0.07313 0.15257
#
# Static dielectric constant tensor:
#      x y z
#    x 3.483840 0.000000 0.000000 
#    y 0.000000 4.235540 0.000000 
#    z 0.000000 0.000000 4.613310 
# 
# 
# High freq. dielectric constant tensor:
#      x y z
#    x 1.801620 0.000000 0.000000 
#    y 0.000000 1.866530 0.000000 
#    z 0.000000 0.000000 1.887470 
# 
# From -- ./inp_files/1493.got.cif
#   From: 2010.03.12/outbox.cif.g09.slc.cpg/sg39_1_cif.got.tgz:1493.got - 2010.04.14 02:53:20.
