data_PCOD8181055
_publ_section_title
;
Structure prediction by ZEFSAII (Michael W. Deem and Ramdas Pophale) SiO2 
 PCOD8181055
Probable space group: A B M 2
;
_chemical_formula_sum "Si O2"
_cell_formula_units_Z 64
_cell_length_a 14.516399
_cell_length_b 8.878731
_cell_length_c 24.765194
_cell_angle_alpha 90.000000
_cell_angle_beta 90.000000
_cell_angle_gamma 90.000000
_cell_volume 3191.916557
_symmetry_space_group_name_H-M "A B M 2"
_symmetry_group_IT_number 39
_symmetry_cell_setting 'orthorhombic'
loop_
_space_group_symop_operation_xyz
x,y,z
-x,-y,z
-x,1/2+y,z
x,1/2-y,z
x,1/2+y,1/2+z
-x,1/2-y,1/2+z
-x,y,1/2+z
x,-y,1/2+z
loop_
_atom_site_type_symbol
_atom_site_label
_atom_site_fract_x
_atom_site_fract_y
_atom_site_fract_z
Si Si1 0.411102 0.425150 0.682810
Si Si2 0.899578 0.572715 0.540774
Si Si3 0.164538 0.427636 0.825590
Si Si4 0.792833 0.071004 0.933814
Si Si5 0.409487 0.080751 0.408505
Si Si6 0.213356 0.923699 0.145278
Si Si7 0.651485 0.422893 0.790342
Si Si8 0.911408 0.426778 0.727063
O O1 0.500000 0.500000 0.653558
O O2 0.428059 0.250000 0.695083
O O3 0.323639 0.446695 0.643039
O O4 0.402391 0.513510 0.739236
O O5 0.914022 0.750000 0.540256
O O6 0.844070 0.519423 0.487997
O O7 0.835290 0.521479 0.590474
O O8 0.000000 0.500000 0.544173
O O9 0.150586 0.250000 0.826335
O O10 0.151410 0.493411 0.885400
O O11 0.262582 0.469256 0.800455
O O12 0.089069 0.504353 0.787183
O O13 0.794418 0.250000 0.924874
O O14 0.686360 0.013163 0.932665
O O15 0.417099 0.250000 0.429087
O O16 0.411926 0.070557 0.343502
O O17 0.500000 0.000000 0.432152
O O18 0.188977 0.750000 0.157504
O O19 0.179388 0.026552 0.194421
O O20 0.684109 0.250000 0.780235
O O21 0.921286 0.250000 0.729086
O O22 0.000000 0.500000 0.697027
#
# Coordination Sequence:
#
# PCOD8181055 Si02
#       8
#     8   8   8   8   8   8   8   8
#     4  11  22  35  55  83 120 160 203 246 294 353
#     4  10  22  42  67  89 113 148 196 249 303 359
#     4  11  21  35  56  85 121 157 194 241 295 354
#     4   9  20  39  59  82 116 157 196 241 297 357
#     4   9  18  31  50  78 113 152 194 236 282 340
#     4  10  22  41  62  87 118 154 197 247 300 357
#     4  10  19  33  53  80 116 159 202 241 292 349
#     4  12  24  38  59  86 119 157 195 240 297 363
#
# _framework density 20.050651999999999
#
# number of rings (size 3 to 8) (size 9 to 14) (size 15 to 20)
#    0.000    1.750    1.250    4.500    0.000    6.500 
#    0.000    1.875    0.000    0.000    0.000    0.000 
#    0.000    0.000    0.000    0.000    0.000    0.000 
#
# Total GULP energy -396774.246216 kJ/mol
# GULP energy per Si atom -12399.195194 kJ/mol
# Density = 2.000502 g / cm^3
# Si number density = 20.050652 Si / 1000 Ang^3
#
#
#
# Elastic Constant Matrix: (Units=GPa)
#
#
# Indices 1 2 3 4 5 6 
#
# 1 128.4910 46.9671 58.5730 0.0000 0.0000 0.0000
# 2 46.9671 102.4606 45.3606 0.0000 0.0000 0.0000
# 3 58.5730 45.3606 114.0056 0.0000 0.0000 0.0000
# 4 0.0000 0.0000 0.0000 21.7664 0.0000 0.0000
# 5 0.0000 0.0000 0.0000 0.0000 25.2887 0.0000
# 6 0.0000 0.0000 0.0000 0.0000 0.0000 36.4994
#
#
#
# Elastic Compliance Matrix: (Units=1/GPa)
#
#
# Indices 1 2 3 4 5 6 
#
# 1 0.010897 -0.003055 -0.004383 0.000000 0.000000 0.000000
# 2 -0.003055 0.012703 -0.003485 0.000000 0.000000 0.000000
# 3 -0.004383 -0.003485 0.012410 0.000000 0.000000 0.000000
# 4 0.000000 0.000000 0.000000 0.045942 0.000000 0.000000
# 5 0.000000 0.000000 0.000000 0.000000 0.039543 0.000000
# 6 0.000000 0.000000 0.000000 0.000000 0.000000 0.027398
#
#
# Mechanical properties :
#
#
# Convention : Reuss Voigt Hill
#
# Bulk Modulus (GPa) = 70.59855 71.86206 71.23030
# Shear Modulus (GPa) = 28.49635 29.64801 29.07218
#
# Velocity S-wave (km/s) = 3.77399 3.84950 3.81193
# Velocity P-wave (km/s) = 7.36731 7.46165 7.41463
#
# Compressibility (1/GPa) = 0.01416460
#
# Stress axis : x y z
#
# Youngs Moduli (GPa) = 91.76494 78.72245 80.57950
#
# Poissons Ratio (x) = 0.24047 0.35321
# Poissons Ratio (y) = 0.28031 0.28080
# Poissons Ratio (z) = 0.40224 0.27433
#
# Static dielectric constant tensor:
#      x y z
#    x 3.783120 0.000000 0.000000 
#    y 0.000000 3.549000 0.000000 
#    z 0.000000 0.000000 3.568920 
# 
# 
# High freq. dielectric constant tensor:
#      x y z
#    x 1.793530 0.000000 0.000000 
#    y 0.000000 1.780120 0.000000 
#    z 0.000000 0.000000 1.758530 
# 
# From -- ./inp_files/16261.got.cif
#   From: 2010.03.12/outbox.cif.g09.slc.cpg/sg39_9_cif.got.tgz:16261.got - 2010.04.14 02:53:20.
