data_PCOD8181529
_publ_section_title
;
Structure prediction by ZEFSAII (Michael W. Deem and Ramdas Pophale) SiO2 
 PCOD8181529
Probable space group: A B M 2
;
_chemical_formula_sum "Si O2"
_cell_formula_units_Z 48
_cell_length_a 9.448576
_cell_length_b 8.655746
_cell_length_c 30.354024
_cell_angle_alpha 90.000000
_cell_angle_beta 90.000000
_cell_angle_gamma 90.000000
_cell_volume 2482.487884
_symmetry_space_group_name_H-M "A B M 2"
_symmetry_group_IT_number 39
_symmetry_cell_setting 'orthorhombic'
loop_
_space_group_symop_operation_xyz
x,y,z
-x,-y,z
-x,1/2+y,z
x,1/2-y,z
x,1/2+y,1/2+z
-x,1/2-y,1/2+z
-x,y,1/2+z
x,-y,1/2+z
loop_
_atom_site_type_symbol
_atom_site_label
_atom_site_fract_x
_atom_site_fract_y
_atom_site_fract_z
Si Si1 0.345001 0.433123 0.502700
Si Si2 0.849573 0.432733 0.234303
Si Si3 0.347956 0.433526 0.910612
Si Si4 0.844628 0.068100 0.578493
Si Si5 0.346252 0.430941 0.162199
Si Si6 0.146355 0.068281 0.833706
O O1 0.500000 0.500000 0.514033
O O2 0.357190 0.250000 0.502237
O O3 0.288385 0.493719 0.455695
O O4 0.229994 0.486263 0.537709
O O5 0.857297 0.250000 0.229865
O O6 0.720464 0.495867 0.205809
O O7 0.817456 0.488160 0.284261
O O8 0.000000 0.500000 0.217974
O O9 0.500000 0.500000 0.900898
O O10 0.350843 0.250000 0.915688
O O11 0.259846 0.491305 0.868708
O O12 0.853350 0.250000 0.569823
O O13 0.754503 0.027898 0.621579
O O14 0.000000 0.000000 0.585193
O O15 0.500000 0.500000 0.152831
O O16 0.361669 0.250000 0.169393
O O17 0.135020 0.250000 0.834349
O O18 0.000000 0.000000 0.850208
#
# Coordination Sequence:
#
# PCOD8181529 Si02
#       6
#     8   8   8   8   8   8
#     4  11  22  38  60  85 114 149 189 233 283 335
#     4  10  20  37  59  84 115 150 190 234 282 334
#     4  10  20  36  56  81 113 148 189 233 280 333
#     4  11  24  41  61  86 115 148 187 230 279 334
#     4  11  24  40  60  86 115 149 188 231 280 334
#     4   9  20  36  56  82 112 148 188 231 278 332
#
# _framework density 19.335442
#
# number of rings (size 3 to 8) (size 9 to 14) (size 15 to 20)
#    0.000    1.667    0.000    5.500    0.000    8.667 
#    0.000    3.333    0.000    0.000    0.000    0.000 
#    0.000    0.000    0.000    0.000    0.000    0.000 
#
# Total GULP energy -297668.376549 kJ/mol
# GULP energy per Si atom -12402.849023 kJ/mol
# Density = 1.929143 g / cm^3
# Si number density = 19.335442 Si / 1000 Ang^3
#
#
#
# Elastic Constant Matrix: (Units=GPa)
#
#
# Indices 1 2 3 4 5 6 
#
# 1 125.1555 61.4563 82.8231 0.0000 0.0000 0.0000
# 2 61.4563 102.5879 60.3333 0.0000 0.0000 0.0000
# 3 82.8231 60.3333 129.9484 0.0000 0.0000 0.0000
# 4 0.0000 0.0000 0.0000 23.7053 0.0000 0.0000
# 5 0.0000 0.0000 0.0000 0.0000 52.4434 0.0000
# 6 0.0000 0.0000 0.0000 0.0000 0.0000 37.0513
#
#
#
# Elastic Compliance Matrix: (Units=1/GPa)
#
#
# Indices 1 2 3 4 5 6 
#
# 1 0.015320 -0.004725 -0.007570 0.000000 0.000000 0.000000
# 2 -0.004725 0.014867 -0.003891 0.000000 0.000000 0.000000
# 3 -0.007570 -0.003891 0.014327 0.000000 0.000000 0.000000
# 4 0.000000 0.000000 0.000000 0.042185 0.000000 0.000000
# 5 0.000000 0.000000 0.000000 0.000000 0.019068 0.000000
# 6 0.000000 0.000000 0.000000 0.000000 0.000000 0.026990
#
#
# Mechanical properties :
#
#
# Convention : Reuss Voigt Hill
#
# Bulk Modulus (GPa) = 82.36779 85.21302 83.79040
# Shear Modulus (GPa) = 29.55498 32.84528 31.20013
#
# Velocity S-wave (km/s) = 3.91390 4.12601 4.02135
# Velocity P-wave (km/s) = 7.94460 8.17711 8.06169
#
# Compressibility (1/GPa) = 0.01214067
#
# Stress axis : x y z
#
# Youngs Moduli (GPa) = 65.27292 67.26441 69.79939
#
# Poissons Ratio (x) = 0.31786 0.52841
# Poissons Ratio (y) = 0.30845 0.27156
# Poissons Ratio (z) = 0.49415 0.26170
#
# Static dielectric constant tensor:
#      x y z
#    x 3.504210 0.000000 0.000000 
#    y 0.000000 3.678780 0.000000 
#    z 0.000000 0.000000 3.879850 
# 
# 
# High freq. dielectric constant tensor:
#      x y z
#    x 1.753680 0.000000 0.000000 
#    y 0.000000 1.766130 0.000000 
#    z 0.000000 0.000000 1.766680 
# 
# From -- ./inp_files/17592.got.cif
#   From: 2010.03.12/outbox.cif.g09.slc.cpg/sg39_9_cif.got.tgz:17592.got - 2010.04.14 02:53:20.
