data_PCOD8181431
_publ_section_title
;
Structure prediction by ZEFSAII (Michael W. Deem and Ramdas Pophale) SiO2 
 PCOD8181431
Probable space group: A B M 2
;
_chemical_formula_sum "Si O2"
_cell_formula_units_Z 52
_cell_length_a 13.282606
_cell_length_b 23.734492
_cell_length_c 9.151851
_cell_angle_alpha 90.000000
_cell_angle_beta 90.000000
_cell_angle_gamma 90.000000
_cell_volume 2885.175077
_symmetry_space_group_name_H-M "A B M 2"
_symmetry_group_IT_number 39
_symmetry_cell_setting 'orthorhombic'
loop_
_space_group_symop_operation_xyz
x,y,z
-x,-y,z
-x,1/2+y,z
x,1/2-y,z
x,1/2+y,1/2+z
-x,1/2-y,1/2+z
-x,y,1/2+z
x,-y,1/2+z
loop_
_atom_site_type_symbol
_atom_site_label
_atom_site_fract_x
_atom_site_fract_y
_atom_site_fract_z
Si Si1 0.633728 0.955924 0.142040
Si Si2 0.112179 0.873728 0.375869
Si Si3 0.500000 0.500000 0.890006
Si Si4 0.905842 0.437823 0.876288
Si Si5 0.864080 0.250000 0.705742
Si Si6 0.827927 0.966707 0.686546
Si Si7 0.783907 0.632667 0.175220
Si Si8 0.944813 0.250000 0.390748
O O1 0.674516 0.891796 0.133564
O O2 0.564288 0.959295 0.285326
O O3 0.722880 0.002529 0.150313
O O4 0.572795 0.963593 0.992583
O O5 0.191745 0.907537 0.273145
O O6 0.139161 0.882400 0.544903
O O7 0.109543 0.807110 0.332164
O O8 0.004470 0.901336 0.347473
O O9 0.902338 0.495942 0.786396
O O10 0.814210 0.398981 0.823281
O O11 0.891525 0.453135 0.043659
O O12 0.785174 0.198842 0.704972
O O13 0.939229 0.250000 0.566810
O O14 0.937266 0.250000 0.846369
#
# Coordination Sequence:
#
# PCOD8181431 Si02
#       8
#     8   8   4   8   4   8   8   4
#     4  10  20  36  54  82 101 134 165 219 276 338
#     4  11  21  34  49  74 108 152 183 220 243 298
#     4  10  20  36  60  76 104 124 164 214 288 346
#     4  11  21  33  48  74 107 150 179 216 253 299
#     4  10  20  36  54  76 106 150 182 230 240 302
#     4  11  22  33  52  76 111 135 182 217 265 314
#     4  10  20  35  55  76 108 139 184 215 262 302
#     4  10  22  34  52  72 108 150 204 210 252 276
#
# _framework density 18.02317
#
# number of rings (size 3 to 8) (size 9 to 14) (size 15 to 20)
#    0.000    1.538    1.538    6.000    2.154    2.462 
#    0.000    0.000    0.000    0.923    0.000    4.308 
#    0.000    0.000    0.000    0.000    0.000    0.000 
#
# Total GULP energy -322294.085618 kJ/mol
# GULP energy per Si atom -12395.926370 kJ/mol
# Density = 1.798215 g / cm^3
# Si number density = 18.023170 Si / 1000 Ang^3
#
#
#
# Elastic Constant Matrix: (Units=GPa)
#
#
# Indices 1 2 3 4 5 6 
#
# 1 66.1456 42.4856 15.1879 0.0000 0.0000 0.0000
# 2 42.4856 148.9040 49.7331 0.0000 0.0000 0.0000
# 3 15.1879 49.7331 92.0280 0.0000 0.0000 0.0000
# 4 0.0000 0.0000 0.0000 23.1173 0.0000 0.0000
# 5 0.0000 0.0000 0.0000 0.0000 20.3816 0.0000
# 6 0.0000 0.0000 0.0000 0.0000 0.0000 22.4390
#
#
#
# Elastic Compliance Matrix: (Units=1/GPa)
#
#
# Indices 1 2 3 4 5 6 
#
# 1 0.018515 -0.005201 -0.000245 0.000000 0.000000 0.000000
# 2 -0.005201 0.009656 -0.004360 0.000000 0.000000 0.000000
# 3 -0.000245 -0.004360 0.013263 0.000000 0.000000 0.000000
# 4 0.000000 0.000000 0.000000 0.043258 0.000000 0.000000
# 5 0.000000 0.000000 0.000000 0.000000 0.049064 0.000000
# 6 0.000000 0.000000 0.000000 0.000000 0.000000 0.044565
#
#
# Mechanical properties :
#
#
# Convention : Reuss Voigt Hill
#
# Bulk Modulus (GPa) = 45.82492 57.98786 51.90639
# Shear Modulus (GPa) = 24.36580 26.49899 25.43239
#
# Velocity S-wave (km/s) = 3.68083 3.83857 3.76053
# Velocity P-wave (km/s) = 6.59890 7.20348 6.90780
#
# Compressibility (1/GPa) = 0.02182219
#
# Stress axis : x y z
#
# Youngs Moduli (GPa) = 54.01030 103.56453 75.39897
#
# Poissons Ratio (x) = 0.53863 0.01847
# Poissons Ratio (y) = 0.28090 0.32872
# Poissons Ratio (z) = 0.01323 0.45152
#
# Static dielectric constant tensor:
#      x y z
#    x 3.177840 0.000000 0.000000 
#    y 0.000000 3.567570 0.000000 
#    z 0.000000 0.000000 3.447850 
# 
# 
# High freq. dielectric constant tensor:
#      x y z
#    x 1.667100 0.000000 0.000000 
#    y 0.000000 1.696210 0.000000 
#    z 0.000000 0.000000 1.711430 
# 
# From -- ./inp_files/3468.got.cif
#   From: 2010.03.12/outbox.cif.g09.slc.cpg/sg39_2_cif.got.tgz:3468.got - 2010.04.14 02:53:20.
