data_PCOD8181640
_publ_section_title
;
Structure prediction by ZEFSAII (Michael W. Deem and Ramdas Pophale) SiO2 
 PCOD8181640
Probable space group: A B M 2
;
_chemical_formula_sum "Si O2"
_cell_formula_units_Z 64
_cell_length_a 23.883892
_cell_length_b 8.550768
_cell_length_c 15.295568
_cell_angle_alpha 90.000000
_cell_angle_beta 90.000000
_cell_angle_gamma 90.000000
_cell_volume 3123.746849
_symmetry_space_group_name_H-M "A B M 2"
_symmetry_group_IT_number 39
_symmetry_cell_setting 'orthorhombic'
loop_
_space_group_symop_operation_xyz
x,y,z
-x,-y,z
-x,1/2+y,z
x,1/2-y,z
x,1/2+y,1/2+z
-x,1/2-y,1/2+z
-x,y,1/2+z
x,-y,1/2+z
loop_
_atom_site_type_symbol
_atom_site_label
_atom_site_fract_x
_atom_site_fract_y
_atom_site_fract_z
Si Si1 0.440798 0.934027 0.901310
Si Si2 0.165223 0.429261 0.394246
Si Si3 0.827656 0.428679 0.699734
Si Si4 0.440935 0.434912 0.204966
Si Si5 0.755714 0.068386 0.050866
Si Si6 0.941091 0.934312 0.648365
Si Si7 0.056660 0.433078 0.957767
Si Si8 0.634912 0.567471 0.048361
O O1 0.445338 0.750000 0.901406
O O2 0.427740 0.996840 0.803057
O O3 0.500000 0.000000 0.935472
O O4 0.390652 0.984538 0.963806
O O5 0.147996 0.250000 0.412611
O O6 0.194028 0.446339 0.299303
O O7 0.209164 0.487461 0.466685
O O8 0.109675 0.535978 0.396093
O O9 0.822121 0.250000 0.667141
O O10 0.791405 0.539997 0.638141
O O11 0.892237 0.479575 0.700788
O O12 0.500000 0.500000 0.171503
O O13 0.443785 0.250000 0.205077
O O14 0.393791 0.495439 0.137594
O O15 0.739891 0.250000 0.044351
O O16 0.700236 0.966283 0.054451
O O17 0.937741 0.750000 0.664487
O O18 0.933324 0.971904 0.546618
O O19 0.000000 0.000000 0.683781
O O20 0.050092 0.250000 0.977688
O O21 0.000000 0.500000 0.912902
O O22 0.624343 0.750000 0.037833
#
# Coordination Sequence:
#
# PCOD8181640 Si02
#       8
#     8   8   8   8   8   8   8   8
#     4  10  20  37  60  89 123 158 196 239 292 350
#     4  10  23  42  63  86 118 155 196 245 303 361
#     4  11  23  41  64  89 116 154 197 246 302 360
#     4   9  20  37  59  87 122 159 194 238 292 347
#     4  11  24  43  63  85 117 158 200 251 300 352
#     4  11  21  36  59  88 121 155 192 239 296 357
#     4  11  21  35  60  89 120 155 194 240 297 358
#     4  11  23  39  60  87 119 158 202 248 293 349
#
# _framework density 20.488218
#
# number of rings (size 3 to 8) (size 9 to 14) (size 15 to 20)
#    0.000    1.500    1.250    4.875    0.000    5.500 
#    0.000    5.000    0.000    0.000    0.000    0.000 
#    0.000    0.000    0.000    0.000    0.000    0.000 
#
# Total GULP energy -396931.416448 kJ/mol
# GULP energy per Si atom -12404.106764 kJ/mol
# Density = 2.044159 g / cm^3
# Si number density = 20.488218 Si / 1000 Ang^3
#
#
#
# Elastic Constant Matrix: (Units=GPa)
#
#
# Indices 1 2 3 4 5 6 
#
# 1 119.8708 12.8774 55.7080 0.0000 0.0000 0.0000
# 2 12.8774 56.3207 20.0829 0.0000 0.0000 0.0000
# 3 55.7080 20.0829 109.7980 0.0000 0.0000 0.0000
# 4 0.0000 0.0000 0.0000 26.1428 0.0000 0.0000
# 5 0.0000 0.0000 0.0000 0.0000 8.1066 0.0000
# 6 0.0000 0.0000 0.0000 0.0000 0.0000 36.9779
#
#
#
# Elastic Compliance Matrix: (Units=1/GPa)
#
#
# Indices 1 2 3 4 5 6 
#
# 1 0.010933 -0.000558 -0.005445 0.000000 0.000000 0.000000
# 2 -0.000558 0.019023 -0.003196 0.000000 0.000000 0.000000
# 3 -0.005445 -0.003196 0.012455 0.000000 0.000000 0.000000
# 4 0.000000 0.000000 0.000000 0.038251 0.000000 0.000000
# 5 0.000000 0.000000 0.000000 0.000000 0.123357 0.000000
# 6 0.000000 0.000000 0.000000 0.000000 0.000000 0.027043
#
#
# Mechanical properties :
#
#
# Convention : Reuss Voigt Hill
#
# Bulk Modulus (GPa) = 41.64612 51.48069 46.56340
# Shear Modulus (GPa) = 19.42022 27.40022 23.41022
#
# Velocity S-wave (km/s) = 3.08209 3.66097 3.38393
# Velocity P-wave (km/s) = 5.74776 6.56138 6.16800
#
# Compressibility (1/GPa) = 0.02401184
#
# Stress axis : x y z
#
# Youngs Moduli (GPa) = 91.46912 52.56852 80.29059
#
# Poissons Ratio (x) = 0.02934 0.43717
# Poissons Ratio (y) = 0.05106 0.25663
# Poissons Ratio (z) = 0.49803 0.16802
#
# Static dielectric constant tensor:
#      x y z
#    x 3.692650 0.000000 0.000000 
#    y 0.000000 3.646900 0.000000 
#    z 0.000000 0.000000 3.826420 
# 
# 
# High freq. dielectric constant tensor:
#      x y z
#    x 1.795170 0.000000 0.000000 
#    y 0.000000 1.804630 0.000000 
#    z 0.000000 0.000000 1.804210 
# 
# From -- ./inp_files/10685.got.cif
#   From: 2010.03.12/outbox.cif.g09.slc.cpg/sg39_6_cif.got.tgz:10685.got - 2010.04.14 02:53:20.
