data_PCOD8181243
_publ_section_title
;
Structure prediction by ZEFSAII (Michael W. Deem and Ramdas Pophale) SiO2 
 PCOD8181243
Probable space group: A B M 2
;
_chemical_formula_sum "Si O2"
_cell_formula_units_Z 64
_cell_length_a 23.871322
_cell_length_b 8.651449
_cell_length_c 15.392865
_cell_angle_alpha 90.000000
_cell_angle_beta 90.000000
_cell_angle_gamma 90.000000
_cell_volume 3178.957952
_symmetry_space_group_name_H-M "A B M 2"
_symmetry_group_IT_number 39
_symmetry_cell_setting 'orthorhombic'
loop_
_space_group_symop_operation_xyz
x,y,z
-x,-y,z
-x,1/2+y,z
x,1/2-y,z
x,1/2+y,1/2+z
-x,1/2-y,1/2+z
-x,y,1/2+z
x,-y,1/2+z
loop_
_atom_site_type_symbol
_atom_site_label
_atom_site_fract_x
_atom_site_fract_y
_atom_site_fract_z
Si Si1 0.259871 0.929054 0.067810
Si Si2 0.938672 0.932168 0.468676
Si Si3 0.438931 0.067363 0.965334
Si Si4 0.248374 0.427723 0.364868
Si Si5 0.638801 0.568236 0.809086
Si Si6 0.138870 0.932503 0.122088
Si Si7 0.132320 0.569543 0.317626
Si Si8 0.371693 0.568828 0.632338
O O1 0.269405 0.750000 0.093419
O O2 0.201375 0.995302 0.104781
O O3 0.307618 0.033094 0.109642
O O4 0.261341 0.952691 0.965293
O O5 0.942822 0.750000 0.475404
O O6 0.903559 0.001376 0.550091
O O7 0.909033 0.974220 0.378569
O O8 0.000000 0.000000 0.471833
O O9 0.442581 0.250000 0.962951
O O10 0.400457 0.007034 0.886526
O O11 0.500000 0.000000 0.953704
O O12 0.411873 0.009305 0.055256
O O13 0.234097 0.250000 0.344232
O O14 0.301912 0.481175 0.310419
O O15 0.196539 0.532971 0.337636
O O16 0.649171 0.750000 0.816427
O O17 0.609430 0.523594 0.718301
O O18 0.141450 0.750000 0.109953
O O19 0.118502 0.978858 0.218283
O O20 0.121612 0.750000 0.332500
O O21 0.378816 0.750000 0.648301
#
# Coordination Sequence:
#
# PCOD8181243 Si02
#       8
#     8   8   8   8   8   8   8   8
#     4  10  19  36  62  90 122 162 196 239 304 362
#     4  11  23  43  63  85 118 157 204 254 302 359
#     4  10  24  43  63  86 119 158 205 255 304 359
#     4  11  21  36  62  94 125 161 200 246 300 359
#     4  11  23  41  62  90 124 161 201 248 303 362
#     4   9  20  39  61  86 120 156 195 241 294 355
#     4  11  22  38  63  93 123 160 199 244 301 361
#     4  11  23  40  61  92 124 156 200 250 300 362
#
# _framework density 20.132384999999999
#
# number of rings (size 3 to 8) (size 9 to 14) (size 15 to 20)
#    0.000    1.500    2.500    2.625    0.000    4.500 
#    0.000    6.875    0.000    0.000    0.000    0.000 
#    0.000    0.000    0.000    0.000    0.000    0.000 
#
# Total GULP energy -396944.988426 kJ/mol
# GULP energy per Si atom -12404.530888 kJ/mol
# Density = 2.008656 g / cm^3
# Si number density = 20.132385 Si / 1000 Ang^3
#
#
#
# Elastic Constant Matrix: (Units=GPa)
#
#
# Indices 1 2 3 4 5 6 
#
# 1 112.1579 19.2672 29.5564 0.0000 0.0000 0.0000
# 2 19.2672 40.3253 31.9972 0.0000 0.0000 0.0000
# 3 29.5564 31.9972 104.3650 0.0000 0.0000 0.0000
# 4 0.0000 0.0000 0.0000 30.1400 0.0000 0.0000
# 5 0.0000 0.0000 0.0000 0.0000 0.4087 0.0000
# 6 0.0000 0.0000 0.0000 0.0000 0.0000 32.9959
#
#
#
# Elastic Compliance Matrix: (Units=1/GPa)
#
#
# Indices 1 2 3 4 5 6 
#
# 1 0.009963 -0.003332 -0.001800 0.000000 0.000000 0.000000
# 2 -0.003332 0.033885 -0.009445 0.000000 0.000000 0.000000
# 3 -0.001800 -0.009445 0.012987 0.000000 0.000000 0.000000
# 4 0.000000 0.000000 0.000000 0.033178 0.000000 0.000000
# 5 0.000000 0.000000 0.000000 0.000000 2.447012 0.000000
# 6 0.000000 0.000000 0.000000 0.000000 0.000000 0.030307
#
#
# Mechanical properties :
#
#
# Convention : Reuss Voigt Hill
#
# Bulk Modulus (GPa) = 36.12608 46.49889 41.31248
# Shear Modulus (GPa) = 1.91886 24.44408 13.18147
#
# Velocity S-wave (km/s) = 0.97734 3.48827 2.56156
# Velocity P-wave (km/s) = 4.38826 6.27461 5.41422
#
# Compressibility (1/GPa) = 0.02768083
#
# Stress axis : x y z
#
# Youngs Moduli (GPa) = 100.37436 29.51177 76.99847
#
# Poissons Ratio (x) = 0.09833 0.13859
# Poissons Ratio (y) = 0.33444 0.72726
# Poissons Ratio (z) = 0.18067 0.27874
#
# Static dielectric constant tensor:
#      x y z
#    x 3.751170 0.000000 0.000000 
#    y 0.000000 3.496150 0.000000 
#    z 0.000000 0.000000 4.019570 
# 
# 
# High freq. dielectric constant tensor:
#      x y z
#    x 1.782380 0.000000 0.000000 
#    y 0.000000 1.774750 0.000000 
#    z 0.000000 0.000000 1.805410 
# 
# From -- ./inp_files/10605.got.cif
#   From: 2010.03.12/outbox.cif.g09.slc.cpg/sg39_6_cif.got.tgz:10605.got - 2010.04.14 02:53:20.
