data_PCOD8181425
_publ_section_title
;
Structure prediction by ZEFSAII (Michael W. Deem and Ramdas Pophale) SiO2 
 PCOD8181425
Probable space group: A B M 2
;
_chemical_formula_sum "Si O2"
_cell_formula_units_Z 64
_cell_length_a 7.895596
_cell_length_b 16.710802
_cell_length_c 26.562060
_cell_angle_alpha 90.000000
_cell_angle_beta 90.000000
_cell_angle_gamma 90.000000
_cell_volume 3504.644452
_symmetry_space_group_name_H-M "A B M 2"
_symmetry_group_IT_number 39
_symmetry_cell_setting 'orthorhombic'
loop_
_space_group_symop_operation_xyz
x,y,z
-x,-y,z
-x,1/2+y,z
x,1/2-y,z
x,1/2+y,1/2+z
-x,1/2-y,1/2+z
-x,y,1/2+z
x,-y,1/2+z
loop_
_atom_site_type_symbol
_atom_site_label
_atom_site_fract_x
_atom_site_fract_y
_atom_site_fract_z
Si Si1 0.205330 0.658256 0.601840
Si Si2 0.039305 0.092555 0.192509
Si Si3 0.313682 0.017558 0.422392
Si Si4 0.385094 0.157751 0.198311
Si Si5 0.727065 0.343117 0.250608
Si Si6 0.083561 0.156970 0.420155
Si Si7 0.892721 0.569724 0.838439
Si Si8 0.130571 0.067999 0.003175
O O1 0.167177 0.750000 0.589286
O O2 0.049621 0.622120 0.634581
O O3 0.376470 0.649411 0.636700
O O4 0.218672 0.611501 0.549904
O O5 0.220514 0.110468 0.220491
O O6 0.892886 0.144920 0.217320
O O7 0.000000 0.000000 0.195559
O O8 0.264497 0.111349 0.425615
O O9 0.500000 0.000000 0.402652
O O10 0.185192 0.978905 0.383913
O O11 0.288013 0.974798 0.475944
O O12 0.364683 0.250000 0.213798
O O13 0.560668 0.123611 0.221048
O O14 0.704228 0.250000 0.263014
O O15 0.751457 0.391701 0.302411
O O16 0.122337 0.250000 0.424987
O O17 0.004525 0.139349 0.364707
O O18 0.960232 0.130423 0.465636
O O19 0.000000 0.500000 0.808511
O O20 0.000000 0.000000 0.021522
#
# Coordination Sequence:
#
# PCOD8181425 Si02
#       8
#     8   8   8   8   8   8   8   8
#     4   9  17  34  53  77 109 142 180 227 273 319
#     4  10  20  35  54  77 109 146 188 222 272 328
#     4   9  19  37  54  78 113 144 174 227 280 332
#     4   8  19  36  52  77 112 142 182 227 266 318
#     4  11  20  36  58  79 109 148 185 228 276 324
#     4   9  17  33  56  83 109 140 187 230 269 333
#     4   9  19  36  56  80 106 142 186 226 276 333
#     4   9  17  31  57  80 105 144 184 220 273 328
#
# _framework density 18.261482999999998
#
# number of rings (size 3 to 8) (size 9 to 14) (size 15 to 20)
#    0.750    2.000    0.000    3.750    0.000    0.500 
#    6.750    7.500    0.000    1.500    0.000    0.000 
#    0.000    0.000    0.000    0.000    0.000    0.000 
#
# Total GULP energy -396457.169810 kJ/mol
# GULP energy per Si atom -12389.286557 kJ/mol
# Density = 1.821992 g / cm^3
# Si number density = 18.261483 Si / 1000 Ang^3
#
#
#
# Elastic Constant Matrix: (Units=GPa)
#
#
# Indices 1 2 3 4 5 6 
#
# 1 107.2512 42.5373 30.0036 0.0000 0.0000 0.0000
# 2 42.5373 123.6936 44.9068 0.0000 0.0000 0.0000
# 3 30.0036 44.9068 87.6814 0.0000 0.0000 0.0000
# 4 0.0000 0.0000 0.0000 14.4607 0.0000 0.0000
# 5 0.0000 0.0000 0.0000 0.0000 19.7142 0.0000
# 6 0.0000 0.0000 0.0000 0.0000 0.0000 21.5707
#
#
#
# Elastic Compliance Matrix: (Units=1/GPa)
#
#
# Indices 1 2 3 4 5 6 
#
# 1 0.011154 -0.003010 -0.002275 0.000000 0.000000 0.000000
# 2 -0.003010 0.010743 -0.004472 0.000000 0.000000 0.000000
# 3 -0.002275 -0.004472 0.014474 0.000000 0.000000 0.000000
# 4 0.000000 0.000000 0.000000 0.069153 0.000000 0.000000
# 5 0.000000 0.000000 0.000000 0.000000 0.050725 0.000000
# 6 0.000000 0.000000 0.000000 0.000000 0.000000 0.046359
#
#
# Mechanical properties :
#
#
# Convention : Reuss Voigt Hill
#
# Bulk Modulus (GPa) = 59.32411 61.50239 60.41325
# Shear Modulus (GPa) = 21.95467 24.56104 23.25786
#
# Velocity S-wave (km/s) = 3.47109 3.67135 3.57263
# Velocity P-wave (km/s) = 6.97288 7.19192 7.08325
#
# Compressibility (1/GPa) = 0.01685655
#
# Stress axis : x y z
#
# Youngs Moduli (GPa) = 89.65282 93.08225 69.08914
#
# Poissons Ratio (x) = 0.28016 0.15720
# Poissons Ratio (y) = 0.26983 0.30899
# Poissons Ratio (z) = 0.20399 0.41629
#
# Static dielectric constant tensor:
#      x y z
#    x 3.267540 0.000000 0.000000 
#    y 0.000000 3.344740 0.000000 
#    z 0.000000 0.000000 3.275830 
# 
# 
# High freq. dielectric constant tensor:
#      x y z
#    x 1.686110 0.000000 0.000000 
#    y 0.000000 1.713600 0.000000 
#    z 0.000000 0.000000 1.700940 
# 
# From -- ./inp_files/16889.got.cif
#   From: 2010.03.12/outbox.cif.g09.slc.cpg/sg39_9_cif.got.tgz:16889.got - 2010.04.14 02:53:20.
