data_PCOD8181601
_publ_section_title
;
Structure prediction by ZEFSAII (Michael W. Deem and Ramdas Pophale) SiO2 
 PCOD8181601
Probable space group: A B M 2
;
_chemical_formula_sum "Si O2"
_cell_formula_units_Z 44
_cell_length_a 4.912627
_cell_length_b 25.609096
_cell_length_c 14.328985
_cell_angle_alpha 90.000000
_cell_angle_beta 90.000000
_cell_angle_gamma 90.000000
_cell_volume 1802.700034
_symmetry_space_group_name_H-M "A B M 2"
_symmetry_group_IT_number 39
_symmetry_cell_setting 'orthorhombic'
loop_
_space_group_symop_operation_xyz
x,y,z
-x,-y,z
-x,1/2+y,z
x,1/2-y,z
x,1/2+y,1/2+z
-x,1/2-y,1/2+z
-x,y,1/2+z
x,-y,1/2+z
loop_
_atom_site_type_symbol
_atom_site_label
_atom_site_fract_x
_atom_site_fract_y
_atom_site_fract_z
Si Si1 0.428321 0.420261 0.577100
Si Si2 0.500000 0.000000 0.729317
Si Si3 0.313597 0.074489 0.374094
Si Si4 0.057154 0.358684 0.127072
Si Si5 0.689828 0.250000 0.300852
Si Si6 0.169016 0.861396 0.330731
Si Si7 0.822728 0.250000 0.670800
O O1 0.341297 0.460217 0.659742
O O2 0.412623 0.446774 0.474836
O O3 0.737046 0.403123 0.593815
O O4 0.231760 0.369475 0.577523
O O5 0.278436 0.972780 0.799293
O O6 0.543312 0.110095 0.324991
O O7 0.037127 0.107011 0.397742
O O8 0.193802 0.301939 0.106096
O O9 0.003842 0.362109 0.236581
O O10 0.760305 0.198236 0.361842
O O11 0.383408 0.250000 0.259295
O O12 0.869901 0.250000 0.208245
#
# Coordination Sequence:
#
# PCOD8181601 Si02
#       7
#     8   4   8   8   4   8   4
#     4  12  26  44  70 102 137 178 236 295 352 420
#     4  12  26  50  72  94 136 190 242 294 368 426
#     4  12  26  44  70 102 137 178 236 295 352 420
#     4  11  21  44  68 102 141 181 226 283 348 422
#     4  10  20  36  71 106 135 185 228 265 335 430
#     4  11  21  44  68 102 141 181 226 283 348 422
#     4  10  20  36  71 106 135 185 228 265 335 430
#
# _framework density 24.407831999999999
#
# number of rings (size 3 to 8) (size 9 to 14) (size 15 to 20)
#    0.000    0.727    3.636    6.000    0.000    2.909 
#    0.000    9.091    0.000    0.000    0.000    0.000 
#    0.000    0.000    0.000    0.000    0.000    0.000 
#
# Total GULP energy -272599.482602 kJ/mol
# GULP energy per Si atom -12390.885573 kJ/mol
# Density = 2.435228 g / cm^3
# Si number density = 24.407832 Si / 1000 Ang^3
#
#
#
# Elastic Constant Matrix: (Units=GPa)
#
#
# Indices 1 2 3 4 5 6 
#
# 1 111.8209 36.8993 3.5127 0.0000 0.0000 0.0000
# 2 36.8993 134.4789 40.5564 0.0000 0.0000 0.0000
# 3 3.5127 40.5564 112.2059 0.0000 0.0000 0.0000
# 4 0.0000 0.0000 0.0000 4.8714 0.0000 0.0000
# 5 0.0000 0.0000 0.0000 0.0000 29.7998 0.0000
# 6 0.0000 0.0000 0.0000 0.0000 0.0000 28.6655
#
#
#
# Elastic Compliance Matrix: (Units=1/GPa)
#
#
# Indices 1 2 3 4 5 6 
#
# 1 0.009890 -0.002941 0.000753 0.000000 0.000000 0.000000
# 2 -0.002941 0.009220 -0.003241 0.000000 0.000000 0.000000
# 3 0.000753 -0.003241 0.010060 0.000000 0.000000 0.000000
# 4 0.000000 0.000000 0.000000 0.205280 0.000000 0.000000
# 5 0.000000 0.000000 0.000000 0.000000 0.033557 0.000000
# 6 0.000000 0.000000 0.000000 0.000000 0.000000 0.034885
#
#
# Mechanical properties :
#
#
# Convention : Reuss Voigt Hill
#
# Bulk Modulus (GPa) = 54.60370 57.82695 56.21532
# Shear Modulus (GPa) = 15.63221 31.16983 23.40102
#
# Velocity S-wave (km/s) = 2.53347 3.57745 3.09973
# Velocity P-wave (km/s) = 5.56578 6.38808 5.99106
#
# Compressibility (1/GPa) = 0.01831378
#
# Stress axis : x y z
#
# Youngs Moduli (GPa) = 101.11607 108.45601 99.40451
#
# Poissons Ratio (x) = 0.31895 -0.07488
# Poissons Ratio (y) = 0.29736 0.32213
# Poissons Ratio (z) = -0.07617 0.35146
#
# Static dielectric constant tensor:
#      x y z
#    x 4.179440 0.000000 0.000000 
#    y 0.000000 5.053660 0.000000 
#    z 0.000000 0.000000 4.169130 
# 
# 
# High freq. dielectric constant tensor:
#      x y z
#    x 1.968400 0.000000 0.000000 
#    y 0.000000 1.974010 0.000000 
#    z 0.000000 0.000000 1.947990 
# 
# From -- ./inp_files/7519.got.cif
#   From: 2010.03.12/outbox.cif.g09.slc.cpg/sg39_4_cif.got.tgz:7519.got - 2010.04.14 02:53:20.
