data_PCOD8181159
_publ_section_title
;
Structure prediction by ZEFSAII (Michael W. Deem and Ramdas Pophale) SiO2 
 PCOD8181159
Probable space group: A B M 2
;
_chemical_formula_sum "Si O2"
_cell_formula_units_Z 64
_cell_length_a 24.086554
_cell_length_b 8.766867
_cell_length_c 15.165730
_cell_angle_alpha 90.000000
_cell_angle_beta 90.000000
_cell_angle_gamma 90.000000
_cell_volume 3202.450377
_symmetry_space_group_name_H-M "A B M 2"
_symmetry_group_IT_number 39
_symmetry_cell_setting 'orthorhombic'
loop_
_space_group_symop_operation_xyz
x,y,z
-x,-y,z
-x,1/2+y,z
x,1/2-y,z
x,1/2+y,1/2+z
-x,1/2-y,1/2+z
-x,y,1/2+z
x,-y,1/2+z
loop_
_atom_site_type_symbol
_atom_site_label
_atom_site_fract_x
_atom_site_fract_y
_atom_site_fract_z
Si Si1 0.944426 0.922754 0.302700
Si Si2 0.441699 0.069768 0.567427
Si Si3 0.943406 0.425296 0.011636
Si Si4 0.245711 0.070431 0.406327
Si Si5 0.829953 0.926912 0.050279
Si Si6 0.635188 0.570361 0.923566
Si Si7 0.557443 0.929180 0.767131
Si Si8 0.827776 0.427072 0.747881
O O1 0.948365 0.750000 0.271060
O O2 0.940494 0.938490 0.407071
O O3 0.888798 0.002147 0.262910
O O4 0.000000 0.000000 0.265265
O O5 0.445751 0.250000 0.559337
O O6 0.428519 0.016905 0.667720
O O7 0.500000 0.000000 0.535285
O O8 0.392267 0.009739 0.507325
O O9 0.939335 0.250000 0.042428
O O10 0.893880 0.524042 0.052289
O O11 0.000000 0.500000 0.047560
O O12 0.258700 0.250000 0.403712
O O13 0.217737 0.008055 0.316101
O O14 0.204404 0.036014 0.486538
O O15 0.301311 0.976639 0.419889
O O16 0.824705 0.750000 0.022011
O O17 0.806138 0.952499 0.148885
O O18 0.630123 0.750000 0.936619
O O19 0.605829 0.516084 0.832999
O O20 0.550016 0.750000 0.770301
O O21 0.500000 0.000000 0.800718
O O22 0.835049 0.250000 0.771585
#
# Coordination Sequence:
#
# PCOD8181159 Si02
#       8
#     8   8   8   8   8   8   8   8
#     4   9  17  33  55  80 110 144 181 224 276 339
#     4  10  20  37  60  90 124 160 194 234 285 339
#     4  10  19  34  57  84 116 151 187 230 285 346
#     4  11  23  43  62  80 112 154 196 241 290 342
#     4  11  22  38  61  87 114 147 189 238 291 346
#     4  11  23  39  59  87 118 153 197 244 287 339
#     4   9  20  37  59  87 123 156 191 235 283 338
#     4   9  20  39  60  81 111 149 188 234 288 347
#
# _framework density 19.984697000000001
#
# number of rings (size 3 to 8) (size 9 to 14) (size 15 to 20)
#    0.000    2.000    1.250    2.250    0.000    4.500 
#    0.000    7.500    0.000    0.000    0.000    0.000 
#    0.000    0.000    0.000    0.000    0.000    0.000 
#
# Total GULP energy -396854.391278 kJ/mol
# GULP energy per Si atom -12401.699727 kJ/mol
# Density = 1.993921 g / cm^3
# Si number density = 19.984697 Si / 1000 Ang^3
#
#
#
# Elastic Constant Matrix: (Units=GPa)
#
#
# Indices 1 2 3 4 5 6 
#
# 1 111.7161 13.0729 42.4947 0.0000 0.0000 0.0000
# 2 13.0729 50.9745 21.9614 0.0000 0.0000 0.0000
# 3 42.4947 21.9614 87.2838 0.0000 0.0000 0.0000
# 4 0.0000 0.0000 0.0000 25.0133 0.0000 0.0000
# 5 0.0000 0.0000 0.0000 0.0000 7.8086 0.0000
# 6 0.0000 0.0000 0.0000 0.0000 0.0000 36.5924
#
#
#
# Elastic Compliance Matrix: (Units=1/GPa)
#
#
# Indices 1 2 3 4 5 6 
#
# 1 0.011001 -0.000576 -0.005211 0.000000 0.000000 0.000000
# 2 -0.000576 0.022033 -0.005263 0.000000 0.000000 0.000000
# 3 -0.005211 -0.005263 0.015318 0.000000 0.000000 0.000000
# 4 0.000000 0.000000 0.000000 0.039979 0.000000 0.000000
# 5 0.000000 0.000000 0.000000 0.000000 0.128064 0.000000
# 6 0.000000 0.000000 0.000000 0.000000 0.000000 0.027328
#
#
# Mechanical properties :
#
#
# Convention : Reuss Voigt Hill
#
# Bulk Modulus (GPa) = 38.09327 45.00362 41.54845
# Shear Modulus (GPa) = 18.21004 25.37923 21.79464
#
# Velocity S-wave (km/s) = 3.02188 3.56748 3.30595
# Velocity P-wave (km/s) = 5.59270 6.28786 5.95044
#
# Compressibility (1/GPa) = 0.02625136
#
# Stress axis : x y z
#
# Youngs Moduli (GPa) = 90.90254 45.38651 65.28243
#
# Poissons Ratio (x) = 0.02615 0.34017
# Poissons Ratio (y) = 0.05238 0.34359
# Poissons Ratio (z) = 0.47368 0.23888
#
# Static dielectric constant tensor:
#      x y z
#    x 3.847320 0.000000 0.000000 
#    y 0.000000 3.530510 0.000000 
#    z 0.000000 0.000000 3.716220 
# 
# 
# High freq. dielectric constant tensor:
#      x y z
#    x 1.779770 0.000000 0.000000 
#    y 0.000000 1.770700 0.000000 
#    z 0.000000 0.000000 1.784760 
# 
# From -- ./inp_files/10556.got.cif
#   From: 2010.03.12/outbox.cif.g09.slc.cpg/sg39_6_cif.got.tgz:10556.got - 2010.04.14 02:53:20.
