data_PCOD8181070
_publ_section_title
;
Structure prediction by ZEFSAII (Michael W. Deem and Ramdas Pophale) SiO2 
 PCOD8181070
Probable space group: A B M 2
;
_chemical_formula_sum "Si O2"
_cell_formula_units_Z 64
_cell_length_a 23.884699
_cell_length_b 8.661984
_cell_length_c 15.575242
_cell_angle_alpha 90.000000
_cell_angle_beta 90.000000
_cell_angle_gamma 90.000000
_cell_volume 3222.344382
_symmetry_space_group_name_H-M "A B M 2"
_symmetry_group_IT_number 39
_symmetry_cell_setting 'orthorhombic'
loop_
_space_group_symop_operation_xyz
x,y,z
-x,-y,z
-x,1/2+y,z
x,1/2-y,z
x,1/2+y,1/2+z
-x,1/2-y,1/2+z
-x,y,1/2+z
x,-y,1/2+z
loop_
_atom_site_type_symbol
_atom_site_label
_atom_site_fract_x
_atom_site_fract_y
_atom_site_fract_z
Si Si1 0.331938 0.068578 0.528180
Si Si2 0.558096 0.431848 0.463516
Si Si3 0.674513 0.929466 0.202663
Si Si4 0.939146 0.433702 0.709418
Si Si5 0.939139 0.066284 0.029117
Si Si6 0.259530 0.566206 0.868889
Si Si7 0.133831 0.566781 0.869282
Si Si8 0.556606 0.070390 0.778203
O O1 0.340161 0.250000 0.519455
O O2 0.291526 0.004885 0.453219
O O3 0.391951 0.986849 0.524191
O O4 0.304913 0.024137 0.619686
O O5 0.500000 0.500000 0.499228
O O6 0.554076 0.250000 0.465966
O O7 0.570179 0.488367 0.367551
O O8 0.687695 0.750000 0.188457
O O9 0.708510 0.994058 0.284355
O O10 0.608282 0.957851 0.215016
O O11 0.942651 0.250000 0.704088
O O12 0.916456 0.500027 0.619277
O O13 0.897717 0.491782 0.784061
O O14 0.000000 0.500000 0.730683
O O15 0.942620 0.250000 0.034391
O O16 0.897723 0.008096 0.954473
O O17 0.000000 0.000000 0.007884
O O18 0.259084 0.750000 0.869636
O O19 0.196623 0.499057 0.869234
O O20 0.135321 0.750000 0.869360
O O21 0.547518 0.250000 0.797549
O O22 0.500000 0.000000 0.736595
#
# Coordination Sequence:
#
# PCOD8181070 Si02
#       8
#     8   8   8   8   8   8   8   8
#     4  11  22  38  60  84 111 147 188 229 281 335
#     4  11  21  35  58  85 115 146 182 227 279 336
#     4  10  21  38  59  81 110 147 188 229 279 335
#     4  10  19  33  54  82 113 146 183 224 275 331
#     4  10  19  33  54  82 114 147 184 226 276 330
#     4   9  19  39  59  77 110 150 187 231 280 331
#     4   9  19  34  56  81 107 147 191 228 275 330
#     4  10  19  34  56  84 113 146 181 222 280 335
#
# _framework density 19.861315999999999
#
# number of rings (size 3 to 8) (size 9 to 14) (size 15 to 20)
#    0.000    2.000    1.250    4.500    0.000    2.500 
#    0.000    3.125    0.000    7.500    0.000    0.000 
#    0.000    0.000    0.000    0.000    0.000    0.000 
#
# Total GULP energy -396851.707843 kJ/mol
# GULP energy per Si atom -12401.615870 kJ/mol
# Density = 1.981611 g / cm^3
# Si number density = 19.861316 Si / 1000 Ang^3
#
#
#
# Elastic Constant Matrix: (Units=GPa)
#
#
# Indices 1 2 3 4 5 6 
#
# 1 138.3501 36.8681 90.5593 0.0000 0.0000 0.0000
# 2 36.8681 85.6390 39.9332 0.0000 0.0000 0.0000
# 3 90.5593 39.9332 166.2433 0.0000 0.0000 0.0000
# 4 0.0000 0.0000 0.0000 29.1260 0.0000 0.0000
# 5 0.0000 0.0000 0.0000 0.0000 16.4733 0.0000
# 6 0.0000 0.0000 0.0000 0.0000 0.0000 19.2252
#
#
#
# Elastic Compliance Matrix: (Units=1/GPa)
#
#
# Indices 1 2 3 4 5 6 
#
# 1 0.011626 -0.002311 -0.005778 0.000000 0.000000 0.000000
# 2 -0.002311 0.013609 -0.002010 0.000000 0.000000 0.000000
# 3 -0.005778 -0.002010 0.009646 0.000000 0.000000 0.000000
# 4 0.000000 0.000000 0.000000 0.034334 0.000000 0.000000
# 5 0.000000 0.000000 0.000000 0.000000 0.060704 0.000000
# 6 0.000000 0.000000 0.000000 0.000000 0.000000 0.052015
#
#
# Mechanical properties :
#
#
# Convention : Reuss Voigt Hill
#
# Bulk Modulus (GPa) = 68.10787 80.55041 74.32914
# Shear Modulus (GPa) = 24.15159 27.82304 25.98732
#
# Velocity S-wave (km/s) = 3.49092 3.74687 3.62116
# Velocity P-wave (km/s) = 7.11441 7.70475 7.41546
#
# Compressibility (1/GPa) = 0.01468259
#
# Stress axis : x y z
#
# Youngs Moduli (GPa) = 86.01470 73.48022 103.67324
#
# Poissons Ratio (x) = 0.16979 0.59903
# Poissons Ratio (y) = 0.19876 0.20841
# Poissons Ratio (z) = 0.49700 0.14772
#
# Static dielectric constant tensor:
#      x y z
#    x 3.763480 0.000000 0.000000 
#    y 0.000000 3.389830 0.000000 
#    z 0.000000 0.000000 3.716320 
# 
# 
# High freq. dielectric constant tensor:
#      x y z
#    x 1.771900 0.000000 0.000000 
#    y 0.000000 1.756870 0.000000 
#    z 0.000000 0.000000 1.782300 
# 
# From -- ./inp_files/10640.got.cif
#   From: 2010.03.12/outbox.cif.g09.slc.cpg/sg39_6_cif.got.tgz:10640.got - 2010.04.14 02:53:20.
