data_PCOD8181355
_publ_section_title
;
Structure prediction by ZEFSAII (Michael W. Deem and Ramdas Pophale) SiO2 
 PCOD8181355
Probable space group: A B M 2
;
_chemical_formula_sum "Si O2"
_cell_formula_units_Z 64
_cell_length_a 20.362833
_cell_length_b 8.856134
_cell_length_c 19.740549
_cell_angle_alpha 90.000000
_cell_angle_beta 90.000000
_cell_angle_gamma 90.000000
_cell_volume 3559.931204
_symmetry_space_group_name_H-M "A B M 2"
_symmetry_group_IT_number 39
_symmetry_cell_setting 'orthorhombic'
loop_
_space_group_symop_operation_xyz
x,y,z
-x,-y,z
-x,1/2+y,z
x,1/2-y,z
x,1/2+y,1/2+z
-x,1/2-y,1/2+z
-x,y,1/2+z
x,-y,1/2+z
loop_
_atom_site_type_symbol
_atom_site_label
_atom_site_fract_x
_atom_site_fract_y
_atom_site_fract_z
Si Si1 0.677311 0.072638 0.203090
Si Si2 0.568317 0.572113 0.448413
Si Si3 0.182017 0.070920 0.350555
Si Si4 0.678779 0.928750 0.856442
Si Si5 0.067041 0.572151 0.103892
Si Si6 0.932817 0.572467 0.450436
Si Si7 0.823755 0.570681 0.708856
Si Si8 0.432391 0.927884 0.103910
O O1 0.674230 0.250000 0.194155
O O2 0.658906 0.026857 0.279756
O O3 0.751017 0.017781 0.185936
O O4 0.625639 0.001149 0.150192
O O5 0.500000 0.500000 0.423699
O O6 0.564524 0.750000 0.437048
O O7 0.627156 0.504035 0.405870
O O8 0.582127 0.528963 0.526317
O O9 0.191820 0.250000 0.349108
O O10 0.127698 0.019336 0.404728
O O11 0.249533 0.993091 0.373260
O O12 0.157074 0.012623 0.278038
O O13 0.679628 0.750000 0.866945
O O14 0.059394 0.750000 0.108008
O O15 0.126664 0.516683 0.150778
O O16 0.000000 0.500000 0.131626
O O17 0.081357 0.518194 0.027287
O O18 0.941970 0.750000 0.446907
O O19 0.000000 0.500000 0.422792
O O20 0.825746 0.750000 0.721713
O O21 0.438520 0.750000 0.113224
O O22 0.500000 0.000000 0.129257
#
# Coordination Sequence:
#
# PCOD8181355 Si02
#       8
#     8   8   8   8   8   8   8   8
#     4   8  16  32  52  72  94 126 166 203 241 287
#     4  10  20  34  53  76 103 134 167 206 249 295
#     4  10  20  34  52  75 102 131 167 209 251 298
#     4  10  20  35  54  75 102 134 168 207 251 300
#     4   9  18  33  52  73  98 129 165 205 249 297
#     4   9  19  34  52  74 100 132 169 209 251 297
#     4   9  18  33  52  72  97 130 165 202 246 296
#     4   9  18  33  52  73  98 128 162 201 243 288
#
# _framework density 17.977875000000001
#
# number of rings (size 3 to 8) (size 9 to 14) (size 15 to 20)
#    0.000    2.750    0.000    1.875    0.000    4.000 
#    0.000   10.625    0.000    3.000    0.000    0.000 
#    0.000    0.000    0.000    0.000    0.000    0.000 
#
# Total GULP energy -396794.126429 kJ/mol
# GULP energy per Si atom -12399.816451 kJ/mol
# Density = 1.793696 g / cm^3
# Si number density = 17.977875 Si / 1000 Ang^3
#
#
#
# Elastic Constant Matrix: (Units=GPa)
#
#
# Indices 1 2 3 4 5 6 
#
# 1 163.3131 47.2838 105.7573 0.0000 0.0000 0.0000
# 2 47.2838 42.7262 34.9611 0.0000 0.0000 0.0000
# 3 105.7573 34.9611 109.7959 0.0000 0.0000 0.0000
# 4 0.0000 0.0000 0.0000 24.7361 0.0000 0.0000
# 5 0.0000 0.0000 0.0000 0.0000 42.2852 0.0000
# 6 0.0000 0.0000 0.0000 0.0000 0.0000 33.1393
#
#
#
# Elastic Compliance Matrix: (Units=1/GPa)
#
#
# Indices 1 2 3 4 5 6 
#
# 1 0.017991 -0.007749 -0.014861 0.000000 0.000000 0.000000
# 2 -0.007749 0.034990 -0.003677 0.000000 0.000000 0.000000
# 3 -0.014861 -0.003677 0.024593 0.000000 0.000000 0.000000
# 4 0.000000 0.000000 0.000000 0.040427 0.000000 0.000000
# 5 0.000000 0.000000 0.000000 0.000000 0.023649 0.000000
# 6 0.000000 0.000000 0.000000 0.000000 0.000000 0.030176
#
#
# Mechanical properties :
#
#
# Convention : Reuss Voigt Hill
#
# Bulk Modulus (GPa) = 40.00301 76.87106 58.43703
# Shear Modulus (GPa) = 21.48379 28.55433 25.01906
#
# Velocity S-wave (km/s) = 3.46065 3.98968 3.73454
# Velocity P-wave (km/s) = 6.18608 8.00468 7.15341
#
# Compressibility (1/GPa) = 0.02499812
#
# Stress axis : x y z
#
# Youngs Moduli (GPa) = 55.58409 28.57991 40.66120
#
# Poissons Ratio (x) = 0.22148 0.60429
# Poissons Ratio (y) = 0.43074 0.14951
# Poissons Ratio (z) = 0.82606 0.10509
#
# Static dielectric constant tensor:
#      x y z
#    x 3.570100 0.000000 0.000000 
#    y 0.000000 3.197270 0.000000 
#    z 0.000000 0.000000 3.481030 
# 
# 
# High freq. dielectric constant tensor:
#      x y z
#    x 1.704540 0.000000 0.000000 
#    y 0.000000 1.685630 0.000000 
#    z 0.000000 0.000000 1.695290 
# 
# From -- ./inp_files/13174.got.cif
#   From: 2010.03.12/outbox.cif.g09.slc.cpg/sg39_7_cif.got.tgz:13174.got - 2010.04.14 02:53:20.
