data_PCOD8181052
_publ_section_title
;
Structure prediction by ZEFSAII (Michael W. Deem and Ramdas Pophale) SiO2 
 PCOD8181052
Probable space group: A B M 2
;
_chemical_formula_sum "Si O2"
_cell_formula_units_Z 64
_cell_length_a 24.086984
_cell_length_b 8.807695
_cell_length_c 15.547025
_cell_angle_alpha 90.000000
_cell_angle_beta 90.000000
_cell_angle_gamma 90.000000
_cell_volume 3298.313924
_symmetry_space_group_name_H-M "A B M 2"
_symmetry_group_IT_number 39
_symmetry_cell_setting 'orthorhombic'
loop_
_space_group_symop_operation_xyz
x,y,z
-x,-y,z
-x,1/2+y,z
x,1/2-y,z
x,1/2+y,1/2+z
-x,1/2-y,1/2+z
-x,y,1/2+z
x,-y,1/2+z
loop_
_atom_site_type_symbol
_atom_site_label
_atom_site_fract_x
_atom_site_fract_y
_atom_site_fract_z
Si Si1 0.742938 0.931016 0.650480
Si Si2 0.326703 0.069903 0.812454
Si Si3 0.132403 0.929818 0.150480
Si Si4 0.555567 0.428764 0.248739
Si Si5 0.555567 0.571236 0.552221
Si Si6 0.059861 0.568685 0.989903
Si Si7 0.673297 0.069903 0.988506
Si Si8 0.059861 0.568685 0.311057
O O1 0.742568 0.750000 0.650480
O O2 0.711384 0.991765 0.734952
O O3 0.805385 0.996659 0.650480
O O4 0.711384 0.991765 0.566008
O O5 0.323688 0.250000 0.816789
O O6 0.390021 0.013704 0.798911
O O7 0.303424 1.000000 0.900480
O O8 0.134473 0.750000 0.150480
O O9 0.101001 0.986120 0.235908
O O10 0.101001 0.986120 0.065052
O O11 0.500000 0.500000 0.290565
O O12 0.550444 0.250000 0.254176
O O13 0.561681 0.483600 0.150480
O O14 0.500000 0.500000 0.510395
O O15 0.550444 0.750000 0.546784
O O16 0.609979 0.513704 0.502049
O O17 0.055577 0.750000 0.983159
O O18 0.082653 0.500000 0.900480
O O19 0.000000 0.500000 0.011427
O O20 0.676312 0.250000 0.984171
O O21 0.055577 0.750000 0.317801
O O22 0.000000 0.500000 0.289533
#
# Coordination Sequence:
#
# PCOD8181052 Si02
#       8
#     8   8   8   8   8   8   8   8
#     4   9  18  37  57  73 101 141 176 211 256 310
#     4  10  20  35  56  77 101 134 173 212 257 310
#     4   9  19  33  54  79 103 137 180 215 252 304
#     4   9  17  31  51  75 100 131 167 205 253 309
#     4   9  17  31  51  75 100 131 167 205 253 309
#     4  10  19  33  53  80 110 140 173 211 255 305
#     4  10  20  35  56  77 101 134 173 212 257 310
#     4  10  19  33  53  80 110 140 173 211 255 305
#
# _framework density 19.403853999999999
#
# number of rings (size 3 to 8) (size 9 to 14) (size 15 to 20)
#    0.000    2.500    1.250    1.875    0.000    2.500 
#    0.000    5.000    0.000    4.500    0.000    0.000 
#    0.000    0.000    0.000    0.000    0.000    0.000 
#
# Total GULP energy -396777.150631 kJ/mol
# GULP energy per Si atom -12399.285957 kJ/mol
# Density = 1.935969 g / cm^3
# Si number density = 19.403854 Si / 1000 Ang^3
#
#
#
# Elastic Constant Matrix: (Units=GPa)
#
#
# Indices 1 2 3 4 5 6 
#
# 1 154.6090 29.5192 100.2579 0.0000 0.0000 0.0000
# 2 29.5192 36.7152 30.7351 0.0000 0.0000 0.0000
# 3 100.2579 30.7351 171.4660 0.0000 0.0000 0.0000
# 4 0.0000 0.0000 0.0000 27.1217 0.0000 0.0000
# 5 0.0000 0.0000 0.0000 0.0000 14.9106 0.0000
# 6 0.0000 0.0000 0.0000 0.0000 0.0000 19.3380
#
#
#
# Elastic Compliance Matrix: (Units=1/GPa)
#
#
# Indices 1 2 3 4 5 6 
#
# 1 0.010904 -0.004035 -0.005652 0.000000 0.000000 0.000000
# 2 -0.004035 0.033538 -0.003652 0.000000 0.000000 0.000000
# 3 -0.005652 -0.003652 0.009792 0.000000 0.000000 0.000000
# 4 0.000000 0.000000 0.000000 0.036871 0.000000 0.000000
# 5 0.000000 0.000000 0.000000 0.000000 0.067066 0.000000
# 6 0.000000 0.000000 0.000000 0.000000 0.000000 0.051712
#
#
# Mechanical properties :
#
#
# Convention : Reuss Voigt Hill
#
# Bulk Modulus (GPa) = 36.29182 75.97939 56.13561
# Shear Modulus (GPa) = 20.34622 25.75927 23.05275
#
# Velocity S-wave (km/s) = 3.24167 3.64749 3.45055
# Velocity P-wave (km/s) = 5.72322 7.54856 6.69836
#
# Compressibility (1/GPa) = 0.02755442
#
# Stress axis : x y z
#
# Youngs Moduli (GPa) = 91.71365 29.81666 102.12823
#
# Poissons Ratio (x) = 0.12031 0.57724
# Poissons Ratio (y) = 0.37006 0.37302
# Poissons Ratio (z) = 0.51838 0.10890
#
# Static dielectric constant tensor:
#      x y z
#    x 3.748190 0.000000 0.000000 
#    y 0.000000 3.167780 0.000000 
#    z 0.000000 0.000000 3.685500 
# 
# 
# High freq. dielectric constant tensor:
#      x y z
#    x 1.756140 0.000000 0.000000 
#    y 0.000000 1.722550 0.000000 
#    z 0.000000 0.000000 1.762850 
# 
# From -- ./inp_files/10613.got.cif
#   From: 2010.03.12/outbox.cif.g09.slc.cpg/sg39_6_cif.got.tgz:10613.got - 2010.04.14 02:53:20.
