data_PCOD8181116
_publ_section_title
;
Structure prediction by ZEFSAII (Michael W. Deem and Ramdas Pophale) SiO2 
 PCOD8181116
Probable space group: A B M 2
;
_chemical_formula_sum "Si O2"
_cell_formula_units_Z 64
_cell_length_a 14.351291
_cell_length_b 8.599028
_cell_length_c 31.192202
_cell_angle_alpha 90.000000
_cell_angle_beta 90.000000
_cell_angle_gamma 90.000000
_cell_volume 3849.340849
_symmetry_space_group_name_H-M "A B M 2"
_symmetry_group_IT_number 39
_symmetry_cell_setting 'orthorhombic'
loop_
_space_group_symop_operation_xyz
x,y,z
-x,-y,z
-x,1/2+y,z
x,1/2-y,z
x,1/2+y,1/2+z
-x,1/2-y,1/2+z
-x,y,1/2+z
x,-y,1/2+z
loop_
_atom_site_type_symbol
_atom_site_label
_atom_site_fract_x
_atom_site_fract_y
_atom_site_fract_z
Si Si1 0.601840 0.067649 0.155180
Si Si2 0.715146 0.566959 0.490180
Si Si3 0.097636 0.065875 0.963875
Si Si4 0.398570 0.433366 0.912224
Si Si5 0.711424 0.435333 0.330058
Si Si6 0.397724 0.431878 0.748971
Si Si7 0.903755 0.432973 0.365218
Si Si8 0.395608 0.433714 0.068904
O O1 0.598715 0.250000 0.144415
O O2 0.647980 0.034626 0.201900
O O3 0.500000 0.000000 0.160181
O O4 0.649736 0.977643 0.115394
O O5 0.705207 0.750000 0.484464
O O6 0.822625 0.515712 0.491929
O O7 0.667526 0.481402 0.450724
O O8 0.667664 0.515006 0.533930
O O9 0.102356 0.250000 0.969944
O O10 0.110763 0.015544 0.914391
O O11 0.000000 0.000000 0.981310
O O12 0.500000 0.500000 0.920085
O O13 0.405306 0.250000 0.911432
O O14 0.355875 0.497329 0.867805
O O15 0.713660 0.250000 0.331033
O O16 0.672481 0.500208 0.284864
O O17 0.816489 0.498263 0.337712
O O18 0.500000 0.500000 0.755219
O O19 0.409723 0.250000 0.755903
O O20 0.909735 0.250000 0.361969
O O21 0.000000 0.500000 0.346326
O O22 0.500000 0.500000 0.065869
O O23 0.396761 0.250000 0.061915
#
# Coordination Sequence:
#
# PCOD8181116 Si02
#       8
#     8   8   8   8   8   8   8   8
#     4   9  16  28  46  69  94 122 158 199 241 287
#     4  12  23  35  50  71  97 129 166 203 243 292
#     4  10  19  34  53  74  97 127 162 205 248 289
#     4  11  21  34  47  65  96 133 169 201 237 284
#     4   9  17  31  48  67  95 130 162 196 239 285
#     4   9  17  29  47  69  96 128 161 196 237 284
#     4   9  17  31  49  68  92 123 159 201 243 282
#     4  11  21  34  51  71  97 129 163 202 246 294
#
# _framework density 16.626224000000001
#
# number of rings (size 3 to 8) (size 9 to 14) (size 15 to 20)
#    0.000    2.000    1.250    4.875    0.000    1.000 
#    0.000    1.250    0.000    0.000    0.000    0.875 
#    0.000    4.000    0.000    0.000    0.000    0.000 
#
# Total GULP energy -396687.880274 kJ/mol
# GULP energy per Si atom -12396.496259 kJ/mol
# Density = 1.658838 g / cm^3
# Si number density = 16.626224 Si / 1000 Ang^3
#
#
#
# Elastic Constant Matrix: (Units=GPa)
#
#
# Indices 1 2 3 4 5 6 
#
# 1 101.4325 16.3278 43.6236 0.0000 0.0000 0.0000
# 2 16.3278 35.1770 8.9712 0.0000 0.0000 0.0000
# 3 43.6236 8.9712 104.5156 0.0000 0.0000 0.0000
# 4 0.0000 0.0000 0.0000 20.3455 0.0000 0.0000
# 5 0.0000 0.0000 0.0000 0.0000 6.4383 0.0000
# 6 0.0000 0.0000 0.0000 0.0000 0.0000 25.5202
#
#
#
# Elastic Compliance Matrix: (Units=1/GPa)
#
#
# Indices 1 2 3 4 5 6 
#
# 1 0.012719 -0.004652 -0.004909 0.000000 0.000000 0.000000
# 2 -0.004652 0.030765 -0.000699 0.000000 0.000000 0.000000
# 3 -0.004909 -0.000699 0.011677 0.000000 0.000000 0.000000
# 4 0.000000 0.000000 0.000000 0.049151 0.000000 0.000000
# 5 0.000000 0.000000 0.000000 0.000000 0.155320 0.000000
# 6 0.000000 0.000000 0.000000 0.000000 0.000000 0.039185
#
#
# Mechanical properties :
#
#
# Convention : Reuss Voigt Hill
#
# Bulk Modulus (GPa) = 28.86789 42.10783 35.48786
# Shear Modulus (GPa) = 15.11101 21.94098 18.52599
#
# Velocity S-wave (km/s) = 3.01801 3.63665 3.34168
# Velocity P-wave (km/s) = 5.43554 6.55857 6.02328
#
# Compressibility (1/GPa) = 0.03464057
#
# Stress axis : x y z
#
# Youngs Moduli (GPa) = 78.62246 32.50437 85.63742
#
# Poissons Ratio (x) = 0.15120 0.42044
# Poissons Ratio (y) = 0.36572 0.05988
# Poissons Ratio (z) = 0.38600 0.02273
#
# Static dielectric constant tensor:
#      x y z
#    x 3.176630 0.000000 0.000000 
#    y 0.000000 3.124580 0.000000 
#    z 0.000000 0.000000 3.576590 
# 
# 
# High freq. dielectric constant tensor:
#      x y z
#    x 1.620830 0.000000 0.000000 
#    y 0.000000 1.642960 0.000000 
#    z 0.000000 0.000000 1.634390 
# 
# From -- ./inp_files/18007.got.cif
#   From: 2010.03.12/outbox.cif.g09.slc.cpg/sg39_10_cif.got.tgz:18007.got - 2010.04.14 02:53:20.
