data_PCOD8181391
_publ_section_title
;
Structure prediction by ZEFSAII (Michael W. Deem and Ramdas Pophale) SiO2 
 PCOD8181391
Probable space group: A B M 2
;
_chemical_formula_sum "Si O2"
_cell_formula_units_Z 56
_cell_length_a 23.444464
_cell_length_b 9.032732
_cell_length_c 14.243525
_cell_angle_alpha 90.000000
_cell_angle_beta 90.000000
_cell_angle_gamma 90.000000
_cell_volume 3016.316538
_symmetry_space_group_name_H-M "A B M 2"
_symmetry_group_IT_number 39
_symmetry_cell_setting 'orthorhombic'
loop_
_space_group_symop_operation_xyz
x,y,z
-x,-y,z
-x,1/2+y,z
x,1/2-y,z
x,1/2+y,1/2+z
-x,1/2-y,1/2+z
-x,y,1/2+z
x,-y,1/2+z
loop_
_atom_site_type_symbol
_atom_site_label
_atom_site_fract_x
_atom_site_fract_y
_atom_site_fract_z
Si Si1 0.144460 0.575939 0.311690
Si Si2 0.736344 0.078153 0.837173
Si Si3 0.361447 0.079057 0.189742
Si Si4 0.942367 0.075189 0.679818
Si Si5 0.656410 0.921745 0.976240
Si Si6 0.055317 0.420463 0.965272
Si Si7 0.440953 0.078536 0.828957
O O1 0.145328 0.750000 0.290292
O O2 0.207848 0.516640 0.319286
O O3 0.113082 0.491233 0.228301
O O4 0.111874 0.538254 0.408147
O O5 0.751614 0.250000 0.850327
O O6 0.696447 0.051812 0.747110
O O7 0.706486 0.019954 0.931767
O O8 0.379730 0.250000 0.192898
O O9 0.352274 0.025738 0.083111
O O10 0.412578 0.985748 0.234765
O O11 0.945979 0.250000 0.696543
O O12 0.934274 0.030582 0.571707
O O13 0.000000 0.000000 0.719720
O O14 0.674745 0.750000 0.971420
O O15 0.598325 0.949951 0.919534
O O16 0.040710 0.250000 0.957808
O O17 0.000000 0.500000 0.921760
O O18 0.452217 0.250000 0.811328
O O19 0.500000 0.000000 0.850989
#
# Coordination Sequence:
#
# PCOD8181391 Si02
#       7
#     8   8   8   8   8   8   8
#     4  11  22  36  54  77 105 139 176 216 262 312
#     4  10  21  36  54  78 106 137 175 221 265 311
#     4   9  19  37  58  78 105 141 179 217 263 312
#     4  10  20  36  55  77 104 134 170 212 261 316
#     4   9  19  37  58  78 104 141 178 216 262 311
#     4   9  20  36  54  75 102 135 169 209 259 313
#     4  10  20  34  54  81 112 141 174 215 258 305
#
# _framework density 18.565691000000001
#
# number of rings (size 3 to 8) (size 9 to 14) (size 15 to 20)
#    0.000    2.286    0.000    2.143    0.000    6.286 
#    0.000    7.143    0.000    0.000    0.000    0.000 
#    0.000    0.000    0.000    0.000    0.000    0.000 
#
# Total GULP energy -347300.388601 kJ/mol
# GULP energy per Si atom -12403.585307 kJ/mol
# Density = 1.852343 g / cm^3
# Si number density = 18.565691 Si / 1000 Ang^3
#
#
#
# Elastic Constant Matrix: (Units=GPa)
#
#
# Indices 1 2 3 4 5 6 
#
# 1 108.0307 52.5639 40.9978 0.0000 0.0000 0.0000
# 2 52.5639 88.2281 44.3242 0.0000 0.0000 0.0000
# 3 40.9978 44.3242 116.3672 0.0000 0.0000 0.0000
# 4 0.0000 0.0000 0.0000 28.1500 0.0000 0.0000
# 5 0.0000 0.0000 0.0000 0.0000 16.4103 0.0000
# 6 0.0000 0.0000 0.0000 0.0000 0.0000 40.3692
#
#
#
# Elastic Compliance Matrix: (Units=1/GPa)
#
#
# Indices 1 2 3 4 5 6 
#
# 1 0.013431 -0.006956 -0.002083 0.000000 0.000000 0.000000
# 2 -0.006956 0.017619 -0.004260 0.000000 0.000000 0.000000
# 3 -0.002083 -0.004260 0.010950 0.000000 0.000000 0.000000
# 4 0.000000 0.000000 0.000000 0.035524 0.000000 0.000000
# 5 0.000000 0.000000 0.000000 0.000000 0.060937 0.000000
# 6 0.000000 0.000000 0.000000 0.000000 0.000000 0.024771
#
#
# Mechanical properties :
#
#
# Convention : Reuss Voigt Hill
#
# Bulk Modulus (GPa) = 64.92420 65.37755 65.15087
# Shear Modulus (GPa) = 25.64569 28.63522 27.14046
#
# Velocity S-wave (km/s) = 3.72068 3.93157 3.82758
# Velocity P-wave (km/s) = 7.31463 7.47665 7.39608
#
# Compressibility (1/GPa) = 0.01540258
#
# Stress axis : x y z
#
# Youngs Moduli (GPa) = 74.45217 56.75805 91.32446
#
# Poissons Ratio (x) = 0.39480 0.19019
# Poissons Ratio (y) = 0.51788 0.38907
# Poissons Ratio (z) = 0.15506 0.24181
#
# Static dielectric constant tensor:
#      x y z
#    x 3.364140 0.000000 0.000000 
#    y 0.000000 3.484210 0.000000 
#    z 0.000000 0.000000 3.600210 
# 
# 
# High freq. dielectric constant tensor:
#      x y z
#    x 1.719370 0.000000 0.000000 
#    y 0.000000 1.728460 0.000000 
#    z 0.000000 0.000000 1.725300 
# 
# From -- ./inp_files/10337.got.cif
#   From: 2010.03.12/outbox.cif.g09.slc.cpg/sg39_6_cif.got.tgz:10337.got - 2010.04.14 02:53:20.
