data_PCOD8181953
_publ_section_title
;
Structure prediction by ZEFSAII (Michael W. Deem and Ramdas Pophale) SiO2 
 PCOD8181953
Probable space group: A B M 2
;
_chemical_formula_sum "Si O2"
_cell_formula_units_Z 40
_cell_length_a 11.135871
_cell_length_b 22.854248
_cell_length_c 7.571970
_cell_angle_alpha 90.000000
_cell_angle_beta 90.000000
_cell_angle_gamma 90.000000
_cell_volume 1927.081187
_symmetry_space_group_name_H-M "A B M 2"
_symmetry_group_IT_number 39
_symmetry_cell_setting 'orthorhombic'
loop_
_space_group_symop_operation_xyz
x,y,z
-x,-y,z
-x,1/2+y,z
x,1/2-y,z
x,1/2+y,1/2+z
-x,1/2-y,1/2+z
-x,y,1/2+z
x,-y,1/2+z
loop_
_atom_site_type_symbol
_atom_site_label
_atom_site_fract_x
_atom_site_fract_y
_atom_site_fract_z
Si Si1 0.841327 0.361839 0.868710
Si Si2 0.921124 0.683796 0.737861
Si Si3 0.663535 0.957447 0.358986
Si Si4 0.721812 0.184758 0.528867
Si Si5 0.412166 0.575016 0.476665
O O1 0.791432 0.427796 0.909917
O O2 0.749307 0.329612 0.734711
O O3 0.970392 0.361949 0.771050
O O4 0.849428 0.329824 0.057866
O O5 0.972893 0.750000 0.722459
O O6 0.840468 0.679025 0.911399
O O7 0.555358 0.933248 0.481482
O O8 0.661552 0.028326 0.356025
O O9 0.636053 0.937488 0.166607
O O10 0.668334 0.250000 0.518545
O O11 0.623574 0.141958 0.437040
#
# Coordination Sequence:
#
# PCOD8181953 Si02
#       5
#     8   8   8   8   8
#     4  11  22  37  63  91 119 161 209 250 296 367
#     4  11  21  36  61  85 121 167 203 246 304 364
#     4  10  22  38  66  89 119 161 208 255 305 378
#     4  10  22  39  60  89 122 160 205 251 304 369
#     4  10  21  40  63  89 119 162 202 255 313 365
#
# _framework density 20.756778000000001
#
# number of rings (size 3 to 8) (size 9 to 14) (size 15 to 20)
#    0.000    1.600    2.000    4.200    5.600    0.000 
#    0.000    7.000    0.000    0.000    0.000    0.000 
#    0.000    0.000    0.000    0.000    0.000    0.000 
#
# Total GULP energy -247804.509023 kJ/mol
# GULP energy per Si atom -12390.225451 kJ/mol
# Density = 2.070953 g / cm^3
# Si number density = 20.756778 Si / 1000 Ang^3
#
#
#
# Elastic Constant Matrix: (Units=GPa)
#
#
# Indices 1 2 3 4 5 6 
#
# 1 77.4350 67.5584 16.9538 0.0000 0.0000 0.0000
# 2 67.5584 164.7449 26.8908 0.0000 0.0000 0.0000
# 3 16.9538 26.8908 67.3762 0.0000 0.0000 0.0000
# 4 0.0000 0.0000 0.0000 20.0461 0.0000 0.0000
# 5 0.0000 0.0000 0.0000 0.0000 18.2031 0.0000
# 6 0.0000 0.0000 0.0000 0.0000 0.0000 41.7308
#
#
#
# Elastic Compliance Matrix: (Units=1/GPa)
#
#
# Indices 1 2 3 4 5 6 
#
# 1 0.020336 -0.008027 -0.001913 0.000000 0.000000 0.000000
# 2 -0.008027 0.009661 -0.001836 0.000000 0.000000 0.000000
# 3 -0.001913 -0.001836 0.016056 0.000000 0.000000 0.000000
# 4 0.000000 0.000000 0.000000 0.049885 0.000000 0.000000
# 5 0.000000 0.000000 0.000000 0.000000 0.054936 0.000000
# 6 0.000000 0.000000 0.000000 0.000000 0.000000 0.023963
#
#
# Mechanical properties :
#
#
# Convention : Reuss Voigt Hill
#
# Bulk Modulus (GPa) = 44.44328 59.15135 51.79732
# Shear Modulus (GPa) = 24.28459 29.20619 26.74539
#
# Velocity S-wave (km/s) = 3.42418 3.75516 3.59348
# Velocity P-wave (km/s) = 6.09026 6.88192 6.49816
#
# Compressibility (1/GPa) = 0.02250059
#
# Stress axis : x y z
#
# Youngs Moduli (GPa) = 49.17307 103.50383 62.28058
#
# Poissons Ratio (x) = 0.83084 0.11917
# Poissons Ratio (y) = 0.39472 0.11436
# Poissons Ratio (z) = 0.09409 0.19005
#
# Static dielectric constant tensor:
#      x y z
#    x 3.369180 0.000000 0.000000 
#    y 0.000000 3.832430 0.000000 
#    z 0.000000 0.000000 3.984760 
# 
# 
# High freq. dielectric constant tensor:
#      x y z
#    x 1.785570 0.000000 0.000000 
#    y 0.000000 1.805520 0.000000 
#    z 0.000000 0.000000 1.830410 
# 
# From -- ./inp_files/2523.got.cif
#   From: 2010.03.12/outbox.cif.g09.slc.cpg/sg39_2_cif.got.tgz:2523.got - 2010.04.14 02:53:20.
