data_PCOD8181310
_publ_section_title
;
Structure prediction by ZEFSAII (Michael W. Deem and Ramdas Pophale) SiO2 
 PCOD8181310
Probable space group: A B M 2
;
_chemical_formula_sum "Si O2"
_cell_formula_units_Z 64
_cell_length_a 14.266108
_cell_length_b 8.709477
_cell_length_c 30.998125
_cell_angle_alpha 90.000000
_cell_angle_beta 90.000000
_cell_angle_gamma 90.000000
_cell_volume 3851.527555
_symmetry_space_group_name_H-M "A B M 2"
_symmetry_group_IT_number 39
_symmetry_cell_setting 'orthorhombic'
loop_
_space_group_symop_operation_xyz
x,y,z
-x,-y,z
-x,1/2+y,z
x,1/2-y,z
x,1/2+y,1/2+z
-x,1/2-y,1/2+z
-x,y,1/2+z
x,-y,1/2+z
loop_
_atom_site_type_symbol
_atom_site_label
_atom_site_fract_x
_atom_site_fract_y
_atom_site_fract_z
Si Si1 0.098368 0.568514 0.500000
Si Si2 0.600643 0.427394 0.196505
Si Si3 0.902286 0.569408 0.900873
Si Si4 0.281738 0.431550 0.367355
Si Si5 0.283294 0.068029 0.532661
Si Si6 0.397206 0.571609 0.291893
Si Si7 0.397779 0.931283 0.949321
Si Si8 0.395979 0.568617 0.611070
O O1 0.098234 0.750000 0.506243
O O2 0.116360 0.520774 0.450373
O O3 0.177714 0.492659 0.529451
O O4 0.000000 0.500000 0.515994
O O5 0.500000 0.500000 0.202005
O O6 0.592430 0.250000 0.183346
O O7 0.647341 0.447436 0.243690
O O8 0.650607 0.517052 0.156991
O O9 0.906416 0.750000 0.895516
O O10 0.821209 0.502346 0.870896
O O11 0.000000 0.500000 0.884487
O O12 0.273165 0.250000 0.368527
O O13 0.325839 0.484937 0.322704
O O14 0.345738 0.492658 0.406670
O O15 0.283426 0.250000 0.537016
O O16 0.340477 0.011851 0.490833
O O17 0.329571 0.994094 0.574199
O O18 0.500000 0.500000 0.296548
O O19 0.404948 0.750000 0.304503
O O20 0.406255 0.750000 0.948541
O O21 0.500000 0.000000 0.951343
O O22 0.500000 0.500000 0.606131
O O23 0.402114 0.750000 0.607987
#
# Coordination Sequence:
#
# PCOD8181310 Si02
#       8
#     8   8   8   8   8   8   8   8
#     4  10  20  34  53  75  98 129 166 210 256 299
#     4   9  17  31  50  71  97 129 166 208 253 297
#     4  10  20  34  53  74  98 129 166 211 256 299
#     4  11  21  34  50  72 100 134 172 208 250 298
#     4  11  21  35  51  71 100 134 171 209 250 297
#     4  10  20  33  50  74 102 134 171 209 252 300
#     4  10  22  34  46  65  95 134 171 204 239 287
#     4  11  21  33  50  74 102 133 171 209 252 301
#
# _framework density 16.616783999999999
#
# number of rings (size 3 to 8) (size 9 to 14) (size 15 to 20)
#    0.000    1.750    1.250    4.875    0.000    6.500 
#    0.000    0.000    0.000    0.000    0.000    0.875 
#    0.000    6.000    0.000    0.000    0.000    0.000 
#
# Total GULP energy -396815.169985 kJ/mol
# GULP energy per Si atom -12400.474062 kJ/mol
# Density = 1.657896 g / cm^3
# Si number density = 16.616784 Si / 1000 Ang^3
#
#
#
# Elastic Constant Matrix: (Units=GPa)
#
#
# Indices 1 2 3 4 5 6 
#
# 1 116.5211 45.1054 58.7932 0.0000 0.0000 0.0000
# 2 45.1054 86.0266 40.3002 0.0000 0.0000 0.0000
# 3 58.7932 40.3002 112.5981 0.0000 0.0000 0.0000
# 4 0.0000 0.0000 0.0000 26.8175 0.0000 0.0000
# 5 0.0000 0.0000 0.0000 0.0000 24.5516 0.0000
# 6 0.0000 0.0000 0.0000 0.0000 0.0000 31.2369
#
#
#
# Elastic Compliance Matrix: (Units=1/GPa)
#
#
# Indices 1 2 3 4 5 6 
#
# 1 0.012864 -0.004323 -0.005170 0.000000 0.000000 0.000000
# 2 -0.004323 0.015419 -0.003261 0.000000 0.000000 0.000000
# 3 -0.005170 -0.003261 0.012748 0.000000 0.000000 0.000000
# 4 0.000000 0.000000 0.000000 0.037289 0.000000 0.000000
# 5 0.000000 0.000000 0.000000 0.000000 0.040731 0.000000
# 6 0.000000 0.000000 0.000000 0.000000 0.000000 0.032013
#
#
# Mechanical properties :
#
#
# Convention : Reuss Voigt Hill
#
# Bulk Modulus (GPa) = 64.42258 67.06038 65.74148
# Shear Modulus (GPa) = 27.51091 27.91765 27.71428
#
# Velocity S-wave (km/s) = 4.07333 4.10333 4.08836
# Velocity P-wave (km/s) = 7.80874 7.93060 7.86991
#
# Compressibility (1/GPa) = 0.01552251
#
# Stress axis : x y z
#
# Youngs Moduli (GPa) = 77.73583 64.85601 78.44512
#
# Poissons Ratio (x) = 0.28038 0.40554
# Poissons Ratio (y) = 0.33606 0.25583
# Poissons Ratio (z) = 0.40187 0.21151
#
# Static dielectric constant tensor:
#      x y z
#    x 2.948130 0.000000 0.000000 
#    y 0.000000 3.312840 0.000000 
#    z 0.000000 0.000000 3.460870 
# 
# 
# High freq. dielectric constant tensor:
#      x y z
#    x 1.618790 0.000000 0.000000 
#    y 0.000000 1.659000 0.000000 
#    z 0.000000 0.000000 1.634000 
# 
# From -- ./inp_files/17857.got.cif
#   From: 2010.03.12/outbox.cif.g09.slc.cpg/sg39_9_cif.got.tgz:17857.got - 2010.04.14 02:53:20.
