data_PCOD8181870
_publ_section_title
;
Structure prediction by ZEFSAII (Michael W. Deem and Ramdas Pophale) SiO2 
 PCOD8181870
Probable space group: A B M 2
;
_chemical_formula_sum "Si O2"
_cell_formula_units_Z 64
_cell_length_a 13.375656
_cell_length_b 16.198098
_cell_length_c 13.622674
_cell_angle_alpha 90.000000
_cell_angle_beta 90.000000
_cell_angle_gamma 90.000000
_cell_volume 2951.491092
_symmetry_space_group_name_H-M "A B M 2"
_symmetry_group_IT_number 39
_symmetry_cell_setting 'orthorhombic'
loop_
_space_group_symop_operation_xyz
x,y,z
-x,-y,z
-x,1/2+y,z
x,1/2-y,z
x,1/2+y,1/2+z
-x,1/2-y,1/2+z
-x,y,1/2+z
x,-y,1/2+z
loop_
_atom_site_type_symbol
_atom_site_label
_atom_site_fract_x
_atom_site_fract_y
_atom_site_fract_z
Si Si1 0.107453 0.024590 0.364660
Si Si2 0.536286 0.408346 0.981705
Si Si3 0.053574 0.845874 0.721052
Si Si4 0.630910 0.842448 0.661084
Si Si5 0.169477 0.401675 0.725020
Si Si6 0.558362 0.845891 0.273593
Si Si7 0.159464 0.959555 0.569338
Si Si8 0.659241 0.844033 0.072705
O O1 0.115062 0.117085 0.316777
O O2 0.185102 0.957371 0.322231
O O3 0.109608 0.011703 0.480566
O O4 0.000000 0.000000 0.319980
O O5 0.500000 0.500000 0.992509
O O6 0.583431 0.393135 0.874306
O O7 0.626163 0.393901 0.059491
O O8 0.441250 0.350692 0.007704
O O9 0.084994 0.750000 0.712893
O O10 0.083793 0.895347 0.622005
O O11 0.933406 0.850609 0.728632
O O12 0.598382 0.750000 0.633504
O O13 0.738689 0.839266 0.712942
O O14 0.549941 0.878341 0.737558
O O15 0.184924 0.465983 0.638698
O O16 0.555954 0.750000 0.299251
O O17 0.638603 0.864744 0.187860
O O18 0.256848 0.907977 0.535505
O O19 0.698311 0.750000 0.062116
#
# Coordination Sequence:
#
# PCOD8181870 Si02
#       8
#     8   8   8   8   8   8   8   8
#     4   9  20  39  62  90 124 163 204 260 319 377
#     4  11  22  37  60  88 122 163 211 259 324 390
#     4  10  21  41  66  93 129 168 210 261 324 391
#     4  10  21  39  59  86 120 158 208 262 315 376
#     4  10  21  38  61  91 128 161 207 262 317 385
#     4   9  20  39  61  83 119 161 202 260 319 369
#     4  11  21  39  64  91 127 168 211 257 321 384
#     4  10  22  40  61  90 124 162 215 267 317 387
#
# _framework density 21.683955000000001
#
# number of rings (size 3 to 8) (size 9 to 14) (size 15 to 20)
#    0.000    2.000    0.000    5.250    1.750    3.000 
#    6.750    9.375    0.000    0.000    0.000    0.000 
#    0.000    0.000    0.000    0.000    0.000    0.000 
#
# Total GULP energy -396519.736531 kJ/mol
# GULP energy per Si atom -12391.241767 kJ/mol
# Density = 2.163460 g / cm^3
# Si number density = 21.683955 Si / 1000 Ang^3
#
#
#
# Elastic Constant Matrix: (Units=GPa)
#
#
# Indices 1 2 3 4 5 6 
#
# 1 63.5228 8.0247 6.5913 0.0000 0.0000 0.0000
# 2 8.0247 86.1863 26.0727 0.0000 0.0000 0.0000
# 3 6.5913 26.0727 97.2546 0.0000 0.0000 0.0000
# 4 0.0000 0.0000 0.0000 25.5200 0.0000 0.0000
# 5 0.0000 0.0000 0.0000 0.0000 21.8232 0.0000
# 6 0.0000 0.0000 0.0000 0.0000 0.0000 29.8228
#
#
#
# Elastic Compliance Matrix: (Units=1/GPa)
#
#
# Indices 1 2 3 4 5 6 
#
# 1 0.015979 -0.001263 -0.000744 0.000000 0.000000 0.000000
# 2 -0.001263 0.012727 -0.003326 0.000000 0.000000 0.000000
# 3 -0.000744 -0.003326 0.011224 0.000000 0.000000 0.000000
# 4 0.000000 0.000000 0.000000 0.039185 0.000000 0.000000
# 5 0.000000 0.000000 0.000000 0.000000 0.045823 0.000000
# 6 0.000000 0.000000 0.000000 0.000000 0.000000 0.033531
#
#
# Mechanical properties :
#
#
# Convention : Reuss Voigt Hill
#
# Bulk Modulus (GPa) = 34.17223 36.48236 35.32729
# Shear Modulus (GPa) = 27.95007 29.18486 28.56747
#
# Velocity S-wave (km/s) = 3.59412 3.67266 3.63360
# Velocity P-wave (km/s) = 5.74605 5.90302 5.82506
#
# Compressibility (1/GPa) = 0.02926352
#
# Stress axis : x y z
#
# Youngs Moduli (GPa) = 62.58159 78.57576 89.09104
#
# Poissons Ratio (x) = 0.09921 0.06633
# Poissons Ratio (y) = 0.07901 0.29634
# Poissons Ratio (z) = 0.04659 0.26136
#
# Static dielectric constant tensor:
#      x y z
#    x 3.775530 0.000000 0.000000 
#    y 0.000000 3.843970 0.000000 
#    z 0.000000 0.000000 3.990900 
# 
# 
# High freq. dielectric constant tensor:
#      x y z
#    x 1.841800 0.000000 0.000000 
#    y 0.000000 1.851630 0.000000 
#    z 0.000000 0.000000 1.846020 
# 
# From -- ./inp_files/6609.got.cif
#   From: 2010.03.12/outbox.cif.g09.slc.cpg/sg39_4_cif.got.tgz:6609.got - 2010.04.14 02:53:20.
