data_PCOD8181829
_publ_section_title
;
Structure prediction by ZEFSAII (Michael W. Deem and Ramdas Pophale) SiO2 
 PCOD8181829
Probable space group: A B M 2
;
_chemical_formula_sum "Si O2"
_cell_formula_units_Z 56
_cell_length_a 10.046887
_cell_length_b 20.442026
_cell_length_c 13.391317
_cell_angle_alpha 90.000000
_cell_angle_beta 90.000000
_cell_angle_gamma 90.000000
_cell_volume 2750.291615
_symmetry_space_group_name_H-M "A B M 2"
_symmetry_group_IT_number 39
_symmetry_cell_setting 'orthorhombic'
loop_
_space_group_symop_operation_xyz
x,y,z
-x,-y,z
-x,1/2+y,z
x,1/2-y,z
x,1/2+y,1/2+z
-x,1/2-y,1/2+z
-x,y,1/2+z
x,-y,1/2+z
loop_
_atom_site_type_symbol
_atom_site_label
_atom_site_fract_x
_atom_site_fract_y
_atom_site_fract_z
Si Si1 0.131187 0.824357 0.422930
Si Si2 0.605443 0.379207 0.493743
Si Si3 0.338156 0.638072 0.881774
Si Si4 0.875266 0.824557 0.534158
Si Si5 0.760059 0.618717 0.730346
Si Si6 0.649566 0.492238 0.348493
Si Si7 0.476358 0.824324 0.693184
O O1 0.092144 0.750000 0.406343
O O2 0.270707 0.830607 0.480125
O O3 0.136453 0.855991 0.313326
O O4 0.013388 0.854277 0.491841
O O5 0.480372 0.353690 0.432807
O O6 0.648867 0.450664 0.452427
O O7 0.561448 0.377609 0.608883
O O8 0.289062 0.562824 0.872630
O O9 0.358095 0.670618 0.773801
O O10 0.230018 0.677355 0.944197
O O11 0.889781 0.750000 0.574999
O O12 0.825175 0.872936 0.621770
O O13 0.732045 0.542976 0.759588
O O14 0.620649 0.657795 0.738566
O O15 0.500000 0.500000 0.307660
O O16 0.482112 0.750000 0.651460
#
# Coordination Sequence:
#
# PCOD8181829 Si02
#       7
#     8   8   8   8   8   8   8
#     4  10  21  39  60  84 127 167 201 249 309 376
#     4  10  21  37  59  88 116 157 205 248 301 362
#     4  11  22  39  60  93 123 158 204 260 303 362
#     4  11  24  39  61  94 126 161 205 257 314 372
#     4  11  21  38  63  90 120 162 209 251 312 372
#     4   9  19  40  60  91 120 160 203 253 303 358
#     4  12  22  33  59  93 124 153 197 253 309 366
#
# _framework density 20.361477000000001
#
# number of rings (size 3 to 8) (size 9 to 14) (size 15 to 20)
#    0.000    1.429    5.714    2.143    0.000    3.429 
#    2.571    4.286    0.000    3.429    0.000    0.000 
#    0.000    0.000    0.000    0.000    0.000    0.000 
#
# Total GULP energy -347125.521330 kJ/mol
# GULP energy per Si atom -12397.340048 kJ/mol
# Density = 2.031513 g / cm^3
# Si number density = 20.361477 Si / 1000 Ang^3
#
#
#
# Elastic Constant Matrix: (Units=GPa)
#
#
# Indices 1 2 3 4 5 6 
#
# 1 102.3307 30.0660 50.5364 0.0000 0.0000 0.0000
# 2 30.0660 76.8588 30.4704 0.0000 0.0000 0.0000
# 3 50.5364 30.4704 125.8102 0.0000 0.0000 0.0000
# 4 0.0000 0.0000 0.0000 19.5916 0.0000 0.0000
# 5 0.0000 0.0000 0.0000 0.0000 45.0372 0.0000
# 6 0.0000 0.0000 0.0000 0.0000 0.0000 20.8602
#
#
#
# Elastic Compliance Matrix: (Units=1/GPa)
#
#
# Indices 1 2 3 4 5 6 
#
# 1 0.012910 -0.003312 -0.004384 0.000000 0.000000 0.000000
# 2 -0.003312 0.015243 -0.002361 0.000000 0.000000 0.000000
# 3 -0.004384 -0.002361 0.010281 0.000000 0.000000 0.000000
# 4 0.000000 0.000000 0.000000 0.051042 0.000000 0.000000
# 5 0.000000 0.000000 0.000000 0.000000 0.022204 0.000000
# 6 0.000000 0.000000 0.000000 0.000000 0.000000 0.047938
#
#
# Mechanical properties :
#
#
# Convention : Reuss Voigt Hill
#
# Bulk Modulus (GPa) = 54.58579 58.57171 56.57875
# Shear Modulus (GPa) = 26.90490 30.02625 28.46557
#
# Velocity S-wave (km/s) = 3.63900 3.84430 3.74306
# Velocity P-wave (km/s) = 6.67255 6.96658 6.82115
#
# Compressibility (1/GPa) = 0.01831979
#
# Stress axis : x y z
#
# Youngs Moduli (GPa) = 77.45700 65.60511 97.26487
#
# Poissons Ratio (x) = 0.21731 0.42638
# Poissons Ratio (y) = 0.25657 0.22965
# Poissons Ratio (z) = 0.33955 0.15490
#
# Static dielectric constant tensor:
#      x y z
#    x 3.713290 0.000000 0.000000 
#    y 0.000000 3.737350 0.000000 
#    z 0.000000 0.000000 3.796410 
# 
# 
# High freq. dielectric constant tensor:
#      x y z
#    x 1.780590 0.000000 0.000000 
#    y 0.000000 1.784540 0.000000 
#    z 0.000000 0.000000 1.796210 
# 
# From -- ./inp_files/8642.got.cif
#   From: 2010.03.12/outbox.cif.g09.slc.cpg/sg39_5_cif.got.tgz:8642.got - 2010.04.14 02:53:20.
