data_PCOD8181521
_publ_section_title
;
Structure prediction by ZEFSAII (Michael W. Deem and Ramdas Pophale) SiO2 
 PCOD8181521
Probable space group: A B M 2
;
_chemical_formula_sum "Si O2"
_cell_formula_units_Z 56
_cell_length_a 23.530039
_cell_length_b 8.789976
_cell_length_c 14.306164
_cell_angle_alpha 90.000000
_cell_angle_beta 90.000000
_cell_angle_gamma 90.000000
_cell_volume 2958.922127
_symmetry_space_group_name_H-M "A B M 2"
_symmetry_group_IT_number 39
_symmetry_cell_setting 'orthorhombic'
loop_
_space_group_symop_operation_xyz
x,y,z
-x,-y,z
-x,1/2+y,z
x,1/2-y,z
x,1/2+y,1/2+z
-x,1/2-y,1/2+z
-x,y,1/2+z
x,-y,1/2+z
loop_
_atom_site_type_symbol
_atom_site_label
_atom_site_fract_x
_atom_site_fract_y
_atom_site_fract_z
Si Si1 0.943309 0.927937 0.085720
Si Si2 0.643377 0.071992 0.380933
Si Si3 0.437918 0.068786 0.232554
Si Si4 0.942287 0.071029 0.375305
Si Si5 0.142940 0.572998 0.739853
Si Si6 0.643226 0.071595 0.084087
Si Si7 0.738389 0.577374 0.732556
O O1 0.952488 0.750000 0.086862
O O2 0.888086 0.976475 0.144230
O O3 0.934575 0.988603 0.980937
O O4 0.000000 0.000000 0.130704
O O5 0.628203 0.250000 0.387043
O O6 0.702111 0.046612 0.325833
O O7 0.593347 0.987054 0.326144
O O8 0.650261 0.001663 0.482921
O O9 0.439848 0.250000 0.231145
O O10 0.500000 0.000000 0.234437
O O11 0.407843 0.009212 0.138739
O O12 0.947707 0.250000 0.368541
O O13 0.885723 0.018142 0.323661
O O14 0.000000 0.000000 0.331905
O O15 0.135333 0.750000 0.760047
O O16 0.209021 0.536021 0.731944
O O17 0.629361 0.250000 0.076093
O O18 0.701306 0.043855 0.140577
O O19 0.760788 0.750000 0.731529
#
# Coordination Sequence:
#
# PCOD8181521 Si02
#       7
#     8   8   8   8   8   8   8
#     4   9  20  36  53  75 103 136 172 215 266 324
#     4  10  21  39  61  85 114 151 192 234 283 335
#     4  11  22  38  60  88 121 154 190 234 280 329
#     4  10  20  36  55  76 105 138 174 218 272 329
#     4  11  22  35  54  80 107 139 181 223 270 326
#     4  10  21  39  61  86 115 150 191 233 282 337
#     4   9  21  39  56  78 111 146 183 229 277 326
#
# _framework density 18.925809999999998
#
# number of rings (size 3 to 8) (size 9 to 14) (size 15 to 20)
#    0.000    2.000    0.000    4.286    0.000    8.000 
#    0.000    7.143    0.000    0.000    0.000    0.000 
#    0.000    0.000    0.000    0.000    0.000    0.000 
#
# Total GULP energy -347278.640738 kJ/mol
# GULP energy per Si atom -12402.808598 kJ/mol
# Density = 1.888273 g / cm^3
# Si number density = 18.925810 Si / 1000 Ang^3
#
#
#
# Elastic Constant Matrix: (Units=GPa)
#
#
# Indices 1 2 3 4 5 6 
#
# 1 125.5367 52.8392 53.3443 0.0000 0.0000 0.0000
# 2 52.8392 104.9871 53.0167 0.0000 0.0000 0.0000
# 3 53.3443 53.0167 133.6903 0.0000 0.0000 0.0000
# 4 0.0000 0.0000 0.0000 33.5477 0.0000 0.0000
# 5 0.0000 0.0000 0.0000 0.0000 14.4293 0.0000
# 6 0.0000 0.0000 0.0000 0.0000 0.0000 38.0542
#
#
#
# Elastic Compliance Matrix: (Units=1/GPa)
#
#
# Indices 1 2 3 4 5 6 
#
# 1 0.010835 -0.004089 -0.002702 0.000000 0.000000 0.000000
# 2 -0.004089 0.013453 -0.003704 0.000000 0.000000 0.000000
# 3 -0.002702 -0.003704 0.010027 0.000000 0.000000 0.000000
# 4 0.000000 0.000000 0.000000 0.029808 0.000000 0.000000
# 5 0.000000 0.000000 0.000000 0.000000 0.069303 0.000000
# 6 0.000000 0.000000 0.000000 0.000000 0.000000 0.026278
#
#
# Mechanical properties :
#
#
# Convention : Reuss Voigt Hill
#
# Bulk Modulus (GPa) = 75.03866 75.84607 75.44237
# Shear Modulus (GPa) = 27.00733 30.87384 28.94059
#
# Velocity S-wave (km/s) = 3.78168 4.04333 3.91469
# Velocity P-wave (km/s) = 7.66831 7.87150 7.77057
#
# Compressibility (1/GPa) = 0.01332646
#
# Stress axis : x y z
#
# Youngs Moduli (GPa) = 92.29480 74.33282 99.73352
#
# Poissons Ratio (x) = 0.30393 0.26946
# Poissons Ratio (y) = 0.37737 0.36936
# Poissons Ratio (z) = 0.24936 0.27529
#
# Static dielectric constant tensor:
#      x y z
#    x 3.424450 0.000000 0.000000 
#    y 0.000000 3.527960 0.000000 
#    z 0.000000 0.000000 3.668110 
# 
# 
# High freq. dielectric constant tensor:
#      x y z
#    x 1.734090 0.000000 0.000000 
#    y 0.000000 1.746810 0.000000 
#    z 0.000000 0.000000 1.743180 
# 
# From -- ./inp_files/10351.got.cif
#   From: 2010.03.12/outbox.cif.g09.slc.cpg/sg39_6_cif.got.tgz:10351.got - 2010.04.14 02:53:20.
