data_PCOD8181091
_publ_section_title
;
Structure prediction by ZEFSAII (Michael W. Deem and Ramdas Pophale) SiO2 
 PCOD8181091
Probable space group: A B M 2
;
_chemical_formula_sum "Si O2"
_cell_formula_units_Z 48
_cell_length_a 10.489031
_cell_length_b 25.397408
_cell_length_c 8.541081
_cell_angle_alpha 90.000000
_cell_angle_beta 90.000000
_cell_angle_gamma 90.000000
_cell_volume 2275.294439
_symmetry_space_group_name_H-M "A B M 2"
_symmetry_group_IT_number 39
_symmetry_cell_setting 'orthorhombic'
loop_
_space_group_symop_operation_xyz
x,y,z
-x,-y,z
-x,1/2+y,z
x,1/2-y,z
x,1/2+y,1/2+z
-x,1/2-y,1/2+z
-x,y,1/2+z
x,-y,1/2+z
loop_
_atom_site_type_symbol
_atom_site_label
_atom_site_fract_x
_atom_site_fract_y
_atom_site_fract_z
Si Si1 0.553483 0.139736 0.398440
Si Si2 0.172120 0.607588 0.853333
Si Si3 0.333521 0.689103 0.691753
Si Si4 0.229154 0.984627 0.645184
Si Si5 0.923031 0.451129 0.370194
Si Si6 0.642961 0.083935 0.104127
O O1 0.638628 0.177117 0.509140
O O2 0.453458 0.174741 0.301298
O O3 0.642933 0.107301 0.279914
O O4 0.485369 0.097869 0.511886
O O5 0.206938 0.658004 0.748122
O O6 0.246996 0.555415 0.788741
O O7 0.018412 0.599108 0.853865
O O8 0.233294 0.612195 0.025396
O O9 0.301911 0.750000 0.710892
O O10 0.186347 0.945965 0.502807
O O11 0.131529 0.032028 0.700242
O O12 0.352976 0.019625 0.605051
O O13 0.000000 0.500000 0.441106
#
# Coordination Sequence:
#
# PCOD8181091 Si02
#       6
#     8   8   8   8   8   8
#     4   9  21  38  59  86 115 161 203 249 297 362
#     4  10  22  34  57  91 115 152 197 245 295 355
#     4  10  20  39  62  86 116 156 205 257 308 354
#     4  11  20  35  58  86 120 159 192 238 287 366
#     4  10  19  33  55  86 115 149 194 232 290 347
#     4  10  20  38  54  84 121 155 196 238 299 356
#
# _framework density 21.096170999999998
#
# number of rings (size 3 to 8) (size 9 to 14) (size 15 to 20)
#    0.000    2.000    3.333    2.000    2.333    0.000 
#    0.000   15.000    0.000    1.000    0.000    0.000 
#    0.000    0.000    0.000    0.000    0.000    0.000 
#
# Total GULP energy -297374.888324 kJ/mol
# GULP energy per Si atom -12390.620347 kJ/mol
# Density = 2.104816 g / cm^3
# Si number density = 21.096171 Si / 1000 Ang^3
#
#
#
# Elastic Constant Matrix: (Units=GPa)
#
#
# Indices 1 2 3 4 5 6 
#
# 1 54.0312 46.9199 36.8115 0.0000 0.0000 0.0000
# 2 46.9199 127.6346 45.9473 0.0000 0.0000 0.0000
# 3 36.8115 45.9473 124.2599 0.0000 0.0000 0.0000
# 4 0.0000 0.0000 0.0000 23.5938 0.0000 0.0000
# 5 0.0000 0.0000 0.0000 0.0000 31.9302 0.0000
# 6 0.0000 0.0000 0.0000 0.0000 0.0000 29.8368
#
#
#
# Elastic Compliance Matrix: (Units=1/GPa)
#
#
# Indices 1 2 3 4 5 6 
#
# 1 0.030212 -0.009095 -0.005587 0.000000 0.000000 0.000000
# 2 -0.009095 0.011776 -0.001660 0.000000 0.000000 0.000000
# 3 -0.005587 -0.001660 0.010317 0.000000 0.000000 0.000000
# 4 0.000000 0.000000 0.000000 0.042384 0.000000 0.000000
# 5 0.000000 0.000000 0.000000 0.000000 0.031318 0.000000
# 6 0.000000 0.000000 0.000000 0.000000 0.000000 0.033516
#
#
# Mechanical properties :
#
#
# Convention : Reuss Voigt Hill
#
# Bulk Modulus (GPa) = 50.96736 62.80925 56.88831
# Shear Modulus (GPa) = 25.15752 28.82197 26.98975
#
# Velocity S-wave (km/s) = 3.45703 3.70025 3.58070
# Velocity P-wave (km/s) = 6.33614 6.93493 6.64229
#
# Compressibility (1/GPa) = 0.01962040
#
# Stress axis : x y z
#
# Youngs Moduli (GPa) = 33.09891 84.91921 96.93068
#
# Poissons Ratio (x) = 0.77235 0.54158
# Poissons Ratio (y) = 0.30104 0.16090
# Poissons Ratio (z) = 0.18493 0.14096
#
# Static dielectric constant tensor:
#      x y z
#    x 3.796530 0.000000 0.000000 
#    y 0.000000 3.474050 0.000000 
#    z 0.000000 0.000000 3.999230 
# 
# 
# High freq. dielectric constant tensor:
#      x y z
#    x 1.803500 0.000000 0.000000 
#    y 0.000000 1.780270 0.000000 
#    z 0.000000 0.000000 1.852810 
# 
# From -- ./inp_files/2713.got.cif
#   From: 2010.03.12/outbox.cif.g09.slc.cpg/sg39_2_cif.got.tgz:2713.got - 2010.04.14 02:53:20.
