data_PCOD8181349
_publ_section_title
;
Structure prediction by ZEFSAII (Michael W. Deem and Ramdas Pophale) SiO2 
 PCOD8181349
Probable space group: A B M 2
;
_chemical_formula_sum "Si O2"
_cell_formula_units_Z 56
_cell_length_a 15.609998
_cell_length_b 8.869832
_cell_length_c 20.197787
_cell_angle_alpha 90.000000
_cell_angle_beta 90.000000
_cell_angle_gamma 90.000000
_cell_volume 2796.546400
_symmetry_space_group_name_H-M "A B M 2"
_symmetry_group_IT_number 39
_symmetry_cell_setting 'orthorhombic'
loop_
_space_group_symop_operation_xyz
x,y,z
-x,-y,z
-x,1/2+y,z
x,1/2-y,z
x,1/2+y,1/2+z
-x,1/2-y,1/2+z
-x,y,1/2+z
x,-y,1/2+z
loop_
_atom_site_type_symbol
_atom_site_label
_atom_site_fract_x
_atom_site_fract_y
_atom_site_fract_z
Si Si1 0.919253 0.924988 0.520460
Si Si2 0.130997 0.572015 0.386481
Si Si3 0.267703 0.922168 0.068705
Si Si4 0.914374 0.070978 0.751482
Si Si5 0.301616 0.924642 0.923306
Si Si6 0.731498 0.427837 0.701772
Si Si7 0.589183 0.576244 0.302463
O O1 0.934654 0.750000 0.505764
O O2 0.833764 0.949904 0.562424
O O3 0.914889 0.017783 0.452656
O O4 0.000000 0.000000 0.559431
O O5 0.120612 0.750000 0.376640
O O6 0.086931 0.483934 0.326837
O O7 0.230859 0.528995 0.389682
O O8 0.288362 0.750000 0.085784
O O9 0.301151 0.022395 0.129282
O O10 0.315721 0.969961 0.000350
O O11 0.920589 0.250000 0.748098
O O12 0.827601 0.010539 0.715793
O O13 0.000000 0.000000 0.717671
O O14 0.269666 0.750000 0.920818
O O15 0.387482 0.947279 0.880210
O O16 0.733244 0.250000 0.706246
O O17 0.664625 0.491689 0.756160
O O18 0.500000 0.500000 0.285686
O O19 0.577682 0.750000 0.285619
#
# Coordination Sequence:
#
# PCOD8181349 Si02
#       7
#     8   8   8   8   8   8   8
#     4  10  20  34  51  75 110 152 196 244 294 344
#     4  11  20  31  52  82 112 147 192 244 293 342
#     4   9  20  36  58  82 111 153 193 237 287 343
#     4  11  22  37  54  78 114 158 200 243 294 344
#     4   9  18  38  61  83 116 152 187 233 293 348
#     4  10  22  40  60  82 119 161 192 239 294 346
#     4  10  21  40  65  92 118 151 192 238 295 351
#
# _framework density 20.024698999999998
#
# number of rings (size 3 to 8) (size 9 to 14) (size 15 to 20)
#    0.000    2.000    1.429    3.429    0.000    5.714 
#    0.000    3.571    0.000    3.429    0.000    0.000 
#    0.000    0.000    0.000    0.000    0.000    0.000 
#
# Total GULP energy -347131.761128 kJ/mol
# GULP energy per Si atom -12397.562897 kJ/mol
# Density = 1.997912 g / cm^3
# Si number density = 20.024699 Si / 1000 Ang^3
#
#
#
# Elastic Constant Matrix: (Units=GPa)
#
#
# Indices 1 2 3 4 5 6 
#
# 1 117.5165 35.9365 50.4562 0.0000 0.0000 0.0000
# 2 35.9365 56.3597 22.9982 0.0000 0.0000 0.0000
# 3 50.4562 22.9982 108.9881 0.0000 0.0000 0.0000
# 4 0.0000 0.0000 0.0000 29.0830 0.0000 0.0000
# 5 0.0000 0.0000 0.0000 0.0000 10.7240 0.0000
# 6 0.0000 0.0000 0.0000 0.0000 0.0000 31.2815
#
#
#
# Elastic Compliance Matrix: (Units=1/GPa)
#
#
# Indices 1 2 3 4 5 6 
#
# 1 0.012234 -0.006007 -0.004396 0.000000 0.000000 0.000000
# 2 -0.006007 0.022364 -0.001938 0.000000 0.000000 0.000000
# 3 -0.004396 -0.001938 0.011620 0.000000 0.000000 0.000000
# 4 0.000000 0.000000 0.000000 0.034384 0.000000 0.000000
# 5 0.000000 0.000000 0.000000 0.000000 0.093249 0.000000
# 6 0.000000 0.000000 0.000000 0.000000 0.000000 0.031968
#
#
# Mechanical properties :
#
#
# Convention : Reuss Voigt Hill
#
# Bulk Modulus (GPa) = 46.43588 55.73846 51.08717
# Shear Modulus (GPa) = 21.03674 25.78259 23.40967
#
# Velocity S-wave (km/s) = 3.24472 3.59212 3.42283
# Velocity P-wave (km/s) = 6.10551 6.71563 6.41783
#
# Compressibility (1/GPa) = 0.02153507
#
# Stress axis : x y z
#
# Youngs Moduli (GPa) = 81.74072 44.71425 86.06192
#
# Poissons Ratio (x) = 0.26859 0.37834
# Poissons Ratio (y) = 0.49099 0.16682
# Poissons Ratio (z) = 0.35934 0.08667
#
# Static dielectric constant tensor:
#      x y z
#    x 3.627030 0.000000 0.000000 
#    y 0.000000 3.488280 0.000000 
#    z 0.000000 0.000000 3.577990 
# 
# 
# High freq. dielectric constant tensor:
#      x y z
#    x 1.764890 0.000000 0.000000 
#    y 0.000000 1.772500 0.000000 
#    z 0.000000 0.000000 1.778300 
# 
# From -- ./inp_files/14736.got.cif
#   From: 2010.03.12/outbox.cif.g09.slc.cpg/sg39_8_cif.got.tgz:14736.got - 2010.04.14 02:53:20.
