data_PCOD8181517
_publ_section_title
;
Structure prediction by ZEFSAII (Michael W. Deem and Ramdas Pophale) SiO2 
 PCOD8181517
Probable space group: A B M 2
;
_chemical_formula_sum "Si O2"
_cell_formula_units_Z 60
_cell_length_a 16.889881
_cell_length_b 10.070113
_cell_length_c 19.060056
_cell_angle_alpha 90.000000
_cell_angle_beta 90.000000
_cell_angle_gamma 90.000000
_cell_volume 3241.791700
_symmetry_space_group_name_H-M "A B M 2"
_symmetry_group_IT_number 39
_symmetry_cell_setting 'orthorhombic'
loop_
_space_group_symop_operation_xyz
x,y,z
-x,-y,z
-x,1/2+y,z
x,1/2-y,z
x,1/2+y,1/2+z
-x,1/2-y,1/2+z
-x,y,1/2+z
x,-y,1/2+z
loop_
_atom_site_type_symbol
_atom_site_label
_atom_site_fract_x
_atom_site_fract_y
_atom_site_fract_z
Si Si1 0.299272 0.095914 0.391560
Si Si2 0.698489 0.403958 0.508951
Si Si3 0.433716 0.600086 0.620426
Si Si4 0.000000 0.000000 0.960951
Si Si5 0.927864 0.592615 0.203879
Si Si6 0.127409 0.401773 0.353810
Si Si7 0.137003 0.099102 0.057523
Si Si8 0.432746 0.900574 0.781556
O O1 0.298427 0.250000 0.416492
O O2 0.210629 0.036924 0.378689
O O3 0.350442 0.078561 0.321608
O O4 0.338321 0.999808 0.449616
O O5 0.699483 0.250000 0.483396
O O6 0.647022 0.419653 0.578589
O O7 0.785317 0.469363 0.524796
O O8 0.500000 0.500000 0.591118
O O9 0.466157 0.750000 0.611741
O O10 0.413744 0.567363 0.700897
O O11 0.056984 0.082825 0.012044
O O12 0.943304 0.085907 0.910413
O O13 0.950345 0.750000 0.206206
O O14 0.894779 0.537960 0.277939
O O15 0.869645 0.560046 0.139269
O O16 0.000000 0.500000 0.184608
O O17 0.145100 0.250000 0.339641
O O18 0.161226 0.250000 0.054613
O O19 0.463862 0.750000 0.791634
O O20 0.500000 0.000000 0.810628
#
# Coordination Sequence:
#
# PCOD8181517 Si02
#       8
#     8   8   8   4   8   8   8   8
#     4  10  21  37  55  81 110 143 180 222 271 322
#     4  10  21  37  55  81 110 143 180 222 271 322
#     4   9  19  36  59  83 109 142 181 222 268 322
#     4  12  18  34  56  78 110 142 186 220 274 318
#     4  10  20  36  54  76 103 138 182 226 269 320
#     4  10  21  34  53  78 108 143 180 224 271 321
#     4  10  21  34  53  78 108 143 180 224 271 321
#     4   9  19  36  59  83 109 142 181 222 268 322
#
# _framework density 18.508282999999999
#
# number of rings (size 3 to 8) (size 9 to 14) (size 15 to 20)
#    0.000    2.133    2.667    0.400    1.867    1.600 
#    0.000    4.000    0.000    0.000    0.000    0.000 
#    0.000    0.000    0.000    0.000    0.000    0.000 
#
# Total GULP energy -371778.286019 kJ/mol
# GULP energy per Si atom -12392.609534 kJ/mol
# Density = 1.846616 g / cm^3
# Si number density = 18.508283 Si / 1000 Ang^3
#
#
#
# Elastic Constant Matrix: (Units=GPa)
#
#
# Indices 1 2 3 4 5 6 
#
# 1 102.2222 38.7587 36.9538 0.0000 0.0000 0.0000
# 2 38.7587 66.0423 36.1769 0.0000 0.0000 0.0000
# 3 36.9538 36.1769 102.4087 0.0000 0.0000 0.0000
# 4 0.0000 0.0000 0.0000 25.0927 0.0000 0.0000
# 5 0.0000 0.0000 0.0000 0.0000 -20.8057 0.0000
# 6 0.0000 0.0000 0.0000 0.0000 0.0000 26.8004
#
#
#
# Elastic Compliance Matrix: (Units=1/GPa)
#
#
# Indices 1 2 3 4 5 6 
#
# 1 0.013075 -0.006310 -0.002489 0.000000 0.000000 0.000000
# 2 -0.006310 0.021820 -0.005431 0.000000 0.000000 0.000000
# 3 -0.002489 -0.005431 0.012582 0.000000 0.000000 0.000000
# 4 0.000000 0.000000 0.000000 0.039852 0.000000 0.000000
# 5 0.000000 0.000000 0.000000 0.000000 -0.048064 0.000000
# 6 0.000000 0.000000 0.000000 0.000000 0.000000 0.037313
#
#
# Mechanical properties :
#
#
# Convention : Reuss Voigt Hill
#
# Bulk Modulus (GPa) = 52.58663 54.93913 53.76288
# Shear Modulus (GPa) = 44.89264 16.80308 30.84786
#
# Velocity S-wave (km/s) = 4.93032 3.01635 4.08696
# Velocity P-wave (km/s) = 7.80288 6.47141 7.16813
#
# Compressibility (1/GPa) = 0.01901624
#
# Stress axis : x y z
#
# Youngs Moduli (GPa) = 76.48267 45.82931 79.48121
#
# Poissons Ratio (x) = 0.28918 0.19783
# Poissons Ratio (y) = 0.48260 0.43168
# Poissons Ratio (z) = 0.19036 0.24891
#
# Static dielectric constant tensor:
#      x y z
#    x 4.381580 0.000000 0.000000 
#    y 0.000000 3.305680 0.000000 
#    z 0.000000 0.000000 3.538840 
# 
# 
# High freq. dielectric constant tensor:
#      x y z
#    x 1.715730 0.000000 0.000000 
#    y 0.000000 1.701040 0.000000 
#    z 0.000000 0.000000 1.728580 
# 
# From -- ./inp_files/12775.got.cif
#   From: 2010.03.12/outbox.cif.g09.slc.cpg/sg39_7_cif.got.tgz:12775.got - 2010.04.14 02:53:20.
