data_PCOD8181832
_publ_section_title
;
Structure prediction by ZEFSAII (Michael W. Deem and Ramdas Pophale) SiO2 
 PCOD8181832
Probable space group: A B M 2
;
_chemical_formula_sum "Si O2"
_cell_formula_units_Z 64
_cell_length_a 11.161857
_cell_length_b 22.777769
_cell_length_c 12.571702
_cell_angle_alpha 90.000000
_cell_angle_beta 90.000000
_cell_angle_gamma 90.000000
_cell_volume 3196.257179
_symmetry_space_group_name_H-M "A B M 2"
_symmetry_group_IT_number 39
_symmetry_cell_setting 'orthorhombic'
loop_
_space_group_symop_operation_xyz
x,y,z
-x,-y,z
-x,1/2+y,z
x,1/2-y,z
x,1/2+y,1/2+z
-x,1/2-y,1/2+z
-x,y,1/2+z
x,-y,1/2+z
loop_
_atom_site_type_symbol
_atom_site_label
_atom_site_fract_x
_atom_site_fract_y
_atom_site_fract_z
Si Si1 0.203951 0.315613 0.360650
Si Si2 0.729726 0.816130 0.999617
Si Si3 0.651595 0.316373 0.272764
Si Si4 0.599987 0.077589 0.592074
Si Si5 0.645563 0.454765 0.020759
Si Si6 0.817097 0.357390 0.085638
Si Si7 0.419413 0.892009 0.818133
Si Si8 0.939742 0.319101 0.660077
O O1 0.219493 0.250000 0.321947
O O2 0.153271 0.319215 0.480283
O O3 0.335968 0.341662 0.365054
O O4 0.117849 0.343312 0.270178
O O5 0.688963 0.750000 0.031534
O O6 0.624734 0.860835 0.033563
O O7 0.852251 0.831763 0.060188
O O8 0.745382 0.820887 0.871758
O O9 0.598889 0.250000 0.267407
O O10 0.718544 0.328418 0.162181
O O11 0.548136 0.364011 0.293273
O O12 0.457507 0.066438 0.601492
O O13 0.643011 0.081564 0.713434
O O14 0.669740 0.024268 0.533772
O O15 0.769710 0.421133 0.045890
O O16 0.584059 0.443709 0.905417
O O17 0.943178 0.359919 0.146626
O O18 0.975072 0.250000 0.665771
#
# Coordination Sequence:
#
# PCOD8181832 Si02
#       8
#     8   8   8   8   8   8   8   8
#     4  10  21  37  60  88 124 165 204 256 315 371
#     4  10  22  39  60  90 120 158 205 249 308 370
#     4  11  22  35  59  92 128 161 200 259 316 373
#     4  11  21  41  63  88 120 162 203 255 306 376
#     4  10  24  39  61  89 122 163 207 250 311 369
#     4  11  23  40  56  92 126 163 214 256 304 369
#     4  11  21  38  60  91 121 155 205 256 317 373
#     4  10  21  38  61  86 122 167 207 253 305 366
#
# _framework density 20.023420000000002
#
# number of rings (size 3 to 8) (size 9 to 14) (size 15 to 20)
#    0.000    1.500    3.750    1.500    1.750    3.500 
#    0.000    0.625    0.000    0.000    0.000    0.000 
#    0.000    0.000    0.000    0.000    0.000    0.000 
#
# Total GULP energy -396629.448000 kJ/mol
# GULP energy per Si atom -12394.670250 kJ/mol
# Density = 1.997785 g / cm^3
# Si number density = 20.023420 Si / 1000 Ang^3
#
#
#
# Elastic Constant Matrix: (Units=GPa)
#
#
# Indices 1 2 3 4 5 6 
#
# 1 83.7704 34.3564 30.7191 0.0000 0.0000 0.0000
# 2 34.3564 104.5812 38.8282 0.0000 0.0000 0.0000
# 3 30.7191 38.8282 140.6359 0.0000 0.0000 0.0000
# 4 0.0000 0.0000 0.0000 25.5069 0.0000 0.0000
# 5 0.0000 0.0000 0.0000 0.0000 30.2412 0.0000
# 6 0.0000 0.0000 0.0000 0.0000 0.0000 24.3093
#
#
#
# Elastic Compliance Matrix: (Units=1/GPa)
#
#
# Indices 1 2 3 4 5 6 
#
# 1 0.014301 -0.003942 -0.002035 0.000000 0.000000 0.000000
# 2 -0.003942 0.011741 -0.002380 0.000000 0.000000 0.000000
# 3 -0.002035 -0.002380 0.008212 0.000000 0.000000 0.000000
# 4 0.000000 0.000000 0.000000 0.039205 0.000000 0.000000
# 5 0.000000 0.000000 0.000000 0.000000 0.033067 0.000000
# 6 0.000000 0.000000 0.000000 0.000000 0.000000 0.041136
#
#
# Mechanical properties :
#
#
# Convention : Reuss Voigt Hill
#
# Bulk Modulus (GPa) = 57.01967 59.64388 58.33177
# Shear Modulus (GPa) = 29.37295 31.01707 30.19501
#
# Velocity S-wave (km/s) = 3.83421 3.94005 3.88749
# Velocity P-wave (km/s) = 6.93829 7.10988 7.02461
#
# Compressibility (1/GPa) = 0.01753781
#
# Stress axis : x y z
#
# Youngs Moduli (GPa) = 69.92733 85.17282 121.76813
#
# Poissons Ratio (x) = 0.33578 0.24783
# Poissons Ratio (y) = 0.27567 0.28986
# Poissons Ratio (z) = 0.14232 0.20275
#
# Static dielectric constant tensor:
#      x y z
#    x 3.396790 0.000000 0.000000 
#    y 0.000000 3.552590 0.000000 
#    z 0.000000 0.000000 4.040200 
# 
# 
# High freq. dielectric constant tensor:
#      x y z
#    x 1.755600 0.000000 0.000000 
#    y 0.000000 1.763330 0.000000 
#    z 0.000000 0.000000 1.803850 
# 
# From -- ./inp_files/6093.got.cif
#   From: 2010.03.12/outbox.cif.g09.slc.cpg/sg39_4_cif.got.tgz:6093.got - 2010.04.14 02:53:20.
