data_PCOD8181599
_publ_section_title
;
Structure prediction by ZEFSAII (Michael W. Deem and Ramdas Pophale) SiO2 
 PCOD8181599
Probable space group: A B M 2
;
_chemical_formula_sum "Si O2"
_cell_formula_units_Z 52
_cell_length_a 19.088210
_cell_length_b 13.595681
_cell_length_c 9.904657
_cell_angle_alpha 90.000000
_cell_angle_beta 90.000000
_cell_angle_gamma 90.000000
_cell_volume 2570.428990
_symmetry_space_group_name_H-M "A B M 2"
_symmetry_group_IT_number 39
_symmetry_cell_setting 'orthorhombic'
loop_
_space_group_symop_operation_xyz
x,y,z
-x,-y,z
-x,1/2+y,z
x,1/2-y,z
x,1/2+y,1/2+z
-x,1/2-y,1/2+z
-x,y,1/2+z
x,-y,1/2+z
loop_
_atom_site_type_symbol
_atom_site_label
_atom_site_fract_x
_atom_site_fract_y
_atom_site_fract_z
Si Si1 0.112255 0.359159 0.831340
Si Si2 0.119335 0.862116 0.025903
Si Si3 0.000000 0.500000 0.929975
Si Si4 0.773874 0.517662 0.957225
Si Si5 0.680429 0.005559 0.704538
Si Si6 0.568759 0.134042 0.097567
Si Si7 0.555649 0.365896 0.790449
O O1 0.088167 0.250000 0.874528
O O2 0.142899 0.359454 0.681021
O O3 0.046488 0.431721 0.834411
O O4 0.173073 0.392718 0.932728
O O5 0.108556 0.750000 0.971302
O O6 0.182969 0.914750 0.946160
O O7 0.048137 0.926364 0.017910
O O8 0.711409 0.519188 0.850325
O O9 0.742593 0.537626 0.104976
O O10 0.625112 0.092961 0.720552
O O11 0.643175 0.910192 0.640820
O O12 0.577634 0.250000 0.102665
O O13 0.511057 0.096360 0.204883
O O14 0.547532 0.099815 0.946179
O O15 0.561671 0.250000 0.780226
#
# Coordination Sequence:
#
# PCOD8181599 Si02
#       7
#     8   8   4   8   8   8   8
#     4  10  21  39  61  88 123 159 199 246 296 350
#     4  10  21  39  62  87 123 163 196 241 301 354
#     4  10  20  36  64  94 120 152 206 248 286 350
#     4  11  24  39  60  89 121 154 208 244 294 356
#     4  12  23  40  63  88 118 161 198 252 298 359
#     4  10  23  41  62  88 119 157 201 250 304 362
#     4  10  23  41  61  88 120 155 201 252 304 361
#
# _framework density 20.230086
#
# number of rings (size 3 to 8) (size 9 to 14) (size 15 to 20)
#    0.000    1.538    3.077    1.385    2.154    3.692 
#    0.000    0.000    0.000    0.000    0.000    0.000 
#    0.000    0.000    0.000    0.000    0.000    0.000 
#
# Total GULP energy -322438.142684 kJ/mol
# GULP energy per Si atom -12401.467026 kJ/mol
# Density = 2.018404 g / cm^3
# Si number density = 20.230086 Si / 1000 Ang^3
#
#
#
# Elastic Constant Matrix: (Units=GPa)
#
#
# Indices 1 2 3 4 5 6 
#
# 1 102.2182 43.6362 33.4261 0.0000 0.0000 0.0000
# 2 43.6362 109.3282 34.4070 0.0000 0.0000 0.0000
# 3 33.4261 34.4070 91.9823 0.0000 0.0000 0.0000
# 4 0.0000 0.0000 0.0000 26.3915 0.0000 0.0000
# 5 0.0000 0.0000 0.0000 0.0000 42.6881 0.0000
# 6 0.0000 0.0000 0.0000 0.0000 0.0000 26.8057
#
#
#
# Elastic Compliance Matrix: (Units=1/GPa)
#
#
# Indices 1 2 3 4 5 6 
#
# 1 0.012496 -0.004033 -0.003032 0.000000 0.000000 0.000000
# 2 -0.004033 0.011669 -0.002899 0.000000 0.000000 0.000000
# 3 -0.003032 -0.002899 0.013058 0.000000 0.000000 0.000000
# 4 0.000000 0.000000 0.000000 0.037891 0.000000 0.000000
# 5 0.000000 0.000000 0.000000 0.000000 0.023426 0.000000
# 6 0.000000 0.000000 0.000000 0.000000 0.000000 0.037306
#
#
# Mechanical properties :
#
#
# Convention : Reuss Voigt Hill
#
# Bulk Modulus (GPa) = 57.82507 58.49639 58.16073
# Shear Modulus (GPa) = 30.95201 31.98102 31.46651
#
# Velocity S-wave (km/s) = 3.91576 3.98032 3.94817
# Velocity P-wave (km/s) = 7.00643 7.07829 7.04245
#
# Compressibility (1/GPa) = 0.01729354
#
# Stress axis : x y z
#
# Youngs Moduli (GPa) = 80.02286 85.69692 76.58068
#
# Poissons Ratio (x) = 0.34565 0.23223
# Poissons Ratio (y) = 0.32276 0.22202
# Poissons Ratio (z) = 0.24266 0.24845
#
# Static dielectric constant tensor:
#      x y z
#    x 3.735860 0.000000 0.000000 
#    y 0.000000 3.712060 0.000000 
#    z 0.000000 0.000000 3.710140 
# 
# 
# High freq. dielectric constant tensor:
#      x y z
#    x 1.794490 0.000000 0.000000 
#    y 0.000000 1.794790 0.000000 
#    z 0.000000 0.000000 1.789110 
# 
# From -- ./inp_files/3950.got.cif
#   From: 2010.03.12/outbox.cif.g09.slc.cpg/sg39_2_cif.got.tgz:3950.got - 2010.04.14 02:53:20.
