data_PCOD8181594
_publ_section_title
;
Structure prediction by ZEFSAII (Michael W. Deem and Ramdas Pophale) SiO2 
 PCOD8181594
Probable space group: A B M 2
;
_chemical_formula_sum "Si O2"
_cell_formula_units_Z 64
_cell_length_a 11.017742
_cell_length_b 18.967450
_cell_length_c 14.125755
_cell_angle_alpha 90.000000
_cell_angle_beta 90.000000
_cell_angle_gamma 90.000000
_cell_volume 2951.978675
_symmetry_space_group_name_H-M "A B M 2"
_symmetry_group_IT_number 39
_symmetry_cell_setting 'orthorhombic'
loop_
_space_group_symop_operation_xyz
x,y,z
-x,-y,z
-x,1/2+y,z
x,1/2-y,z
x,1/2+y,1/2+z
-x,1/2-y,1/2+z
-x,y,1/2+z
x,-y,1/2+z
loop_
_atom_site_type_symbol
_atom_site_label
_atom_site_fract_x
_atom_site_fract_y
_atom_site_fract_z
Si Si1 0.929447 0.572408 0.682320
Si Si2 0.226942 0.171289 0.934864
Si Si3 0.847606 0.169229 0.022178
Si Si4 0.640130 0.830741 0.116497
Si Si5 0.579089 0.831345 0.491151
Si Si6 0.321629 0.439926 0.790171
Si Si7 0.975922 0.671232 0.340326
Si Si8 0.588347 0.409941 0.795085
O O1 0.926846 0.616282 0.585321
O O2 0.790305 0.563729 0.716788
O O3 0.010502 0.614686 0.758013
O O4 0.000000 0.500000 0.663125
O O5 0.276214 0.250000 0.907114
O O6 0.299005 0.112020 0.877713
O O7 0.085843 0.166331 0.914326
O O8 0.244329 0.159240 0.047279
O O9 0.885632 0.250000 0.045299
O O10 0.706446 0.156921 0.044450
O O11 0.862653 0.153996 0.909078
O O12 0.617779 0.750000 0.144640
O O13 0.666828 0.871657 0.213709
O O14 0.524143 0.862007 0.060040
O O15 0.552929 0.750000 0.471957
O O16 0.573896 0.866561 0.389686
O O17 0.454004 0.420052 0.747974
O O18 0.338208 0.520053 0.825057
O O19 0.966467 0.750000 0.296031
#
# Coordination Sequence:
#
# PCOD8181594 Si02
#       8
#     8   8   8   8   8   8   8   8
#     4  11  24  41  63  92 125 166 212 258 309 378
#     4   9  18  38  63  86 114 155 208 254 304 364
#     4  10  22  42  64  91 123 161 211 259 315 371
#     4  10  20  36  62  92 119 156 203 255 308 368
#     4  10  21  39  65  95 125 162 207 258 314 376
#     4  10  23  41  56  89 123 167 205 245 311 373
#     4   9  20  40  65  88 117 158 204 259 312 364
#     4  11  22  39  59  89 131 163 202 251 316 379
#
# _framework density 21.680374
#
# number of rings (size 3 to 8) (size 9 to 14) (size 15 to 20)
#    0.000    2.000    1.250    1.500    1.750    2.500 
#    9.000    0.000    0.000    0.000    0.000    0.000 
#    0.000    0.000    0.000    0.000    0.000    0.000 
#
# Total GULP energy -396653.203578 kJ/mol
# GULP energy per Si atom -12395.412612 kJ/mol
# Density = 2.163103 g / cm^3
# Si number density = 21.680374 Si / 1000 Ang^3
#
#
#
# Elastic Constant Matrix: (Units=GPa)
#
#
# Indices 1 2 3 4 5 6 
#
# 1 32.2774 16.4144 -8.7930 0.0000 0.0000 0.0000
# 2 16.4144 109.0967 52.7025 0.0000 0.0000 0.0000
# 3 -8.7930 52.7025 84.5960 0.0000 0.0000 0.0000
# 4 0.0000 0.0000 0.0000 15.9427 0.0000 0.0000
# 5 0.0000 0.0000 0.0000 0.0000 22.2204 0.0000
# 6 0.0000 0.0000 0.0000 0.0000 0.0000 17.4697
#
#
#
# Elastic Compliance Matrix: (Units=1/GPa)
#
#
# Indices 1 2 3 4 5 6 
#
# 1 0.039874 -0.011446 0.011275 0.000000 0.000000 0.000000
# 2 -0.011446 0.016398 -0.011406 0.000000 0.000000 0.000000
# 3 0.011275 -0.011406 0.020098 0.000000 0.000000 0.000000
# 4 0.000000 0.000000 0.000000 0.062725 0.000000 0.000000
# 5 0.000000 0.000000 0.000000 0.000000 0.045004 0.000000
# 6 0.000000 0.000000 0.000000 0.000000 0.000000 0.057242
#
#
# Mechanical properties :
#
#
# Convention : Reuss Voigt Hill
#
# Bulk Modulus (GPa) = 18.79075 38.51309 28.65192
# Shear Modulus (GPa) = 17.71587 22.16965 19.94276
#
# Velocity S-wave (km/s) = 2.86166 3.20123 3.03620
# Velocity P-wave (km/s) = 4.42773 5.60949 5.05328
#
# Compressibility (1/GPa) = 0.05321767
#
# Stress axis : x y z
#
# Youngs Moduli (GPa) = 25.07904 60.98235 49.75505
#
# Poissons Ratio (x) = 0.69802 -0.56101
# Poissons Ratio (y) = 0.28706 0.56749
# Poissons Ratio (z) = -0.28278 0.69554
#
# Static dielectric constant tensor:
#      x y z
#    x 4.102650 0.000000 0.000000 
#    y 0.000000 4.000890 0.000000 
#    z 0.000000 0.000000 3.572650 
# 
# 
# High freq. dielectric constant tensor:
#      x y z
#    x 1.860550 0.000000 0.000000 
#    y 0.000000 1.848410 0.000000 
#    z 0.000000 0.000000 1.837740 
# 
# From -- ./inp_files/9472.got.cif
#   From: 2010.03.12/outbox.cif.g09.slc.cpg/sg39_5_cif.got.tgz:9472.got - 2010.04.14 02:53:20.
