data_PCOD8181672
_publ_section_title
;
Structure prediction by ZEFSAII (Michael W. Deem and Ramdas Pophale) SiO2 
 PCOD8181672
Probable space group: A B M 2
;
_chemical_formula_sum "Si O2"
_cell_formula_units_Z 40
_cell_length_a 7.180012
_cell_length_b 9.977404
_cell_length_c 26.832528
_cell_angle_alpha 90.000000
_cell_angle_beta 90.000000
_cell_angle_gamma 90.000000
_cell_volume 1922.225433
_symmetry_space_group_name_H-M "A B M 2"
_symmetry_group_IT_number 39
_symmetry_cell_setting 'orthorhombic'
loop_
_space_group_symop_operation_xyz
x,y,z
-x,-y,z
-x,1/2+y,z
x,1/2-y,z
x,1/2+y,1/2+z
-x,1/2-y,1/2+z
-x,y,1/2+z
x,-y,1/2+z
loop_
_atom_site_type_symbol
_atom_site_label
_atom_site_fract_x
_atom_site_fract_y
_atom_site_fract_z
Si Si1 0.000000 0.500000 0.602330
Si Si2 0.778466 0.250000 0.763989
Si Si3 0.279579 0.488458 0.818762
Si Si4 0.058382 0.750000 0.171505
Si Si5 0.327723 0.597620 0.420682
Si Si6 0.321056 0.405024 0.030353
Si Si7 0.660504 0.250000 0.250841
O O1 0.048786 0.378311 0.637490
O O2 0.826338 0.461171 0.568809
O O3 0.820989 0.378364 0.798668
O O4 0.899310 0.250000 0.714109
O O5 0.561748 0.250000 0.748482
O O6 0.500000 0.500000 0.826285
O O7 0.198815 0.449176 0.873692
O O8 0.245387 0.376097 0.777732
O O9 0.264825 0.750000 0.194800
O O10 0.500000 0.500000 0.425132
O O11 0.396008 0.750000 0.410093
O O12 0.228230 0.589369 0.474731
O O13 0.500000 0.500000 0.034624
O O14 0.374655 0.250000 0.042734
#
# Coordination Sequence:
#
# PCOD8181672 Si02
#       7
#     4   4   8   4   8   8   4
#     4  12  26  46  64  92 128 166 216 282 334 370
#     4  10  22  38  57  89 123 157 210 252 303 382
#     4   9  17  32  58  89 123 160 194 244 306 369
#     4  12  26  42  64  86 120 168 216 272 326 374
#     4   9  17  32  59  94 126 160 201 245 305 380
#     4  10  23  43  69  98 128 168 215 263 322 390
#     4  10  20  38  61  85 117 161 202 254 309 370
#
# _framework density 20.809214000000001
#
# number of rings (size 3 to 8) (size 9 to 14) (size 15 to 20)
#    0.000    2.000    2.000    1.200    5.600    1.600 
#    0.000    2.000    0.000    0.000    0.000    0.000 
#    0.000    0.000    0.000    0.000    0.000    0.000 
#
# Total GULP energy -247843.660663 kJ/mol
# GULP energy per Si atom -12392.183033 kJ/mol
# Density = 2.076185 g / cm^3
# Si number density = 20.809214 Si / 1000 Ang^3
#
#
#
# Elastic Constant Matrix: (Units=GPa)
#
#
# Indices 1 2 3 4 5 6 
#
# 1 56.0110 33.5855 47.8382 0.0000 0.0000 0.0000
# 2 33.5855 192.8374 91.4279 0.0000 0.0000 0.0000
# 3 47.8382 91.4279 180.0789 0.0000 0.0000 0.0000
# 4 0.0000 0.0000 0.0000 44.5001 0.0000 0.0000
# 5 0.0000 0.0000 0.0000 0.0000 96.1246 0.0000
# 6 0.0000 0.0000 0.0000 0.0000 0.0000 16.4534
#
#
#
# Elastic Compliance Matrix: (Units=1/GPa)
#
#
# Indices 1 2 3 4 5 6 
#
# 1 0.023412 -0.001487 -0.005465 0.000000 0.000000 0.000000
# 2 -0.001487 0.006924 -0.003121 0.000000 0.000000 0.000000
# 3 -0.005465 -0.003121 0.008589 0.000000 0.000000 0.000000
# 4 0.000000 0.000000 0.000000 0.022472 0.000000 0.000000
# 5 0.000000 0.000000 0.000000 0.000000 0.010403 0.000000
# 6 0.000000 0.000000 0.000000 0.000000 0.000000 0.060778
#
#
# Mechanical properties :
#
#
# Convention : Reuss Voigt Hill
#
# Bulk Modulus (GPa) = 53.24288 86.07004 69.65646
# Shear Modulus (GPa) = 31.44993 48.48735 39.96864
#
# Velocity S-wave (km/s) = 3.89182 4.83234 4.38735
# Velocity P-wave (km/s) = 6.77029 8.51978 7.69491
#
# Compressibility (1/GPa) = 0.01878185
#
# Stress axis : x y z
#
# Youngs Moduli (GPa) = 42.71235 144.42224 116.42583
#
# Poissons Ratio (x) = 0.21471 0.63624
# Poissons Ratio (y) = 0.06350 0.36331
# Poissons Ratio (z) = 0.23341 0.45067
#
# Static dielectric constant tensor:
#      x y z
#    x 3.152630 0.000000 0.000000 
#    y 0.000000 4.107160 0.000000 
#    z 0.000000 0.000000 4.377470 
# 
# 
# High freq. dielectric constant tensor:
#      x y z
#    x 1.780200 0.000000 0.000000 
#    y 0.000000 1.837950 0.000000 
#    z 0.000000 0.000000 1.836020 
# 
# From -- ./inp_files/15484.got.cif
#   From: 2010.03.12/outbox.cif.g09.slc.cpg/sg39_8_cif.got.tgz:15484.got - 2010.04.14 02:53:20.
