data_PCOD8181500
_publ_section_title
;
Structure prediction by ZEFSAII (Michael W. Deem and Ramdas Pophale) SiO2 
 PCOD8181500
Probable space group: A B M 2
;
_chemical_formula_sum "Si O2"
_cell_formula_units_Z 64
_cell_length_a 19.598852
_cell_length_b 17.781802
_cell_length_c 9.057136
_cell_angle_alpha 90.000000
_cell_angle_beta 90.000000
_cell_angle_gamma 90.000000
_cell_volume 3156.438213
_symmetry_space_group_name_H-M "A B M 2"
_symmetry_group_IT_number 39
_symmetry_cell_setting 'orthorhombic'
loop_
_space_group_symop_operation_xyz
x,y,z
-x,-y,z
-x,1/2+y,z
x,1/2-y,z
x,1/2+y,1/2+z
-x,1/2-y,1/2+z
-x,y,1/2+z
x,-y,1/2+z
loop_
_atom_site_type_symbol
_atom_site_label
_atom_site_fract_x
_atom_site_fract_y
_atom_site_fract_z
Si Si1 0.702126 0.080278 0.136460
Si Si2 0.209772 0.836865 0.632214
Si Si3 0.474209 0.414904 0.893847
Si Si4 0.677181 0.074233 0.474320
Si Si5 0.567934 0.162844 0.106203
Si Si6 0.942216 0.915572 0.437140
Si Si7 0.809491 0.165393 0.967890
Si Si8 0.923862 0.929950 0.093418
O O1 0.705044 0.064482 0.309527
O O2 0.647831 0.144435 0.091989
O O3 0.775577 0.109221 0.084630
O O4 0.684141 0.003399 0.057890
O O5 0.194714 0.750000 0.597638
O O6 0.279630 0.860793 0.553290
O O7 0.146167 0.884718 0.570907
O O8 0.220926 0.850652 0.805785
O O9 0.500000 0.500000 0.905938
O O10 0.402316 0.403056 0.977432
O O11 0.465822 0.393122 0.724062
O O12 0.529688 0.356411 0.954915
O O13 0.559118 0.250000 0.148107
O O14 0.890616 0.847242 0.464588
O O15 0.946336 0.935072 0.263944
O O16 0.015973 0.890139 0.498669
O O17 0.914075 0.987030 0.527792
O O18 0.795391 0.250000 0.018868
#
# Coordination Sequence:
#
# PCOD8181500 Si02
#       8
#     8   8   8   8   8   8   8   8
#     4  11  23  40  61  89 121 155 206 252 308 366
#     4  10  23  41  60  88 126 164 205 255 317 374
#     4  11  23  42  65  89 124 163 206 251 308 379
#     4  11  24  39  65  89 118 159 205 254 302 373
#     4  11  24  40  63  93 125 159 203 257 313 369
#     4  10  20  35  59  86 117 156 207 250 306 364
#     4  10  22  40  60  85 123 163 202 250 309 373
#     4  10  20  36  58  86 117 156 202 257 302 364
#
# _framework density 20.276019999999999
#
# number of rings (size 3 to 8) (size 9 to 14) (size 15 to 20)
#    0.000    1.500    1.250    4.125    1.750    8.500 
#    0.000    1.250    0.000    0.000    0.000    0.000 
#    0.000    0.000    0.000    0.000    0.000    0.000 
#
# Total GULP energy -396895.273791 kJ/mol
# GULP energy per Si atom -12402.977306 kJ/mol
# Density = 2.022987 g / cm^3
# Si number density = 20.276020 Si / 1000 Ang^3
#
#
#
# Elastic Constant Matrix: (Units=GPa)
#
#
# Indices 1 2 3 4 5 6 
#
# 1 77.1726 20.1617 29.7531 0.0000 0.0000 0.0000
# 2 20.1617 75.2567 24.4792 0.0000 0.0000 0.0000
# 3 29.7531 24.4792 84.4205 0.0000 0.0000 0.0000
# 4 0.0000 0.0000 0.0000 23.6695 0.0000 0.0000
# 5 0.0000 0.0000 0.0000 0.0000 35.4665 0.0000
# 6 0.0000 0.0000 0.0000 0.0000 0.0000 31.8364
#
#
#
# Elastic Compliance Matrix: (Units=1/GPa)
#
#
# Indices 1 2 3 4 5 6 
#
# 1 0.015448 -0.002614 -0.004686 0.000000 0.000000 0.000000
# 2 -0.002614 0.015114 -0.003461 0.000000 0.000000 0.000000
# 3 -0.004686 -0.003461 0.014501 0.000000 0.000000 0.000000
# 4 0.000000 0.000000 0.000000 0.042248 0.000000 0.000000
# 5 0.000000 0.000000 0.000000 0.000000 0.028196 0.000000
# 6 0.000000 0.000000 0.000000 0.000000 0.000000 0.031411
#
#
# Mechanical properties :
#
#
# Convention : Reuss Voigt Hill
#
# Bulk Modulus (GPa) = 42.48270 42.84864 42.66567
# Shear Modulus (GPa) = 28.36282 29.02486 28.69384
#
# Velocity S-wave (km/s) = 3.74416 3.78760 3.76594
# Velocity P-wave (km/s) = 6.29994 6.34874 6.32439
#
# Compressibility (1/GPa) = 0.02353900
#
# Stress axis : x y z
#
# Youngs Moduli (GPa) = 64.73452 66.16350 68.96185
#
# Poissons Ratio (x) = 0.17296 0.32318
# Poissons Ratio (y) = 0.16923 0.23870
# Poissons Ratio (z) = 0.30337 0.22901
#
# Static dielectric constant tensor:
#      x y z
#    x 3.899600 0.000000 0.000000 
#    y 0.000000 3.559250 0.000000 
#    z 0.000000 0.000000 3.738440 
# 
# 
# High freq. dielectric constant tensor:
#      x y z
#    x 1.802370 0.000000 0.000000 
#    y 0.000000 1.787950 0.000000 
#    z 0.000000 0.000000 1.797650 
# 
# From -- ./inp_files/4024.got.cif
#   From: 2010.03.12/outbox.cif.g09.slc.cpg/sg39_3_cif.got.tgz:4024.got - 2010.04.14 02:53:20.
