data_PCOD8181835
_publ_section_title
;
Structure prediction by ZEFSAII (Michael W. Deem and Ramdas Pophale) SiO2 
 PCOD8181835
Probable space group: A B M 2
;
_chemical_formula_sum "Si O2"
_cell_formula_units_Z 36
_cell_length_a 7.315394
_cell_length_b 26.388539
_cell_length_c 8.845627
_cell_angle_alpha 90.000000
_cell_angle_beta 90.000000
_cell_angle_gamma 90.000000
_cell_volume 1707.582480
_symmetry_space_group_name_H-M "A B M 2"
_symmetry_group_IT_number 39
_symmetry_cell_setting 'orthorhombic'
loop_
_space_group_symop_operation_xyz
x,y,z
-x,-y,z
-x,1/2+y,z
x,1/2-y,z
x,1/2+y,1/2+z
-x,1/2-y,1/2+z
-x,y,1/2+z
x,-y,1/2+z
loop_
_atom_site_type_symbol
_atom_site_label
_atom_site_fract_x
_atom_site_fract_y
_atom_site_fract_z
Si Si1 0.067216 0.250000 0.738140
Si Si2 0.256317 0.638512 0.960549
Si Si3 0.246602 0.750000 0.934281
Si Si4 0.500000 0.000000 0.670948
Si Si5 0.889311 0.641106 0.791677
Si Si6 0.391624 0.070713 0.922077
O O1 0.081716 0.250000 0.557215
O O2 0.161590 0.299599 0.810487
O O3 0.849658 0.250000 0.770814
O O4 0.349097 0.695771 0.957511
O O5 0.412722 0.598327 0.925732
O O6 0.103698 0.633009 0.829007
O O7 0.161197 0.625182 0.120508
O O8 0.374361 0.035755 0.773882
O O9 0.632000 0.034944 0.567945
O O10 0.771129 0.610935 0.915321
#
# Coordination Sequence:
#
# PCOD8181835 Si02
#       6
#     4   8   4   4   8   8
#     4   8  16  33  54  86 123 151 185 229 279 341
#     4  10  21  37  62  90 120 156 192 234 287 352
#     4   8  16  33  54  86 123 151 185 229 279 341
#     4  10  24  42  62  80 116 152 192 262 298 336
#     4  10  21  37  62  90 120 156 192 234 287 352
#     4  11  22  43  62  82 116 153 198 245 302 340
#
# _framework density 21.082436999999999
#
# number of rings (size 3 to 8) (size 9 to 14) (size 15 to 20)
#    0.000    2.222    2.222    0.000    3.111    0.889 
#    0.000    6.667    0.000    0.000    0.000    0.000 
#    0.000    0.000    0.000    0.000    0.000    0.000 
#
# Total GULP energy -223001.196555 kJ/mol
# GULP energy per Si atom -12388.955364 kJ/mol
# Density = 2.103445 g / cm^3
# Si number density = 21.082437 Si / 1000 Ang^3
#
#
#
# Elastic Constant Matrix: (Units=GPa)
#
#
# Indices 1 2 3 4 5 6 
#
# 1 70.8843 47.8039 15.6255 0.0000 0.0000 0.0000
# 2 47.8039 118.6285 41.1182 0.0000 0.0000 0.0000
# 3 15.6255 41.1182 77.8217 0.0000 0.0000 0.0000
# 4 0.0000 0.0000 0.0000 26.8672 0.0000 0.0000
# 5 0.0000 0.0000 0.0000 0.0000 19.9934 0.0000
# 6 0.0000 0.0000 0.0000 0.0000 0.0000 23.5927
#
#
#
# Elastic Compliance Matrix: (Units=1/GPa)
#
#
# Indices 1 2 3 4 5 6 
#
# 1 0.019377 -0.007908 0.000288 0.000000 0.000000 0.000000
# 2 -0.007908 0.013547 -0.005570 0.000000 0.000000 0.000000
# 3 0.000288 -0.005570 0.015735 0.000000 0.000000 0.000000
# 4 0.000000 0.000000 0.000000 0.037220 0.000000 0.000000
# 5 0.000000 0.000000 0.000000 0.000000 0.050017 0.000000
# 6 0.000000 0.000000 0.000000 0.000000 0.000000 0.042386
#
#
# Mechanical properties :
#
#
# Convention : Reuss Voigt Hill
#
# Bulk Modulus (GPa) = 44.88612 52.93662 48.91137
# Shear Modulus (GPa) = 23.57497 24.94310 24.25903
#
# Velocity S-wave (km/s) = 3.34762 3.44339 3.39584
# Velocity P-wave (km/s) = 6.02321 6.40102 6.21499
#
# Compressibility (1/GPa) = 0.02227860
#
# Stress axis : x y z
#
# Youngs Moduli (GPa) = 51.60671 73.81667 63.55231
#
# Poissons Ratio (x) = 0.58376 -0.01829
# Poissons Ratio (y) = 0.40812 0.35398
# Poissons Ratio (z) = -0.01485 0.41115
#
# Static dielectric constant tensor:
#      x y z
#    x 3.198960 0.000000 0.000000 
#    y 0.000000 4.255630 0.000000 
#    z 0.000000 0.000000 3.934770 
# 
# 
# High freq. dielectric constant tensor:
#      x y z
#    x 1.767690 0.000000 0.000000 
#    y 0.000000 1.850190 0.000000 
#    z 0.000000 0.000000 1.833850 
# 
# From -- ./inp_files/2182.got.cif
#   From: 2010.03.12/outbox.cif.g09.slc.cpg/sg39_2_cif.got.tgz:2182.got - 2010.04.14 02:53:20.
