data_PCOD8181315
_publ_section_title
;
Structure prediction by ZEFSAII (Michael W. Deem and Ramdas Pophale) SiO2 
 PCOD8181315
Probable space group: A B M 2
;
_chemical_formula_sum "Si O2"
_cell_formula_units_Z 64
_cell_length_a 9.526061
_cell_length_b 18.177681
_cell_length_c 20.097448
_cell_angle_alpha 90.000000
_cell_angle_beta 90.000000
_cell_angle_gamma 90.000000
_cell_volume 3480.108222
_symmetry_space_group_name_H-M "A B M 2"
_symmetry_group_IT_number 39
_symmetry_cell_setting 'orthorhombic'
loop_
_space_group_symop_operation_xyz
x,y,z
-x,-y,z
-x,1/2+y,z
x,1/2-y,z
x,1/2+y,1/2+z
-x,1/2-y,1/2+z
-x,y,1/2+z
x,-y,1/2+z
loop_
_atom_site_type_symbol
_atom_site_label
_atom_site_fract_x
_atom_site_fract_y
_atom_site_fract_z
Si Si1 0.086809 0.430695 0.291110
Si Si2 0.496300 0.835615 0.014334
Si Si3 0.011226 0.912941 0.646900
Si Si4 0.404730 0.570555 0.752567
Si Si5 0.539683 0.331829 0.871865
Si Si6 0.296827 0.837130 0.630761
Si Si7 0.804377 0.837205 0.552069
Si Si8 0.864339 0.169667 0.907241
O O1 0.017692 0.394886 0.225374
O O2 0.249783 0.452254 0.278219
O O3 0.056618 0.378456 0.353150
O O4 0.000000 0.500000 0.313042
O O5 0.465224 0.750000 0.003306
O O6 0.625836 0.851124 0.061542
O O7 0.354991 0.867806 0.047999
O O8 0.529231 0.866079 0.939662
O O9 0.149632 0.876361 0.615932
O O10 0.875131 0.876246 0.614808
O O11 0.000000 0.000000 0.634448
O O12 0.500000 0.500000 0.733114
O O13 0.489196 0.614312 0.809944
O O14 0.384872 0.624540 0.689648
O O15 0.481005 0.250000 0.854686
O O16 0.703474 0.326077 0.886445
O O17 0.280036 0.750000 0.646894
O O18 0.810759 0.750000 0.563294
O O19 0.880929 0.859998 0.482818
O O20 0.933333 0.250000 0.903754
#
# Coordination Sequence:
#
# PCOD8181315 Si02
#       8
#     8   8   8   8   8   8   8   8
#     4   9  19  34  50  69  97 131 164 204 251 300
#     4   8  16  31  53  77  99 126 166 211 251 295
#     4  10  21  34  49  74 104 133 169 212 258 304
#     4  10  20  33  51  75 102 132 167 209 255 301
#     4   8  14  30  53  74  96 126 166 209 247 295
#     4  10  20  35  55  78 102 136 176 211 251 305
#     4   9  17  32  53  75 100 132 168 209 254 305
#     4   8  15  29  52  76  95 124 170 211 246 295
#
# _framework density 18.390232000000001
#
# number of rings (size 3 to 8) (size 9 to 14) (size 15 to 20)
#    0.000    3.000    0.000    2.250    0.000    7.000 
#    0.000    5.625    0.000    3.000    0.000    0.000 
#    0.000    0.000    0.000    0.000    0.000    0.000 
#
# Total GULP energy -396532.996721 kJ/mol
# GULP energy per Si atom -12391.656148 kJ/mol
# Density = 1.834838 g / cm^3
# Si number density = 18.390232 Si / 1000 Ang^3
#
#
#
# Elastic Constant Matrix: (Units=GPa)
#
#
# Indices 1 2 3 4 5 6 
#
# 1 43.5048 33.2675 19.8596 0.0000 0.0000 0.0000
# 2 33.2675 77.8873 34.3244 0.0000 0.0000 0.0000
# 3 19.8596 34.3244 61.9591 0.0000 0.0000 0.0000
# 4 0.0000 0.0000 0.0000 14.7299 0.0000 0.0000
# 5 0.0000 0.0000 0.0000 0.0000 26.5920 0.0000
# 6 0.0000 0.0000 0.0000 0.0000 0.0000 32.1409
#
#
#
# Elastic Compliance Matrix: (Units=1/GPa)
#
#
# Indices 1 2 3 4 5 6 
#
# 1 0.034821 -0.013169 -0.003865 0.000000 0.000000 0.000000
# 2 -0.013169 0.021967 -0.007948 0.000000 0.000000 0.000000
# 3 -0.003865 -0.007948 0.021782 0.000000 0.000000 0.000000
# 4 0.000000 0.000000 0.000000 0.067889 0.000000 0.000000
# 5 0.000000 0.000000 0.000000 0.000000 0.037605 0.000000
# 6 0.000000 0.000000 0.000000 0.000000 0.000000 0.031113
#
#
# Mechanical properties :
#
#
# Convention : Reuss Voigt Hill
#
# Bulk Modulus (GPa) = 34.96057 39.80602 37.38329
# Shear Modulus (GPa) = 18.20318 21.08586 19.64452
#
# Velocity S-wave (km/s) = 3.14957 3.38979 3.27189
# Velocity P-wave (km/s) = 5.68138 6.08384 5.88605
#
# Compressibility (1/GPa) = 0.02860366
#
# Stress axis : x y z
#
# Youngs Moduli (GPa) = 28.71834 45.52354 45.90996
#
# Poissons Ratio (x) = 0.59952 0.17746
# Poissons Ratio (y) = 0.37820 0.36490
# Poissons Ratio (z) = 0.11101 0.36182
#
# Static dielectric constant tensor:
#      x y z
#    x 3.151180 0.000000 0.000000 
#    y 0.000000 3.407240 0.000000 
#    z 0.000000 0.000000 3.664670 
# 
# 
# High freq. dielectric constant tensor:
#      x y z
#    x 1.686480 0.000000 0.000000 
#    y 0.000000 1.698110 0.000000 
#    z 0.000000 0.000000 1.725670 
# 
# From -- ./inp_files/14192.got.cif
#   From: 2010.03.12/outbox.cif.g09.slc.cpg/sg39_8_cif.got.tgz:14192.got - 2010.04.14 02:53:20.
