data_PCOD8181438
_publ_section_title
;
Structure prediction by ZEFSAII (Michael W. Deem and Ramdas Pophale) SiO2 
 PCOD8181438
Probable space group: A B M 2
;
_chemical_formula_sum "Si O2"
_cell_formula_units_Z 48
_cell_length_a 9.412627
_cell_length_b 8.644890
_cell_length_c 30.480732
_cell_angle_alpha 90.000000
_cell_angle_beta 90.000000
_cell_angle_gamma 90.000000
_cell_volume 2480.251454
_symmetry_space_group_name_H-M "A B M 2"
_symmetry_group_IT_number 39
_symmetry_cell_setting 'orthorhombic'
loop_
_space_group_symop_operation_xyz
x,y,z
-x,-y,z
-x,1/2+y,z
x,1/2-y,z
x,1/2+y,1/2+z
-x,1/2-y,1/2+z
-x,y,1/2+z
x,-y,1/2+z
loop_
_atom_site_type_symbol
_atom_site_label
_atom_site_fract_x
_atom_site_fract_y
_atom_site_fract_z
Si Si1 0.152337 0.566525 0.198150
Si Si2 0.653620 0.069016 0.431828
Si Si3 0.345718 0.433247 0.521992
Si Si4 0.343679 0.433172 0.271440
Si Si5 0.852195 0.932082 0.598820
Si Si6 0.156592 0.568059 0.348642
O O1 0.149161 0.750000 0.204158
O O2 0.279779 0.494706 0.225959
O O3 0.185155 0.514783 0.148202
O O4 0.000000 0.500000 0.213587
O O5 0.633023 0.250000 0.438782
O O6 0.764221 0.029845 0.393793
O O7 0.500000 0.000000 0.419705
O O8 0.718541 0.995900 0.476273
O O9 0.500000 0.500000 0.528021
O O10 0.348095 0.250000 0.520298
O O11 0.260719 0.496214 0.564011
O O12 0.500000 0.500000 0.279059
O O13 0.353699 0.250000 0.270164
O O14 0.241026 0.485532 0.310101
O O15 0.862184 0.750000 0.596873
O O16 0.000000 0.000000 0.583183
O O17 0.150281 0.750000 0.338955
O O18 0.000000 0.500000 0.351489
#
# Coordination Sequence:
#
# PCOD8181438 Si02
#       6
#     8   8   8   8   8   8
#     4  10  20  38  60  84 115 150 190 233 281 334
#     4  10  21  37  58  83 111 146 187 230 279 332
#     4  10  20  35  55  81 112 147 187 230 278 330
#     4  12  25  41  61  86 115 148 187 231 281 335
#     4   9  20  36  56  82 112 148 188 230 276 329
#     4  11  24  41  61  86 115 149 188 230 279 334
#
# _framework density 19.352875000000001
#
# number of rings (size 3 to 8) (size 9 to 14) (size 15 to 20)
#    0.000    1.667    0.000    5.500    0.000    7.333 
#    0.000    5.000    0.000    0.000    0.000    0.000 
#    0.000    0.000    0.000    0.000    0.000    0.000 
#
# Total GULP energy -297655.951409 kJ/mol
# GULP energy per Si atom -12402.331309 kJ/mol
# Density = 1.930883 g / cm^3
# Si number density = 19.352875 Si / 1000 Ang^3
#
#
#
# Elastic Constant Matrix: (Units=GPa)
#
#
# Indices 1 2 3 4 5 6 
#
# 1 118.4373 48.9394 78.0321 0.0000 0.0000 0.0000
# 2 48.9394 103.0701 53.4343 0.0000 0.0000 0.0000
# 3 78.0321 53.4343 133.3200 0.0000 0.0000 0.0000
# 4 0.0000 0.0000 0.0000 15.2721 0.0000 0.0000
# 5 0.0000 0.0000 0.0000 0.0000 46.1579 0.0000
# 6 0.0000 0.0000 0.0000 0.0000 0.0000 34.5016
#
#
#
# Elastic Compliance Matrix: (Units=1/GPa)
#
#
# Indices 1 2 3 4 5 6 
#
# 1 0.014505 -0.003138 -0.007232 0.000000 0.000000 0.000000
# 2 -0.003138 0.012926 -0.003344 0.000000 0.000000 0.000000
# 3 -0.007232 -0.003344 0.013074 0.000000 0.000000 0.000000
# 4 0.000000 0.000000 0.000000 0.065479 0.000000 0.000000
# 5 0.000000 0.000000 0.000000 0.000000 0.021665 0.000000
# 6 0.000000 0.000000 0.000000 0.000000 0.000000 0.028984
#
#
# Mechanical properties :
#
#
# Convention : Reuss Voigt Hill
#
# Bulk Modulus (GPa) = 76.47221 79.51545 77.99383
# Shear Modulus (GPa) = 26.53675 30.81444 28.67559
#
# Velocity S-wave (km/s) = 3.70700 3.99462 3.85349
# Velocity P-wave (km/s) = 7.61071 7.90268 7.75807
#
# Compressibility (1/GPa) = 0.01307665
#
# Stress axis : x y z
#
# Youngs Moduli (GPa) = 68.94382 77.36559 76.48866
#
# Poissons Ratio (x) = 0.24276 0.55316
# Poissons Ratio (y) = 0.21633 0.25578
# Poissons Ratio (z) = 0.49859 0.25871
#
# Static dielectric constant tensor:
#      x y z
#    x 3.672570 0.000000 0.000000 
#    y 0.000000 3.668150 0.000000 
#    z 0.000000 0.000000 3.995990 
# 
# 
# High freq. dielectric constant tensor:
#      x y z
#    x 1.752860 0.000000 0.000000 
#    y 0.000000 1.766810 0.000000 
#    z 0.000000 0.000000 1.770340 
# 
# From -- ./inp_files/17594.got.cif
#   From: 2010.03.12/outbox.cif.g09.slc.cpg/sg39_9_cif.got.tgz:17594.got - 2010.04.14 02:53:20.
