data_PCOD8181397
_publ_section_title
;
Structure prediction by ZEFSAII (Michael W. Deem and Ramdas Pophale) SiO2 
 PCOD8181397
Probable space group: A B M 2
;
_chemical_formula_sum "Si O2"
_cell_formula_units_Z 64
_cell_length_a 14.484932
_cell_length_b 9.155697
_cell_length_c 24.490655
_cell_angle_alpha 90.000000
_cell_angle_beta 90.000000
_cell_angle_gamma 90.000000
_cell_volume 3247.942057
_symmetry_space_group_name_H-M "A B M 2"
_symmetry_group_IT_number 39
_symmetry_cell_setting 'orthorhombic'
loop_
_space_group_symop_operation_xyz
x,y,z
-x,-y,z
-x,1/2+y,z
x,1/2-y,z
x,1/2+y,1/2+z
-x,1/2-y,1/2+z
-x,y,1/2+z
x,-y,1/2+z
loop_
_atom_site_type_symbol
_atom_site_label
_atom_site_fract_x
_atom_site_fract_y
_atom_site_fract_z
Si Si1 0.900768 0.076438 0.572730
Si Si2 0.587676 0.413893 0.197893
Si Si3 0.089313 0.915807 0.885846
Si Si4 0.793882 0.076017 0.170061
Si Si5 0.822915 0.916294 0.275816
Si Si6 0.587989 0.582509 0.934783
Si Si7 0.212344 0.419168 0.964723
Si Si8 0.347954 0.084005 0.815853
O O1 0.912931 0.250000 0.581420
O O2 0.843538 0.038551 0.518636
O O3 0.841120 0.007571 0.620825
O O4 0.000000 0.000000 0.569460
O O5 0.500000 0.500000 0.173527
O O6 0.574723 0.250000 0.177568
O O7 0.686054 0.471320 0.174480
O O8 0.584686 0.424464 0.263659
O O9 0.081697 0.750000 0.906064
O O10 0.095131 0.925202 0.820122
O O11 0.177960 0.988320 0.913437
O O12 0.000000 0.000000 0.907287
O O13 0.805880 0.250000 0.164606
O O14 0.845403 0.022156 0.225062
O O15 0.809648 0.750000 0.255128
O O16 0.732189 0.967497 0.307446
O O17 0.500000 0.500000 0.959628
O O18 0.563688 0.750000 0.940617
O O19 0.678944 0.543315 0.970396
O O20 0.599783 0.540005 0.871068
O O21 0.199576 0.250000 0.949899
O O22 0.307820 0.250000 0.820536
#
# Coordination Sequence:
#
# PCOD8181397 Si02
#       8
#     8   8   8   8   8   8   8   8
#     4  11  24  43  67  91 113 147 196 248 302 357
#     4   9  18  31  51  82 116 155 197 236 285 339
#     4  11  23  36  56  86 118 154 194 236 292 356
#     4  10  22  40  61  86 118 155 196 245 298 350
#     4  10  20  34  54  84 119 155 195 240 291 349
#     4  10  20  34  55  84 119 159 200 242 290 346
#     4  10  22  41  63  86 118 155 195 245 296 348
#     4   9  17  31  51  77 115 160 200 240 286 339
#
# _framework density 19.704785000000001
#
# number of rings (size 3 to 8) (size 9 to 14) (size 15 to 20)
#    0.000    2.000    1.250    3.000    0.000    7.500 
#    0.000    1.875    0.000    3.000    0.000    0.000 
#    0.000    0.000    0.000    0.000    0.000    0.000 
#
# Total GULP energy -396730.646693 kJ/mol
# GULP energy per Si atom -12397.832709 kJ/mol
# Density = 1.965994 g / cm^3
# Si number density = 19.704785 Si / 1000 Ang^3
#
#
#
# Elastic Constant Matrix: (Units=GPa)
#
#
# Indices 1 2 3 4 5 6 
#
# 1 121.6775 59.7266 55.9677 0.0000 0.0000 0.0000
# 2 59.7266 95.1019 48.1590 0.0000 0.0000 0.0000
# 3 55.9677 48.1590 93.5944 0.0000 0.0000 0.0000
# 4 0.0000 0.0000 0.0000 23.3028 0.0000 0.0000
# 5 0.0000 0.0000 0.0000 0.0000 23.2151 0.0000
# 6 0.0000 0.0000 0.0000 0.0000 0.0000 37.8550
#
#
#
# Elastic Compliance Matrix: (Units=1/GPa)
#
#
# Indices 1 2 3 4 5 6 
#
# 1 0.013404 -0.005895 -0.004982 0.000000 0.000000 0.000000
# 2 -0.005895 0.016813 -0.005126 0.000000 0.000000 0.000000
# 3 -0.004982 -0.005126 0.016301 0.000000 0.000000 0.000000
# 4 0.000000 0.000000 0.000000 0.042913 0.000000 0.000000
# 5 0.000000 0.000000 0.000000 0.000000 0.043075 0.000000
# 6 0.000000 0.000000 0.000000 0.000000 0.000000 0.026417
#
#
# Mechanical properties :
#
#
# Convention : Reuss Voigt Hill
#
# Bulk Modulus (GPa) = 68.90891 70.89783 69.90337
# Shear Modulus (GPa) = 25.54071 26.64262 26.09166
#
# Velocity S-wave (km/s) = 3.60414 3.68106 3.64280
# Velocity P-wave (km/s) = 7.23646 7.35698 7.29697
#
# Compressibility (1/GPa) = 0.01451191
#
# Stress axis : x y z
#
# Youngs Moduli (GPa) = 74.60712 59.47751 61.34592
#
# Poissons Ratio (x) = 0.35062 0.30561
# Poissons Ratio (y) = 0.43981 0.31446
# Poissons Ratio (z) = 0.37168 0.30488
#
# Static dielectric constant tensor:
#      x y z
#    x 3.525870 0.000000 0.000000 
#    y 0.000000 3.619980 0.000000 
#    z 0.000000 0.000000 3.492800 
# 
# 
# High freq. dielectric constant tensor:
#      x y z
#    x 1.765900 0.000000 0.000000 
#    y 0.000000 1.773010 0.000000 
#    z 0.000000 0.000000 1.749970 
# 
# From -- ./inp_files/16271.got.cif
#   From: 2010.03.12/outbox.cif.g09.slc.cpg/sg39_9_cif.got.tgz:16271.got - 2010.04.14 02:53:20.
