data_PCOD8181178
_publ_section_title
;
Structure prediction by ZEFSAII (Michael W. Deem and Ramdas Pophale) SiO2 
 PCOD8181178
Probable space group: A B M 2
;
_chemical_formula_sum "Si O2"
_cell_formula_units_Z 64
_cell_length_a 10.932574
_cell_length_b 17.890256
_cell_length_c 16.790010
_cell_angle_alpha 90.000000
_cell_angle_beta 90.000000
_cell_angle_gamma 90.000000
_cell_volume 3283.900090
_symmetry_space_group_name_H-M "A B M 2"
_symmetry_group_IT_number 39
_symmetry_cell_setting 'orthorhombic'
loop_
_space_group_symop_operation_xyz
x,y,z
-x,-y,z
-x,1/2+y,z
x,1/2-y,z
x,1/2+y,1/2+z
-x,1/2-y,1/2+z
-x,y,1/2+z
x,-y,1/2+z
loop_
_atom_site_type_symbol
_atom_site_label
_atom_site_fract_x
_atom_site_fract_y
_atom_site_fract_z
Si Si1 0.662931 0.434580 0.496010
Si Si2 0.125785 0.046242 0.767990
Si Si3 0.557231 0.335314 0.051948
Si Si4 0.627126 0.981189 0.337640
Si Si5 0.681220 0.171244 0.881617
Si Si6 0.846322 0.164765 0.397879
Si Si7 0.228641 0.565170 0.096163
Si Si8 0.902213 0.167498 0.978291
O O1 0.562733 0.387028 0.544505
O O2 0.613380 0.493183 0.430005
O O3 0.738294 0.374574 0.445468
O O4 0.735555 0.483300 0.561842
O O5 0.247614 0.006370 0.799272
O O6 0.117237 0.124205 0.815443
O O7 0.149728 0.058409 0.675690
O O8 0.000000 0.000000 0.782205
O O9 0.529692 0.250000 0.084024
O O10 0.652957 0.380773 0.108416
O O11 0.618890 0.328099 0.967143
O O12 0.500000 0.000000 0.291757
O O13 0.624462 0.892126 0.327859
O O14 0.658046 0.250000 0.837365
O O15 0.825648 0.157683 0.896252
O O16 0.809305 0.250000 0.377303
O O17 0.956818 0.161099 0.459051
O O18 0.130747 0.601645 0.037478
O O19 0.872771 0.250000 0.014860
#
# Coordination Sequence:
#
# PCOD8181178 Si02
#       8
#     8   8   8   8   8   8   8   8
#     4  11  20  34  62  92 125 157 205 264 314 364
#     4  11  27  41  60  90 126 167 207 252 322 381
#     4  10  19  34  59  92 122 153 204 257 306 364
#     4  11  19  37  59  89 121 158 204 256 305 365
#     4   9  16  29  55  86 114 146 193 249 301 351
#     4  10  23  40  62  89 122 162 208 263 315 371
#     4  11  22  37  61  88 124 164 204 254 313 382
#     4   9  18  34  59  88 114 156 209 257 305 363
#
# _framework density 19.489021000000001
#
# number of rings (size 3 to 8) (size 9 to 14) (size 15 to 20)
#    0.000    1.750    3.750    2.625    3.500    2.000 
#    0.000    0.000    0.000    3.000    0.000    0.000 
#    0.000    0.000    0.000    0.000    0.000    0.000 
#
# Total GULP energy -396439.701346 kJ/mol
# GULP energy per Si atom -12388.740667 kJ/mol
# Density = 1.944466 g / cm^3
# Si number density = 19.489021 Si / 1000 Ang^3
#
#
#
# Elastic Constant Matrix: (Units=GPa)
#
#
# Indices 1 2 3 4 5 6 
#
# 1 100.2152 45.3227 26.4508 0.0000 0.0000 0.0000
# 2 45.3227 154.6184 39.8739 0.0000 0.0000 0.0000
# 3 26.4508 39.8739 48.5517 0.0000 0.0000 0.0000
# 4 0.0000 0.0000 0.0000 20.7339 0.0000 0.0000
# 5 0.0000 0.0000 0.0000 0.0000 19.7287 0.0000
# 6 0.0000 0.0000 0.0000 0.0000 0.0000 31.4473
#
#
#
# Elastic Compliance Matrix: (Units=1/GPa)
#
#
# Indices 1 2 3 4 5 6 
#
# 1 0.012310 -0.002384 -0.004749 0.000000 0.000000 0.000000
# 2 -0.002384 0.008667 -0.005819 0.000000 0.000000 0.000000
# 3 -0.004749 -0.005819 0.027963 0.000000 0.000000 0.000000
# 4 0.000000 0.000000 0.000000 0.048230 0.000000 0.000000
# 5 0.000000 0.000000 0.000000 0.000000 0.050688 0.000000
# 6 0.000000 0.000000 0.000000 0.000000 0.000000 0.031799
#
#
# Mechanical properties :
#
#
# Convention : Reuss Voigt Hill
#
# Bulk Modulus (GPa) = 43.40964 58.51999 50.96482
# Shear Modulus (GPa) = 23.44784 27.16448 25.30616
#
# Velocity S-wave (km/s) = 3.47238 3.73746 3.60736
# Velocity P-wave (km/s) = 6.19668 6.97977 6.59985
#
# Compressibility (1/GPa) = 0.02303636
#
# Stress axis : x y z
#
# Youngs Moduli (GPa) = 81.23501 115.38053 35.76170
#
# Poissons Ratio (x) = 0.27504 0.16982
# Poissons Ratio (y) = 0.19364 0.20811
# Poissons Ratio (z) = 0.38576 0.67143
#
# Static dielectric constant tensor:
#      x y z
#    x 3.814070 0.000000 0.000000 
#    y 0.000000 3.730300 0.000000 
#    z 0.000000 0.000000 3.129580 
# 
# 
# High freq. dielectric constant tensor:
#      x y z
#    x 1.772690 0.000000 0.000000 
#    y 0.000000 1.779610 0.000000 
#    z 0.000000 0.000000 1.705730 
# 
# From -- ./inp_files/12424.got.cif
#   From: 2010.03.12/outbox.cif.g09.slc.cpg/sg39_7_cif.got.tgz:12424.got - 2010.04.14 02:53:20.
