data_PCOD8181191
_publ_section_title
;
Structure prediction by ZEFSAII (Michael W. Deem and Ramdas Pophale) SiO2 
 PCOD8181191
Probable space group: A B M 2
;
_chemical_formula_sum "Si O2"
_cell_formula_units_Z 64
_cell_length_a 19.218421
_cell_length_b 8.730216
_cell_length_c 20.697645
_cell_angle_alpha 90.000000
_cell_angle_beta 90.000000
_cell_angle_gamma 90.000000
_cell_volume 3472.670883
_symmetry_space_group_name_H-M "A B M 2"
_symmetry_group_IT_number 39
_symmetry_cell_setting 'orthorhombic'
loop_
_space_group_symop_operation_xyz
x,y,z
-x,-y,z
-x,1/2+y,z
x,1/2-y,z
x,1/2+y,1/2+z
-x,1/2-y,1/2+z
-x,y,1/2+z
x,-y,1/2+z
loop_
_atom_site_type_symbol
_atom_site_label
_atom_site_fract_x
_atom_site_fract_y
_atom_site_fract_z
Si Si1 0.217506 0.071711 0.061190
Si Si2 0.928116 0.930822 0.368205
Si Si3 0.703014 0.428950 0.432343
Si Si4 0.202389 0.430321 0.810914
Si Si5 0.071700 0.430482 0.007634
Si Si6 0.571394 0.569205 0.379818
Si Si7 0.571877 0.568278 0.739507
Si Si8 0.716200 0.569694 0.686463
O O1 0.228085 0.250000 0.073549
O O2 0.135413 0.031401 0.055770
O O3 0.251530 0.983116 0.119820
O O4 0.255813 0.019896 0.995998
O O5 0.934187 0.750000 0.373651
O O6 0.869506 0.978718 0.317287
O O7 0.910466 0.998752 0.438352
O O8 0.000000 0.000000 0.341907
O O9 0.684870 0.250000 0.432949
O O10 0.749121 0.472708 0.370957
O O11 0.632018 0.525389 0.429761
O O12 0.187005 0.250000 0.808496
O O13 0.238778 0.494041 0.746249
O O14 0.062968 0.250000 0.998132
O O15 0.000000 0.500000 0.036272
O O16 0.500000 0.500000 0.407967
O O17 0.564561 0.750000 0.372385
O O18 0.587627 0.495317 0.310500
O O19 0.500000 0.500000 0.711158
O O20 0.565273 0.750000 0.744417
O O21 0.635618 0.516874 0.693281
O O22 0.718959 0.750000 0.689914
#
# Coordination Sequence:
#
# PCOD8181191 Si02
#       8
#     8   8   8   8   8   8   8   8
#     4  10  22  38  58  82 114 151 186 230 280 332
#     4  11  21  33  54  85 115 146 186 235 283 333
#     4  10  19  37  59  80 112 148 185 229 280 330
#     4  10  19  37  59  80 112 148 185 229 280 330
#     4  10  19  35  56  82 111 147 186 228 280 333
#     4  11  21  33  54  85 115 146 186 235 283 333
#     4  10  19  35  56  82 111 147 186 228 280 333
#     4  10  22  38  58  82 114 151 186 230 280 332
#
# _framework density 18.429618000000001
#
# number of rings (size 3 to 8) (size 9 to 14) (size 15 to 20)
#    0.000    1.750    2.500    4.500    0.000    3.500 
#    0.000    1.250    0.000    3.000    0.000    0.000 
#    0.000    0.000    0.000    0.000    0.000    0.000 
#
# Total GULP energy -396842.466561 kJ/mol
# GULP energy per Si atom -12401.327080 kJ/mol
# Density = 1.838767 g / cm^3
# Si number density = 18.429618 Si / 1000 Ang^3
#
#
#
# Elastic Constant Matrix: (Units=GPa)
#
#
# Indices 1 2 3 4 5 6 
#
# 1 155.2166 52.0734 47.7811 0.0000 0.0000 0.0000
# 2 52.0734 82.8366 18.7398 0.0000 0.0000 0.0000
# 3 47.7811 18.7398 73.6722 0.0000 0.0000 0.0000
# 4 0.0000 0.0000 0.0000 27.5763 0.0000 0.0000
# 5 0.0000 0.0000 0.0000 0.0000 30.0770 0.0000
# 6 0.0000 0.0000 0.0000 0.0000 0.0000 35.1467
#
#
#
# Elastic Compliance Matrix: (Units=1/GPa)
#
#
# Indices 1 2 3 4 5 6 
#
# 1 0.009632 -0.004925 -0.004994 0.000000 0.000000 0.000000
# 2 -0.004925 0.015328 -0.000704 0.000000 0.000000 0.000000
# 3 -0.004994 -0.000704 0.016992 0.000000 0.000000 0.000000
# 4 0.000000 0.000000 0.000000 0.036263 0.000000 0.000000
# 5 0.000000 0.000000 0.000000 0.000000 0.033248 0.000000
# 6 0.000000 0.000000 0.000000 0.000000 0.000000 0.028452
#
#
# Mechanical properties :
#
#
# Convention : Reuss Voigt Hill
#
# Bulk Modulus (GPa) = 48.30069 60.99045 54.64557
# Shear Modulus (GPa) = 29.75045 31.43543 30.59294
#
# Velocity S-wave (km/s) = 4.02216 4.13449 4.07871
# Velocity P-wave (km/s) = 6.91632 7.48048 7.20393
#
# Compressibility (1/GPa) = 0.02070364
#
# Stress axis : x y z
#
# Youngs Moduli (GPa) = 103.81554 65.24206 58.85118
#
# Poissons Ratio (x) = 0.32134 0.29393
# Poissons Ratio (y) = 0.51133 0.04145
# Poissons Ratio (z) = 0.51850 0.04596
#
# Static dielectric constant tensor:
#      x y z
#    x 3.757320 0.000000 0.000000 
#    y 0.000000 3.329840 0.000000 
#    z 0.000000 0.000000 3.170490 
# 
# 
# High freq. dielectric constant tensor:
#      x y z
#    x 1.735250 0.000000 0.000000 
#    y 0.000000 1.716590 0.000000 
#    z 0.000000 0.000000 1.682000 
# 
# From -- ./inp_files/14987.got.cif
#   From: 2010.03.12/outbox.cif.g09.slc.cpg/sg39_8_cif.got.tgz:14987.got - 2010.04.14 02:53:20.
