data_PCOD8181129
_publ_section_title
;
Structure prediction by ZEFSAII (Michael W. Deem and Ramdas Pophale) SiO2 
 PCOD8181129
Probable space group: A B M 2
;
_chemical_formula_sum "Si O2"
_cell_formula_units_Z 48
_cell_length_a 15.217167
_cell_length_b 15.375198
_cell_length_c 8.923601
_cell_angle_alpha 90.000000
_cell_angle_beta 90.000000
_cell_angle_gamma 90.000000
_cell_volume 2087.827759
_symmetry_space_group_name_H-M "A B M 2"
_symmetry_group_IT_number 39
_symmetry_cell_setting 'orthorhombic'
loop_
_space_group_symop_operation_xyz
x,y,z
-x,-y,z
-x,1/2+y,z
x,1/2-y,z
x,1/2+y,1/2+z
-x,1/2-y,1/2+z
-x,y,1/2+z
x,-y,1/2+z
loop_
_atom_site_type_symbol
_atom_site_label
_atom_site_fract_x
_atom_site_fract_y
_atom_site_fract_z
Si Si1 0.245135 0.353495 0.592680
Si Si2 0.724830 0.853689 0.930669
Si Si3 0.405708 0.346718 0.401114
Si Si4 0.073438 0.646143 0.927504
Si Si5 0.098117 0.853351 0.592609
Si Si6 0.551353 0.911820 0.083176
O O1 0.247311 0.250000 0.591043
O O2 0.261922 0.385928 0.760850
O O3 0.321412 0.389353 0.483214
O O4 0.151499 0.388499 0.534473
O O5 0.709515 0.750000 0.942091
O O6 0.809627 0.883876 0.024553
O O7 0.643326 0.906345 0.997077
O O8 0.382004 0.250000 0.343110
O O9 0.433260 0.404321 0.259784
O O10 0.485991 0.338094 0.519028
O O11 0.073367 0.750000 0.925825
O O12 0.088223 0.609755 0.760442
O O13 0.981382 0.609850 0.990952
O O14 0.093149 0.750000 0.593560
O O15 0.500000 0.000000 0.044940
#
# Coordination Sequence:
#
# PCOD8181129 Si02
#       6
#     8   8   8   8   8   8
#     4   9  18  31  52  80 112 149 196 248 301 355
#     4  10  19  34  55  81 112 155 204 250 299 362
#     4  11  22  39  61  84 111 152 199 246 296 358
#     4   9  15  25  41  72 114 153 192 244 302 354
#     4   9  16  25  44  73 112 156 198 244 299 355
#     4  12  25  40  58  84 117 151 193 248 307 360
#
# _framework density 22.990402
#
# number of rings (size 3 to 8) (size 9 to 14) (size 15 to 20)
#    0.000    2.000    0.000    5.000    0.000    8.000 
#    0.000    0.833    0.000    0.000    0.000    1.167 
#    0.000    8.000    0.000    0.833    0.000    0.500 
#
# Total GULP energy -297629.759044 kJ/mol
# GULP energy per Si atom -12401.239960 kJ/mol
# Density = 2.293807 g / cm^3
# Si number density = 22.990402 Si / 1000 Ang^3
#
#
#
# Elastic Constant Matrix: (Units=GPa)
#
#
# Indices 1 2 3 4 5 6 
#
# 1 223.5312 30.1599 93.8250 0.0000 0.0000 0.0000
# 2 30.1599 30.4303 30.3551 0.0000 0.0000 0.0000
# 3 93.8250 30.3551 177.8249 0.0000 0.0000 0.0000
# 4 0.0000 0.0000 0.0000 16.0580 0.0000 0.0000
# 5 0.0000 0.0000 0.0000 0.0000 56.8394 0.0000
# 6 0.0000 0.0000 0.0000 0.0000 0.0000 16.1376
#
#
#
# Elastic Compliance Matrix: (Units=1/GPa)
#
#
# Indices 1 2 3 4 5 6 
#
# 1 0.006020 -0.003372 -0.002601 0.000000 0.000000 0.000000
# 2 -0.003372 0.041495 -0.005304 0.000000 0.000000 0.000000
# 3 -0.002601 -0.005304 0.007901 0.000000 0.000000 0.000000
# 4 0.000000 0.000000 0.000000 0.062274 0.000000 0.000000
# 5 0.000000 0.000000 0.000000 0.000000 0.017593 0.000000
# 6 0.000000 0.000000 0.000000 0.000000 0.000000 0.061967
#
#
# Mechanical properties :
#
#
# Convention : Reuss Voigt Hill
#
# Bulk Modulus (GPa) = 30.42990 82.27404 56.35197
# Shear Modulus (GPa) = 21.66751 36.30342 28.98547
#
# Velocity S-wave (km/s) = 3.07328 3.97806 3.55458
# Velocity P-wave (km/s) = 5.08508 7.54744 6.43514
#
# Compressibility (1/GPa) = 0.03286241
#
# Stress axis : x y z
#
# Youngs Moduli (GPa) = 166.10369 24.09910 126.56387
#
# Poissons Ratio (x) = 0.08127 0.32917
# Poissons Ratio (y) = 0.56018 0.67129
# Poissons Ratio (z) = 0.43200 0.12782
#
# Static dielectric constant tensor:
#      x y z
#    x 4.377440 0.000000 0.000000 
#    y 0.000000 3.454550 0.000000 
#    z 0.000000 0.000000 4.262400 
# 
# 
# High freq. dielectric constant tensor:
#      x y z
#    x 1.925180 0.000000 0.000000 
#    y 0.000000 1.858440 0.000000 
#    z 0.000000 0.000000 1.920730 
# 
# From -- ./inp_files/3241.got.cif
#   From: 2010.03.12/outbox.cif.g09.slc.cpg/sg39_2_cif.got.tgz:3241.got - 2010.04.14 02:53:20.
