data_PCOD8181322
_publ_section_title
;
Structure prediction by ZEFSAII (Michael W. Deem and Ramdas Pophale) SiO2 
 PCOD8181322
Probable space group: A B M 2
;
_chemical_formula_sum "Si O2"
_cell_formula_units_Z 64
_cell_length_a 20.779292
_cell_length_b 9.025761
_cell_length_c 18.538664
_cell_angle_alpha 90.000000
_cell_angle_beta 90.000000
_cell_angle_gamma 90.000000
_cell_volume 3476.906473
_symmetry_space_group_name_H-M "A B M 2"
_symmetry_group_IT_number 39
_symmetry_cell_setting 'orthorhombic'
loop_
_space_group_symop_operation_xyz
x,y,z
-x,-y,z
-x,1/2+y,z
x,1/2-y,z
x,1/2+y,1/2+z
-x,1/2-y,1/2+z
-x,y,1/2+z
x,-y,1/2+z
loop_
_atom_site_type_symbol
_atom_site_label
_atom_site_fract_x
_atom_site_fract_y
_atom_site_fract_z
Si Si1 0.564850 0.424305 0.208840
Si Si2 0.940508 0.077969 0.703328
Si Si3 0.059044 0.921102 0.049805
Si Si4 0.564086 0.423322 0.044395
Si Si5 0.799499 0.421122 0.054114
Si Si6 0.311346 0.925565 0.297109
Si Si7 0.685221 0.075999 0.949765
Si Si8 0.202713 0.922008 0.706312
O O1 0.500000 0.500000 0.238656
O O2 0.555672 0.250000 0.215845
O O3 0.577970 0.473308 0.126452
O O4 0.624994 0.480717 0.255494
O O5 0.956441 0.250000 0.693350
O O6 0.869875 0.056396 0.738170
O O7 0.937755 0.996339 0.627309
O O8 0.000000 0.000000 0.747636
O O9 0.041576 0.750000 0.056959
O O10 0.130253 0.943839 0.016342
O O11 0.000000 0.000000 0.005618
O O12 0.500000 0.500000 0.013909
O O13 0.552756 0.250000 0.040231
O O14 0.623662 0.473023 0.995946
O O15 0.789776 0.250000 0.077285
O O16 0.790249 0.518825 0.125152
O O17 0.748088 0.469086 0.994757
O O18 0.305956 0.750000 0.295477
O O19 0.315301 0.981384 0.378035
O O20 0.248638 0.991002 0.259700
O O21 0.684634 0.250000 0.931467
O O22 0.221583 0.750000 0.705493
#
# Coordination Sequence:
#
# PCOD8181322 Si02
#       8
#     8   8   8   8   8   8   8   8
#     4   9  19  36  57  80 104 132 168 209 254 304
#     4   9  16  26  43  70 101 130 163 206 254 303
#     4   9  15  24  42  69  99 129 161 202 253 303
#     4   9  18  34  56  78 101 130 163 204 252 302
#     4   9  18  33  53  75 101 135 172 212 258 306
#     4  11  23  37  53  75 105 139 176 216 257 304
#     4  10  21  37  54  73 102 138 174 212 256 303
#     4  10  20  33  52  78 105 135 173 215 258 307
#
# _framework density 18.407167000000001
#
# number of rings (size 3 to 8) (size 9 to 14) (size 15 to 20)
#    0.000    2.500    0.000    3.000    0.000    6.500 
#    0.000    5.000    0.000    0.750    0.000    1.750 
#    0.000    0.000    0.000    0.000    0.000    0.000 
#
# Total GULP energy -396636.945138 kJ/mol
# GULP energy per Si atom -12394.904536 kJ/mol
# Density = 1.836527 g / cm^3
# Si number density = 18.407167 Si / 1000 Ang^3
#
#
#
# Elastic Constant Matrix: (Units=GPa)
#
#
# Indices 1 2 3 4 5 6 
#
# 1 188.0425 70.0609 71.1951 0.0000 0.0000 0.0000
# 2 70.0609 86.3426 40.9843 0.0000 0.0000 0.0000
# 3 71.1951 40.9843 78.6975 0.0000 0.0000 0.0000
# 4 0.0000 0.0000 0.0000 28.5427 0.0000 0.0000
# 5 0.0000 0.0000 0.0000 0.0000 1.6954 0.0000
# 6 0.0000 0.0000 0.0000 0.0000 0.0000 33.4494
#
#
#
# Elastic Compliance Matrix: (Units=1/GPa)
#
#
# Indices 1 2 3 4 5 6 
#
# 1 0.009355 -0.004747 -0.005991 0.000000 0.000000 0.000000
# 2 -0.004747 0.017794 -0.004972 0.000000 0.000000 0.000000
# 3 -0.005991 -0.004972 0.020716 0.000000 0.000000 0.000000
# 4 0.000000 0.000000 0.000000 0.035035 0.000000 0.000000
# 5 0.000000 0.000000 0.000000 0.000000 0.589819 0.000000
# 6 0.000000 0.000000 0.000000 0.000000 0.000000 0.029896
#
#
# Mechanical properties :
#
#
# Convention : Reuss Voigt Hill
#
# Bulk Modulus (GPa) = 60.81058 79.72924 70.26991
# Shear Modulus (GPa) = 6.76118 24.12700 15.44409
#
# Velocity S-wave (km/s) = 1.91862 3.62434 2.89974
# Velocity P-wave (km/s) = 6.16573 7.80530 7.03345
#
# Compressibility (1/GPa) = 0.01644451
#
# Stress axis : x y z
#
# Youngs Moduli (GPa) = 106.89692 56.19924 48.27192
#
# Poissons Ratio (x) = 0.26678 0.28919
# Poissons Ratio (y) = 0.50745 0.24002
# Poissons Ratio (z) = 0.64040 0.27943
#
# Static dielectric constant tensor:
#      x y z
#    x 4.318520 0.000000 0.000000 
#    y 0.000000 3.417880 0.000000 
#    z 0.000000 0.000000 3.028620 
# 
# 
# High freq. dielectric constant tensor:
#      x y z
#    x 1.742160 0.000000 0.000000 
#    y 0.000000 1.718830 0.000000 
#    z 0.000000 0.000000 1.667860 
# 
# From -- ./inp_files/13111.got.cif
#   From: 2010.03.12/outbox.cif.g09.slc.cpg/sg39_7_cif.got.tgz:13111.got - 2010.04.14 02:53:20.
