data_PCOD8181413
_publ_section_title
;
Structure prediction by ZEFSAII (Michael W. Deem and Ramdas Pophale) SiO2 
 PCOD8181413
Probable space group: A B M 2
;
_chemical_formula_sum "Si O2"
_cell_formula_units_Z 40
_cell_length_a 16.497051
_cell_length_b 24.565978
_cell_length_c 4.858139
_cell_angle_alpha 90.000000
_cell_angle_beta 90.000000
_cell_angle_gamma 90.000000
_cell_volume 1968.839492
_symmetry_space_group_name_H-M "A B M 2"
_symmetry_group_IT_number 39
_symmetry_cell_setting 'orthorhombic'
loop_
_space_group_symop_operation_xyz
x,y,z
-x,-y,z
-x,1/2+y,z
x,1/2-y,z
x,1/2+y,1/2+z
-x,1/2-y,1/2+z
-x,y,1/2+z
x,-y,1/2+z
loop_
_atom_site_type_symbol
_atom_site_label
_atom_site_fract_x
_atom_site_fract_y
_atom_site_fract_z
Si Si1 0.312978 0.037277 0.056100
Si Si2 0.554985 0.621276 0.962819
Si Si3 0.304618 0.311688 0.702691
Si Si4 0.945624 0.187590 0.715617
Si Si5 0.777704 0.858149 0.179548
O O1 0.242460 0.083090 0.044854
O O2 0.303189 0.014659 0.362876
O O3 0.398755 0.063484 0.964552
O O4 0.474961 0.626226 0.776532
O O5 0.615392 0.668373 0.863668
O O6 0.316550 0.250000 0.604082
O O7 0.284312 0.347525 0.432569
O O8 0.233188 0.314916 0.930137
O O9 0.916490 0.250000 0.753362
O O10 0.870225 0.147634 0.779699
O O11 0.979206 0.175035 0.414116
#
# Coordination Sequence:
#
# PCOD8181413 Si02
#       5
#     8   8   8   8   8
#     4  11  23  40  61  83 109 151 200 247 298 341
#     4  11  23  38  56  84 115 145 191 244 294 348
#     4  11  22  37  59  85 118 161 197 233 291 361
#     4  10  20  34  57  89 121 153 188 233 293 352
#     4  11  22  39  60  86 120 155 200 246 288 355
#
# _framework density 20.316538000000001
#
# number of rings (size 3 to 8) (size 9 to 14) (size 15 to 20)
#    0.000    1.200    0.000    9.000    0.000    4.800 
#    0.000    0.000    0.000    3.600    0.000    0.000 
#    0.000    0.000    0.000    0.000    0.000    0.000 
#
# Total GULP energy -247934.944284 kJ/mol
# GULP energy per Si atom -12396.747214 kJ/mol
# Density = 2.027030 g / cm^3
# Si number density = 20.316538 Si / 1000 Ang^3
#
#
#
# Elastic Constant Matrix: (Units=GPa)
#
#
# Indices 1 2 3 4 5 6 
#
# 1 101.6338 36.7433 11.1859 0.0000 0.0000 0.0000
# 2 36.7433 86.9661 16.1514 0.0000 0.0000 0.0000
# 3 11.1859 16.1514 79.6357 0.0000 0.0000 0.0000
# 4 0.0000 0.0000 0.0000 32.8850 0.0000 0.0000
# 5 0.0000 0.0000 0.0000 0.0000 31.1057 0.0000
# 6 0.0000 0.0000 0.0000 0.0000 0.0000 26.3974
#
#
#
# Elastic Compliance Matrix: (Units=1/GPa)
#
#
# Indices 1 2 3 4 5 6 
#
# 1 0.011647 -0.004798 -0.000663 0.000000 0.000000 0.000000
# 2 -0.004798 0.013925 -0.002150 0.000000 0.000000 0.000000
# 3 -0.000663 -0.002150 0.013086 0.000000 0.000000 0.000000
# 4 0.000000 0.000000 0.000000 0.030409 0.000000 0.000000
# 5 0.000000 0.000000 0.000000 0.000000 0.032148 0.000000
# 6 0.000000 0.000000 0.000000 0.000000 0.000000 0.037883
#
#
# Mechanical properties :
#
#
# Convention : Reuss Voigt Hill
#
# Bulk Modulus (GPa) = 42.66856 44.04409 43.35632
# Shear Modulus (GPa) = 30.83906 31.68795 31.26351
#
# Velocity S-wave (km/s) = 3.90029 3.95360 3.92704
# Velocity P-wave (km/s) = 6.42888 6.52436 6.47680
#
# Compressibility (1/GPa) = 0.02343646
#
# Stress axis : x y z
#
# Youngs Moduli (GPa) = 85.86148 71.81286 76.41514
#
# Poissons Ratio (x) = 0.34453 0.05066
# Poissons Ratio (y) = 0.41193 0.16432
# Poissons Ratio (z) = 0.05692 0.15442
#
# Static dielectric constant tensor:
#      x y z
#    x 3.529930 0.000000 0.000000 
#    y 0.000000 3.401430 0.000000 
#    z 0.000000 0.000000 3.828830 
# 
# 
# High freq. dielectric constant tensor:
#      x y z
#    x 1.781760 0.000000 0.000000 
#    y 0.000000 1.772720 0.000000 
#    z 0.000000 0.000000 1.817380 
# 
# From -- ./inp_files/532.got.cif
#   From: 2010.03.12/outbox.cif.g09.slc.cpg/sg39_1_cif.got.tgz:532.got - 2010.04.14 02:53:20.
