data_PCOD8181148
_publ_section_title
;
Structure prediction by ZEFSAII (Michael W. Deem and Ramdas Pophale) SiO2 
 PCOD8181148
Probable space group: A B M 2
;
_chemical_formula_sum "Si O2"
_cell_formula_units_Z 56
_cell_length_a 23.835324
_cell_length_b 8.448528
_cell_length_c 14.434980
_cell_angle_alpha 90.000000
_cell_angle_beta 90.000000
_cell_angle_gamma 90.000000
_cell_volume 2906.821033
_symmetry_space_group_name_H-M "A B M 2"
_symmetry_group_IT_number 39
_symmetry_cell_setting 'orthorhombic'
loop_
_space_group_symop_operation_xyz
x,y,z
-x,-y,z
-x,1/2+y,z
x,1/2-y,z
x,1/2+y,1/2+z
-x,1/2-y,1/2+z
-x,y,1/2+z
x,-y,1/2+z
loop_
_atom_site_type_symbol
_atom_site_label
_atom_site_fract_x
_atom_site_fract_y
_atom_site_fract_z
Si Si1 0.862873 0.934483 0.437890
Si Si2 0.437760 0.563382 0.942759
Si Si3 0.060293 0.435183 0.088769
Si Si4 0.942120 0.934511 0.788408
Si Si5 0.647842 0.436618 0.299713
Si Si6 0.265725 0.063486 0.439423
Si Si7 0.350523 0.562703 0.091982
O O1 0.868450 0.750000 0.413674
O O2 0.798607 0.989053 0.443441
O O3 0.891232 0.970673 0.535866
O O4 0.891907 0.039465 0.359290
O O5 0.500000 0.500000 0.946119
O O6 0.438575 0.750000 0.939483
O O7 0.406712 0.504640 0.850540
O O8 0.404911 0.503049 0.034467
O O9 0.063894 0.250000 0.065927
O O10 0.070455 0.465861 0.196605
O O11 0.000000 0.500000 0.056465
O O12 0.948172 0.750000 0.763757
O O13 0.000000 0.000000 0.833005
O O14 0.642049 0.250000 0.296070
O O15 0.705197 0.482318 0.351329
O O16 0.649774 0.509331 0.195434
O O17 0.272905 0.250000 0.426754
O O18 0.295237 0.007709 0.535072
O O19 0.351255 0.750000 0.099357
#
# Coordination Sequence:
#
# PCOD8181148 Si02
#       7
#     8   8   8   8   8   8   8
#     4  11  22  37  57  82 112 147 185 227 278 332
#     4  10  20  36  55  79 112 144 179 221 267 317
#     4  11  22  38  58  82 111 143 182 227 279 339
#     4  11  22  38  58  81 110 144 183 228 279 334
#     4  10  19  34  57  82 108 141 181 221 266 318
#     4   9  20  38  56  77 108 143 179 222 269 316
#     4   8  17  35  56  77 105 142 178 216 263 314
#
# _framework density 19.265032000000001
#
# number of rings (size 3 to 8) (size 9 to 14) (size 15 to 20)
#    0.000    2.000    0.000    6.000    0.000    2.857 
#    0.000   10.000    0.000    0.000    0.000    0.000 
#    0.000    0.000    0.000    0.000    0.000    0.000 
#
# Total GULP energy -347241.614255 kJ/mol
# GULP energy per Si atom -12401.486223 kJ/mol
# Density = 1.922118 g / cm^3
# Si number density = 19.265032 Si / 1000 Ang^3
#
#
#
# Elastic Constant Matrix: (Units=GPa)
#
#
# Indices 1 2 3 4 5 6 
#
# 1 172.7857 30.7554 79.7488 0.0000 0.0000 0.0000
# 2 30.7554 62.0263 20.8974 0.0000 0.0000 0.0000
# 3 79.7488 20.8974 147.8013 0.0000 0.0000 0.0000
# 4 0.0000 0.0000 0.0000 29.2421 0.0000 0.0000
# 5 0.0000 0.0000 0.0000 0.0000 -32.3155 0.0000
# 6 0.0000 0.0000 0.0000 0.0000 0.0000 29.0632
#
#
#
# Elastic Compliance Matrix: (Units=1/GPa)
#
#
# Indices 1 2 3 4 5 6 
#
# 1 0.008108 -0.002674 -0.003997 0.000000 0.000000 0.000000
# 2 -0.002674 0.017810 -0.001075 0.000000 0.000000 0.000000
# 3 -0.003997 -0.001075 0.009074 0.000000 0.000000 0.000000
# 4 0.000000 0.000000 0.000000 0.034197 0.000000 0.000000
# 5 0.000000 0.000000 0.000000 0.000000 -0.030945 0.000000
# 6 0.000000 0.000000 0.000000 0.000000 0.000000 0.034408
#
#
# Mechanical properties :
#
#
# Convention : Reuss Voigt Hill
#
# Bulk Modulus (GPa) = 51.28026 71.71296 61.49661
# Shear Modulus (GPa) = 52.82859 21.94540 37.38699
#
# Velocity S-wave (km/s) = 5.24228 3.37876 4.41008
# Velocity P-wave (km/s) = 7.95727 7.24752 7.61068
#
# Compressibility (1/GPa) = 0.01950068
#
# Stress axis : x y z
#
# Youngs Moduli (GPa) = 123.33198 56.14722 110.19914
#
# Poissons Ratio (x) = 0.15013 0.44045
# Poissons Ratio (y) = 0.32977 0.11852
# Poissons Ratio (z) = 0.49294 0.06038
#
# Static dielectric constant tensor:
#      x y z
#    x 3.590110 0.000000 0.000000 
#    y 0.000000 3.411720 0.000000 
#    z 0.000000 0.000000 3.734720 
# 
# 
# High freq. dielectric constant tensor:
#      x y z
#    x 1.749910 0.000000 0.000000 
#    y 0.000000 1.746810 0.000000 
#    z 0.000000 0.000000 1.755670 
# 
# From -- ./inp_files/10344.got.cif
#   From: 2010.03.12/outbox.cif.g09.slc.cpg/sg39_6_cif.got.tgz:10344.got - 2010.04.14 02:53:20.
