data_PCOD8181860
_publ_section_title
;
Structure prediction by ZEFSAII (Michael W. Deem and Ramdas Pophale) SiO2 
 PCOD8181860
Probable space group: A B M 2
;
_chemical_formula_sum "Si O2"
_cell_formula_units_Z 64
_cell_length_a 15.455385
_cell_length_b 8.560996
_cell_length_c 23.871304
_cell_angle_alpha 90.000000
_cell_angle_beta 90.000000
_cell_angle_gamma 90.000000
_cell_volume 3158.495523
_symmetry_space_group_name_H-M "A B M 2"
_symmetry_group_IT_number 39
_symmetry_cell_setting 'orthorhombic'
loop_
_space_group_symop_operation_xyz
x,y,z
-x,-y,z
-x,1/2+y,z
x,1/2-y,z
x,1/2+y,1/2+z
-x,1/2-y,1/2+z
-x,y,1/2+z
x,-y,1/2+z
loop_
_atom_site_type_symbol
_atom_site_label
_atom_site_fract_x
_atom_site_fract_y
_atom_site_fract_z
Si Si1 0.091383 0.566513 0.623490
Si Si2 0.849773 0.432125 0.007767
Si Si3 0.088475 0.933708 0.393782
Si Si4 0.249620 0.564305 0.696352
Si Si5 0.411301 0.066508 0.394892
Si Si6 0.662237 0.933324 0.004663
Si Si7 0.591853 0.434044 0.624126
Si Si8 0.243198 0.566796 0.823884
O O1 0.087865 0.750000 0.629251
O O2 0.111232 0.524885 0.559674
O O3 0.165755 0.497322 0.663991
O O4 0.000000 0.500000 0.643683
O O5 0.862122 0.250000 0.018939
O O6 0.901876 0.480599 0.952962
O O7 0.749764 0.470032 0.998128
O O8 0.083055 0.750000 0.403188
O O9 0.167824 0.970798 0.353259
O O10 0.000000 0.000000 0.366344
O O11 0.250279 0.750000 0.692828
O O12 0.335259 0.497927 0.665922
O O13 0.248426 0.507543 0.760196
O O14 0.417833 0.250000 0.406316
O O15 0.334296 0.026513 0.352441
O O16 0.500000 0.000000 0.368143
O O17 0.399014 0.975823 0.453166
O O18 0.684510 0.750000 0.005559
O O19 0.614188 0.986660 0.061093
O O20 0.500000 0.500000 0.643103
O O21 0.588059 0.250000 0.628503
O O22 0.221949 0.750000 0.828320
#
# Coordination Sequence:
#
# PCOD8181860 Si02
#       8
#     8   8   8   8   8   8   8   8
#     4  11  22  40  63  90 123 161 202 248 303 362
#     4  12  23  38  62  93 126 159 199 246 304 368
#     4  12  25  42  65  92 125 161 202 250 304 366
#     4   9  20  41  64  85 120 164 204 250 306 359
#     4  11  23  38  60  90 125 163 207 252 307 365
#     4  11  21  37  62  90 124 160 200 247 309 371
#     4  10  21  38  60  89 121 160 201 245 300 359
#     4  10  22  42  65  89 120 162 209 257 306 359
#
# _framework density 20.262812
#
# number of rings (size 3 to 8) (size 9 to 14) (size 15 to 20)
#    0.000    1.250    2.500    4.125    0.000    3.500 
#    0.000    3.125    0.000    0.000    0.000    0.000 
#    0.000    0.000    0.000    0.000    0.000    0.000 
#
# Total GULP energy -396972.193330 kJ/mol
# GULP energy per Si atom -12405.381042 kJ/mol
# Density = 2.021669 g / cm^3
# Si number density = 20.262812 Si / 1000 Ang^3
#
#
#
# Elastic Constant Matrix: (Units=GPa)
#
#
# Indices 1 2 3 4 5 6 
#
# 1 168.8823 31.1109 60.2107 0.0000 0.0000 0.0000
# 2 31.1109 55.1085 17.7807 0.0000 0.0000 0.0000
# 3 60.2107 17.7807 136.7492 0.0000 0.0000 0.0000
# 4 0.0000 0.0000 0.0000 21.9871 0.0000 0.0000
# 5 0.0000 0.0000 0.0000 0.0000 19.1093 0.0000
# 6 0.0000 0.0000 0.0000 0.0000 0.0000 37.3113
#
#
#
# Elastic Compliance Matrix: (Units=1/GPa)
#
#
# Indices 1 2 3 4 5 6 
#
# 1 0.007570 -0.003338 -0.002899 0.000000 0.000000 0.000000
# 2 -0.003338 0.020413 -0.001184 0.000000 0.000000 0.000000
# 3 -0.002899 -0.001184 0.008743 0.000000 0.000000 0.000000
# 4 0.000000 0.000000 0.000000 0.045481 0.000000 0.000000
# 5 0.000000 0.000000 0.000000 0.000000 0.052331 0.000000
# 6 0.000000 0.000000 0.000000 0.000000 0.000000 0.026801
#
#
# Mechanical properties :
#
#
# Convention : Reuss Voigt Hill
#
# Bulk Modulus (GPa) = 45.69827 64.32718 55.01272
# Shear Modulus (GPa) = 27.25157 32.45740 29.85449
#
# Velocity S-wave (km/s) = 3.67127 4.00662 3.84261
# Velocity P-wave (km/s) = 6.36967 7.29516 6.84807
#
# Compressibility (1/GPa) = 0.02188267
#
# Stress axis : x y z
#
# Youngs Moduli (GPa) = 132.10463 48.98924 114.37654
#
# Poissons Ratio (x) = 0.16353 0.33157
# Poissons Ratio (y) = 0.44098 0.13546
# Poissons Ratio (z) = 0.38296 0.05802
#
# Static dielectric constant tensor:
#      x y z
#    x 3.986650 0.000000 0.000000 
#    y 0.000000 3.521500 0.000000 
#    z 0.000000 0.000000 3.745840 
# 
# 
# High freq. dielectric constant tensor:
#      x y z
#    x 1.810860 0.000000 0.000000 
#    y 0.000000 1.782250 0.000000 
#    z 0.000000 0.000000 1.787370 
# 
# From -- ./inp_files/16168.got.cif
#   From: 2010.03.12/outbox.cif.g09.slc.cpg/sg39_9_cif.got.tgz:16168.got - 2010.04.14 02:53:20.
