data_PCOD8181847
_publ_section_title
;
Structure prediction by ZEFSAII (Michael W. Deem and Ramdas Pophale) SiO2 
 PCOD8181847
Probable space group: A B M 2
;
_chemical_formula_sum "Si O2"
_cell_formula_units_Z 56
_cell_length_a 5.240633
_cell_length_b 12.862797
_cell_length_c 34.069615
_cell_angle_alpha 90.000000
_cell_angle_beta 90.000000
_cell_angle_gamma 90.000000
_cell_volume 2296.605438
_symmetry_space_group_name_H-M "A B M 2"
_symmetry_group_IT_number 39
_symmetry_cell_setting 'orthorhombic'
loop_
_space_group_symop_operation_xyz
x,y,z
-x,-y,z
-x,1/2+y,z
x,1/2-y,z
x,1/2+y,1/2+z
-x,1/2-y,1/2+z
-x,y,1/2+z
x,-y,1/2+z
loop_
_atom_site_type_symbol
_atom_site_label
_atom_site_fract_x
_atom_site_fract_y
_atom_site_fract_z
Si Si1 0.864732 0.872930 0.018980
Si Si2 0.863759 0.126096 0.253448
Si Si3 0.363760 0.626096 0.975174
Si Si4 0.000000 0.500000 0.590456
Si Si5 0.140306 0.874089 0.342535
Si Si6 0.364730 0.627070 0.709642
Si Si7 0.640306 0.874089 0.386088
Si Si8 0.500000 0.000000 0.638166
O O1 0.848885 0.750000 0.017560
O O2 0.620184 0.918822 0.995601
O O3 0.881100 0.907355 0.064206
O O4 0.120094 0.916752 0.998642
O O5 0.866060 0.250000 0.252228
O O6 0.845782 0.086392 0.297967
O O7 0.620092 0.083248 0.229981
O O8 0.120182 0.081178 0.233021
O O9 0.366059 0.750000 0.976395
O O10 0.345782 0.586392 0.930656
O O11 0.250000 0.459365 0.614311
O O12 0.143955 0.750000 0.344374
O O13 0.378908 0.918186 0.367412
O O14 0.878908 0.918186 0.361211
O O15 0.348884 0.750000 0.711062
O O16 0.381100 0.592645 0.664416
O O17 0.643955 0.750000 0.384249
#
# Coordination Sequence:
#
# PCOD8181847 Si02
#       8
#     8   8   8   4   8   8   8   4
#     4  10  21  38  59  83 112 146 183 224 271 327
#     4   9  17  31  52  79 112 150 190 226 267 323
#     4   9  17  31  52  79 112 150 190 226 267 323
#     4  12  26  42  62  88 112 138 178 224 280 344
#     4   9  15  23  40  72 111 145 182 229 269 304
#     4  10  21  38  59  83 112 146 183 224 271 327
#     4   9  15  23  40  72 111 145 182 229 269 304
#     4  12  26  42  62  88 112 138 178 224 280 344
#
# _framework density 24.383813
#
# number of rings (size 3 to 8) (size 9 to 14) (size 15 to 20)
#    0.000    2.286    0.000    3.429    0.000    8.000 
#    0.000    0.000    0.000    0.000    0.000   20.000 
#    0.000    0.000    0.000    0.000    0.000    0.000 
#
# Total GULP energy -347334.106855 kJ/mol
# GULP energy per Si atom -12404.789531 kJ/mol
# Density = 2.432831 g / cm^3
# Si number density = 24.383813 Si / 1000 Ang^3
#
#
#
# Elastic Constant Matrix: (Units=GPa)
#
#
# Indices 1 2 3 4 5 6 
#
# 1 222.4910 33.7031 106.5508 0.0000 0.0000 0.0000
# 2 33.7031 19.7871 6.5976 0.0000 0.0000 0.0000
# 3 106.5508 6.5976 191.6499 0.0000 0.0000 0.0000
# 4 0.0000 0.0000 0.0000 12.3007 0.0000 0.0000
# 5 0.0000 0.0000 0.0000 0.0000 67.9749 0.0000
# 6 0.0000 0.0000 0.0000 0.0000 0.0000 41.3146
#
#
#
# Elastic Compliance Matrix: (Units=1/GPa)
#
#
# Indices 1 2 3 4 5 6 
#
# 1 0.008537 -0.013109 -0.004295 0.000000 0.000000 0.000000
# 2 -0.013109 0.071255 0.004835 0.000000 0.000000 0.000000
# 3 -0.004295 0.004835 0.007439 0.000000 0.000000 0.000000
# 4 0.000000 0.000000 0.000000 0.081296 0.000000 0.000000
# 5 0.000000 0.000000 0.000000 0.000000 0.014711 0.000000
# 6 0.000000 0.000000 0.000000 0.000000 0.000000 0.024205
#
#
# Mechanical properties :
#
#
# Convention : Reuss Voigt Hill
#
# Bulk Modulus (GPa) = 16.10480 80.84787 48.47634
# Shear Modulus (GPa) = 19.74102 43.45648 31.59875
#
# Velocity S-wave (km/s) = 2.84843 4.22617 3.60375
# Velocity P-wave (km/s) = 4.17577 7.55264 6.10244
#
# Compressibility (1/GPa) = 0.06209328
#
# Stress axis : x y z
#
# Youngs Moduli (GPa) = 117.13251 14.03412 134.42023
#
# Poissons Ratio (x) = 0.18398 0.57736
# Poissons Ratio (y) = 1.53554 -0.64998
# Poissons Ratio (z) = 0.50310 -0.06786
#
# Static dielectric constant tensor:
#      x y z
#    x 4.743750 0.000000 0.000000 
#    y 0.000000 4.169130 0.000000 
#    z 0.000000 0.000000 4.307180 
# 
# 
# High freq. dielectric constant tensor:
#      x y z
#    x 1.990670 0.000000 0.000000 
#    y 0.000000 2.006430 0.000000 
#    z 0.000000 0.000000 1.959470 
# 
# From -- ./inp_files/17305.got.cif
#   From: 2010.03.12/outbox.cif.g09.slc.cpg/sg39_9_cif.got.tgz:17305.got - 2010.04.14 02:53:20.
