data_PCOD8181600
_publ_section_title
;
Structure prediction by ZEFSAII (Michael W. Deem and Ramdas Pophale) SiO2 
 PCOD8181600
Probable space group: A B M 2
;
_chemical_formula_sum "Si O2"
_cell_formula_units_Z 64
_cell_length_a 8.321234
_cell_length_b 30.044724
_cell_length_c 11.551547
_cell_angle_alpha 90.000000
_cell_angle_beta 90.000000
_cell_angle_gamma 90.000000
_cell_volume 2887.992780
_symmetry_space_group_name_H-M "A B M 2"
_symmetry_group_IT_number 39
_symmetry_cell_setting 'orthorhombic'
loop_
_space_group_symop_operation_xyz
x,y,z
-x,-y,z
-x,1/2+y,z
x,1/2-y,z
x,1/2+y,1/2+z
-x,1/2-y,1/2+z
-x,y,1/2+z
x,-y,1/2+z
loop_
_atom_site_type_symbol
_atom_site_label
_atom_site_fract_x
_atom_site_fract_y
_atom_site_fract_z
Si Si1 0.086550 0.200540 0.718940
Si Si2 0.362249 0.884497 0.629160
Si Si3 0.838583 0.633997 0.907982
Si Si4 0.274126 0.199925 0.244261
Si Si5 0.180383 0.169838 0.480306
Si Si6 0.317870 0.582360 0.038558
Si Si7 0.785426 0.044849 0.798657
Si Si8 0.842057 0.948919 0.760553
O O1 0.090518 0.250000 0.771445
O O2 0.190432 0.171072 0.808439
O O3 0.160099 0.200490 0.591666
O O4 0.902359 0.185286 0.698647
O O5 0.275035 0.862772 0.518465
O O6 0.398618 0.839017 0.703627
O O7 0.507407 0.918262 0.598679
O O8 0.253778 0.917276 0.705637
O O9 0.783300 0.587272 0.852769
O O10 0.024266 0.640418 0.944017
O O11 0.325901 0.250000 0.203047
O O12 0.252632 0.201592 0.382494
O O13 0.314160 0.133818 0.506481
O O14 0.178513 0.568861 0.129443
O O15 0.297005 0.553208 0.923086
O O16 0.976392 0.043566 0.798736
O O17 0.735212 0.994135 0.766939
#
# Coordination Sequence:
#
# PCOD8181600 Si02
#       8
#     8   8   8   8   8   8   8   8
#     4  10  20  36  66 104 131 168 235 292 337 401
#     4  12  26  44  66  98 145 183 220 279 354 417
#     4  11  22  39  66  96 133 179 223 283 344 405
#     4  10  21  39  66  98 133 177 224 283 346 409
#     4  11  19  40  68  96 132 174 233 282 336 402
#     4  12  26  44  71  98 138 184 225 278 352 418
#     4  11  26  47  70 104 137 176 236 294 341 412
#     4  11  25  44  74 100 131 177 237 288 346 404
#
# _framework density 22.160720000000001
#
# number of rings (size 3 to 8) (size 9 to 14) (size 15 to 20)
#    0.000    1.000    5.000    1.875    3.500    2.500 
#    0.000    1.250    0.000    0.000    0.000    0.000 
#    0.000    0.000    0.000    0.000    0.000    0.000 
#
# Total GULP energy -396443.165631 kJ/mol
# GULP energy per Si atom -12388.848926 kJ/mol
# Density = 2.211028 g / cm^3
# Si number density = 22.160720 Si / 1000 Ang^3
#
#
#
# Elastic Constant Matrix: (Units=GPa)
#
#
# Indices 1 2 3 4 5 6 
#
# 1 43.0685 22.4055 28.9472 0.0000 0.0000 0.0000
# 2 22.4055 144.7473 42.7450 0.0000 0.0000 0.0000
# 3 28.9472 42.7450 134.5006 0.0000 0.0000 0.0000
# 4 0.0000 0.0000 0.0000 20.7373 0.0000 0.0000
# 5 0.0000 0.0000 0.0000 0.0000 23.9737 0.0000
# 6 0.0000 0.0000 0.0000 0.0000 0.0000 11.7271
#
#
#
# Elastic Compliance Matrix: (Units=1/GPa)
#
#
# Indices 1 2 3 4 5 6 
#
# 1 0.028162 -0.002835 -0.005160 0.000000 0.000000 0.000000
# 2 -0.002835 0.007910 -0.001903 0.000000 0.000000 0.000000
# 3 -0.005160 -0.001903 0.009150 0.000000 0.000000 0.000000
# 4 0.000000 0.000000 0.000000 0.048222 0.000000 0.000000
# 5 0.000000 0.000000 0.000000 0.000000 0.041712 0.000000
# 6 0.000000 0.000000 0.000000 0.000000 0.000000 0.085273
#
#
# Mechanical properties :
#
#
# Convention : Reuss Voigt Hill
#
# Bulk Modulus (GPa) = 39.33242 56.72352 48.02797
# Shear Modulus (GPa) = 20.10440 26.50219 23.30330
#
# Velocity S-wave (km/s) = 3.01526 3.46194 3.24629
# Velocity P-wave (km/s) = 5.46897 6.45229 5.98087
#
# Compressibility (1/GPa) = 0.02542432
#
# Stress axis : x y z
#
# Youngs Moduli (GPa) = 35.50886 126.42864 109.28538
#
# Poissons Ratio (x) = 0.35848 0.56390
# Poissons Ratio (y) = 0.10068 0.20802
# Poissons Ratio (z) = 0.18322 0.24065
#
# Static dielectric constant tensor:
#      x y z
#    x 3.651950 0.000000 0.000000 
#    y 0.000000 4.255050 0.000000 
#    z 0.000000 0.000000 4.126080 
# 
# 
# High freq. dielectric constant tensor:
#      x y z
#    x 1.833730 0.000000 0.000000 
#    y 0.000000 1.884450 0.000000 
#    z 0.000000 0.000000 1.885850 
# 
# From -- ./inp_files/5409.got.cif
#   From: 2010.03.12/outbox.cif.g09.slc.cpg/sg39_3_cif.got.tgz:5409.got - 2010.04.14 02:53:20.
