data_PCOD8181573
_publ_section_title
;
Structure prediction by ZEFSAII (Michael W. Deem and Ramdas Pophale) SiO2 
 PCOD8181573
Probable space group: A B M 2
;
_chemical_formula_sum "Si O2"
_cell_formula_units_Z 64
_cell_length_a 18.840397
_cell_length_b 8.973044
_cell_length_c 19.716572
_cell_angle_alpha 90.000000
_cell_angle_beta 90.000000
_cell_angle_gamma 90.000000
_cell_volume 3333.199103
_symmetry_space_group_name_H-M "A B M 2"
_symmetry_group_IT_number 39
_symmetry_cell_setting 'orthorhombic'
loop_
_space_group_symop_operation_xyz
x,y,z
-x,-y,z
-x,1/2+y,z
x,1/2-y,z
x,1/2+y,1/2+z
-x,1/2-y,1/2+z
-x,y,1/2+z
x,-y,1/2+z
loop_
_atom_site_type_symbol
_atom_site_label
_atom_site_fract_x
_atom_site_fract_y
_atom_site_fract_z
Si Si1 0.924322 0.428803 0.358560
Si Si2 0.803933 0.923539 0.602733
Si Si3 0.348920 0.077496 0.804628
Si Si4 0.429601 0.421949 0.190874
Si Si5 0.665217 0.077326 0.564819
Si Si6 0.574191 0.422395 0.441377
Si Si7 0.926259 0.925906 0.498581
Si Si8 0.196576 0.426664 0.755880
O O1 0.930129 0.250000 0.363033
O O2 0.897614 0.494436 0.430447
O O3 0.868977 0.483100 0.301351
O O4 0.000000 0.500000 0.339479
O O5 0.787482 0.750000 0.607040
O O6 0.874854 0.958123 0.561360
O O7 0.811211 0.989455 0.679106
O O8 0.740259 0.996645 0.560871
O O9 0.354162 0.250000 0.783992
O O10 0.368049 0.050823 0.882659
O O11 0.270001 0.015494 0.789264
O O12 0.407487 0.988635 0.762612
O O13 0.500000 0.500000 0.162811
O O14 0.446954 0.250000 0.200132
O O15 0.366339 0.451614 0.138793
O O16 0.678268 0.250000 0.549381
O O17 0.610662 0.011896 0.509150
O O18 0.500000 0.500000 0.425301
O O19 0.556114 0.250000 0.450625
O O20 0.935563 0.750000 0.484801
O O21 0.000000 0.000000 0.520135
O O22 0.195674 0.250000 0.755104
#
# Coordination Sequence:
#
# PCOD8181573 Si02
#       8
#     8   8   8   8   8   8   8   8
#     4  10  20  36  60  86 115 151 187 228 274 326
#     4  10  21  38  59  83 113 148 188 229 274 331
#     4  10  20  37  59  81 109 146 186 229 277 333
#     4  11  22  36  56  82 110 145 184 228 277 329
#     4  10  22  38  56  82 112 143 186 231 276 331
#     4  10  22  38  57  81 109 143 186 231 279 335
#     4  10  21  37  58  86 116 149 187 228 274 327
#     4   9  19  36  58  83 111 149 188 224 275 332
#
# _framework density 19.200772000000001
#
# number of rings (size 3 to 8) (size 9 to 14) (size 15 to 20)
#    0.000    2.000    1.250    2.625    1.750    4.000 
#    0.000    2.500    0.000    0.000    0.000    0.000 
#    0.000    0.000    0.000    0.000    0.000    0.000 
#
# Total GULP energy -396858.419066 kJ/mol
# GULP energy per Si atom -12401.825596 kJ/mol
# Density = 1.915707 g / cm^3
# Si number density = 19.200772 Si / 1000 Ang^3
#
#
#
# Elastic Constant Matrix: (Units=GPa)
#
#
# Indices 1 2 3 4 5 6 
#
# 1 125.3597 46.5904 62.7770 0.0000 0.0000 0.0000
# 2 46.5904 68.6887 38.5553 0.0000 0.0000 0.0000
# 3 62.7770 38.5553 110.8214 0.0000 0.0000 0.0000
# 4 0.0000 0.0000 0.0000 23.1311 0.0000 0.0000
# 5 0.0000 0.0000 0.0000 0.0000 36.0020 0.0000
# 6 0.0000 0.0000 0.0000 0.0000 0.0000 31.4203
#
#
#
# Elastic Compliance Matrix: (Units=1/GPa)
#
#
# Indices 1 2 3 4 5 6 
#
# 1 0.012704 -0.005688 -0.005217 0.000000 0.000000 0.000000
# 2 -0.005688 0.020638 -0.003958 0.000000 0.000000 0.000000
# 3 -0.005217 -0.003958 0.013356 0.000000 0.000000 0.000000
# 4 0.000000 0.000000 0.000000 0.043232 0.000000 0.000000
# 5 0.000000 0.000000 0.000000 0.000000 0.027776 0.000000
# 6 0.000000 0.000000 0.000000 0.000000 0.000000 0.031827
#
#
# Mechanical properties :
#
#
# Convention : Reuss Voigt Hill
#
# Bulk Modulus (GPa) = 58.92409 66.74615 62.83512
# Shear Modulus (GPa) = 27.03917 28.57381 27.80649
#
# Velocity S-wave (km/s) = 3.75672 3.86185 3.80965
# Velocity P-wave (km/s) = 7.04075 7.39749 7.22133
#
# Compressibility (1/GPa) = 0.01697099
#
# Stress axis : x y z
#
# Youngs Moduli (GPa) = 78.71636 48.45366 74.87273
#
# Poissons Ratio (x) = 0.27562 0.39064
# Poissons Ratio (y) = 0.44776 0.29634
# Poissons Ratio (z) = 0.41069 0.19178
#
# Static dielectric constant tensor:
#      x y z
#    x 3.552690 0.000000 0.000000 
#    y 0.000000 3.373340 0.000000 
#    z 0.000000 0.000000 3.638620 
# 
# 
# High freq. dielectric constant tensor:
#      x y z
#    x 1.754280 0.000000 0.000000 
#    y 0.000000 1.732890 0.000000 
#    z 0.000000 0.000000 1.755050 
# 
# From -- ./inp_files/13156.got.cif
#   From: 2010.03.12/outbox.cif.g09.slc.cpg/sg39_7_cif.got.tgz:13156.got - 2010.04.14 02:53:20.
