data_PCOD8181910
_publ_section_title
;
Structure prediction by ZEFSAII (Michael W. Deem and Ramdas Pophale) SiO2 
 PCOD8181910
Probable space group: A B M 2
;
_chemical_formula_sum "Si O2"
_cell_formula_units_Z 48
_cell_length_a 17.058519
_cell_length_b 14.813122
_cell_length_c 8.410996
_cell_angle_alpha 90.000000
_cell_angle_beta 90.000000
_cell_angle_gamma 90.000000
_cell_volume 2125.373932
_symmetry_space_group_name_H-M "A B M 2"
_symmetry_group_IT_number 39
_symmetry_cell_setting 'orthorhombic'
loop_
_space_group_symop_operation_xyz
x,y,z
-x,-y,z
-x,1/2+y,z
x,1/2-y,z
x,1/2+y,1/2+z
-x,1/2-y,1/2+z
-x,y,1/2+z
x,-y,1/2+z
loop_
_atom_site_type_symbol
_atom_site_label
_atom_site_fract_x
_atom_site_fract_y
_atom_site_fract_z
Si Si1 0.961570 0.750000 0.855600
Si Si2 0.171608 0.566068 0.620704
Si Si3 0.545931 0.250000 0.944570
Si Si4 0.921861 0.442688 0.320600
Si Si5 0.335179 0.073958 0.950841
Si Si6 0.884971 0.750000 0.198927
Si Si7 0.423562 0.935703 0.764361
Si Si8 0.385364 0.250000 0.803804
O O1 0.931532 0.839293 0.762194
O O2 0.056312 0.750000 0.848829
O O3 0.935331 0.750000 0.037258
O O4 0.095826 0.559714 0.507193
O O5 0.156591 0.484753 0.742812
O O6 0.253097 0.555966 0.532965
O O7 0.170896 0.662685 0.709623
O O8 0.577622 0.250000 0.126048
O O9 0.571853 0.159290 0.854488
O O10 0.452245 0.250000 0.939003
O O11 0.000000 0.500000 0.287400
O O12 0.405057 0.083065 0.080020
O O13 0.332467 0.161884 0.836306
O O14 0.350435 0.987936 0.840287
O O15 0.500000 0.000000 0.777669
#
# Coordination Sequence:
#
# PCOD8181910 Si02
#       8
#     4   8   4   8   8   4   8   4
#     4  10  22  36  62  91 124 163 220 272 318 384
#     4  11  24  41  65  96 135 172 217 272 338 395
#     4  12  26  45  72 105 130 175 234 282 334 402
#     4  11  22  40  64  95 127 175 223 274 328 398
#     4  12  25  44  68 102 140 180 224 281 348 404
#     4  10  21  39  61  91 126 168 212 268 327 379
#     4  12  25  44  71 100 133 181 228 281 334 410
#     4  12  25  44  71  99 138 174 224 286 337 403
#
# _framework density 22.584261000000001
#
# number of rings (size 3 to 8) (size 9 to 14) (size 15 to 20)
#    0.000    0.667    3.333    5.000    2.333    0.000 
#    0.000    0.833    0.000    0.000    0.000    0.000 
#    0.000    0.000    0.000    0.000    0.000    0.000 
#
# Total GULP energy -297541.960322 kJ/mol
# GULP energy per Si atom -12397.581680 kJ/mol
# Density = 2.253286 g / cm^3
# Si number density = 22.584261 Si / 1000 Ang^3
#
#
#
# Elastic Constant Matrix: (Units=GPa)
#
#
# Indices 1 2 3 4 5 6 
#
# 1 55.9603 23.1154 0.6594 0.0000 0.0000 0.0000
# 2 23.1154 186.4441 32.9860 0.0000 0.0000 0.0000
# 3 0.6594 32.9860 69.2115 0.0000 0.0000 0.0000
# 4 0.0000 0.0000 0.0000 31.0238 0.0000 0.0000
# 5 0.0000 0.0000 0.0000 0.0000 32.6442 0.0000
# 6 0.0000 0.0000 0.0000 0.0000 0.0000 28.9452
#
#
#
# Elastic Compliance Matrix: (Units=1/GPa)
#
#
# Indices 1 2 3 4 5 6 
#
# 1 0.018900 -0.002524 0.001023 0.000000 0.000000 0.000000
# 2 -0.002524 0.006195 -0.002928 0.000000 0.000000 0.000000
# 3 0.001023 -0.002928 0.015834 0.000000 0.000000 0.000000
# 4 0.000000 0.000000 0.000000 0.032233 0.000000 0.000000
# 5 0.000000 0.000000 0.000000 0.000000 0.030633 0.000000
# 6 0.000000 0.000000 0.000000 0.000000 0.000000 0.034548
#
#
# Mechanical properties :
#
#
# Convention : Reuss Voigt Hill
#
# Bulk Modulus (GPa) = 31.18156 47.23751 39.20954
# Shear Modulus (GPa) = 31.66697 35.51297 33.58997
#
# Velocity S-wave (km/s) = 3.74862 3.96973 3.86076
# Velocity P-wave (km/s) = 5.70727 6.47868 6.10517
#
# Compressibility (1/GPa) = 0.03207024
#
# Stress axis : x y z
#
# Youngs Moduli (GPa) = 52.90877 161.43162 63.15396
#
# Poissons Ratio (x) = 0.40750 -0.06461
# Poissons Ratio (y) = 0.13356 0.18493
# Poissons Ratio (z) = -0.05412 0.47272
#
# Static dielectric constant tensor:
#      x y z
#    x 3.780650 0.000000 0.000000 
#    y 0.000000 4.496780 0.000000 
#    z 0.000000 0.000000 4.079680 
# 
# 
# High freq. dielectric constant tensor:
#      x y z
#    x 1.876990 0.000000 0.000000 
#    y 0.000000 1.914680 0.000000 
#    z 0.000000 0.000000 1.885670 
# 
# From -- ./inp_files/3745.got.cif
#   From: 2010.03.12/outbox.cif.g09.slc.cpg/sg39_2_cif.got.tgz:3745.got - 2010.04.14 02:53:20.
