data_PCOD8181549
_publ_section_title
;
Structure prediction by ZEFSAII (Michael W. Deem and Ramdas Pophale) SiO2 
 PCOD8181549
Probable space group: A B M 2
;
_chemical_formula_sum "Si O2"
_cell_formula_units_Z 64
_cell_length_a 14.288016
_cell_length_b 8.723080
_cell_length_c 25.309014
_cell_angle_alpha 90.000000
_cell_angle_beta 90.000000
_cell_angle_gamma 90.000000
_cell_volume 3154.401782
_symmetry_space_group_name_H-M "A B M 2"
_symmetry_group_IT_number 39
_symmetry_cell_setting 'orthorhombic'
loop_
_space_group_symop_operation_xyz
x,y,z
-x,-y,z
-x,1/2+y,z
x,1/2-y,z
x,1/2+y,1/2+z
-x,1/2-y,1/2+z
-x,y,1/2+z
x,-y,1/2+z
loop_
_atom_site_type_symbol
_atom_site_label
_atom_site_fract_x
_atom_site_fract_y
_atom_site_fract_z
Si Si1 0.597050 0.071596 0.180410
Si Si2 0.715301 0.429525 0.080864
Si Si3 0.102652 0.432455 0.861507
Si Si4 0.601606 0.430765 0.487630
Si Si5 0.899784 0.428639 0.132139
Si Si6 0.098912 0.928937 0.245619
Si Si7 0.286374 0.068304 0.391599
Si Si8 0.600624 0.932372 0.799281
O O1 0.580076 0.250000 0.181499
O O2 0.672682 0.023552 0.137288
O O3 0.627718 0.020102 0.239317
O O4 0.500000 0.000000 0.162539
O O5 0.699050 0.250000 0.068049
O O6 0.825657 0.470025 0.086104
O O7 0.671064 0.532204 0.035536
O O8 0.099674 0.250000 0.868902
O O9 0.137289 0.486624 0.802326
O O10 0.180654 0.504475 0.900495
O O11 0.000000 0.500000 0.874430
O O12 0.500000 0.500000 0.499717
O O13 0.592180 0.250000 0.480606
O O14 0.643261 0.502338 0.434819
O O15 0.918895 0.250000 0.133366
O O16 0.851136 0.471821 0.189742
O O17 0.000000 0.500000 0.118922
O O18 0.089176 0.750000 0.253008
O O19 0.000000 0.000000 0.235192
O O20 0.285584 0.250000 0.395507
O O21 0.321535 0.011286 0.334946
O O22 0.601426 0.750000 0.808026
O O23 0.500000 0.000000 0.814761
#
# Coordination Sequence:
#
# PCOD8181549 Si02
#       8
#     8   8   8   8   8   8   8   8
#     4   9  19  34  56  83 118 156 192 237 297 363
#     4  10  21  38  61  89 120 158 202 248 301 358
#     4  10  20  36  59  88 125 164 206 250 301 358
#     4  12  26  46  69  92 118 152 198 253 310 369
#     4   9  18  33  55  83 121 162 203 246 293 346
#     4   8  15  28  50  78 114 158 199 239 285 340
#     4  12  25  41  62  89 120 157 205 254 305 362
#     4  10  20  36  58  86 121 159 196 243 302 366
#
# _framework density 20.289110000000001
#
# number of rings (size 3 to 8) (size 9 to 14) (size 15 to 20)
#    0.000    2.000    0.000    3.750    1.750    3.000 
#    0.000    0.625    0.000    1.500    0.000    0.000 
#    0.000    0.000    0.000    0.000    0.000    0.000 
#
# Total GULP energy -396522.930291 kJ/mol
# GULP energy per Si atom -12391.341572 kJ/mol
# Density = 2.024293 g / cm^3
# Si number density = 20.289110 Si / 1000 Ang^3
#
#
#
# Elastic Constant Matrix: (Units=GPa)
#
#
# Indices 1 2 3 4 5 6 
#
# 1 104.3796 36.4551 42.1390 0.0000 0.0000 0.0000
# 2 36.4551 82.7818 25.6697 0.0000 0.0000 0.0000
# 3 42.1390 25.6697 58.5464 0.0000 0.0000 0.0000
# 4 0.0000 0.0000 0.0000 25.7673 0.0000 0.0000
# 5 0.0000 0.0000 0.0000 0.0000 28.0972 0.0000
# 6 0.0000 0.0000 0.0000 0.0000 0.0000 32.0656
#
#
#
# Elastic Compliance Matrix: (Units=1/GPa)
#
#
# Indices 1 2 3 4 5 6 
#
# 1 0.014382 -0.003615 -0.008767 0.000000 0.000000 0.000000
# 2 -0.003615 0.014889 -0.003926 0.000000 0.000000 0.000000
# 3 -0.008767 -0.003926 0.025112 0.000000 0.000000 0.000000
# 4 0.000000 0.000000 0.000000 0.038809 0.000000 0.000000
# 5 0.000000 0.000000 0.000000 0.000000 0.035591 0.000000
# 6 0.000000 0.000000 0.000000 0.000000 0.000000 0.031186
#
#
# Mechanical properties :
#
#
# Convention : Reuss Voigt Hill
#
# Bulk Modulus (GPa) = 45.94029 50.47059 48.20544
# Shear Modulus (GPa) = 25.01993 26.61562 25.81777
#
# Velocity S-wave (km/s) = 3.51546 3.62583 3.57107
# Velocity P-wave (km/s) = 6.25859 6.51603 6.38860
#
# Compressibility (1/GPa) = 0.02176738
#
# Stress axis : x y z
#
# Youngs Moduli (GPa) = 69.53065 67.16156 39.82210
#
# Poissons Ratio (x) = 0.24280 0.34910
# Poissons Ratio (y) = 0.25136 0.15635
# Poissons Ratio (z) = 0.60954 0.26369
#
# Static dielectric constant tensor:
#      x y z
#    x 3.679610 0.000000 0.000000 
#    y 0.000000 3.726730 0.000000 
#    z 0.000000 0.000000 3.979690 
# 
# 
# High freq. dielectric constant tensor:
#      x y z
#    x 1.796490 0.000000 0.000000 
#    y 0.000000 1.788510 0.000000 
#    z 0.000000 0.000000 1.786590 
# 
# From -- ./inp_files/16248.got.cif
#   From: 2010.03.12/outbox.cif.g09.slc.cpg/sg39_9_cif.got.tgz:16248.got - 2010.04.14 02:53:20.
