data_PCOD8181581
_publ_section_title
;
Structure prediction by ZEFSAII (Michael W. Deem and Ramdas Pophale) SiO2 
 PCOD8181581
Probable space group: A B M 2
;
_chemical_formula_sum "Si O2"
_cell_formula_units_Z 64
_cell_length_a 14.043346
_cell_length_b 16.657947
_cell_length_c 12.640916
_cell_angle_alpha 90.000000
_cell_angle_beta 90.000000
_cell_angle_gamma 90.000000
_cell_volume 2957.131364
_symmetry_space_group_name_H-M "A B M 2"
_symmetry_group_IT_number 39
_symmetry_cell_setting 'orthorhombic'
loop_
_space_group_symop_operation_xyz
x,y,z
-x,-y,z
-x,1/2+y,z
x,1/2-y,z
x,1/2+y,1/2+z
-x,1/2-y,1/2+z
-x,y,1/2+z
x,-y,1/2+z
loop_
_atom_site_type_symbol
_atom_site_label
_atom_site_fract_x
_atom_site_fract_y
_atom_site_fract_z
Si Si1 0.848476 0.661040 0.775280
Si Si2 0.175929 0.161457 0.172972
Si Si3 0.472698 0.092284 0.262921
Si Si4 0.051021 0.344241 0.979371
Si Si5 0.335326 0.102174 0.855597
Si Si6 0.274463 0.421357 0.355222
Si Si7 0.621274 0.661860 0.071951
Si Si8 0.161725 0.345131 0.538158
O O1 0.889696 0.750000 0.756022
O O2 0.913175 0.617894 0.866661
O O3 0.742778 0.667242 0.822940
O O4 0.844321 0.620315 0.658779
O O5 0.135191 0.250000 0.205192
O O6 0.188161 0.107252 0.277939
O O7 0.281220 0.173046 0.132091
O O8 0.107687 0.121117 0.082810
O O9 0.569324 0.134519 0.299322
O O10 0.379236 0.117189 0.332023
O O11 0.457634 0.118304 0.142663
O O12 0.500000 0.000000 0.274022
O O13 0.075276 0.250000 0.977586
O O14 0.940181 0.362876 0.986409
O O15 0.289421 0.015318 0.831541
O O16 0.360001 0.101029 0.978045
O O17 0.241734 0.395795 0.473711
O O18 0.584283 0.750000 0.036194
O O19 0.186959 0.250000 0.534841
#
# Coordination Sequence:
#
# PCOD8181581 Si02
#       8
#     8   8   8   8   8   8   8   8
#     4  10  21  39  60  86 118 155 205 256 319 385
#     4   9  17  34  61  85 112 155 209 266 308 365
#     4   9  22  40  59  86 118 166 212 254 308 379
#     4   9  18  35  62  89 115 158 211 263 322 382
#     4  11  22  39  62  86 126 167 201 251 321 386
#     4  10  22  38  58  87 125 162 208 252 316 382
#     4  10  20  36  61  90 116 155 211 264 310 362
#     4  10  22  37  61  93 124 162 207 269 325 375
#
# _framework density 21.642596999999999
#
# number of rings (size 3 to 8) (size 9 to 14) (size 15 to 20)
#    0.000    2.250    1.250    0.750    1.750    7.000 
#    0.000    1.875    0.000    0.000    0.000    0.000 
#    0.000    0.000    0.000    0.000    0.000    0.000 
#
# Total GULP energy -396436.287124 kJ/mol
# GULP energy per Si atom -12388.633973 kJ/mol
# Density = 2.159334 g / cm^3
# Si number density = 21.642597 Si / 1000 Ang^3
#
#
#
# Elastic Constant Matrix: (Units=GPa)
#
#
# Indices 1 2 3 4 5 6 
#
# 1 109.5180 23.6503 55.6130 0.0000 0.0000 0.0000
# 2 23.6503 20.9877 26.2028 0.0000 0.0000 0.0000
# 3 55.6130 26.2028 159.3157 0.0000 0.0000 0.0000
# 4 0.0000 0.0000 0.0000 24.9007 0.0000 0.0000
# 5 0.0000 0.0000 0.0000 0.0000 10.2800 0.0000
# 6 0.0000 0.0000 0.0000 0.0000 0.0000 25.7098
#
#
#
# Elastic Compliance Matrix: (Units=1/GPa)
#
#
# Indices 1 2 3 4 5 6 
#
# 1 0.012904 -0.011222 -0.002659 0.000000 0.000000 0.000000
# 2 -0.011222 0.069718 -0.007549 0.000000 0.000000 0.000000
# 3 -0.002659 -0.007549 0.008447 0.000000 0.000000 0.000000
# 4 0.000000 0.000000 0.000000 0.040159 0.000000 0.000000
# 5 0.000000 0.000000 0.000000 0.000000 0.097276 0.000000
# 6 0.000000 0.000000 0.000000 0.000000 0.000000 0.038896
#
#
# Mechanical properties :
#
#
# Convention : Reuss Voigt Hill
#
# Bulk Modulus (GPa) = 20.74325 55.63931 38.19128
# Shear Modulus (GPa) = 15.32192 24.46846 19.89519
#
# Velocity S-wave (km/s) = 2.66362 3.36604 3.03522
# Velocity P-wave (km/s) = 4.36636 6.39305 5.47431
#
# Compressibility (1/GPa) = 0.04820845
#
# Stress axis : x y z
#
# Youngs Moduli (GPa) = 77.49239 14.34359 118.39020
#
# Poissons Ratio (x) = 0.16096 0.31479
# Poissons Ratio (y) = 0.86962 0.89376
# Poissons Ratio (z) = 0.20605 0.10828
#
# Static dielectric constant tensor:
#      x y z
#    x 4.002790 0.000000 0.000000 
#    y 0.000000 3.572210 0.000000 
#    z 0.000000 0.000000 4.161690 
# 
# 
# High freq. dielectric constant tensor:
#      x y z
#    x 1.850260 0.000000 0.000000 
#    y 0.000000 1.811920 0.000000 
#    z 0.000000 0.000000 1.857820 
# 
# From -- ./inp_files/6636.got.cif
#   From: 2010.03.12/outbox.cif.g09.slc.cpg/sg39_4_cif.got.tgz:6636.got - 2010.04.14 02:53:20.
