data_PCOD8181241
_publ_section_title
;
Structure prediction by ZEFSAII (Michael W. Deem and Ramdas Pophale) SiO2 
 PCOD8181241
Probable space group: A B M 2
;
_chemical_formula_sum "Si O2"
_cell_formula_units_Z 48
_cell_length_a 14.254128
_cell_length_b 16.152097
_cell_length_c 8.650431
_cell_angle_alpha 90.000000
_cell_angle_beta 90.000000
_cell_angle_gamma 90.000000
_cell_volume 1991.623833
_symmetry_space_group_name_H-M "A B M 2"
_symmetry_group_IT_number 39
_symmetry_cell_setting 'orthorhombic'
loop_
_space_group_symop_operation_xyz
x,y,z
-x,-y,z
-x,1/2+y,z
x,1/2-y,z
x,1/2+y,1/2+z
-x,1/2-y,1/2+z
-x,y,1/2+z
x,-y,1/2+z
loop_
_atom_site_type_symbol
_atom_site_label
_atom_site_fract_x
_atom_site_fract_y
_atom_site_fract_z
Si Si1 0.546696 0.347808 0.188260
Si Si2 0.032249 0.345005 0.330816
Si Si3 0.369975 0.651999 0.506845
Si Si4 0.296021 0.843682 0.965279
Si Si5 0.873198 0.903641 0.624810
Si Si6 0.797817 0.586031 0.176282
O O1 0.558466 0.250000 0.195939
O O2 0.583123 0.384925 0.350464
O O3 0.438899 0.371791 0.150976
O O4 0.610321 0.379215 0.044999
O O5 0.029688 0.250000 0.384709
O O6 0.058557 0.403140 0.475414
O O7 0.110776 0.355333 0.195641
O O8 0.930246 0.373134 0.273680
O O9 0.358613 0.750000 0.495482
O O10 0.267116 0.612423 0.531296
O O11 0.310234 0.750000 0.900986
O O12 0.266923 0.905496 0.828789
O O13 0.213542 0.841902 0.094397
O O14 0.833372 0.993963 0.654842
#
# Coordination Sequence:
#
# PCOD8181241 Si02
#       6
#     8   8   8   8   8   8
#     4   9  19  34  62  96 131 174 231 287 330 385
#     4  11  24  46  70  94 126 175 225 271 324 400
#     4  10  19  36  61  96 134 179 230 280 335 400
#     4  10  21  42  66  94 131 179 227 272 324 395
#     4  11  25  42  65  98 132 168 214 274 340 398
#     4  11  23  38  62  94 134 175 215 274 341 400
#
# _framework density 24.100936999999998
#
# number of rings (size 3 to 8) (size 9 to 14) (size 15 to 20)
#    0.000    1.667    0.000    5.500    0.000   12.000 
#    0.000    4.167    0.000    6.000    0.000    0.000 
#    0.000    0.000    0.000    0.000    0.000    0.000 
#
# Total GULP energy -297574.131342 kJ/mol
# GULP energy per Si atom -12398.922139 kJ/mol
# Density = 2.404608 g / cm^3
# Si number density = 24.100937 Si / 1000 Ang^3
#
#
#
# Elastic Constant Matrix: (Units=GPa)
#
#
# Indices 1 2 3 4 5 6 
#
# 1 101.7499 45.3467 22.7749 0.0000 0.0000 0.0000
# 2 45.3467 103.5534 58.3152 0.0000 0.0000 0.0000
# 3 22.7749 58.3152 80.1362 0.0000 0.0000 0.0000
# 4 0.0000 0.0000 0.0000 32.6214 0.0000 0.0000
# 5 0.0000 0.0000 0.0000 0.0000 55.4914 0.0000
# 6 0.0000 0.0000 0.0000 0.0000 0.0000 31.9771
#
#
#
# Elastic Compliance Matrix: (Units=1/GPa)
#
#
# Indices 1 2 3 4 5 6 
#
# 1 0.012235 -0.005760 0.000714 0.000000 0.000000 0.000000
# 2 -0.005760 0.019074 -0.012243 0.000000 0.000000 0.000000
# 3 0.000714 -0.012243 0.021185 0.000000 0.000000 0.000000
# 4 0.000000 0.000000 0.000000 0.030655 0.000000 0.000000
# 5 0.000000 0.000000 0.000000 0.000000 0.018021 0.000000
# 6 0.000000 0.000000 0.000000 0.000000 0.000000 0.031272
#
#
# Mechanical properties :
#
#
# Convention : Reuss Voigt Hill
#
# Bulk Modulus (GPa) = 55.81453 59.81258 57.81355
# Shear Modulus (GPa) = 28.90313 34.61814 31.76064
#
# Velocity S-wave (km/s) = 3.46678 3.79407 3.63411
# Velocity P-wave (km/s) = 6.26368 6.63813 6.45362
#
# Compressibility (1/GPa) = 0.01791648
#
# Stress axis : x y z
#
# Youngs Moduli (GPa) = 81.73103 52.42792 47.20336
#
# Poissons Ratio (x) = 0.30200 -0.03372
# Poissons Ratio (y) = 0.47079 0.57791
# Poissons Ratio (z) = -0.05839 0.64187
#
# Static dielectric constant tensor:
#      x y z
#    x 4.729080 0.000000 0.000000 
#    y 0.000000 3.867770 0.000000 
#    z 0.000000 0.000000 4.516090 
# 
# 
# High freq. dielectric constant tensor:
#      x y z
#    x 1.976360 0.000000 0.000000 
#    y 0.000000 1.919820 0.000000 
#    z 0.000000 0.000000 1.955660 
# 
# From -- ./inp_files/3245.got.cif
#   From: 2010.03.12/outbox.cif.g09.slc.cpg/sg39_2_cif.got.tgz:3245.got - 2010.04.14 02:53:20.
