data_PCOD8181248
_publ_section_title
;
Structure prediction by ZEFSAII (Michael W. Deem and Ramdas Pophale) SiO2 
 PCOD8181248
Probable space group: A B M 2
;
_chemical_formula_sum "Si O2"
_cell_formula_units_Z 64
_cell_length_a 15.827615
_cell_length_b 19.114852
_cell_length_c 10.334748
_cell_angle_alpha 90.000000
_cell_angle_beta 90.000000
_cell_angle_gamma 90.000000
_cell_volume 3126.700685
_symmetry_space_group_name_H-M "A B M 2"
_symmetry_group_IT_number 39
_symmetry_cell_setting 'orthorhombic'
loop_
_space_group_symop_operation_xyz
x,y,z
-x,-y,z
-x,1/2+y,z
x,1/2-y,z
x,1/2+y,1/2+z
-x,1/2-y,1/2+z
-x,y,1/2+z
x,-y,1/2+z
loop_
_atom_site_type_symbol
_atom_site_label
_atom_site_fract_x
_atom_site_fract_y
_atom_site_fract_z
Si Si1 0.818963 0.591928 0.578880
Si Si2 0.244177 0.327902 0.054683
Si Si3 0.406441 0.401305 0.982648
Si Si4 0.118044 0.329660 0.821656
Si Si5 0.962763 0.926929 0.388231
Si Si6 0.815494 0.953546 0.213247
Si Si7 0.318995 0.044054 0.415188
Si Si8 0.473477 0.920965 0.755615
O O1 0.825008 0.637269 0.707917
O O2 0.899541 0.610625 0.489644
O O3 0.820783 0.508157 0.597639
O O4 0.726232 0.600629 0.511995
O O5 0.249137 0.250000 0.112977
O O6 0.225331 0.380411 0.171078
O O7 0.332224 0.345111 0.985024
O O8 0.169780 0.333253 0.952313
O O9 0.367557 0.480368 0.987365
O O10 0.457246 0.385118 0.849976
O O11 0.466323 0.389935 0.109888
O O12 0.095177 0.250000 0.784276
O O13 0.033490 0.372646 0.845289
O O14 0.911059 0.943525 0.258779
O O15 0.000000 0.000000 0.443260
O O16 0.756744 0.986592 0.326157
O O17 0.383599 0.087003 0.326170
O O18 0.500000 0.000000 0.738498
#
# Coordination Sequence:
#
# PCOD8181248 Si02
#       8
#     8   8   8   8   8   8   8   8
#     4  11  22  37  63  90 122 159 208 259 315 376
#     4  11  24  42  63  87 122 170 213 255 318 387
#     4  11  21  37  62  93 131 162 207 260 319 380
#     4  11  26  43  60  87 127 168 207 258 320 381
#     4  11  24  37  61  94 120 158 208 259 309 375
#     4  11  21  38  64  92 118 160 207 264 313 370
#     4  10  19  36  63  92 124 156 204 260 320 372
#     4  10  20  34  60  98 127 158 199 262 321 375
#
# _framework density 20.468859999999999
#
# number of rings (size 3 to 8) (size 9 to 14) (size 15 to 20)
#    0.000    1.250    3.750    2.625    3.500    4.000 
#    0.000    2.500    0.000    0.000    0.000    0.000 
#    0.000    0.000    0.000    0.000    0.000    0.000 
#
# Total GULP energy -396715.640296 kJ/mol
# GULP energy per Si atom -12397.363759 kJ/mol
# Density = 2.042227 g / cm^3
# Si number density = 20.468860 Si / 1000 Ang^3
#
#
#
# Elastic Constant Matrix: (Units=GPa)
#
#
# Indices 1 2 3 4 5 6 
#
# 1 105.8793 18.1195 27.0701 0.0000 0.0000 0.0000
# 2 18.1195 78.5211 18.4402 0.0000 0.0000 0.0000
# 3 27.0701 18.4402 82.7347 0.0000 0.0000 0.0000
# 4 0.0000 0.0000 0.0000 21.9765 0.0000 0.0000
# 5 0.0000 0.0000 0.0000 0.0000 24.6608 0.0000
# 6 0.0000 0.0000 0.0000 0.0000 0.0000 18.8638
#
#
#
# Elastic Compliance Matrix: (Units=1/GPa)
#
#
# Indices 1 2 3 4 5 6 
#
# 1 0.010520 -0.001709 -0.003061 0.000000 0.000000 0.000000
# 2 -0.001709 0.013716 -0.002498 0.000000 0.000000 0.000000
# 3 -0.003061 -0.002498 0.013645 0.000000 0.000000 0.000000
# 4 0.000000 0.000000 0.000000 0.045503 0.000000 0.000000
# 5 0.000000 0.000000 0.000000 0.000000 0.040550 0.000000
# 6 0.000000 0.000000 0.000000 0.000000 0.000000 0.053011
#
#
# Mechanical properties :
#
#
# Convention : Reuss Voigt Hill
#
# Bulk Modulus (GPa) = 42.83471 43.82163 43.32817
# Shear Modulus (GPa) = 25.09236 26.66724 25.87980
#
# Velocity S-wave (km/s) = 3.50505 3.61338 3.55963
# Velocity P-wave (km/s) = 6.11169 6.23410 6.17320
#
# Compressibility (1/GPa) = 0.02334555
#
# Stress axis : x y z
#
# Youngs Moduli (GPa) = 95.05915 72.90551 73.28592
#
# Poissons Ratio (x) = 0.12457 0.22434
# Poissons Ratio (y) = 0.16242 0.18308
# Poissons Ratio (z) = 0.29099 0.18212
#
# Static dielectric constant tensor:
#      x y z
#    x 3.943790 0.000000 0.000000 
#    y 0.000000 3.438050 0.000000 
#    z 0.000000 0.000000 3.836880 
# 
# 
# High freq. dielectric constant tensor:
#      x y z
#    x 1.818980 0.000000 0.000000 
#    y 0.000000 1.752130 0.000000 
#    z 0.000000 0.000000 1.809860 
# 
# From -- ./inp_files/6623.got.cif
#   From: 2010.03.12/outbox.cif.g09.slc.cpg/sg39_4_cif.got.tgz:6623.got - 2010.04.14 02:53:20.
