data_PCOD8181895
_publ_section_title
;
Structure prediction by ZEFSAII (Michael W. Deem and Ramdas Pophale) SiO2 
 PCOD8181895
Probable space group: A B M 2
;
_chemical_formula_sum "Si O2"
_cell_formula_units_Z 60
_cell_length_a 12.967554
_cell_length_b 16.546081
_cell_length_c 14.015281
_cell_angle_alpha 90.000000
_cell_angle_beta 90.000000
_cell_angle_gamma 90.000000
_cell_volume 3007.149509
_symmetry_space_group_name_H-M "A B M 2"
_symmetry_group_IT_number 39
_symmetry_cell_setting 'orthorhombic'
loop_
_space_group_symop_operation_xyz
x,y,z
-x,-y,z
-x,1/2+y,z
x,1/2-y,z
x,1/2+y,1/2+z
-x,1/2-y,1/2+z
-x,y,1/2+z
x,-y,1/2+z
loop_
_atom_site_type_symbol
_atom_site_label
_atom_site_fract_x
_atom_site_fract_y
_atom_site_fract_z
Si Si1 0.621023 0.420185 0.317950
Si Si2 0.228980 0.661399 0.787953
Si Si3 0.412692 0.599329 0.898130
Si Si4 0.000000 0.000000 0.670547
Si Si5 0.397632 0.451029 0.604396
Si Si6 0.193115 0.158440 0.922906
Si Si7 0.208492 0.559636 0.604752
Si Si8 0.999318 0.341878 0.800033
O O1 0.606748 0.511242 0.353980
O O2 0.522928 0.369123 0.357452
O O3 0.629341 0.406860 0.203527
O O4 0.729688 0.391653 0.357695
O O5 0.236404 0.750000 0.740347
O O6 0.318927 0.655542 0.865800
O O7 0.240632 0.593393 0.707754
O O8 0.117766 0.651472 0.839339
O O9 0.419511 0.605729 0.013281
O O10 0.897243 0.008480 0.607094
O O11 0.016021 0.084375 0.726845
O O12 0.500000 0.500000 0.627668
O O13 0.302273 0.505080 0.569138
O O14 0.228859 0.250000 0.916253
O O15 0.076683 0.144865 0.887188
O O16 0.194980 0.133001 0.032447
O O17 0.016314 0.250000 0.756029
#
# Coordination Sequence:
#
# PCOD8181895 Si02
#       8
#     8   8   8   4   8   8   8   8
#     4  11  21  38  59  87 119 156 194 250 300 364
#     4  10  21  39  59  84 119 157 198 250 305 357
#     4  11  21  36  61  88 116 156 195 248 302 363
#     4  10  22  36  62  90 116 164 208 254 314 368
#     4  12  20  35  59  88 117 148 199 244 297 354
#     4  11  23  39  58  85 122 161 199 252 313 367
#     4  11  21  35  59  90 115 154 207 248 292 369
#     4   9  21  39  59  85 122 162 204 258 311 364
#
# _framework density 19.952449999999999
#
# number of rings (size 3 to 8) (size 9 to 14) (size 15 to 20)
#    0.000    1.333    5.333    1.200    1.867    2.667 
#    0.000    0.667    0.000    7.200    0.000    0.000 
#    0.000    0.000    0.000    0.000    0.000    0.000 
#
# Total GULP energy -371838.405875 kJ/mol
# GULP energy per Si atom -12394.613529 kJ/mol
# Density = 1.990704 g / cm^3
# Si number density = 19.952450 Si / 1000 Ang^3
#
#
#
# Elastic Constant Matrix: (Units=GPa)
#
#
# Indices 1 2 3 4 5 6 
#
# 1 126.4343 24.2863 26.5834 0.0000 0.0000 0.0000
# 2 24.2863 55.5558 14.2705 0.0000 0.0000 0.0000
# 3 26.5834 14.2705 109.4528 0.0000 0.0000 0.0000
# 4 0.0000 0.0000 0.0000 16.8714 0.0000 0.0000
# 5 0.0000 0.0000 0.0000 0.0000 -8.3703 0.0000
# 6 0.0000 0.0000 0.0000 0.0000 0.0000 22.7194
#
#
#
# Elastic Compliance Matrix: (Units=1/GPa)
#
#
# Indices 1 2 3 4 5 6 
#
# 1 0.008936 -0.003465 -0.001719 0.000000 0.000000 0.000000
# 2 -0.003465 0.019967 -0.001762 0.000000 0.000000 0.000000
# 3 -0.001719 -0.001762 0.009783 0.000000 0.000000 0.000000
# 4 0.000000 0.000000 0.000000 0.059272 0.000000 0.000000
# 5 0.000000 0.000000 0.000000 0.000000 -0.119469 0.000000
# 6 0.000000 0.000000 0.000000 0.000000 0.000000 0.044015
#
#
# Mechanical properties :
#
#
# Convention : Reuss Voigt Hill
#
# Bulk Modulus (GPa) = 40.32898 46.85814 43.59356
# Shear Modulus (GPa) = 111.95531 21.33095 66.64313
#
# Velocity S-wave (km/s) = 7.49886 3.27324 5.78563
# Velocity P-wave (km/s) = 9.75877 6.14991 8.15644
#
# Compressibility (1/GPa) = 0.02479607
#
# Stress axis : x y z
#
# Youngs Moduli (GPa) = 111.90472 50.08219 102.21331
#
# Poissons Ratio (x) = 0.17354 0.17566
# Poissons Ratio (y) = 0.38775 0.18007
# Poissons Ratio (z) = 0.19232 0.08823
#
# Static dielectric constant tensor:
#      x y z
#    x 4.075570 0.000000 0.000000 
#    y 0.000000 3.524170 0.000000 
#    z 0.000000 0.000000 3.494060 
# 
# 
# High freq. dielectric constant tensor:
#      x y z
#    x 1.805700 0.000000 0.000000 
#    y 0.000000 1.755590 0.000000 
#    z 0.000000 0.000000 1.765760 
# 
# From -- ./inp_files/9399.got.cif
#   From: 2010.03.12/outbox.cif.g09.slc.cpg/sg39_5_cif.got.tgz:9399.got - 2010.04.14 02:53:20.
