data_PCOD8181583
_publ_section_title
;
Structure prediction by ZEFSAII (Michael W. Deem and Ramdas Pophale) SiO2 
 PCOD8181583
Probable space group: A B M 2
;
_chemical_formula_sum "Si O2"
_cell_formula_units_Z 64
_cell_length_a 23.789101
_cell_length_b 8.832293
_cell_length_c 15.262884
_cell_angle_alpha 90.000000
_cell_angle_beta 90.000000
_cell_angle_gamma 90.000000
_cell_volume 3206.919818
_symmetry_space_group_name_H-M "A B M 2"
_symmetry_group_IT_number 39
_symmetry_cell_setting 'orthorhombic'
loop_
_space_group_symop_operation_xyz
x,y,z
-x,-y,z
-x,1/2+y,z
x,1/2-y,z
x,1/2+y,1/2+z
-x,1/2-y,1/2+z
-x,y,1/2+z
x,-y,1/2+z
loop_
_atom_site_type_symbol
_atom_site_label
_atom_site_fract_x
_atom_site_fract_y
_atom_site_fract_z
Si Si1 0.628023 0.423565 0.788390
Si Si2 0.260266 0.427971 0.734591
Si Si3 0.870131 0.423206 0.546306
Si Si4 0.939680 0.072559 0.898347
Si Si5 0.856093 0.072083 0.746274
Si Si6 0.641063 0.076481 0.982002
Si Si7 0.439850 0.071478 0.637410
Si Si8 0.256691 0.424628 0.050795
O O1 0.626662 0.250000 0.756745
O O2 0.691142 0.485750 0.786066
O O3 0.608793 0.439366 0.889537
O O4 0.585531 0.519254 0.729676
O O5 0.266773 0.250000 0.749317
O O6 0.200363 0.482819 0.771085
O O7 0.267028 0.466693 0.632830
O O8 0.888575 0.250000 0.533062
O O9 0.911020 0.526462 0.489483
O O10 0.876245 0.470394 0.648240
O O11 0.806110 0.448898 0.513772
O O12 0.947387 0.250000 0.898453
O O13 0.902984 0.019374 0.815178
O O14 0.000000 0.000000 0.888343
O O15 0.842891 0.250000 0.751829
O O16 0.658836 0.250000 0.998499
O O17 0.600310 0.017288 0.058634
O O18 0.697379 0.973373 0.979142
O O19 0.446468 0.250000 0.638951
O O20 0.500000 0.000000 0.621269
O O21 0.264312 0.250000 0.079246
#
# Coordination Sequence:
#
# PCOD8181583 Si02
#       8
#     8   8   8   8   8   8   8   8
#     4  11  23  40  62  92 126 164 204 254 308 361
#     4  11  21  35  59  91 126 162 203 251 304 366
#     4   9  20  39  60  87 121 156 199 247 300 361
#     4  11  24  41  62  87 119 159 205 251 303 362
#     4   9  21  41  61  86 119 160 201 248 306 364
#     4  10  23  40  61  91 126 161 204 252 305 365
#     4  11  24  44  66  90 122 165 209 258 307 362
#     4  10  20  36  61  90 125 163 200 247 308 366
#
# _framework density 19.956844
#
# number of rings (size 3 to 8) (size 9 to 14) (size 15 to 20)
#    0.000    1.750    1.250    3.375    1.750    6.000 
#    0.000    2.500    0.000    0.000    0.000    0.000 
#    0.000    0.000    0.000    0.000    0.000    0.000 
#
# Total GULP energy -396903.904948 kJ/mol
# GULP energy per Si atom -12403.247030 kJ/mol
# Density = 1.991142 g / cm^3
# Si number density = 19.956844 Si / 1000 Ang^3
#
#
#
# Elastic Constant Matrix: (Units=GPa)
#
#
# Indices 1 2 3 4 5 6 
#
# 1 104.5828 36.5190 32.6720 0.0000 0.0000 0.0000
# 2 36.5190 67.6541 22.2416 0.0000 0.0000 0.0000
# 3 32.6720 22.2416 75.2210 0.0000 0.0000 0.0000
# 4 0.0000 0.0000 0.0000 28.9080 0.0000 0.0000
# 5 0.0000 0.0000 0.0000 0.0000 21.0106 0.0000
# 6 0.0000 0.0000 0.0000 0.0000 0.0000 36.8960
#
#
#
# Elastic Compliance Matrix: (Units=1/GPa)
#
#
# Indices 1 2 3 4 5 6 
#
# 1 0.012726 -0.005596 -0.003873 0.000000 0.000000 0.000000
# 2 -0.005596 0.018833 -0.003138 0.000000 0.000000 0.000000
# 3 -0.003873 -0.003138 0.015904 0.000000 0.000000 0.000000
# 4 0.000000 0.000000 0.000000 0.034592 0.000000 0.000000
# 5 0.000000 0.000000 0.000000 0.000000 0.047595 0.000000
# 6 0.000000 0.000000 0.000000 0.000000 0.000000 0.027103
#
#
# Mechanical properties :
#
#
# Convention : Reuss Voigt Hill
#
# Bulk Modulus (GPa) = 44.94470 47.81367 46.37918
# Shear Modulus (GPa) = 26.40135 27.76461 27.08298
#
# Velocity S-wave (km/s) = 3.64115 3.73397 3.68785
# Velocity P-wave (km/s) = 6.34406 6.52691 6.43614
#
# Compressibility (1/GPa) = 0.02224957
#
# Stress axis : x y z
#
# Youngs Moduli (GPa) = 78.58108 53.09712 62.87667
#
# Poissons Ratio (x) = 0.29713 0.24350
# Poissons Ratio (y) = 0.43974 0.19731
# Poissons Ratio (z) = 0.30432 0.16662
#
# Static dielectric constant tensor:
#      x y z
#    x 3.640140 0.000000 0.000000 
#    y 0.000000 3.602440 0.000000 
#    z 0.000000 0.000000 3.653990 
# 
# 
# High freq. dielectric constant tensor:
#      x y z
#    x 1.774700 0.000000 0.000000 
#    y 0.000000 1.782010 0.000000 
#    z 0.000000 0.000000 1.781750 
# 
# From -- ./inp_files/10599.got.cif
#   From: 2010.03.12/outbox.cif.g09.slc.cpg/sg39_6_cif.got.tgz:10599.got - 2010.04.14 02:53:20.
