data_PCOD8181819
_publ_section_title
;
Structure prediction by ZEFSAII (Michael W. Deem and Ramdas Pophale) SiO2 
 PCOD8181819
Probable space group: A B M 2
;
_chemical_formula_sum "Si O2"
_cell_formula_units_Z 48
_cell_length_a 26.351473
_cell_length_b 9.158595
_cell_length_c 10.011700
_cell_angle_alpha 90.000000
_cell_angle_beta 90.000000
_cell_angle_gamma 90.000000
_cell_volume 2416.248395
_symmetry_space_group_name_H-M "A B M 2"
_symmetry_group_IT_number 39
_symmetry_cell_setting 'orthorhombic'
loop_
_space_group_symop_operation_xyz
x,y,z
-x,-y,z
-x,1/2+y,z
x,1/2-y,z
x,1/2+y,1/2+z
-x,1/2-y,1/2+z
-x,y,1/2+z
x,-y,1/2+z
loop_
_atom_site_type_symbol
_atom_site_label
_atom_site_fract_x
_atom_site_fract_y
_atom_site_fract_z
Si Si1 0.551371 0.581131 0.319860
Si Si2 0.222977 0.079097 0.808844
Si Si3 0.277064 0.920543 0.575620
Si Si4 0.392044 0.417907 0.049453
Si Si5 0.947177 0.579138 0.016336
Si Si6 0.109294 0.919863 0.244913
O O1 0.500000 0.500000 0.279678
O O2 0.538834 0.750000 0.343898
O O3 0.591624 0.558037 0.202041
O O4 0.573877 0.517845 0.455861
O O5 0.229453 0.250000 0.787323
O O6 0.165225 0.029079 0.787674
O O7 0.260917 0.002246 0.708331
O O8 0.238794 0.033608 0.957953
O O9 0.274715 0.750000 0.606600
O O10 0.333789 0.967445 0.535650
O O11 0.399257 0.250000 0.005810
O O12 0.953905 0.750000 0.044378
O O13 0.906059 0.516557 0.118846
O O14 0.000000 0.500000 0.041456
O O15 0.928800 0.548617 0.866549
O O16 0.108145 0.750000 0.204951
#
# Coordination Sequence:
#
# PCOD8181819 Si02
#       6
#     8   8   8   8   8   8
#     4  11  23  38  58  84 113 148 190 233 281 337
#     4  10  21  37  58  85 116 150 189 233 280 332
#     4  10  21  38  59  85 117 150 188 234 281 332
#     4  10  22  39  59  85 116 150 189 233 281 335
#     4  11  23  39  60  85 114 149 189 234 284 337
#     4  10  22  39  58  84 116 149 189 233 279 335
#
# _framework density 19.865506
#
# number of rings (size 3 to 8) (size 9 to 14) (size 15 to 20)
#    0.000    1.667    0.000    4.000    0.000    8.667 
#    0.000    0.000    0.000    0.000    0.000    0.000 
#    0.000    0.000    0.000    0.000    0.000    0.000 
#
# Total GULP energy -297764.547614 kJ/mol
# GULP energy per Si atom -12406.856151 kJ/mol
# Density = 1.982029 g / cm^3
# Si number density = 19.865506 Si / 1000 Ang^3
#
#
#
# Elastic Constant Matrix: (Units=GPa)
#
#
# Indices 1 2 3 4 5 6 
#
# 1 90.4982 31.8392 7.3745 0.0000 0.0000 0.0000
# 2 31.8392 75.1221 36.7693 0.0000 0.0000 0.0000
# 3 7.3745 36.7693 65.5109 0.0000 0.0000 0.0000
# 4 0.0000 0.0000 0.0000 33.7511 0.0000 0.0000
# 5 0.0000 0.0000 0.0000 0.0000 37.4158 0.0000
# 6 0.0000 0.0000 0.0000 0.0000 0.0000 33.4198
#
#
#
# Elastic Compliance Matrix: (Units=1/GPa)
#
#
# Indices 1 2 3 4 5 6 
#
# 1 0.013230 -0.006726 0.002286 0.000000 0.000000 0.000000
# 2 -0.006726 0.021773 -0.011464 0.000000 0.000000 0.000000
# 3 0.002286 -0.011464 0.021441 0.000000 0.000000 0.000000
# 4 0.000000 0.000000 0.000000 0.029629 0.000000 0.000000
# 5 0.000000 0.000000 0.000000 0.000000 0.026727 0.000000
# 6 0.000000 0.000000 0.000000 0.000000 0.000000 0.029922
#
#
# Mechanical properties :
#
#
# Convention : Reuss Voigt Hill
#
# Bulk Modulus (GPa) = 40.58900 42.56636 41.57768
# Shear Modulus (GPa) = 27.36084 31.26055 29.31070
#
# Velocity S-wave (km/s) = 3.71523 3.97118 3.84533
# Velocity P-wave (km/s) = 6.23540 6.51926 6.37891
#
# Compressibility (1/GPa) = 0.02463721
#
# Stress axis : x y z
#
# Youngs Moduli (GPa) = 75.58531 45.92758 46.63854
#
# Poissons Ratio (x) = 0.30892 -0.10661
# Poissons Ratio (y) = 0.50840 0.53465
# Poissons Ratio (z) = -0.17278 0.52650
#
# Static dielectric constant tensor:
#      x y z
#    x 3.788670 0.000000 0.000000 
#    y 0.000000 3.590330 0.000000 
#    z 0.000000 0.000000 3.566780 
# 
# 
# High freq. dielectric constant tensor:
#      x y z
#    x 1.791170 0.000000 0.000000 
#    y 0.000000 1.772630 0.000000 
#    z 0.000000 0.000000 1.783060 
# 
# From -- ./inp_files/4135.got.cif
#   From: 2010.03.12/outbox.cif.g09.slc.cpg/sg39_3_cif.got.tgz:4135.got - 2010.04.14 02:53:20.
