data_PCOD8181472
_publ_section_title
;
Structure prediction by ZEFSAII (Michael W. Deem and Ramdas Pophale) SiO2 
 PCOD8181472
Probable space group: A B M 2
;
_chemical_formula_sum "Si O2"
_cell_formula_units_Z 48
_cell_length_a 8.797302
_cell_length_b 17.752326
_cell_length_c 15.627124
_cell_angle_alpha 90.000000
_cell_angle_beta 90.000000
_cell_angle_gamma 90.000000
_cell_volume 2440.528164
_symmetry_space_group_name_H-M "A B M 2"
_symmetry_group_IT_number 39
_symmetry_cell_setting 'orthorhombic'
loop_
_space_group_symop_operation_xyz
x,y,z
-x,-y,z
-x,1/2+y,z
x,1/2-y,z
x,1/2+y,1/2+z
-x,1/2-y,1/2+z
-x,y,1/2+z
x,-y,1/2+z
loop_
_atom_site_type_symbol
_atom_site_label
_atom_site_fract_x
_atom_site_fract_y
_atom_site_fract_z
Si Si1 0.052191 0.915802 0.963250
Si Si2 0.570599 0.420010 0.132505
Si Si3 0.073055 0.077849 0.650500
Si Si4 0.630414 0.837498 0.470434
Si Si5 0.595046 0.663599 0.282826
Si Si6 0.059826 0.337028 0.298473
O O1 0.231323 0.896678 0.962440
O O2 0.981164 0.868763 0.885076
O O3 0.996078 0.897089 0.059856
O O4 0.000000 0.000000 0.942661
O O5 0.500000 0.500000 0.109884
O O6 0.748594 0.432408 0.142403
O O7 0.504218 0.387801 0.220696
O O8 0.532952 0.363152 0.053321
O O9 0.043820 0.143321 0.718043
O O10 0.000000 0.000000 0.683428
O O11 0.685180 0.750000 0.481994
O O12 0.535446 0.843731 0.381504
O O13 0.583296 0.750000 0.251793
O O14 0.769058 0.633925 0.280854
O O15 0.065616 0.250000 0.313437
#
# Coordination Sequence:
#
# PCOD8181472 Si02
#       6
#     8   8   8   8   8   8
#     4   9  18  33  56  81 108 146 184 225 273 328
#     4  11  22  35  57  84 111 144 185 234 282 331
#     4  10  21  37  55  78 111 145 183 227 275 331
#     4   9  19  37  59  80 110 150 186 225 278 338
#     4   9  19  37  58  81 111 147 185 225 276 335
#     4  10  20  35  57  82 111 146 182 224 276 333
#
# _framework density 19.667874000000001
#
# number of rings (size 3 to 8) (size 9 to 14) (size 15 to 20)
#    0.000    2.333    0.000    3.500    0.000    6.000 
#    0.000    6.667    0.000    0.000    0.000    0.000 
#    0.000    0.000    0.000    0.000    0.000    0.000 
#
# Total GULP energy -297355.594049 kJ/mol
# GULP energy per Si atom -12389.816419 kJ/mol
# Density = 1.962311 g / cm^3
# Si number density = 19.667874 Si / 1000 Ang^3
#
#
#
# Elastic Constant Matrix: (Units=GPa)
#
#
# Indices 1 2 3 4 5 6 
#
# 1 58.4806 41.5184 39.8862 0.0000 0.0000 0.0000
# 2 41.5184 93.2400 62.9401 0.0000 0.0000 0.0000
# 3 39.8862 62.9401 151.3041 0.0000 0.0000 0.0000
# 4 0.0000 0.0000 0.0000 0.9237 0.0000 0.0000
# 5 0.0000 0.0000 0.0000 0.0000 29.6133 0.0000
# 6 0.0000 0.0000 0.0000 0.0000 0.0000 24.4254
#
#
#
# Elastic Compliance Matrix: (Units=1/GPa)
#
#
# Indices 1 2 3 4 5 6 
#
# 1 0.025840 -0.009605 -0.002816 0.000000 0.000000 0.000000
# 2 -0.009605 0.018483 -0.005157 0.000000 0.000000 0.000000
# 3 -0.002816 -0.005157 0.009497 0.000000 0.000000 0.000000
# 4 0.000000 0.000000 0.000000 1.082567 0.000000 0.000000
# 5 0.000000 0.000000 0.000000 0.000000 0.033769 0.000000
# 6 0.000000 0.000000 0.000000 0.000000 0.000000 0.040941
#
#
# Mechanical properties :
#
#
# Convention : Reuss Voigt Hill
#
# Bulk Modulus (GPa) = 53.58024 65.74601 59.66312
# Shear Modulus (GPa) = 3.99211 21.57115 12.78163
#
# Velocity S-wave (km/s) = 1.42624 3.31535 2.55203
# Velocity P-wave (km/s) = 5.47849 6.93946 6.25180
#
# Compressibility (1/GPa) = 0.01866360
#
# Stress axis : x y z
#
# Youngs Moduli (GPa) = 38.70044 54.10442 105.30041
#
# Poissons Ratio (x) = 0.51967 0.29655
# Poissons Ratio (y) = 0.37171 0.54299
# Poissons Ratio (z) = 0.10899 0.27899
#
# Static dielectric constant tensor:
#      x y z
#    x 3.342850 0.000000 0.000000 
#    y 0.000000 3.576670 0.000000 
#    z 0.000000 0.000000 4.181830 
# 
# 
# High freq. dielectric constant tensor:
#      x y z
#    x 1.726750 0.000000 0.000000 
#    y 0.000000 1.765560 0.000000 
#    z 0.000000 0.000000 1.794940 
# 
# From -- ./inp_files/8339.got.cif
#   From: 2010.03.12/outbox.cif.g09.slc.cpg/sg39_5_cif.got.tgz:8339.got - 2010.04.14 02:53:20.
