data_PCOD8181538
_publ_section_title
;
Structure prediction by ZEFSAII (Michael W. Deem and Ramdas Pophale) SiO2 
 PCOD8181538
Probable space group: A B M 2
;
_chemical_formula_sum "Si O2"
_cell_formula_units_Z 48
_cell_length_a 9.487503
_cell_length_b 8.717408
_cell_length_c 30.093403
_cell_angle_alpha 90.000000
_cell_angle_beta 90.000000
_cell_angle_gamma 90.000000
_cell_volume 2488.918066
_symmetry_space_group_name_H-M "A B M 2"
_symmetry_group_IT_number 39
_symmetry_cell_setting 'orthorhombic'
loop_
_space_group_symop_operation_xyz
x,y,z
-x,-y,z
-x,1/2+y,z
x,1/2-y,z
x,1/2+y,1/2+z
-x,1/2-y,1/2+z
-x,y,1/2+z
x,-y,1/2+z
loop_
_atom_site_type_symbol
_atom_site_label
_atom_site_fract_x
_atom_site_fract_y
_atom_site_fract_z
Si Si1 0.155317 0.931868 0.562230
Si Si2 0.850168 0.074276 0.814346
Si Si3 0.354332 0.569893 0.383770
Si Si4 0.153429 0.072585 0.212957
Si Si5 0.647078 0.930139 0.983258
Si Si6 0.655979 0.067748 0.139988
O O1 0.148277 0.750000 0.568674
O O2 0.225477 0.979421 0.515343
O O3 0.249168 0.003918 0.600547
O O4 0.000000 0.000000 0.564152
O O5 0.854982 0.250000 0.829382
O O6 0.796600 0.057685 0.763900
O O7 0.758076 0.980014 0.848240
O O8 0.000000 0.000000 0.818201
O O9 0.500000 0.500000 0.367545
O O10 0.367977 0.750000 0.383749
O O11 0.316040 0.510843 0.433521
O O12 0.146176 0.250000 0.198078
O O13 0.272109 0.982517 0.185928
O O14 0.000000 0.000000 0.204603
O O15 0.625836 0.750000 0.984149
O O16 0.500000 0.000000 0.000418
O O17 0.647079 0.250000 0.137369
O O18 0.500000 0.000000 0.136622
#
# Coordination Sequence:
#
# PCOD8181538 Si02
#       6
#     8   8   8   8   8   8
#     4  11  23  40  60  85 116 150 189 231 279 333
#     4  10  21  37  58  84 114 150 190 233 282 335
#     4  10  20  36  57  83 115 151 191 234 282 334
#     4  10  21  39  61  85 114 149 189 232 281 335
#     4   9  20  37  58  83 112 148 189 233 281 334
#     4  12  25  41  61  86 115 148 187 231 281 335
#
# _framework density 19.285488999999998
#
# number of rings (size 3 to 8) (size 9 to 14) (size 15 to 20)
#    0.000    1.667    0.000    4.500    0.000    6.667 
#    0.000    1.667    0.000    0.000    0.000    0.000 
#    0.000    0.000    0.000    0.000    0.000    0.000 
#
# Total GULP energy -297642.685593 kJ/mol
# GULP energy per Si atom -12401.778566 kJ/mol
# Density = 1.924159 g / cm^3
# Si number density = 19.285489 Si / 1000 Ang^3
#
#
#
# Elastic Constant Matrix: (Units=GPa)
#
#
# Indices 1 2 3 4 5 6 
#
# 1 113.2476 50.0172 66.5364 0.0000 0.0000 0.0000
# 2 50.0172 101.3989 44.3627 0.0000 0.0000 0.0000
# 3 66.5364 44.3627 104.6077 0.0000 0.0000 0.0000
# 4 0.0000 0.0000 0.0000 30.5994 0.0000 0.0000
# 5 0.0000 0.0000 0.0000 0.0000 42.4392 0.0000
# 6 0.0000 0.0000 0.0000 0.0000 0.0000 37.9705
#
#
#
# Elastic Compliance Matrix: (Units=1/GPa)
#
#
# Indices 1 2 3 4 5 6 
#
# 1 0.015344 -0.004050 -0.008042 0.000000 0.000000 0.000000
# 2 -0.004050 0.013178 -0.003012 0.000000 0.000000 0.000000
# 3 -0.008042 -0.003012 0.015952 0.000000 0.000000 0.000000
# 4 0.000000 0.000000 0.000000 0.032680 0.000000 0.000000
# 5 0.000000 0.000000 0.000000 0.000000 0.023563 0.000000
# 6 0.000000 0.000000 0.000000 0.000000 0.000000 0.026336
#
#
# Mechanical properties :
#
#
# Convention : Reuss Voigt Hill
#
# Bulk Modulus (GPa) = 70.10266 71.23186 70.66726
# Shear Modulus (GPa) = 30.86082 32.75769 31.80926
#
# Velocity S-wave (km/s) = 4.00460 4.12584 4.06567
# Velocity P-wave (km/s) = 7.60337 7.72738 7.66563
#
# Compressibility (1/GPa) = 0.01426479
#
# Stress axis : x y z
#
# Youngs Moduli (GPa) = 65.17220 75.88488 62.68762
#
# Poissons Ratio (x) = 0.30736 0.50413
# Poissons Ratio (y) = 0.26397 0.18883
# Poissons Ratio (z) = 0.52411 0.22859
#
# Static dielectric constant tensor:
#      x y z
#    x 3.313460 0.000000 0.000000 
#    y 0.000000 3.697490 0.000000 
#    z 0.000000 0.000000 3.943960 
# 
# 
# High freq. dielectric constant tensor:
#      x y z
#    x 1.752380 0.000000 0.000000 
#    y 0.000000 1.765530 0.000000 
#    z 0.000000 0.000000 1.764020 
# 
# From -- ./inp_files/17587.got.cif
#   From: 2010.03.12/outbox.cif.g09.slc.cpg/sg39_9_cif.got.tgz:17587.got - 2010.04.14 02:53:20.
