data_PCOD8181197
_publ_section_title
;
Structure prediction by ZEFSAII (Michael W. Deem and Ramdas Pophale) SiO2 
 PCOD8181197
Probable space group: A B M 2
;
_chemical_formula_sum "Si O2"
_cell_formula_units_Z 48
_cell_length_a 8.465499
_cell_length_b 17.615509
_cell_length_c 15.856850
_cell_angle_alpha 90.000000
_cell_angle_beta 90.000000
_cell_angle_gamma 90.000000
_cell_volume 2364.638070
_symmetry_space_group_name_H-M "A B M 2"
_symmetry_group_IT_number 39
_symmetry_cell_setting 'orthorhombic'
loop_
_space_group_symop_operation_xyz
x,y,z
-x,-y,z
-x,1/2+y,z
x,1/2-y,z
x,1/2+y,1/2+z
-x,1/2-y,1/2+z
-x,y,1/2+z
x,-y,1/2+z
loop_
_atom_site_type_symbol
_atom_site_label
_atom_site_fract_x
_atom_site_fract_y
_atom_site_fract_z
Si Si1 0.925691 0.417242 0.339970
Si Si2 0.940099 0.165655 0.176724
Si Si3 0.563097 0.334125 0.173811
Si Si4 0.052334 0.587371 0.009112
Si Si5 0.446587 0.416107 0.837902
Si Si6 0.612952 0.839675 0.491328
O O1 0.003820 0.374527 0.260928
O O2 0.739722 0.416780 0.333146
O O3 0.000000 0.500000 0.341099
O O4 0.969275 0.375137 0.427328
O O5 0.008092 0.250000 0.177504
O O6 0.752134 0.163865 0.173824
O O7 0.011499 0.125110 0.094475
O O8 0.503703 0.250000 0.197478
O O9 0.490701 0.389895 0.245167
O O10 0.511905 0.355121 0.077694
O O11 0.000000 0.500000 0.014646
O O12 0.238271 0.603119 0.994849
O O13 0.500000 0.500000 0.859693
O O14 0.506905 0.359193 0.910325
O O15 0.663262 0.750000 0.488707
#
# Coordination Sequence:
#
# PCOD8181197 Si02
#       6
#     8   8   8   8   8   8
#     4  10  21  37  55  79 112 148 187 229 278 334
#     4   9  18  33  55  80 108 145 184 226 278 333
#     4   8  17  35  56  78 108 147 186 226 279 337
#     4  10  19  35  58  83 112 149 189 229 278 336
#     4  11  21  35  57  84 113 146 188 235 281 334
#     4  10  21  39  61  84 114 151 189 233 285 338
#
# _framework density 20.299091000000001
#
# number of rings (size 3 to 8) (size 9 to 14) (size 15 to 20)
#    0.000    2.333    0.000    4.500    0.000    2.667 
#    0.000    6.667    0.000    4.000    0.000    0.000 
#    0.000    0.000    0.000    0.000    0.000    0.000 
#
# Total GULP energy -297408.761626 kJ/mol
# GULP energy per Si atom -12392.031734 kJ/mol
# Density = 2.025289 g / cm^3
# Si number density = 20.299091 Si / 1000 Ang^3
#
#
#
# Elastic Constant Matrix: (Units=GPa)
#
#
# Indices 1 2 3 4 5 6 
#
# 1 43.0948 27.8682 30.0115 0.0000 0.0000 0.0000
# 2 27.8682 107.9571 76.1528 0.0000 0.0000 0.0000
# 3 30.0115 76.1528 220.2407 0.0000 0.0000 0.0000
# 4 0.0000 0.0000 0.0000 32.8102 0.0000 0.0000
# 5 0.0000 0.0000 0.0000 0.0000 -95.1889 0.0000
# 6 0.0000 0.0000 0.0000 0.0000 0.0000 17.2095
#
#
#
# Elastic Compliance Matrix: (Units=1/GPa)
#
#
# Indices 1 2 3 4 5 6 
#
# 1 0.028363 -0.006078 -0.001763 0.000000 0.000000 0.000000
# 2 -0.006078 0.013553 -0.003858 0.000000 0.000000 0.000000
# 3 -0.001763 -0.003858 0.006115 0.000000 0.000000 0.000000
# 4 0.000000 0.000000 0.000000 0.030478 0.000000 0.000000
# 5 0.000000 0.000000 0.000000 0.000000 -0.010505 0.000000
# 6 0.000000 0.000000 0.000000 0.000000 0.000000 0.058107
#
#
# Mechanical properties :
#
#
# Convention : Reuss Voigt Hill
#
# Bulk Modulus (GPa) = 40.59667 71.03972 55.81819
# Shear Modulus (GPa) = 31.70150 6.78350 19.24250
#
# Velocity S-wave (km/s) = 3.95615 1.83004 3.08222
# Velocity P-wave (km/s) = 6.39616 6.28791 6.34227
#
# Compressibility (1/GPa) = 0.02463256
#
# Stress axis : x y z
#
# Youngs Moduli (GPa) = 35.25712 73.78214 163.53691
#
# Poissons Ratio (x) = 0.44843 0.28839
# Poissons Ratio (y) = 0.21428 0.63095
# Poissons Ratio (z) = 0.06217 0.28466
#
# Static dielectric constant tensor:
#      x y z
#    x 3.306660 0.000000 0.000000 
#    y 0.000000 2.988640 0.000000 
#    z 0.000000 0.000000 4.561990 
# 
# 
# High freq. dielectric constant tensor:
#      x y z
#    x 1.750440 0.000000 0.000000 
#    y 0.000000 1.789600 0.000000 
#    z 0.000000 0.000000 1.826540 
# 
# From -- ./inp_files/8342.got.cif
#   From: 2010.03.12/outbox.cif.g09.slc.cpg/sg39_5_cif.got.tgz:8342.got - 2010.04.14 02:53:20.
