data_PCOD8181941
_publ_section_title
;
Structure prediction by ZEFSAII (Michael W. Deem and Ramdas Pophale) SiO2 
 PCOD8181941
Probable space group: A B M 2
;
_chemical_formula_sum "Si O2"
_cell_formula_units_Z 64
_cell_length_a 9.114653
_cell_length_b 21.490601
_cell_length_c 15.880718
_cell_angle_alpha 90.000000
_cell_angle_beta 90.000000
_cell_angle_gamma 90.000000
_cell_volume 3110.705051
_symmetry_space_group_name_H-M "A B M 2"
_symmetry_group_IT_number 39
_symmetry_cell_setting 'orthorhombic'
loop_
_space_group_symop_operation_xyz
x,y,z
-x,-y,z
-x,1/2+y,z
x,1/2-y,z
x,1/2+y,1/2+z
-x,1/2-y,1/2+z
-x,y,1/2+z
x,-y,1/2+z
loop_
_atom_site_type_symbol
_atom_site_label
_atom_site_fract_x
_atom_site_fract_y
_atom_site_fract_z
Si Si1 0.163309 0.928928 0.802400
Si Si2 0.826545 0.567636 0.767127
Si Si3 0.244816 0.179555 0.884593
Si Si4 0.277785 0.385931 0.137548
Si Si5 0.763575 0.113830 0.985155
Si Si6 0.517891 0.179561 0.522511
Si Si7 0.667356 0.481499 0.109249
Si Si8 0.037003 0.320162 0.035762
O O1 0.274846 0.893083 0.738965
O O2 0.179471 0.895415 0.891045
O O3 0.001565 0.921928 0.761543
O O4 0.203790 0.001874 0.814475
O O5 0.756848 0.627381 0.812759
O O6 0.744608 0.563389 0.677595
O O7 0.258599 0.250000 0.846807
O O8 0.381750 0.162899 0.943212
O O9 0.099334 0.175275 0.941213
O O10 0.241788 0.454474 0.100991
O O11 0.156680 0.337751 0.105436
O O12 0.437336 0.363059 0.103465
O O13 0.647293 0.169501 0.991786
O O14 0.683141 0.052032 0.019374
O O15 0.900866 0.133047 0.043031
O O16 0.541442 0.250000 0.551357
O O17 0.500000 0.500000 0.132608
O O18 0.986143 0.250000 0.055168
#
# Coordination Sequence:
#
# PCOD8181941 Si02
#       8
#     8   8   8   8   8   8   8   8
#     4  10  23  37  64  99 125 168 213 276 331 385
#     4  10  21  41  61  94 134 162 215 269 325 385
#     4   9  19  38  63  91 126 170 215 265 325 394
#     4  10  21  43  64  89 129 168 222 260 328 392
#     4  12  23  39  66  94 135 163 221 274 336 389
#     4  10  22  41  63  88 127 171 216 266 326 397
#     4  11  24  40  64  96 131 175 216 270 327 400
#     4  10  21  39  66  95 127 173 222 268 323 398
#
# _framework density 20.574114999999999
#
# number of rings (size 3 to 8) (size 9 to 14) (size 15 to 20)
#    0.000    1.750    2.500    2.250    3.500    3.500 
#    0.000    6.875    0.000    0.000    0.000    0.000 
#    0.000    0.000    0.000    0.000    0.000    0.000 
#
# Total GULP energy -396711.147381 kJ/mol
# GULP energy per Si atom -12397.223356 kJ/mol
# Density = 2.052729 g / cm^3
# Si number density = 20.574115 Si / 1000 Ang^3
#
#
#
# Elastic Constant Matrix: (Units=GPa)
#
#
# Indices 1 2 3 4 5 6 
#
# 1 95.6933 16.3867 32.3799 0.0000 0.0000 0.0000
# 2 16.3867 94.0276 49.8547 0.0000 0.0000 0.0000
# 3 32.3799 49.8547 83.3799 0.0000 0.0000 0.0000
# 4 0.0000 0.0000 0.0000 36.9783 0.0000 0.0000
# 5 0.0000 0.0000 0.0000 0.0000 23.5924 0.0000
# 6 0.0000 0.0000 0.0000 0.0000 0.0000 32.3078
#
#
#
# Elastic Compliance Matrix: (Units=1/GPa)
#
#
# Indices 1 2 3 4 5 6 
#
# 1 0.012051 0.000558 -0.005014 0.000000 0.000000 0.000000
# 2 0.000558 0.015598 -0.009543 0.000000 0.000000 0.000000
# 3 -0.005014 -0.009543 0.019646 0.000000 0.000000 0.000000
# 4 0.000000 0.000000 0.000000 0.027043 0.000000 0.000000
# 5 0.000000 0.000000 0.000000 0.000000 0.042387 0.000000
# 6 0.000000 0.000000 0.000000 0.000000 0.000000 0.030952
#
#
# Mechanical properties :
#
#
# Convention : Reuss Voigt Hill
#
# Bulk Modulus (GPa) = 51.81886 52.26038 52.03962
# Shear Modulus (GPa) = 27.45652 30.20766 28.83209
#
# Velocity S-wave (km/s) = 3.65707 3.83591 3.74756
# Velocity P-wave (km/s) = 6.56303 6.71380 6.63884
#
# Compressibility (1/GPa) = 0.01929799
#
# Stress axis : x y z
#
# Youngs Moduli (GPa) = 82.98111 64.11201 50.90044
#
# Poissons Ratio (x) = -0.03578 0.25519
# Poissons Ratio (y) = -0.04631 0.48574
# Poissons Ratio (z) = 0.41603 0.61182
#
# Static dielectric constant tensor:
#      x y z
#    x 3.771880 0.000000 0.000000 
#    y 0.000000 3.802140 0.000000 
#    z 0.000000 0.000000 3.430290 
# 
# 
# High freq. dielectric constant tensor:
#      x y z
#    x 1.804500 0.000000 0.000000 
#    y 0.000000 1.814930 0.000000 
#    z 0.000000 0.000000 1.780590 
# 
# From -- ./inp_files/8798.got.cif
#   From: 2010.03.12/outbox.cif.g09.slc.cpg/sg39_5_cif.got.tgz:8798.got - 2010.04.14 02:53:20.
