data_PCOD8181028
_publ_section_title
;
Structure prediction by ZEFSAII (Michael W. Deem and Ramdas Pophale) SiO2 
 PCOD8181028
Probable space group: A B M 2
;
_chemical_formula_sum "Si O2"
_cell_formula_units_Z 56
_cell_length_a 9.390506
_cell_length_b 18.602165
_cell_length_c 18.236241
_cell_angle_alpha 90.000000
_cell_angle_beta 90.000000
_cell_angle_gamma 90.000000
_cell_volume 3185.574819
_symmetry_space_group_name_H-M "A B M 2"
_symmetry_group_IT_number 39
_symmetry_cell_setting 'orthorhombic'
loop_
_space_group_symop_operation_xyz
x,y,z
-x,-y,z
-x,1/2+y,z
x,1/2-y,z
x,1/2+y,1/2+z
-x,1/2-y,1/2+z
-x,y,1/2+z
x,-y,1/2+z
loop_
_atom_site_type_symbol
_atom_site_label
_atom_site_fract_x
_atom_site_fract_y
_atom_site_fract_z
Si Si1 0.558433 0.166272 0.474650
Si Si2 0.102098 0.067430 0.168326
Si Si3 0.062112 0.422218 0.331192
Si Si4 0.267608 0.909257 0.966931
Si Si5 0.151400 0.668260 0.409899
Si Si6 0.025321 0.834796 0.049445
Si Si7 0.642691 0.536896 0.066813
O O1 0.546823 0.250000 0.498615
O O2 0.408981 0.135477 0.446637
O O3 0.677467 0.157915 0.410326
O O4 0.609314 0.118631 0.543324
O O5 0.128900 0.093492 0.251507
O O6 0.249140 0.040871 0.133705
O O7 0.029304 0.132811 0.125403
O O8 0.000000 0.000000 0.167243
O O9 0.183986 0.411755 0.391040
O O10 0.000000 0.500000 0.338970
O O11 0.924456 0.371779 0.343094
O O12 0.179635 0.866543 0.028868
O O13 0.300133 0.989309 0.997634
O O14 0.107082 0.750000 0.399946
O O15 0.088350 0.640896 0.487769
O O16 0.038001 0.750000 0.058674
O O17 0.500000 0.500000 0.097737
#
# Coordination Sequence:
#
# PCOD8181028 Si02
#       7
#     8   8   8   8   8   8   8
#     4  10  19  33  56  84 110 139 188 233 272 324
#     4  11  21  36  54  81 114 145 183 228 286 333
#     4  10  22  35  54  82 108 145 184 231 276 331
#     4  10  20  35  58  80 111 142 187 233 277 328
#     4   9  18  33  54  79 107 140 180 224 268 321
#     4  10  19  32  56  82 106 142 184 228 275 327
#     4  10  20  34  56  82 109 150 183 232 282 328
#
# _framework density 17.579245
#
# number of rings (size 3 to 8) (size 9 to 14) (size 15 to 20)
#    0.000    2.000    2.857    1.286    2.000    1.143 
#    0.000    5.000    0.000    0.000    0.000    0.000 
#    0.000    0.000    0.000    0.000    0.000    0.000 
#
# Total GULP energy -347154.887021 kJ/mol
# GULP energy per Si atom -12398.388822 kJ/mol
# Density = 1.753923 g / cm^3
# Si number density = 17.579245 Si / 1000 Ang^3
#
#
#
# Elastic Constant Matrix: (Units=GPa)
#
#
# Indices 1 2 3 4 5 6 
#
# 1 129.4293 43.8287 65.2009 0.0000 0.0000 0.0000
# 2 43.8287 98.5959 52.5620 0.0000 0.0000 0.0000
# 3 65.2009 52.5620 111.9996 0.0000 0.0000 0.0000
# 4 0.0000 0.0000 0.0000 47.8384 0.0000 0.0000
# 5 0.0000 0.0000 0.0000 0.0000 13.6839 0.0000
# 6 0.0000 0.0000 0.0000 0.0000 0.0000 28.5700
#
#
#
# Elastic Compliance Matrix: (Units=1/GPa)
#
#
# Indices 1 2 3 4 5 6 
#
# 1 0.011223 -0.002008 -0.005591 0.000000 0.000000 0.000000
# 2 -0.002008 0.013886 -0.005348 0.000000 0.000000 0.000000
# 3 -0.005591 -0.005348 0.014693 0.000000 0.000000 0.000000
# 4 0.000000 0.000000 0.000000 0.020904 0.000000 0.000000
# 5 0.000000 0.000000 0.000000 0.000000 0.073079 0.000000
# 6 0.000000 0.000000 0.000000 0.000000 0.000000 0.035002
#
#
# Mechanical properties :
#
#
# Convention : Reuss Voigt Hill
#
# Bulk Modulus (GPa) = 71.90018 73.68979 72.79498
# Shear Modulus (GPa) = 25.08585 29.91400 27.49992
#
# Velocity S-wave (km/s) = 3.78168 4.12960 3.95947
# Velocity P-wave (km/s) = 7.74968 8.04660 7.89954
#
# Compressibility (1/GPa) = 0.01390817
#
# Stress axis : x y z
#
# Youngs Moduli (GPa) = 89.10491 72.01494 68.05968
#
# Poissons Ratio (x) = 0.14463 0.38051
# Poissons Ratio (y) = 0.17895 0.36396
# Poissons Ratio (z) = 0.49817 0.38511
#
# Static dielectric constant tensor:
#      x y z
#    x 3.494660 0.000000 0.000000 
#    y 0.000000 3.364290 0.000000 
#    z 0.000000 0.000000 3.169080 
# 
# 
# High freq. dielectric constant tensor:
#      x y z
#    x 1.692490 0.000000 0.000000 
#    y 0.000000 1.694050 0.000000 
#    z 0.000000 0.000000 1.645440 
# 
# From -- ./inp_files/11858.got.cif
#   From: 2010.03.12/outbox.cif.g09.slc.cpg/sg39_6_cif.got.tgz:11858.got - 2010.04.14 02:53:20.
