data_PCOD8181305
_publ_section_title
;
Structure prediction by ZEFSAII (Michael W. Deem and Ramdas Pophale) SiO2 
 PCOD8181305
Probable space group: A B M 2
;
_chemical_formula_sum "Si O2"
_cell_formula_units_Z 64
_cell_length_a 9.658203
_cell_length_b 14.994649
_cell_length_c 24.025394
_cell_angle_alpha 90.000000
_cell_angle_beta 90.000000
_cell_angle_gamma 90.000000
_cell_volume 3479.390329
_symmetry_space_group_name_H-M "A B M 2"
_symmetry_group_IT_number 39
_symmetry_cell_setting 'orthorhombic'
loop_
_space_group_symop_operation_xyz
x,y,z
-x,-y,z
-x,1/2+y,z
x,1/2-y,z
x,1/2+y,1/2+z
-x,1/2-y,1/2+z
-x,y,1/2+z
x,-y,1/2+z
loop_
_atom_site_type_symbol
_atom_site_label
_atom_site_fract_x
_atom_site_fract_y
_atom_site_fract_z
Si Si1 0.819139 0.848655 0.822170
Si Si2 0.116905 0.855978 0.689389
Si Si3 0.373066 0.852262 0.100127
Si Si4 0.164277 0.005580 0.398871
Si Si5 0.147292 0.348868 0.311163
Si Si6 0.811063 0.644228 0.700732
Si Si7 0.659364 0.005621 0.007347
Si Si8 0.308744 0.647314 0.589880
O O1 0.760267 0.750000 0.836248
O O2 0.762301 0.885410 0.762709
O O3 0.983026 0.844493 0.815584
O O4 0.777534 0.914123 0.872216
O O5 0.111745 0.750000 0.687495
O O6 0.183877 0.884257 0.748881
O O7 0.210053 0.890931 0.638483
O O8 0.961576 0.895959 0.684250
O O9 0.332280 0.750000 0.086847
O O10 0.299644 0.888665 0.155710
O O11 0.322019 0.911858 0.049069
O O12 0.535275 0.862302 0.111742
O O13 0.207154 0.084740 0.357146
O O14 0.241415 0.024753 0.455960
O O15 0.000000 0.000000 0.409275
O O16 0.210061 0.250000 0.321464
O O17 0.823115 0.750000 0.701594
O O18 0.500000 0.000000 0.987676
O O19 0.709994 0.913300 0.035334
O O20 0.273970 0.750000 0.574215
#
# Coordination Sequence:
#
# PCOD8181305 Si02
#       8
#     8   8   8   8   8   8   8   8
#     4   8  15  29  48  71  99 124 146 184 237 280
#     4   8  14  27  49  75  99 121 148 185 230 280
#     4   9  18  33  51  69  93 125 155 187 232 280
#     4  10  20  33  50  70  90 121 165 198 223 268
#     4   8  15  29  48  71  99 124 146 184 237 280
#     4   8  14  27  49  75  99 121 148 185 230 280
#     4  10  22  37  48  64  94 127 159 196 235 272
#     4   9  18  33  51  69  93 125 155 187 232 280
#
# _framework density 18.394026
#
# number of rings (size 3 to 8) (size 9 to 14) (size 15 to 20)
#    0.000    3.250    0.000    1.500    0.000    3.000 
#    0.000    2.500    0.000    1.500    0.000    0.000 
#    0.000    0.000    0.000    0.000    0.000    0.000 
#
# Total GULP energy -396631.420110 kJ/mol
# GULP energy per Si atom -12394.731878 kJ/mol
# Density = 1.835216 g / cm^3
# Si number density = 18.394026 Si / 1000 Ang^3
#
#
#
# Elastic Constant Matrix: (Units=GPa)
#
#
# Indices 1 2 3 4 5 6 
#
# 1 37.0102 2.7839 25.8358 0.0000 0.0000 0.0000
# 2 2.7839 43.9559 5.8166 0.0000 0.0000 0.0000
# 3 25.8358 5.8166 78.5031 0.0000 0.0000 0.0000
# 4 0.0000 0.0000 0.0000 27.9156 0.0000 0.0000
# 5 0.0000 0.0000 0.0000 0.0000 16.2424 0.0000
# 6 0.0000 0.0000 0.0000 0.0000 0.0000 13.0001
#
#
#
# Elastic Compliance Matrix: (Units=1/GPa)
#
#
# Indices 1 2 3 4 5 6 
#
# 1 0.035100 -0.000701 -0.011500 0.000000 0.000000 0.000000
# 2 -0.000701 0.022989 -0.001473 0.000000 0.000000 0.000000
# 3 -0.011500 -0.001473 0.016632 0.000000 0.000000 0.000000
# 4 0.000000 0.000000 0.000000 0.035822 0.000000 0.000000
# 5 0.000000 0.000000 0.000000 0.000000 0.061567 0.000000
# 6 0.000000 0.000000 0.000000 0.000000 0.000000 0.076922
#
#
# Mechanical properties :
#
#
# Convention : Reuss Voigt Hill
#
# Bulk Modulus (GPa) = 21.10848 25.37132 23.23990
# Shear Modulus (GPa) = 17.11322 19.76714 18.44018
#
# Velocity S-wave (km/s) = 3.05350 3.28174 3.16968
# Velocity P-wave (km/s) = 4.89208 5.30876 5.10468
#
# Compressibility (1/GPa) = 0.04737432
#
# Stress axis : x y z
#
# Youngs Moduli (GPa) = 28.49010 43.49838 60.12489
#
# Poissons Ratio (x) = 0.03051 0.69141
# Poissons Ratio (y) = 0.01998 0.08854
# Poissons Ratio (z) = 0.32763 0.06405
#
# Static dielectric constant tensor:
#      x y z
#    x 3.223040 0.000000 0.000000 
#    y 0.000000 3.622430 0.000000 
#    z 0.000000 0.000000 3.428810 
# 
# 
# High freq. dielectric constant tensor:
#      x y z
#    x 1.677770 0.000000 0.000000 
#    y 0.000000 1.715350 0.000000 
#    z 0.000000 0.000000 1.708860 
# 
# From -- ./inp_files/14216.got.cif
#   From: 2010.03.12/outbox.cif.g09.slc.cpg/sg39_8_cif.got.tgz:14216.got - 2010.04.14 02:53:20.
