data_PCOD8181156
_publ_section_title
;
Structure prediction by ZEFSAII (Michael W. Deem and Ramdas Pophale) SiO2 
 PCOD8181156
Probable space group: A B M 2
;
_chemical_formula_sum "Si O2"
_cell_formula_units_Z 64
_cell_length_a 23.973532
_cell_length_b 8.767678
_cell_length_c 15.433634
_cell_angle_alpha 90.000000
_cell_angle_beta 90.000000
_cell_angle_gamma 90.000000
_cell_volume 3244.029625
_symmetry_space_group_name_H-M "A B M 2"
_symmetry_group_IT_number 39
_symmetry_cell_setting 'orthorhombic'
loop_
_space_group_symop_operation_xyz
x,y,z
-x,-y,z
-x,1/2+y,z
x,1/2-y,z
x,1/2+y,1/2+z
-x,1/2-y,1/2+z
-x,y,1/2+z
x,-y,1/2+z
loop_
_atom_site_type_symbol
_atom_site_label
_atom_site_fract_x
_atom_site_fract_y
_atom_site_fract_z
Si Si1 0.444345 0.072818 0.784900
Si Si2 0.333483 0.929530 0.034388
Si Si3 0.442498 0.430471 0.099111
Si Si4 0.134223 0.931006 0.189114
Si Si5 0.940787 0.430326 0.542873
Si Si6 0.941704 0.570858 0.846492
Si Si7 0.260448 0.430995 0.693875
Si Si8 0.326248 0.573231 0.360656
O O1 0.454763 0.250000 0.764252
O O2 0.392424 0.049868 0.848228
O O3 0.500000 0.000000 0.827806
O O4 0.430781 0.988255 0.695737
O O5 0.342806 0.750000 0.042357
O O6 0.292393 0.991433 0.109020
O O7 0.392502 0.014465 0.038586
O O8 0.306258 0.974675 0.942645
O O9 0.500000 0.500000 0.062671
O O10 0.446478 0.250000 0.096857
O O11 0.131389 0.750000 0.178373
O O12 0.104927 0.984511 0.278399
O O13 0.197377 0.992109 0.193474
O O14 0.106485 0.005861 0.105412
O O15 0.944493 0.250000 0.552458
O O16 0.925493 0.479890 0.444226
O O17 0.000000 0.500000 0.570565
O O18 0.949142 0.750000 0.842530
O O19 0.000000 0.500000 0.817007
O O20 0.261321 0.250000 0.694345
O O21 0.292441 0.491981 0.778593
O O22 0.311901 0.750000 0.376420
#
# Coordination Sequence:
#
# PCOD8181156 Si02
#       8
#     8   8   8   8   8   8   8   8
#     4  10  19  34  57  84 115 147 182 227 285 343
#     4  11  22  39  60  84 113 150 192 238 287 340
#     4  11  21  35  58  86 115 148 185 230 286 346
#     4  10  20  36  59  83 109 151 195 232 280 335
#     4  10  20  35  55  84 118 150 183 230 280 333
#     4   9  19  34  54  81 113 147 183 223 275 332
#     4   9  20  40  60  78 112 154 191 233 285 338
#     4  10  21  39  60  82 111 151 193 235 286 345
#
# _framework density 19.728549999999998
#
# number of rings (size 3 to 8) (size 9 to 14) (size 15 to 20)
#    0.000    2.000    1.250    3.375    0.000    4.500 
#    0.000    4.375    0.000    0.000    0.000    0.000 
#    0.000    0.000    0.000    0.000    0.000    0.000 
#
# Total GULP energy -396860.932441 kJ/mol
# GULP energy per Si atom -12401.904139 kJ/mol
# Density = 1.968365 g / cm^3
# Si number density = 19.728550 Si / 1000 Ang^3
#
#
#
# Elastic Constant Matrix: (Units=GPa)
#
#
# Indices 1 2 3 4 5 6 
#
# 1 148.5313 42.0295 82.0004 0.0000 0.0000 0.0000
# 2 42.0295 77.1726 39.8799 0.0000 0.0000 0.0000
# 3 82.0004 39.8799 141.3793 0.0000 0.0000 0.0000
# 4 0.0000 0.0000 0.0000 29.0242 0.0000 0.0000
# 5 0.0000 0.0000 0.0000 0.0000 19.2466 0.0000
# 6 0.0000 0.0000 0.0000 0.0000 0.0000 23.8277
#
#
#
# Elastic Compliance Matrix: (Units=1/GPa)
#
#
# Indices 1 2 3 4 5 6 
#
# 1 0.010465 -0.003000 -0.005224 0.000000 0.000000 0.000000
# 2 -0.003000 0.016029 -0.002781 0.000000 0.000000 0.000000
# 3 -0.005224 -0.002781 0.010887 0.000000 0.000000 0.000000
# 4 0.000000 0.000000 0.000000 0.034454 0.000000 0.000000
# 5 0.000000 0.000000 0.000000 0.000000 0.051957 0.000000
# 6 0.000000 0.000000 0.000000 0.000000 0.000000 0.041968
#
#
# Mechanical properties :
#
#
# Convention : Reuss Voigt Hill
#
# Bulk Modulus (GPa) = 65.05492 77.21141 71.13317
# Shear Modulus (GPa) = 25.92074 27.96459 26.94266
#
# Velocity S-wave (km/s) = 3.62867 3.76901 3.69950
# Velocity P-wave (km/s) = 7.11357 7.62643 7.37446
#
# Compressibility (1/GPa) = 0.01537163
#
# Stress axis : x y z
#
# Youngs Moduli (GPa) = 95.55281 62.38598 91.84875
#
# Poissons Ratio (x) = 0.18717 0.47979
# Poissons Ratio (y) = 0.28668 0.25546
# Poissons Ratio (z) = 0.49914 0.17352
#
# Static dielectric constant tensor:
#      x y z
#    x 3.355110 0.000000 0.000000 
#    y 0.000000 3.425290 0.000000 
#    z 0.000000 0.000000 3.684870 
# 
# 
# High freq. dielectric constant tensor:
#      x y z
#    x 1.766240 0.000000 0.000000 
#    y 0.000000 1.756520 0.000000 
#    z 0.000000 0.000000 1.775810 
# 
# From -- ./inp_files/10550.got.cif
#   From: 2010.03.12/outbox.cif.g09.slc.cpg/sg39_6_cif.got.tgz:10550.got - 2010.04.14 02:53:20.
