data_PCOD8181036
_publ_section_title
;
Structure prediction by ZEFSAII (Michael W. Deem and Ramdas Pophale) SiO2 
 PCOD8181036
Probable space group: A B M 2
;
_chemical_formula_sum "Si O2"
_cell_formula_units_Z 64
_cell_length_a 11.266962
_cell_length_b 14.583764
_cell_length_c 18.345795
_cell_angle_alpha 90.000000
_cell_angle_beta 90.000000
_cell_angle_gamma 90.000000
_cell_volume 3014.484073
_symmetry_space_group_name_H-M "A B M 2"
_symmetry_group_IT_number 39
_symmetry_cell_setting 'orthorhombic'
loop_
_space_group_symop_operation_xyz
x,y,z
-x,-y,z
-x,1/2+y,z
x,1/2-y,z
x,1/2+y,1/2+z
-x,1/2-y,1/2+z
-x,y,1/2+z
x,-y,1/2+z
loop_
_atom_site_type_symbol
_atom_site_label
_atom_site_fract_x
_atom_site_fract_y
_atom_site_fract_z
Si Si1 0.772085 0.470358 0.434080
Si Si2 0.046270 0.141934 0.657704
Si Si3 0.418444 0.924977 0.627026
Si Si4 0.539182 0.356279 0.270757
Si Si5 0.834821 0.475554 0.599378
Si Si6 0.807775 0.356234 0.302593
Si Si7 0.431808 0.651450 0.482274
Si Si8 0.352372 0.853378 0.896946
O O1 0.836176 0.458331 0.512247
O O2 0.847828 0.415062 0.373477
O O3 0.641142 0.426639 0.440678
O O4 0.756217 0.575115 0.405050
O O5 0.045918 0.250000 0.636676
O O6 0.093589 0.127514 0.740090
O O7 0.917991 0.096023 0.643644
O O8 0.132388 0.082946 0.606022
O O9 0.483276 0.903606 0.701218
O O10 0.288346 0.964197 0.641089
O O11 0.407307 0.842928 0.568963
O O12 0.500000 0.000000 0.585700
O O13 0.542082 0.250000 0.254434
O O14 0.674750 0.390772 0.281108
O O15 0.450813 0.380805 0.336537
O O16 0.804588 0.250000 0.324167
O O17 0.391851 0.750000 0.448595
O O18 0.573326 0.640712 0.471864
O O19 0.301573 0.750000 0.882991
#
# Coordination Sequence:
#
# PCOD8181036 Si02
#       8
#     8   8   8   8   8   8   8   8
#     4  11  21  36  64  91 125 168 215 271 330 401
#     4  10  23  46  70  91 125 169 222 286 332 377
#     4  11  22  34  59  94 129 170 208 258 329 400
#     4  10  21  35  54  90 134 170 210 258 320 397
#     4  10  24  43  65  98 126 166 226 270 331 397
#     4  10  21  38  66  99 128 173 224 271 331 396
#     4  10  19  33  51  82 128 171 213 256 310 390
#     4  10  21  34  53  88 135 176 207 255 321 397
#
# _framework density 21.230830000000001
#
# number of rings (size 3 to 8) (size 9 to 14) (size 15 to 20)
#    0.000    1.750    1.250    3.375    3.500    3.500 
#    0.000    5.625    0.000    0.000    0.000    0.000 
#    0.000    0.000    0.000    0.000    0.000    0.000 
#
# Total GULP energy -396486.353036 kJ/mol
# GULP energy per Si atom -12390.198532 kJ/mol
# Density = 2.118251 g / cm^3
# Si number density = 21.230830 Si / 1000 Ang^3
#
#
#
# Elastic Constant Matrix: (Units=GPa)
#
#
# Indices 1 2 3 4 5 6 
#
# 1 77.0391 34.1726 52.4873 0.0000 0.0000 0.0000
# 2 34.1726 122.0166 58.4742 0.0000 0.0000 0.0000
# 3 52.4873 58.4742 113.9599 0.0000 0.0000 0.0000
# 4 0.0000 0.0000 0.0000 31.4074 0.0000 0.0000
# 5 0.0000 0.0000 0.0000 0.0000 28.3321 0.0000
# 6 0.0000 0.0000 0.0000 0.0000 0.0000 28.2451
#
#
#
# Elastic Compliance Matrix: (Units=1/GPa)
#
#
# Indices 1 2 3 4 5 6 
#
# 1 0.019122 -0.001505 -0.008035 0.000000 0.000000 0.000000
# 2 -0.001505 0.010986 -0.004944 0.000000 0.000000 0.000000
# 3 -0.008035 -0.004944 0.015013 0.000000 0.000000 0.000000
# 4 0.000000 0.000000 0.000000 0.031840 0.000000 0.000000
# 5 0.000000 0.000000 0.000000 0.000000 0.035296 0.000000
# 6 0.000000 0.000000 0.000000 0.000000 0.000000 0.035404
#
#
# Mechanical properties :
#
#
# Convention : Reuss Voigt Hill
#
# Bulk Modulus (GPa) = 61.90725 67.03155 64.46940
# Shear Modulus (GPa) = 27.47040 28.78901 28.12971
#
# Velocity S-wave (km/s) = 3.60097 3.68639 3.64393
# Velocity P-wave (km/s) = 6.81995 7.05411 6.93802
#
# Compressibility (1/GPa) = 0.01615320
#
# Stress axis : x y z
#
# Youngs Moduli (GPa) = 52.29487 91.02099 66.60995
#
# Poissons Ratio (x) = 0.13697 0.53522
# Poissons Ratio (y) = 0.07869 0.32933
# Poissons Ratio (z) = 0.42020 0.45003
#
# Static dielectric constant tensor:
#      x y z
#    x 3.608670 0.000000 0.000000 
#    y 0.000000 4.079930 0.000000 
#    z 0.000000 0.000000 3.868550 
# 
# 
# High freq. dielectric constant tensor:
#      x y z
#    x 1.801960 0.000000 0.000000 
#    y 0.000000 1.843310 0.000000 
#    z 0.000000 0.000000 1.836960 
# 
# From -- ./inp_files/12345.got.cif
#   From: 2010.03.12/outbox.cif.g09.slc.cpg/sg39_7_cif.got.tgz:12345.got - 2010.04.14 02:53:20.
