data_PCOD8181949
_publ_section_title
;
Structure prediction by ZEFSAII (Michael W. Deem and Ramdas Pophale) SiO2 
 PCOD8181949
Probable space group: A B M 2
;
_chemical_formula_sum "Si O2"
_cell_formula_units_Z 48
_cell_length_a 14.007652
_cell_length_b 8.898390
_cell_length_c 19.992970
_cell_angle_alpha 90.000000
_cell_angle_beta 90.000000
_cell_angle_gamma 90.000000
_cell_volume 2492.034751
_symmetry_space_group_name_H-M "A B M 2"
_symmetry_group_IT_number 39
_symmetry_cell_setting 'orthorhombic'
loop_
_space_group_symop_operation_xyz
x,y,z
-x,-y,z
-x,1/2+y,z
x,1/2-y,z
x,1/2+y,1/2+z
-x,1/2-y,1/2+z
-x,y,1/2+z
x,-y,1/2+z
loop_
_atom_site_type_symbol
_atom_site_label
_atom_site_fract_x
_atom_site_fract_y
_atom_site_fract_z
Si Si1 0.907021 0.076445 0.295170
Si Si2 0.599657 0.075251 0.954418
Si Si3 0.700716 0.426314 0.329793
Si Si4 0.904608 0.426500 0.143471
Si Si5 0.399217 0.571849 0.708484
Si Si6 0.703039 0.076113 0.090340
O O1 0.930223 0.250000 0.291719
O O2 0.813836 0.044594 0.340490
O O3 0.889983 0.016106 0.219624
O O4 0.000000 0.000000 0.328253
O O5 0.582555 0.250000 0.939109
O O6 0.500000 0.000000 0.974931
O O7 0.640559 0.996344 0.889157
O O8 0.675505 0.051232 0.013459
O O9 0.677970 0.250000 0.323971
O O10 0.676353 0.507131 0.260667
O O11 0.917861 0.250000 0.140002
O O12 0.812383 0.476560 0.100453
O O13 0.000000 0.500000 0.112212
O O14 0.500000 0.500000 0.726666
O O15 0.406129 0.750000 0.713789
O O16 0.367537 0.524901 0.634340
O O17 0.690215 0.250000 0.111985
#
# Coordination Sequence:
#
# PCOD8181949 Si02
#       6
#     8   8   8   8   8   8
#     4   9  18  33  57  85 116 150 187 234 287 342
#     4  11  24  41  61  84 115 157 198 241 292 350
#     4  11  22  40  61  84 117 154 194 241 291 343
#     4   9  17  33  56  85 117 150 188 233 287 341
#     4  12  24  37  58  86 115 147 192 243 292 346
#     4  10  21  40  61  84 118 154 193 240 291 342
#
# _framework density 19.261367
#
# number of rings (size 3 to 8) (size 9 to 14) (size 15 to 20)
#    0.000    1.667    1.667    3.500    0.000    4.667 
#    0.000    0.833    0.000    4.000    0.000    0.000 
#    0.000    0.000    0.000    0.000    0.000    0.000 
#
# Total GULP energy -297657.606643 kJ/mol
# GULP energy per Si atom -12402.400277 kJ/mol
# Density = 1.921753 g / cm^3
# Si number density = 19.261367 Si / 1000 Ang^3
#
#
#
# Elastic Constant Matrix: (Units=GPa)
#
#
# Indices 1 2 3 4 5 6 
#
# 1 121.3296 44.9667 18.7804 0.0000 0.0000 0.0000
# 2 44.9667 100.9562 28.7837 0.0000 0.0000 0.0000
# 3 18.7804 28.7837 57.4144 0.0000 0.0000 0.0000
# 4 0.0000 0.0000 0.0000 25.0011 0.0000 0.0000
# 5 0.0000 0.0000 0.0000 0.0000 31.6921 0.0000
# 6 0.0000 0.0000 0.0000 0.0000 0.0000 36.7039
#
#
#
# Elastic Compliance Matrix: (Units=1/GPa)
#
#
# Indices 1 2 3 4 5 6 
#
# 1 0.009942 -0.004085 -0.001204 0.000000 0.000000 0.000000
# 2 -0.004085 0.013236 -0.005299 0.000000 0.000000 0.000000
# 3 -0.001204 -0.005299 0.020468 0.000000 0.000000 0.000000
# 4 0.000000 0.000000 0.000000 0.039998 0.000000 0.000000
# 5 0.000000 0.000000 0.000000 0.000000 0.031554 0.000000
# 6 0.000000 0.000000 0.000000 0.000000 0.000000 0.027245
#
#
# Mechanical properties :
#
#
# Convention : Reuss Voigt Hill
#
# Bulk Modulus (GPa) = 44.50605 51.64021 48.07313
# Shear Modulus (GPa) = 29.22105 31.15738 30.18921
#
# Velocity S-wave (km/s) = 3.89920 4.02632 3.96327
# Velocity P-wave (km/s) = 6.59001 6.96300 6.77907
#
# Compressibility (1/GPa) = 0.02246885
#
# Stress axis : x y z
#
# Youngs Moduli (GPa) = 100.57916 75.55324 48.85716
#
# Poissons Ratio (x) = 0.30864 0.05883
# Poissons Ratio (y) = 0.41088 0.25891
# Poissons Ratio (z) = 0.12112 0.40038
#
# Static dielectric constant tensor:
#      x y z
#    x 3.733290 0.000000 0.000000 
#    y 0.000000 3.532300 0.000000 
#    z 0.000000 0.000000 3.271890 
# 
# 
# High freq. dielectric constant tensor:
#      x y z
#    x 1.766540 0.000000 0.000000 
#    y 0.000000 1.751910 0.000000 
#    z 0.000000 0.000000 1.724540 
# 
# From -- ./inp_files/12634.got.cif
#   From: 2010.03.12/outbox.cif.g09.slc.cpg/sg39_7_cif.got.tgz:12634.got - 2010.04.14 02:53:20.
