data_PCOD8181929
_publ_section_title
;
Structure prediction by ZEFSAII (Michael W. Deem and Ramdas Pophale) SiO2 
 PCOD8181929
Probable space group: A B M 2
;
_chemical_formula_sum "Si O2"
_cell_formula_units_Z 52
_cell_length_a 9.192642
_cell_length_b 22.798566
_cell_length_c 13.402335
_cell_angle_alpha 90.000000
_cell_angle_beta 90.000000
_cell_angle_gamma 90.000000
_cell_volume 2808.848709
_symmetry_space_group_name_H-M "A B M 2"
_symmetry_group_IT_number 39
_symmetry_cell_setting 'orthorhombic'
loop_
_space_group_symop_operation_xyz
x,y,z
-x,-y,z
-x,1/2+y,z
x,1/2-y,z
x,1/2+y,1/2+z
-x,1/2-y,1/2+z
-x,y,1/2+z
x,-y,1/2+z
loop_
_atom_site_type_symbol
_atom_site_label
_atom_site_fract_x
_atom_site_fract_y
_atom_site_fract_z
Si Si1 0.862520 0.250000 0.270140
Si Si2 0.980629 0.750000 0.073965
Si Si3 0.304002 0.250000 0.579061
Si Si4 0.183067 0.838598 0.442668
Si Si5 0.500921 0.855446 0.508346
Si Si6 0.150011 0.970527 0.490231
Si Si7 0.615033 0.948999 0.149099
Si Si8 0.370607 0.954783 0.876943
O O1 0.718220 0.250000 0.199725
O O2 0.865109 0.192128 0.339393
O O3 0.004111 0.250000 0.195684
O O4 0.144121 0.750000 0.027178
O O5 0.894987 0.692291 0.037032
O O6 0.392555 0.194348 0.544296
O O7 0.357429 0.831328 0.452461
O O8 0.135002 0.906490 0.439321
O O9 0.451373 0.889459 0.606856
O O10 0.594676 0.895722 0.435222
O O11 0.238548 0.966168 0.592410
O O12 0.223913 0.014519 0.412495
O O13 0.000000 0.000000 0.520363
O O14 0.652753 0.937790 0.263004
O O15 0.500000 0.000000 0.133007
O O16 0.500000 0.000000 0.895352
#
# Coordination Sequence:
#
# PCOD8181929 Si02
#       8
#     4   4   4   8   8   8   8   8
#     4   9  22  41  67  84 119 164 207 245 321 361
#     4   9  22  41  59  87 119 165 202 245 312 358
#     4  10  24  36  66  91 114 161 205 262 297 367
#     4  10  21  43  64  86 126 165 196 260 308 365
#     4  11  21  41  64  92 125 156 208 259 305 364
#     4  11  23  40  62  93 130 163 205 254 312 373
#     4  10  21  39  64  89 125 161 202 252 309 372
#     4  11  21  40  63  93 123 166 202 253 314 370
#
# _framework density 18.512923000000001
#
# number of rings (size 3 to 8) (size 9 to 14) (size 15 to 20)
#    0.462    1.231    4.615    0.923    4.308    0.615 
#    8.308    0.000    0.000    0.000    0.000    0.000 
#    0.000    0.000    0.000    0.000    0.000    0.000 
#
# Total GULP energy -322376.892729 kJ/mol
# GULP energy per Si atom -12399.111259 kJ/mol
# Density = 1.847079 g / cm^3
# Si number density = 18.512923 Si / 1000 Ang^3
#
#
#
# Elastic Constant Matrix: (Units=GPa)
#
#
# Indices 1 2 3 4 5 6 
#
# 1 98.4381 76.3396 46.7302 0.0000 0.0000 0.0000
# 2 76.3396 127.3064 80.0305 0.0000 0.0000 0.0000
# 3 46.7302 80.0305 143.2094 0.0000 0.0000 0.0000
# 4 0.0000 0.0000 0.0000 0.8787 0.0000 0.0000
# 5 0.0000 0.0000 0.0000 0.0000 34.6628 0.0000
# 6 0.0000 0.0000 0.0000 0.0000 0.0000 26.4979
#
#
#
# Elastic Compliance Matrix: (Units=1/GPa)
#
#
# Indices 1 2 3 4 5 6 
#
# 1 0.018996 -0.011553 0.000258 0.000000 0.000000 0.000000
# 2 -0.011553 0.019135 -0.006924 0.000000 0.000000 0.000000
# 3 0.000258 -0.006924 0.010768 0.000000 0.000000 0.000000
# 4 0.000000 0.000000 0.000000 1.138104 0.000000 0.000000
# 5 0.000000 0.000000 0.000000 0.000000 0.028849 0.000000
# 6 0.000000 0.000000 0.000000 0.000000 0.000000 0.037739
#
#
# Mechanical properties :
#
#
# Convention : Reuss Voigt Hill
#
# Bulk Modulus (GPa) = 80.24902 86.12828 83.18865
# Shear Modulus (GPa) = 3.86344 23.46477 13.66411
#
# Velocity S-wave (km/s) = 1.44617 3.56403 2.71972
# Velocity P-wave (km/s) = 6.79928 7.97250 7.40915
#
# Compressibility (1/GPa) = 0.01246121
#
# Stress axis : x y z
#
# Youngs Moduli (GPa) = 52.64386 52.25963 92.86855
#
# Poissons Ratio (x) = 0.60374 -0.02393
# Poissons Ratio (y) = 0.60818 0.64299
# Poissons Ratio (z) = -0.01357 0.36183
#
# Static dielectric constant tensor:
#      x y z
#    x 3.273780 0.000000 0.000000 
#    y 0.000000 3.563330 0.000000 
#    z 0.000000 0.000000 3.406500 
# 
# 
# High freq. dielectric constant tensor:
#      x y z
#    x 1.716790 0.000000 0.000000 
#    y 0.000000 1.725980 0.000000 
#    z 0.000000 0.000000 1.717150 
# 
# From -- ./inp_files/8598.got.cif
#   From: 2010.03.12/outbox.cif.g09.slc.cpg/sg39_5_cif.got.tgz:8598.got - 2010.04.14 02:53:20.
