data_PCOD8181214
_publ_section_title
;
Structure prediction by ZEFSAII (Michael W. Deem and Ramdas Pophale) SiO2 
 PCOD8181214
Probable space group: A B M 2
;
_chemical_formula_sum "Si O2"
_cell_formula_units_Z 64
_cell_length_a 23.782880
_cell_length_b 8.736690
_cell_length_c 15.485913
_cell_angle_alpha 90.000000
_cell_angle_beta 90.000000
_cell_angle_gamma 90.000000
_cell_volume 3217.719525
_symmetry_space_group_name_H-M "A B M 2"
_symmetry_group_IT_number 39
_symmetry_cell_setting 'orthorhombic'
loop_
_space_group_symop_operation_xyz
x,y,z
-x,-y,z
-x,1/2+y,z
x,1/2-y,z
x,1/2+y,1/2+z
-x,1/2-y,1/2+z
-x,y,1/2+z
x,-y,1/2+z
loop_
_atom_site_type_symbol
_atom_site_label
_atom_site_fract_x
_atom_site_fract_y
_atom_site_fract_z
Si Si1 0.249630 0.073494 0.979880
Si Si2 0.866885 0.929523 0.724305
Si Si3 0.561442 0.432191 0.631567
Si Si4 0.762060 0.428491 0.800178
Si Si5 0.363867 0.928435 0.787300
Si Si6 0.633740 0.569057 0.482129
Si Si7 0.061075 0.430560 0.886151
Si Si8 0.869479 0.572382 0.050907
O O1 0.268149 0.250000 0.980210
O O2 0.228111 0.028096 0.885341
O O3 0.197424 0.045193 0.043326
O O4 0.302668 0.972749 0.010185
O O5 0.855464 0.750000 0.731387
O O6 0.909685 0.986616 0.797908
O O7 0.808290 0.021093 0.731247
O O8 0.892616 0.974532 0.631595
O O9 0.500000 0.500000 0.638283
O O10 0.559287 0.250000 0.632172
O O11 0.596089 0.499908 0.713678
O O12 0.589308 0.485609 0.542637
O O13 0.767310 0.250000 0.823697
O O14 0.700482 0.463614 0.761030
O O15 0.375351 0.750000 0.789814
O O16 0.376637 0.991478 0.883877
O O17 0.625834 0.750000 0.489620
O O18 0.055873 0.250000 0.886564
O O19 0.000000 0.500000 0.893657
O O20 0.098583 0.488519 0.966157
O O21 0.883060 0.750000 0.066243
#
# Coordination Sequence:
#
# PCOD8181214 Si02
#       8
#     8   8   8   8   8   8   8   8
#     4  10  19  36  60  87 124 162 196 246 305 362
#     4  11  23  39  59  90 124 157 200 250 302 361
#     4  11  23  41  61  85 117 159 202 248 299 357
#     4  10  19  35  60  89 121 159 200 246 303 364
#     4   8  19  38  59  83 117 155 194 241 296 351
#     4  10  21  39  60  89 121 156 200 248 297 361
#     4  10  23  44  64  85 120 161 203 251 301 357
#     4  10  22  40  60  86 122 160 199 245 303 359
#
# _framework density 19.889862000000001
#
# number of rings (size 3 to 8) (size 9 to 14) (size 15 to 20)
#    0.000    2.000    1.250    2.625    1.750    3.500 
#    0.000   10.625    0.000    0.000    0.000    0.000 
#    0.000    0.000    0.000    0.000    0.000    0.000 
#
# Total GULP energy -396835.891125 kJ/mol
# GULP energy per Si atom -12401.121598 kJ/mol
# Density = 1.984459 g / cm^3
# Si number density = 19.889862 Si / 1000 Ang^3
#
#
#
# Elastic Constant Matrix: (Units=GPa)
#
#
# Indices 1 2 3 4 5 6 
#
# 1 122.6178 38.2930 62.7717 0.0000 0.0000 0.0000
# 2 38.2930 53.3505 34.4185 0.0000 0.0000 0.0000
# 3 62.7717 34.4185 118.8127 0.0000 0.0000 0.0000
# 4 0.0000 0.0000 0.0000 31.1566 0.0000 0.0000
# 5 0.0000 0.0000 0.0000 0.0000 11.0189 0.0000
# 6 0.0000 0.0000 0.0000 0.0000 0.0000 35.2996
#
#
#
# Elastic Compliance Matrix: (Units=1/GPa)
#
#
# Indices 1 2 3 4 5 6 
#
# 1 0.012479 -0.005785 -0.004917 0.000000 0.000000 0.000000
# 2 -0.005785 0.025734 -0.004398 0.000000 0.000000 0.000000
# 3 -0.004917 -0.004398 0.012289 0.000000 0.000000 0.000000
# 4 0.000000 0.000000 0.000000 0.032096 0.000000 0.000000
# 5 0.000000 0.000000 0.000000 0.000000 0.090753 0.000000
# 6 0.000000 0.000000 0.000000 0.000000 0.000000 0.028329
#
#
# Mechanical properties :
#
#
# Convention : Reuss Voigt Hill
#
# Bulk Modulus (GPa) = 49.25982 62.86082 56.06032
# Shear Modulus (GPa) = 20.95139 26.11490 23.53314
#
# Velocity S-wave (km/s) = 3.24909 3.62743 3.44346
# Velocity P-wave (km/s) = 6.23662 7.01551 6.63750
#
# Compressibility (1/GPa) = 0.02030052
#
# Stress axis : x y z
#
# Youngs Moduli (GPa) = 80.13247 38.85954 81.37525
#
# Poissons Ratio (x) = 0.22480 0.40015
# Poissons Ratio (y) = 0.46355 0.35793
# Poissons Ratio (z) = 0.39404 0.17092
#
# Static dielectric constant tensor:
#      x y z
#    x 3.708360 0.000000 0.000000 
#    y 0.000000 3.458890 0.000000 
#    z 0.000000 0.000000 3.818550 
# 
# 
# High freq. dielectric constant tensor:
#      x y z
#    x 1.772280 0.000000 0.000000 
#    y 0.000000 1.766090 0.000000 
#    z 0.000000 0.000000 1.783370 
# 
# From -- ./inp_files/10579.got.cif
#   From: 2010.03.12/outbox.cif.g09.slc.cpg/sg39_6_cif.got.tgz:10579.got - 2010.04.14 02:53:20.
