data_PCOD8181742
_publ_section_title
;
Structure prediction by ZEFSAII (Michael W. Deem and Ramdas Pophale) SiO2 
 PCOD8181742
Probable space group: A B M 2
;
_chemical_formula_sum "Si O2"
_cell_formula_units_Z 40
_cell_length_a 13.329460
_cell_length_b 13.437220
_cell_length_c 9.400840
_cell_angle_alpha 90.000000
_cell_angle_beta 90.000000
_cell_angle_gamma 90.000000
_cell_volume 1683.792786
_symmetry_space_group_name_H-M "A B M 2"
_symmetry_group_IT_number 39
_symmetry_cell_setting 'orthorhombic'
loop_
_space_group_symop_operation_xyz
x,y,z
-x,-y,z
-x,1/2+y,z
x,1/2-y,z
x,1/2+y,1/2+z
-x,1/2-y,1/2+z
-x,y,1/2+z
x,-y,1/2+z
loop_
_atom_site_type_symbol
_atom_site_label
_atom_site_fract_x
_atom_site_fract_y
_atom_site_fract_z
Si Si1 0.604743 0.040692 0.430880
Si Si2 0.894105 0.750000 0.973955
Si Si3 0.833441 0.750000 0.590375
Si Si4 0.679683 0.250000 0.343590
Si Si5 0.190430 0.750000 0.754599
Si Si6 0.721951 0.042944 0.702748
Si Si7 0.085977 0.081118 0.761985
O O1 0.608793 0.155535 0.377285
O O2 0.694468 0.016460 0.541301
O O3 0.500000 0.000000 0.494784
O O4 0.622409 0.972051 0.294574
O O5 0.775062 0.750000 0.946302
O O6 0.937519 0.851784 0.902736
O O7 0.908302 0.750000 0.147514
O O8 0.727458 0.750000 0.679782
O O9 0.830605 0.750000 0.421129
O O10 0.901504 0.845940 0.627333
O O11 0.254848 0.842641 0.710336
O O12 0.808648 0.975906 0.773075
O O13 0.000000 0.000000 0.736179
#
# Coordination Sequence:
#
# PCOD8181742 Si02
#       7
#     8   4   4   4   4   8   8
#     4  12  25  44  73 106 146 199 254 314 386 454
#     4  10  20  47  75 103 150 199 248 306 388 450
#     4  10  22  45  76 106 148 204 253 312 385 452
#     4  10  20  49  70  99 144 203 240 312 384 450
#     4  12  24  41  73 108 142 204 245 306 385 450
#     4  12  23  44  68 107 146 195 245 319 378 454
#     4  10  22  45  77 106 143 206 254 311 380 457
#
# _framework density 23.755890999999998
#
# number of rings (size 3 to 8) (size 9 to 14) (size 15 to 20)
#    0.000    1.200    6.000    1.800    0.000    2.400 
#    0.000   17.000    0.000    0.000    0.000    0.000 
#    0.000    0.000    0.000    0.000    0.000    0.000 
#
# Total GULP energy -247774.886781 kJ/mol
# GULP energy per Si atom -12388.744339 kJ/mol
# Density = 2.370182 g / cm^3
# Si number density = 23.755891 Si / 1000 Ang^3
#
#
#
# Elastic Constant Matrix: (Units=GPa)
#
#
# Indices 1 2 3 4 5 6 
#
# 1 99.1991 52.9848 30.5346 0.0000 0.0000 0.0000
# 2 52.9848 127.6203 37.3703 0.0000 0.0000 0.0000
# 3 30.5346 37.3703 170.0702 0.0000 0.0000 0.0000
# 4 0.0000 0.0000 0.0000 28.7000 0.0000 0.0000
# 5 0.0000 0.0000 0.0000 0.0000 24.9672 0.0000
# 6 0.0000 0.0000 0.0000 0.0000 0.0000 69.4867
#
#
#
# Elastic Compliance Matrix: (Units=1/GPa)
#
#
# Indices 1 2 3 4 5 6 
#
# 1 0.013195 -0.005114 -0.001245 0.000000 0.000000 0.000000
# 2 -0.005114 0.010356 -0.001358 0.000000 0.000000 0.000000
# 3 -0.001245 -0.001358 0.006402 0.000000 0.000000 0.000000
# 4 0.000000 0.000000 0.000000 0.034843 0.000000 0.000000
# 5 0.000000 0.000000 0.000000 0.000000 0.040053 0.000000
# 6 0.000000 0.000000 0.000000 0.000000 0.000000 0.014391
#
#
# Mechanical properties :
#
#
# Convention : Reuss Voigt Hill
#
# Bulk Modulus (GPa) = 68.86951 70.96324 69.91638
# Shear Modulus (GPa) = 35.83863 43.03077 39.43470
#
# Velocity S-wave (km/s) = 3.88831 4.26064 4.07873
# Velocity P-wave (km/s) = 7.01513 7.35804 7.18863
#
# Compressibility (1/GPa) = 0.01452021
#
# Stress axis : x y z
#
# Youngs Moduli (GPa) = 75.78353 96.55908 156.20531
#
# Poissons Ratio (x) = 0.49378 0.19455
# Poissons Ratio (y) = 0.38754 0.21205
# Poissons Ratio (z) = 0.09439 0.13108
#
# Static dielectric constant tensor:
#      x y z
#    x 4.006410 0.000000 0.000000 
#    y 0.000000 4.691020 0.000000 
#    z 0.000000 0.000000 4.469870 
# 
# 
# High freq. dielectric constant tensor:
#      x y z
#    x 1.918370 0.000000 0.000000 
#    y 0.000000 1.960020 0.000000 
#    z 0.000000 0.000000 1.951410 
# 
# From -- ./inp_files/3121.got.cif
#   From: 2010.03.12/outbox.cif.g09.slc.cpg/sg39_2_cif.got.tgz:3121.got - 2010.04.14 02:53:20.
