data_PCOD8181230
_publ_section_title
;
Structure prediction by ZEFSAII (Michael W. Deem and Ramdas Pophale) SiO2 
 PCOD8181230
Probable space group: A B M 2
;
_chemical_formula_sum "Si O2"
_cell_formula_units_Z 40
_cell_length_a 13.262728
_cell_length_b 17.357583
_cell_length_c 9.808873
_cell_angle_alpha 90.000000
_cell_angle_beta 90.000000
_cell_angle_gamma 90.000000
_cell_volume 2258.089884
_symmetry_space_group_name_H-M "A B M 2"
_symmetry_group_IT_number 39
_symmetry_cell_setting 'orthorhombic'
loop_
_space_group_symop_operation_xyz
x,y,z
-x,-y,z
-x,1/2+y,z
x,1/2-y,z
x,1/2+y,1/2+z
-x,1/2-y,1/2+z
-x,y,1/2+z
x,-y,1/2+z
loop_
_atom_site_type_symbol
_atom_site_label
_atom_site_fract_x
_atom_site_fract_y
_atom_site_fract_z
Si Si1 0.782797 0.438500 0.179930
Si Si2 0.436234 0.837039 0.919488
Si Si3 0.116167 0.510419 0.925661
Si Si4 0.446072 0.923951 0.190920
Si Si5 0.204956 0.836208 0.944159
O O1 0.851725 0.447534 0.313556
O O2 0.667862 0.449345 0.225202
O O3 0.817946 0.501039 0.064239
O O4 0.796019 0.354260 0.108313
O O5 0.474206 0.750000 0.898419
O O6 0.500976 0.893702 0.826849
O O7 0.317853 0.844274 0.884619
O O8 0.453674 0.858842 0.076400
O O9 0.136573 0.598388 0.869748
O O10 0.000000 0.500000 0.962315
O O11 0.500000 0.000000 0.135802
O O12 0.162564 0.750000 0.919557
#
# Coordination Sequence:
#
# PCOD8181230 Si02
#       5
#     8   8   8   8   8
#     4   9  21  34  57  82 109 143 183 230 276 325
#     4  10  20  35  54  79 111 149 178 213 271 331
#     4  10  19  36  60  81 104 145 189 232 278 329
#     4  11  21  33  54  82 113 142 183 221 268 322
#     4   8  18  36  56  78 109 145 177 220 278 330
#
# _framework density 17.714088
#
# number of rings (size 3 to 8) (size 9 to 14) (size 15 to 20)
#    1.200    1.200    0.000    3.000    2.800    0.800 
#    0.000    1.000    0.000    1.200    0.000    0.000 
#    0.000    0.000    0.000    0.000    0.000    0.000 
#
# Total GULP energy -247792.799409 kJ/mol
# GULP energy per Si atom -12389.639970 kJ/mol
# Density = 1.767377 g / cm^3
# Si number density = 17.714088 Si / 1000 Ang^3
#
#
#
# Elastic Constant Matrix: (Units=GPa)
#
#
# Indices 1 2 3 4 5 6 
#
# 1 99.7137 43.7534 31.7734 0.0000 0.0000 0.0000
# 2 43.7534 73.0683 10.1476 0.0000 0.0000 0.0000
# 3 31.7734 10.1476 70.7951 0.0000 0.0000 0.0000
# 4 0.0000 0.0000 0.0000 18.6059 0.0000 0.0000
# 5 0.0000 0.0000 0.0000 0.0000 25.3509 0.0000
# 6 0.0000 0.0000 0.0000 0.0000 0.0000 20.7830
#
#
#
# Elastic Compliance Matrix: (Units=1/GPa)
#
#
# Indices 1 2 3 4 5 6 
#
# 1 0.015626 -0.008553 -0.005787 0.000000 0.000000 0.000000
# 2 -0.008553 0.018645 0.001166 0.000000 0.000000 0.000000
# 3 -0.005787 0.001166 0.016555 0.000000 0.000000 0.000000
# 4 0.000000 0.000000 0.000000 0.053747 0.000000 0.000000
# 5 0.000000 0.000000 0.000000 0.000000 0.039446 0.000000
# 6 0.000000 0.000000 0.000000 0.000000 0.000000 0.048116
#
#
# Mechanical properties :
#
#
# Convention : Reuss Voigt Hill
#
# Bulk Modulus (GPa) = 40.85186 46.10288 43.47737
# Shear Modulus (GPa) = 22.06113 23.47479 22.76796
#
# Velocity S-wave (km/s) = 3.53285 3.64429 3.58900
# Velocity P-wave (km/s) = 6.30502 6.61743 6.46311
#
# Compressibility (1/GPa) = 0.02447869
#
# Stress axis : x y z
#
# Youngs Moduli (GPa) = 63.99719 53.63241 60.40337
#
# Poissons Ratio (x) = 0.45872 0.34955
# Poissons Ratio (y) = 0.54737 -0.07043
# Poissons Ratio (z) = 0.37035 -0.06254
#
# Static dielectric constant tensor:
#      x y z
#    x 3.179470 0.000000 0.000000 
#    y 0.000000 3.171860 0.000000 
#    z 0.000000 0.000000 2.992710 
# 
# 
# High freq. dielectric constant tensor:
#      x y z
#    x 1.680850 0.000000 0.000000 
#    y 0.000000 1.671110 0.000000 
#    z 0.000000 0.000000 1.669660 
# 
# From -- ./inp_files/2611.got.cif
#   From: 2010.03.12/outbox.cif.g09.slc.cpg/sg39_2_cif.got.tgz:2611.got - 2010.04.14 02:53:20.
