data_PCOD8181986
_publ_section_title
;
Structure prediction by ZEFSAII (Michael W. Deem and Ramdas Pophale) SiO2 
 PCOD8181986
Probable space group: A B M 2
;
_chemical_formula_sum "Si O2"
_cell_formula_units_Z 64
_cell_length_a 22.105471
_cell_length_b 15.100172
_cell_length_c 9.302633
_cell_angle_alpha 90.000000
_cell_angle_beta 90.000000
_cell_angle_gamma 90.000000
_cell_volume 3105.185538
_symmetry_space_group_name_H-M "A B M 2"
_symmetry_group_IT_number 39
_symmetry_cell_setting 'orthorhombic'
loop_
_space_group_symop_operation_xyz
x,y,z
-x,-y,z
-x,1/2+y,z
x,1/2-y,z
x,1/2+y,1/2+z
-x,1/2-y,1/2+z
-x,y,1/2+z
x,-y,1/2+z
loop_
_atom_site_type_symbol
_atom_site_label
_atom_site_fract_x
_atom_site_fract_y
_atom_site_fract_z
Si Si1 0.057574 0.652160 0.619470
Si Si2 0.667953 0.852379 0.562267
Si Si3 0.039269 0.413879 0.805291
Si Si4 0.850254 0.481524 0.745729
Si Si5 0.234081 0.007302 0.494157
Si Si6 0.450324 0.145058 0.389529
Si Si7 0.317654 0.647041 0.396529
Si Si8 0.436528 0.644906 0.566558
O O1 0.080811 0.750000 0.583685
O O2 0.040880 0.603626 0.473229
O O3 0.112617 0.604615 0.699802
O O4 0.996581 0.660976 0.716476
O O5 0.682966 0.750000 0.527536
O O6 0.719071 0.912222 0.489464
O O7 0.605520 0.882642 0.489813
O O8 0.662292 0.867974 0.732339
O O9 0.106762 0.431102 0.743972
O O10 0.000000 0.500000 0.775069
O O11 0.789399 0.494901 0.655266
O O12 0.825864 0.466249 0.906177
O O13 0.261213 0.914848 0.436021
O O14 0.455337 0.250000 0.378974
O O15 0.510563 0.105849 0.464596
O O16 0.442386 0.105999 0.228351
O O17 0.299789 0.750000 0.421896
O O18 0.372366 0.617062 0.499818
O O19 0.442278 0.750000 0.570622
#
# Coordination Sequence:
#
# PCOD8181986 Si02
#       8
#     8   8   8   8   8   8   8   8
#     4  11  23  40  65  98 126 154 199 253 300 351
#     4  10  22  40  61  87 120 161 206 255 309 367
#     4  10  21  41  65  90 124 162 197 240 302 362
#     4  11  24  42  65  87 121 169 204 242 300 363
#     4  12  24  43  63  89 124 166 210 252 300 356
#     4   9  17  31  55  86 119 155 200 254 313 371
#     4  10  22  40  62  87 120 162 206 253 310 369
#     4   9  17  31  55  86 118 155 199 253 313 372
#
# _framework density 20.610683999999999
#
# number of rings (size 3 to 8) (size 9 to 14) (size 15 to 20)
#    0.000    1.750    2.500    2.250    3.500    4.000 
#    0.000    1.875    0.000    3.000    0.000    0.000 
#    0.000    0.000    0.000    0.000    0.000    0.000 
#
# Total GULP energy -396808.267850 kJ/mol
# GULP energy per Si atom -12400.258370 kJ/mol
# Density = 2.056377 g / cm^3
# Si number density = 20.610684 Si / 1000 Ang^3
#
#
#
# Elastic Constant Matrix: (Units=GPa)
#
#
# Indices 1 2 3 4 5 6 
#
# 1 112.7681 32.3616 47.9838 0.0000 0.0000 0.0000
# 2 32.3616 52.5436 23.3954 0.0000 0.0000 0.0000
# 3 47.9838 23.3954 113.6014 0.0000 0.0000 0.0000
# 4 0.0000 0.0000 0.0000 2.6637 0.0000 0.0000
# 5 0.0000 0.0000 0.0000 0.0000 50.8039 0.0000
# 6 0.0000 0.0000 0.0000 0.0000 0.0000 24.0232
#
#
#
# Elastic Compliance Matrix: (Units=1/GPa)
#
#
# Indices 1 2 3 4 5 6 
#
# 1 0.012208 -0.005750 -0.003972 0.000000 0.000000 0.000000
# 2 -0.005750 0.023662 -0.002444 0.000000 0.000000 0.000000
# 3 -0.003972 -0.002444 0.010984 0.000000 0.000000 0.000000
# 4 0.000000 0.000000 0.000000 0.375417 0.000000 0.000000
# 5 0.000000 0.000000 0.000000 0.000000 0.019684 0.000000
# 6 0.000000 0.000000 0.000000 0.000000 0.000000 0.041626
#
#
# Mechanical properties :
#
#
# Convention : Reuss Voigt Hill
#
# Bulk Modulus (GPa) = 44.40442 54.04385 49.22414
# Shear Modulus (GPa) = 9.70080 27.17633 18.43856
#
# Velocity S-wave (km/s) = 2.17184 3.63513 2.99425
# Velocity P-wave (km/s) = 5.28018 6.62549 5.99072
#
# Compressibility (1/GPa) = 0.02252028
#
# Stress axis : x y z
#
# Youngs Moduli (GPa) = 81.91193 42.26246 91.04209
#
# Poissons Ratio (x) = 0.24302 0.36165
# Poissons Ratio (y) = 0.47102 0.22251
# Poissons Ratio (z) = 0.32538 0.10329
#
# Static dielectric constant tensor:
#      x y z
#    x 3.803170 0.000000 0.000000 
#    y 0.000000 3.489520 0.000000 
#    z 0.000000 0.000000 3.861950 
# 
# 
# High freq. dielectric constant tensor:
#      x y z
#    x 1.810060 0.000000 0.000000 
#    y 0.000000 1.783670 0.000000 
#    z 0.000000 0.000000 1.821160 
# 
# From -- ./inp_files/4023.got.cif
#   From: 2010.03.12/outbox.cif.g09.slc.cpg/sg39_3_cif.got.tgz:4023.got - 2010.04.14 02:53:20.
