data_PCOD8181261
_publ_section_title
;
Structure prediction by ZEFSAII (Michael W. Deem and Ramdas Pophale) SiO2 
 PCOD8181261
Probable space group: A B M 2
;
_chemical_formula_sum "Si O2"
_cell_formula_units_Z 64
_cell_length_a 15.443962
_cell_length_b 8.582002
_cell_length_c 23.512983
_cell_angle_alpha 90.000000
_cell_angle_beta 90.000000
_cell_angle_gamma 90.000000
_cell_volume 3116.413418
_symmetry_space_group_name_H-M "A B M 2"
_symmetry_group_IT_number 39
_symmetry_cell_setting 'orthorhombic'
loop_
_space_group_symop_operation_xyz
x,y,z
-x,-y,z
-x,1/2+y,z
x,1/2-y,z
x,1/2+y,1/2+z
-x,1/2-y,1/2+z
-x,y,1/2+z
x,-y,1/2+z
loop_
_atom_site_type_symbol
_atom_site_label
_atom_site_fract_x
_atom_site_fract_y
_atom_site_fract_z
Si Si1 0.661193 0.565207 0.588400
Si Si2 0.748125 0.933847 0.275732
Si Si3 0.909574 0.569496 0.465315
Si Si4 0.750988 0.433266 0.398984
Si Si5 0.143448 0.429441 0.591761
Si Si6 0.592495 0.064344 0.968475
Si Si7 0.088482 0.568405 0.705542
Si Si8 0.591881 0.565999 0.707761
O O1 0.661479 0.750000 0.588766
O O2 0.759385 0.503951 0.585487
O O3 0.610430 0.505067 0.532828
O O4 0.616185 0.498317 0.645281
O O5 0.737904 0.750000 0.268676
O O6 0.828631 0.999746 0.238885
O O7 0.765312 0.977260 0.340410
O O8 0.661192 0.015029 0.254287
O O9 0.900867 0.750000 0.447556
O O10 0.831523 0.472167 0.439065
O O11 0.906787 0.549423 0.533018
O O12 0.000000 0.500000 0.442682
O O13 0.745494 0.250000 0.388288
O O14 0.662796 0.492228 0.426791
O O15 0.145010 0.250000 0.611366
O O16 0.093838 0.528424 0.638986
O O17 0.596145 0.250000 0.963859
O O18 0.500000 0.000000 0.948828
O O19 0.084430 0.750000 0.714653
O O20 0.000000 0.500000 0.731620
O O21 0.500000 0.500000 0.727195
O O22 0.587411 0.750000 0.705872
#
# Coordination Sequence:
#
# PCOD8181261 Si02
#       8
#     8   8   8   8   8   8   8   8
#     4   9  18  35  62  93 127 166 201 245 305 367
#     4  11  25  45  65  89 121 161 210 262 311 365
#     4  11  23  41  65  94 129 167 207 255 309 369
#     4  12  26  44  66  92 121 163 212 261 315 369
#     4  10  19  37  64  93 127 166 204 247 305 366
#     4  11  22  41  65  95 130 166 207 254 309 369
#     4  11  24  40  63  94 126 162 204 252 308 367
#     4  11  22  39  64  94 128 164 205 251 306 368
#
# _framework density 20.536427
#
# number of rings (size 3 to 8) (size 9 to 14) (size 15 to 20)
#    0.000    1.250    2.500    3.750    0.000    4.500 
#    0.000    5.625    0.000    0.000    0.000    0.000 
#    0.000    0.000    0.000    0.000    0.000    0.000 
#
# Total GULP energy -396974.098504 kJ/mol
# GULP energy per Si atom -12405.440578 kJ/mol
# Density = 2.048969 g / cm^3
# Si number density = 20.536427 Si / 1000 Ang^3
#
#
#
# Elastic Constant Matrix: (Units=GPa)
#
#
# Indices 1 2 3 4 5 6 
#
# 1 155.4161 31.1210 24.8725 0.0000 0.0000 0.0000
# 2 31.1210 55.5026 13.5682 0.0000 0.0000 0.0000
# 3 24.8725 13.5682 80.7443 0.0000 0.0000 0.0000
# 4 0.0000 0.0000 0.0000 28.9908 0.0000 0.0000
# 5 0.0000 0.0000 0.0000 0.0000 8.4676 0.0000
# 6 0.0000 0.0000 0.0000 0.0000 0.0000 34.8134
#
#
#
# Elastic Compliance Matrix: (Units=1/GPa)
#
#
# Indices 1 2 3 4 5 6 
#
# 1 0.007456 -0.003774 -0.001663 0.000000 0.000000 0.000000
# 2 -0.003774 0.020700 -0.002316 0.000000 0.000000 0.000000
# 3 -0.001663 -0.002316 0.013286 0.000000 0.000000 0.000000
# 4 0.000000 0.000000 0.000000 0.034494 0.000000 0.000000
# 5 0.000000 0.000000 0.000000 0.000000 0.118097 0.000000
# 6 0.000000 0.000000 0.000000 0.000000 0.000000 0.028725
#
#
# Mechanical properties :
#
#
# Convention : Reuss Voigt Hill
#
# Bulk Modulus (GPa) = 38.55552 47.86515 43.21034
# Shear Modulus (GPa) = 20.25045 29.26112 24.75578
#
# Velocity S-wave (km/s) = 3.14359 3.77880 3.47574
# Velocity P-wave (km/s) = 5.65607 6.51131 6.09870
#
# Compressibility (1/GPa) = 0.02593662
#
# Stress axis : x y z
#
# Youngs Moduli (GPa) = 134.11651 48.31007 75.26695
#
# Poissons Ratio (x) = 0.18234 0.12514
# Poissons Ratio (y) = 0.50620 0.17430
# Poissons Ratio (z) = 0.22298 0.11187
#
# Static dielectric constant tensor:
#      x y z
#    x 3.908300 0.000000 0.000000 
#    y 0.000000 3.592220 0.000000 
#    z 0.000000 0.000000 3.714140 
# 
# 
# High freq. dielectric constant tensor:
#      x y z
#    x 1.820740 0.000000 0.000000 
#    y 0.000000 1.796500 0.000000 
#    z 0.000000 0.000000 1.799600 
# 
# From -- ./inp_files/16133.got.cif
#   From: 2010.03.12/outbox.cif.g09.slc.cpg/sg39_9_cif.got.tgz:16133.got - 2010.04.14 02:53:20.
