data_PCOD8181486
_publ_section_title
;
Structure prediction by ZEFSAII (Michael W. Deem and Ramdas Pophale) SiO2 
 PCOD8181486
Probable space group: A B M 2
;
_chemical_formula_sum "Si O2"
_cell_formula_units_Z 48
_cell_length_a 9.959935
_cell_length_b 19.008094
_cell_length_c 13.583955
_cell_angle_alpha 90.000000
_cell_angle_beta 90.000000
_cell_angle_gamma 90.000000
_cell_volume 2571.705948
_symmetry_space_group_name_H-M "A B M 2"
_symmetry_group_IT_number 39
_symmetry_cell_setting 'orthorhombic'
loop_
_space_group_symop_operation_xyz
x,y,z
-x,-y,z
-x,1/2+y,z
x,1/2-y,z
x,1/2+y,1/2+z
-x,1/2-y,1/2+z
-x,y,1/2+z
x,-y,1/2+z
loop_
_atom_site_type_symbol
_atom_site_label
_atom_site_fract_x
_atom_site_fract_y
_atom_site_fract_z
Si Si1 0.142208 0.082178 0.080820
Si Si2 0.030372 0.575568 0.775405
Si Si3 0.636641 0.832152 0.975606
Si Si4 0.759863 0.332177 0.271719
Si Si5 0.645110 0.332521 0.059969
Si Si6 0.135339 0.431012 0.492102
O O1 0.143618 0.100938 0.197747
O O2 0.241400 0.137418 0.035589
O O3 0.991299 0.100873 0.048533
O O4 0.182251 0.003852 0.043312
O O5 0.096728 0.558340 0.879255
O O6 0.000000 0.500000 0.726612
O O7 0.898342 0.624460 0.781505
O O8 0.639791 0.750000 0.991620
O O9 0.498805 0.861235 0.022862
O O10 0.658019 0.851517 0.860600
O O11 0.799731 0.250000 0.273924
O O12 0.675848 0.351227 0.173781
O O13 0.660550 0.250000 0.039585
O O14 0.749574 0.373244 0.992284
#
# Coordination Sequence:
#
# PCOD8181486 Si02
#       6
#     8   8   8   8   8   8
#     4  11  21  36  59  86 112 149 185 235 277 333
#     4  12  20  35  58  86 116 144 188 231 282 332
#     4  10  22  39  58  82 116 151 188 233 281 334
#     4  10  20  35  58  83 110 149 188 231 284 330
#     4  10  22  39  58  82 116 151 188 233 281 334
#     4  11  21  36  59  86 112 149 185 235 277 333
#
# _framework density 18.664653000000001
#
# number of rings (size 3 to 8) (size 9 to 14) (size 15 to 20)
#    0.000    1.333    6.667    0.000    0.000    4.000 
#    0.000    1.667    0.000    6.000    0.000    0.000 
#    0.000    0.000    0.000    0.000    0.000    0.000 
#
# Total GULP energy -297442.426362 kJ/mol
# GULP energy per Si atom -12393.434432 kJ/mol
# Density = 1.862217 g / cm^3
# Si number density = 18.664653 Si / 1000 Ang^3
#
#
#
# Elastic Constant Matrix: (Units=GPa)
#
#
# Indices 1 2 3 4 5 6 
#
# 1 62.8608 27.3202 29.3014 0.0000 0.0000 0.0000
# 2 27.3202 26.3440 27.4654 0.0000 0.0000 0.0000
# 3 29.3014 27.4654 120.6533 0.0000 0.0000 0.0000
# 4 0.0000 0.0000 0.0000 22.2879 0.0000 0.0000
# 5 0.0000 0.0000 0.0000 0.0000 27.7367 0.0000
# 6 0.0000 0.0000 0.0000 0.0000 0.0000 32.2405
#
#
#
# Elastic Compliance Matrix: (Units=1/GPa)
#
#
# Indices 1 2 3 4 5 6 
#
# 1 0.028968 -0.029773 -0.000258 0.000000 0.000000 0.000000
# 2 -0.029773 0.080371 -0.011065 0.000000 0.000000 0.000000
# 3 -0.000258 -0.011065 0.010870 0.000000 0.000000 0.000000
# 4 0.000000 0.000000 0.000000 0.044867 0.000000 0.000000
# 5 0.000000 0.000000 0.000000 0.000000 0.036053 0.000000
# 6 0.000000 0.000000 0.000000 0.000000 0.000000 0.031017
#
#
# Mechanical properties :
#
#
# Convention : Reuss Voigt Hill
#
# Bulk Modulus (GPa) = 26.30340 42.00355 34.15348
# Shear Modulus (GPa) = 15.29008 24.83778 20.06393
#
# Velocity S-wave (km/s) = 2.86527 3.65189 3.28223
# Velocity P-wave (km/s) = 5.00696 6.35098 5.71859
#
# Compressibility (1/GPa) = 0.03801790
#
# Stress axis : x y z
#
# Youngs Moduli (GPa) = 34.52107 12.44229 91.99945
#
# Poissons Ratio (x) = 0.37044 0.02370
# Poissons Ratio (y) = 1.02778 1.01799
# Poissons Ratio (z) = 0.00889 0.13768
#
# Static dielectric constant tensor:
#      x y z
#    x 3.551960 0.000000 0.000000 
#    y 0.000000 3.386700 0.000000 
#    z 0.000000 0.000000 3.724550 
# 
# 
# High freq. dielectric constant tensor:
#      x y z
#    x 1.710080 0.000000 0.000000 
#    y 0.000000 1.719430 0.000000 
#    z 0.000000 0.000000 1.746500 
# 
# From -- ./inp_files/8479.got.cif
#   From: 2010.03.12/outbox.cif.g09.slc.cpg/sg39_5_cif.got.tgz:8479.got - 2010.04.14 02:53:20.
