data_PCOD8181289
_publ_section_title
;
Structure prediction by ZEFSAII (Michael W. Deem and Ramdas Pophale) SiO2 
 PCOD8181289
Probable space group: A B M 2
;
_chemical_formula_sum "Si O2"
_cell_formula_units_Z 64
_cell_length_a 14.231357
_cell_length_b 8.748910
_cell_length_c 31.127315
_cell_angle_alpha 90.000000
_cell_angle_beta 90.000000
_cell_angle_gamma 90.000000
_cell_volume 3875.626554
_symmetry_space_group_name_H-M "A B M 2"
_symmetry_group_IT_number 39
_symmetry_cell_setting 'orthorhombic'
loop_
_space_group_symop_operation_xyz
x,y,z
-x,-y,z
-x,1/2+y,z
x,1/2-y,z
x,1/2+y,1/2+z
-x,1/2-y,1/2+z
-x,y,1/2+z
x,-y,1/2+z
loop_
_atom_site_type_symbol
_atom_site_label
_atom_site_fract_x
_atom_site_fract_y
_atom_site_fract_z
Si Si1 0.401562 0.071410 0.710380
Si Si2 0.102449 0.570248 0.403638
Si Si3 0.401729 0.572053 0.110020
Si Si4 0.785633 0.430702 0.580003
Si Si5 0.898002 0.428463 0.819455
Si Si6 0.898740 0.428731 0.497783
Si Si7 0.898197 0.069355 0.157865
Si Si8 0.784757 0.071152 0.734596
O O1 0.399982 0.250000 0.721425
O O2 0.383214 0.041688 0.660110
O O3 0.500000 0.000000 0.724761
O O4 0.322975 0.981934 0.737273
O O5 0.099194 0.750000 0.396793
O O6 0.154084 0.495278 0.362391
O O7 0.144113 0.527065 0.450670
O O8 0.000000 0.500000 0.401949
O O9 0.500000 0.500000 0.095228
O O10 0.402960 0.750000 0.099201
O O11 0.319930 0.491725 0.083162
O O12 0.786281 0.250000 0.586751
O O13 0.823933 0.480956 0.533347
O O14 0.853504 0.505649 0.614647
O O15 0.911886 0.250000 0.825320
O O16 0.831386 0.468680 0.779828
O O17 0.000000 0.500000 0.810802
O O18 0.916398 0.250000 0.500122
O O19 0.000000 0.500000 0.506875
O O20 0.905674 0.250000 0.154060
O O21 0.834381 0.027133 0.198054
O O22 0.000000 0.000000 0.165255
O O23 0.791945 0.250000 0.723323
#
# Coordination Sequence:
#
# PCOD8181289 Si02
#       8
#     8   8   8   8   8   8   8   8
#     4  10  20  34  53  74  98 127 163 206 248 293
#     4   9  16  29  48  69  95 126 162 203 245 288
#     4  10  20  34  52  74  97 127 164 206 249 293
#     4  11  21  34  51  72 100 132 165 204 245 291
#     4  10  20  32  48  72  99 130 166 203 244 290
#     4   9  19  32  48  72  99 131 167 202 243 288
#     4  12  24  36  48  67  97 134 172 204 239 287
#     4  11  22  35  51  72  99 131 166 204 245 292
#
# _framework density 16.513459000000001
#
# number of rings (size 3 to 8) (size 9 to 14) (size 15 to 20)
#    0.000    1.750    1.250    4.875    0.000    6.500 
#    0.000    0.000    0.000    0.000    0.000    0.875 
#    0.000    6.000    0.000    0.000    0.000    0.000 
#
# Total GULP energy -396773.457227 kJ/mol
# GULP energy per Si atom -12399.170538 kJ/mol
# Density = 1.647587 g / cm^3
# Si number density = 16.513459 Si / 1000 Ang^3
#
#
#
# Elastic Constant Matrix: (Units=GPa)
#
#
# Indices 1 2 3 4 5 6 
#
# 1 103.4221 39.0933 50.9244 0.0000 0.0000 0.0000
# 2 39.0933 88.5722 49.9502 0.0000 0.0000 0.0000
# 3 50.9244 49.9502 116.6253 0.0000 0.0000 0.0000
# 4 0.0000 0.0000 0.0000 21.7650 0.0000 0.0000
# 5 0.0000 0.0000 0.0000 0.0000 -0.7889 0.0000
# 6 0.0000 0.0000 0.0000 0.0000 0.0000 29.0007
#
#
#
# Elastic Compliance Matrix: (Units=1/GPa)
#
#
# Indices 1 2 3 4 5 6 
#
# 1 0.013031 -0.003352 -0.004254 0.000000 0.000000 0.000000
# 2 -0.003352 0.015748 -0.005281 0.000000 0.000000 0.000000
# 3 -0.004254 -0.005281 0.012694 0.000000 0.000000 0.000000
# 4 0.000000 0.000000 0.000000 0.045945 0.000000 0.000000
# 5 0.000000 0.000000 0.000000 0.000000 -1.267609 0.000000
# 6 0.000000 0.000000 0.000000 0.000000 0.000000 0.034482
#
#
# Mechanical properties :
#
#
# Convention : Reuss Voigt Hill
#
# Bulk Modulus (GPa) = 63.70308 65.39505 64.54906
# Shear Modulus (GPa) = -4.48551 21.23881 8.37665
#
# Velocity S-wave (km/s) = -1.64990 3.59019 2.25469
# Velocity P-wave (km/s) = 5.91867 7.54142 6.77878
#
# Compressibility (1/GPa) = 0.01569783
#
# Stress axis : x y z
#
# Youngs Moduli (GPa) = 76.73987 63.49968 78.77788
#
# Poissons Ratio (x) = 0.21288 0.33514
# Poissons Ratio (y) = 0.25726 0.41603
# Poissons Ratio (z) = 0.32647 0.33534
#
# Static dielectric constant tensor:
#      x y z
#    x 3.065620 0.000000 0.000000 
#    y 0.000000 3.287500 0.000000 
#    z 0.000000 0.000000 3.623580 
# 
# 
# High freq. dielectric constant tensor:
#      x y z
#    x 1.615630 0.000000 0.000000 
#    y 0.000000 1.655650 0.000000 
#    z 0.000000 0.000000 1.629520 
# 
# From -- ./inp_files/17998.got.cif
#   From: 2010.03.12/outbox.cif.g09.slc.cpg/sg39_9_cif.got.tgz:17998.got - 2010.04.14 02:53:20.
