data_PCOD8181011
_publ_section_title
;
Structure prediction by ZEFSAII (Michael W. Deem and Ramdas Pophale) SiO2 
 PCOD8181011
Probable space group: A B M 2
;
_chemical_formula_sum "Si O2"
_cell_formula_units_Z 56
_cell_length_a 15.470864
_cell_length_b 8.878550
_cell_length_c 20.184152
_cell_angle_alpha 90.000000
_cell_angle_beta 90.000000
_cell_angle_gamma 90.000000
_cell_volume 2772.471696
_symmetry_space_group_name_H-M "A B M 2"
_symmetry_group_IT_number 39
_symmetry_cell_setting 'orthorhombic'
loop_
_space_group_symop_operation_xyz
x,y,z
-x,-y,z
-x,1/2+y,z
x,1/2-y,z
x,1/2+y,1/2+z
-x,1/2-y,1/2+z
-x,y,1/2+z
x,-y,1/2+z
loop_
_atom_site_type_symbol
_atom_site_label
_atom_site_fract_x
_atom_site_fract_y
_atom_site_fract_z
Si Si1 0.083755 0.921242 0.536130
Si Si2 0.132676 0.576886 0.388921
Si Si3 0.255299 0.921389 0.070446
Si Si4 0.911700 0.071081 0.757290
Si Si5 0.302870 0.922444 0.928698
Si Si6 0.733138 0.574200 0.716576
Si Si7 0.589919 0.576229 0.307354
O O1 0.077027 0.750000 0.556271
O O2 0.083598 0.948280 0.457526
O O3 0.169771 0.980330 0.569691
O O4 0.000000 0.000000 0.567061
O O5 0.127602 0.750000 0.364932
O O6 0.089488 0.467785 0.335361
O O7 0.232714 0.534167 0.397980
O O8 0.224324 0.750000 0.065048
O O9 0.301666 0.949741 0.141002
O O10 0.317401 0.959932 0.007180
O O11 0.911166 0.250000 0.746801
O O12 0.828104 0.997942 0.722745
O O13 0.000000 0.000000 0.726905
O O14 0.270425 0.750000 0.920371
O O15 0.390075 0.946064 0.885946
O O16 0.738777 0.750000 0.734864
O O17 0.666624 0.494279 0.764899
O O18 0.500000 0.500000 0.289329
O O19 0.582851 0.750000 0.288206
#
# Coordination Sequence:
#
# PCOD8181011 Si02
#       7
#     8   8   8   8   8   8   8
#     4  10  20  32  50  78 112 153 201 251 297 352
#     4  10  19  32  53  82 115 152 196 247 303 353
#     4   9  20  38  60  83 114 157 197 241 298 357
#     4  12  24  37  55  82 118 162 209 255 305 358
#     4   9  18  36  61  88 117 152 194 239 296 355
#     4  11  23  41  63  89 124 162 203 251 304 362
#     4  11  23  40  66  96 124 158 198 246 303 363
#
# _framework density 20.198581999999998
#
# number of rings (size 3 to 8) (size 9 to 14) (size 15 to 20)
#    0.000    1.714    1.429    3.429    0.000    5.143 
#    0.000    0.714    0.000    1.714    0.000    0.000 
#    0.000    0.000    0.000    0.000    0.000    0.000 
#
# Total GULP energy -347115.564923 kJ/mol
# GULP energy per Si atom -12396.984462 kJ/mol
# Density = 2.015261 g / cm^3
# Si number density = 20.198582 Si / 1000 Ang^3
#
#
#
# Elastic Constant Matrix: (Units=GPa)
#
#
# Indices 1 2 3 4 5 6 
#
# 1 97.7421 48.9592 43.7859 0.0000 0.0000 0.0000
# 2 48.9592 119.1800 38.4629 0.0000 0.0000 0.0000
# 3 43.7859 38.4629 106.4314 0.0000 0.0000 0.0000
# 4 0.0000 0.0000 0.0000 22.8152 0.0000 0.0000
# 5 0.0000 0.0000 0.0000 0.0000 -1.7452 0.0000
# 6 0.0000 0.0000 0.0000 0.0000 0.0000 32.0871
#
#
#
# Elastic Compliance Matrix: (Units=1/GPa)
#
#
# Indices 1 2 3 4 5 6 
#
# 1 0.014430 -0.004542 -0.004295 0.000000 0.000000 0.000000
# 2 -0.004542 0.010928 -0.002081 0.000000 0.000000 0.000000
# 3 -0.004295 -0.002081 0.011915 0.000000 0.000000 0.000000
# 4 0.000000 0.000000 0.000000 0.043830 0.000000 0.000000
# 5 0.000000 0.000000 0.000000 0.000000 -0.573014 0.000000
# 6 0.000000 0.000000 0.000000 0.000000 0.000000 0.031165
#
#
# Mechanical properties :
#
#
# Convention : Reuss Voigt Hill
#
# Bulk Modulus (GPa) = 64.77779 65.08552 64.93165
# Shear Modulus (GPa) = -11.52700 23.44114 5.95707
#
# Velocity S-wave (km/s) = -2.39149 3.41036 1.71920
# Velocity P-wave (km/s) = 4.95121 6.91376 6.01309
#
# Compressibility (1/GPa) = 0.01543739
#
# Stress axis : x y z
#
# Youngs Moduli (GPa) = 69.29963 91.50879 83.92963
#
# Poissons Ratio (x) = 0.41560 0.36050
# Poissons Ratio (y) = 0.31474 0.17464
# Poissons Ratio (z) = 0.29766 0.19041
#
# Static dielectric constant tensor:
#      x y z
#    x 3.401180 0.000000 0.000000 
#    y 0.000000 3.753090 0.000000 
#    z 0.000000 0.000000 3.912310 
# 
# 
# High freq. dielectric constant tensor:
#      x y z
#    x 1.757790 0.000000 0.000000 
#    y 0.000000 1.798710 0.000000 
#    z 0.000000 0.000000 1.797170 
# 
# From -- ./inp_files/14725.got.cif
#   From: 2010.03.12/outbox.cif.g09.slc.cpg/sg39_8_cif.got.tgz:14725.got - 2010.04.14 02:53:20.
