data_PCOD8181761
_publ_section_title
;
Structure prediction by ZEFSAII (Michael W. Deem and Ramdas Pophale) SiO2 
 PCOD8181761
Probable space group: A B M 2
;
_chemical_formula_sum "Si O2"
_cell_formula_units_Z 64
_cell_length_a 5.362879
_cell_length_b 18.535789
_cell_length_c 29.348393
_cell_angle_alpha 90.000000
_cell_angle_beta 90.000000
_cell_angle_gamma 90.000000
_cell_volume 2917.382687
_symmetry_space_group_name_H-M "A B M 2"
_symmetry_group_IT_number 39
_symmetry_cell_setting 'orthorhombic'
loop_
_space_group_symop_operation_xyz
x,y,z
-x,-y,z
-x,1/2+y,z
x,1/2-y,z
x,1/2+y,1/2+z
-x,1/2-y,1/2+z
-x,y,1/2+z
x,-y,1/2+z
loop_
_atom_site_type_symbol
_atom_site_label
_atom_site_fract_x
_atom_site_fract_y
_atom_site_fract_z
Si Si1 0.426960 0.426006 0.819250
Si Si2 0.220437 0.328664 0.365417
Si Si3 0.758586 0.833718 0.543242
Si Si4 0.257637 0.336243 0.090002
Si Si5 0.221282 0.335567 0.744137
Si Si6 0.157668 0.430666 0.910227
Si Si7 0.510906 0.829012 0.955351
Si Si8 0.722775 0.335178 0.692461
O O1 0.500000 0.500000 0.792726
O O2 0.672163 0.375845 0.823964
O O3 0.221977 0.379198 0.791915
O O4 0.333167 0.454690 0.868549
O O5 0.144704 0.250000 0.345900
O O6 0.432430 0.319889 0.403373
O O7 0.990598 0.364092 0.389924
O O8 0.772289 0.750000 0.555195
O O9 0.016406 0.867808 0.562359
O O10 0.721557 0.847631 0.488859
O O11 0.510729 0.866290 0.567067
O O12 0.253860 0.250000 0.089057
O O13 0.254801 0.366470 0.141455
O O14 0.226449 0.250000 0.753316
O O15 0.466217 0.361502 0.716047
O O16 0.969663 0.360479 0.719126
O O17 0.297847 0.396949 0.954662
O O18 0.000000 0.500000 0.926660
O O19 0.625386 0.750000 0.971219
O O20 0.716277 0.250000 0.689709
#
# Coordination Sequence:
#
# PCOD8181761 Si02
#       8
#     8   8   8   8   8   8   8   8
#     4  11  23  39  55  81 114 147 196 244 290 351
#     4  10  21  37  58  80 112 152 191 237 291 342
#     4   9  17  28  48  79 114 149 184 231 288 344
#     4   9  16  28  49  77 114 150 180 226 291 348
#     4  10  21  35  56  83 115 149 190 240 291 348
#     4  11  22  37  58  78 109 155 197 245 291 349
#     4   9  20  34  51  82 117 149 193 243 291 345
#     4   9  18  33  52  81 116 149 185 232 291 354
#
# _framework density 21.937473000000001
#
# number of rings (size 3 to 8) (size 9 to 14) (size 15 to 20)
#    0.000    2.250    1.250    1.500    3.500    4.500 
#    0.000    0.000    0.000    0.000    0.000    3.500 
#    0.000    0.000    0.000    0.000    0.000    0.000 
#
# Total GULP energy -396537.252967 kJ/mol
# GULP energy per Si atom -12391.789155 kJ/mol
# Density = 2.188754 g / cm^3
# Si number density = 21.937473 Si / 1000 Ang^3
#
#
#
# Elastic Constant Matrix: (Units=GPa)
#
#
# Indices 1 2 3 4 5 6 
#
# 1 111.0572 11.1140 8.9461 0.0000 0.0000 0.0000
# 2 11.1140 79.2694 2.7589 0.0000 0.0000 0.0000
# 3 8.9461 2.7589 66.5037 0.0000 0.0000 0.0000
# 4 0.0000 0.0000 0.0000 2.2229 0.0000 0.0000
# 5 0.0000 0.0000 0.0000 0.0000 28.9197 0.0000
# 6 0.0000 0.0000 0.0000 0.0000 0.0000 18.5011
#
#
#
# Elastic Compliance Matrix: (Units=1/GPa)
#
#
# Indices 1 2 3 4 5 6 
#
# 1 0.009225 -0.001252 -0.001189 0.000000 0.000000 0.000000
# 2 -0.001252 0.012803 -0.000363 0.000000 0.000000 0.000000
# 3 -0.001189 -0.000363 0.015212 0.000000 0.000000 0.000000
# 4 0.000000 0.000000 0.000000 0.449853 0.000000 0.000000
# 5 0.000000 0.000000 0.000000 0.000000 0.034579 0.000000
# 6 0.000000 0.000000 0.000000 0.000000 0.000000 0.054051
#
#
# Mechanical properties :
#
#
# Convention : Reuss Voigt Hill
#
# Bulk Modulus (GPa) = 31.61269 33.60759 32.61014
# Shear Modulus (GPa) = 8.44773 25.52950 16.98861
#
# Velocity S-wave (km/s) = 1.96448 3.41506 2.78584
# Velocity P-wave (km/s) = 4.42575 5.55906 5.02446
#
# Compressibility (1/GPa) = 0.03163287
#
# Stress axis : x y z
#
# Youngs Moduli (GPa) = 108.39572 78.10437 65.73865
#
# Poissons Ratio (x) = 0.09779 0.07817
# Poissons Ratio (y) = 0.13572 0.02384
# Poissons Ratio (z) = 0.12889 0.02833
#
# Static dielectric constant tensor:
#      x y z
#    x 4.150680 0.000000 0.000000 
#    y 0.000000 3.614950 0.000000 
#    z 0.000000 0.000000 4.039560 
# 
# 
# High freq. dielectric constant tensor:
#      x y z
#    x 1.872060 0.000000 0.000000 
#    y 0.000000 1.813200 0.000000 
#    z 0.000000 0.000000 1.850800 
# 
# From -- ./inp_files/16598.got.cif
#   From: 2010.03.12/outbox.cif.g09.slc.cpg/sg39_9_cif.got.tgz:16598.got - 2010.04.14 02:53:20.
