data_PCOD8181801
_publ_section_title
;
Structure prediction by ZEFSAII (Michael W. Deem and Ramdas Pophale) SiO2 
 PCOD8181801
Probable space group: A B M 2
;
_chemical_formula_sum "Si O2"
_cell_formula_units_Z 56
_cell_length_a 19.187096
_cell_length_b 8.811784
_cell_length_c 15.920111
_cell_angle_alpha 90.000000
_cell_angle_beta 90.000000
_cell_angle_gamma 90.000000
_cell_volume 2691.653692
_symmetry_space_group_name_H-M "A B M 2"
_symmetry_group_IT_number 39
_symmetry_cell_setting 'orthorhombic'
loop_
_space_group_symop_operation_xyz
x,y,z
-x,-y,z
-x,1/2+y,z
x,1/2-y,z
x,1/2+y,1/2+z
-x,1/2-y,1/2+z
-x,y,1/2+z
x,-y,1/2+z
loop_
_atom_site_type_symbol
_atom_site_label
_atom_site_fract_x
_atom_site_fract_y
_atom_site_fract_z
Si Si1 0.215262 0.574147 0.396980
Si Si2 0.070672 0.928537 0.638637
Si Si3 0.337438 0.570986 0.813637
Si Si4 0.068910 0.573803 0.318064
Si Si5 0.653617 0.925116 0.643392
Si Si6 0.575622 0.570386 0.476164
Si Si7 0.797593 0.923816 0.565507
O O1 0.231322 0.750000 0.413528
O O2 0.262834 0.513243 0.321025
O O3 0.133948 0.548258 0.378400
O O4 0.235392 0.472811 0.476943
O O5 0.061631 0.750000 0.641285
O O6 0.084659 0.992380 0.730772
O O7 0.136597 0.969443 0.581944
O O8 0.000000 0.000000 0.600211
O O9 0.326199 0.750000 0.813324
O O10 0.371357 0.519338 0.725039
O O11 0.385129 0.516903 0.891509
O O12 0.055320 0.750000 0.299972
O O13 0.000000 0.500000 0.360376
O O14 0.634138 0.750000 0.657639
O O15 0.615267 0.987672 0.559909
O O16 0.736973 0.945373 0.633964
O O17 0.500000 0.500000 0.475080
O O18 0.570239 0.750000 0.477229
O O19 0.822373 0.750000 0.562554
#
# Coordination Sequence:
#
# PCOD8181801 Si02
#       7
#     8   8   8   8   8   8   8
#     4  11  23  38  59  88 121 159 208 258 312 373
#     4  11  22  37  57  83 115 155 205 256 310 375
#     4  11  23  41  65  95 128 166 212 258 311 374
#     4  10  21  37  56  81 114 154 200 254 311 370
#     4  10  22  42  65  92 128 167 208 256 312 372
#     4  10  23  44  66  94 131 167 206 253 310 370
#     4  11  22  39  61  85 121 161 202 260 317 368
#
# _framework density 20.805054999999999
#
# number of rings (size 3 to 8) (size 9 to 14) (size 15 to 20)
#    0.000    1.429    1.429    4.714    0.000    9.714 
#    0.000    4.286    0.000    0.000    0.000    0.000 
#    0.000    0.000    0.000    0.000    0.000    0.000 
#
# Total GULP energy -347287.041054 kJ/mol
# GULP energy per Si atom -12403.108609 kJ/mol
# Density = 2.075770 g / cm^3
# Si number density = 20.805055 Si / 1000 Ang^3
#
#
#
# Elastic Constant Matrix: (Units=GPa)
#
#
# Indices 1 2 3 4 5 6 
#
# 1 107.8447 50.9370 47.8514 0.0000 0.0000 0.0000
# 2 50.9370 109.4501 45.8331 0.0000 0.0000 0.0000
# 3 47.8514 45.8331 131.9212 0.0000 0.0000 0.0000
# 4 0.0000 0.0000 0.0000 36.1323 0.0000 0.0000
# 5 0.0000 0.0000 0.0000 0.0000 623.6284 0.0000
# 6 0.0000 0.0000 0.0000 0.0000 0.0000 35.9251
#
#
#
# Elastic Compliance Matrix: (Units=1/GPa)
#
#
# Indices 1 2 3 4 5 6 
#
# 1 0.012837 -0.004710 -0.003020 0.000000 0.000000 0.000000
# 2 -0.004710 0.012420 -0.002607 0.000000 0.000000 0.000000
# 3 -0.003020 -0.002607 0.009581 0.000000 0.000000 0.000000
# 4 0.000000 0.000000 0.000000 0.027676 0.000000 0.000000
# 5 0.000000 0.000000 0.000000 0.000000 0.001604 0.000000
# 6 0.000000 0.000000 0.000000 0.000000 0.000000 0.027836
#
#
# Mechanical properties :
#
#
# Convention : Reuss Voigt Hill
#
# Bulk Modulus (GPa) = 70.59365 70.93993 70.76679
# Shear Modulus (GPa) = 42.60816 152.77679 97.69248
#
# Velocity S-wave (km/s) = 4.53036 8.57858 6.85989
# Velocity P-wave (km/s) = 7.83392 11.50192 9.84033
#
# Compressibility (1/GPa) = 0.01416558
#
# Stress axis : x y z
#
# Youngs Moduli (GPa) = 77.89961 80.51558 104.36864
#
# Poissons Ratio (x) = 0.37919 0.31521
# Poissons Ratio (y) = 0.36687 0.27206
# Poissons Ratio (z) = 0.23527 0.20989
#
# Static dielectric constant tensor:
#      x y z
#    x -29.185930 0.000000 0.000000 
#    y 0.000000 3.701560 0.000000 
#    z 0.000000 0.000000 3.761810 
# 
# 
# High freq. dielectric constant tensor:
#      x y z
#    x 1.814650 0.000000 0.000000 
#    y 0.000000 1.817660 0.000000 
#    z 0.000000 0.000000 1.816310 
# 
# From -- ./inp_files/10364.got.cif
#   From: 2010.03.12/outbox.cif.g09.slc.cpg/sg39_6_cif.got.tgz:10364.got - 2010.04.14 02:53:20.
