data_PCOD8181154
_publ_section_title
;
Structure prediction by ZEFSAII (Michael W. Deem and Ramdas Pophale) SiO2 
 PCOD8181154
Probable space group: A B M 2
;
_chemical_formula_sum "Si O2"
_cell_formula_units_Z 64
_cell_length_a 23.979795
_cell_length_b 8.765638
_cell_length_c 15.430545
_cell_angle_alpha 90.000000
_cell_angle_beta 90.000000
_cell_angle_gamma 90.000000
_cell_volume 3243.472819
_symmetry_space_group_name_H-M "A B M 2"
_symmetry_group_IT_number 39
_symmetry_cell_setting 'orthorhombic'
loop_
_space_group_symop_operation_xyz
x,y,z
-x,-y,z
-x,1/2+y,z
x,1/2-y,z
x,1/2+y,1/2+z
-x,1/2-y,1/2+z
-x,y,1/2+z
x,-y,1/2+z
loop_
_atom_site_type_symbol
_atom_site_label
_atom_site_fract_x
_atom_site_fract_y
_atom_site_fract_z
Si Si1 0.940799 0.569627 0.028440
Si Si2 0.666552 0.570385 0.837635
Si Si3 0.557489 0.569492 0.273204
Si Si4 0.058291 0.929205 0.332010
Si Si5 0.444326 0.427317 0.587298
Si Si6 0.865768 0.568926 0.674695
Si Si7 0.326318 0.426804 0.511374
Si Si8 0.739600 0.568973 0.678481
O O1 0.944463 0.750000 0.038047
O O2 0.893520 0.505670 0.090909
O O3 0.000000 0.500000 0.056175
O O4 0.925541 0.520033 0.929770
O O5 0.657399 0.750000 0.829332
O O6 0.607487 0.485689 0.833695
O O7 0.693719 0.525957 0.929592
O O8 0.707564 0.507551 0.763091
O O9 0.500000 0.500000 0.309681
O O10 0.553524 0.750000 0.275509
O O11 0.569169 0.511744 0.176547
O O12 0.050922 0.750000 0.328011
O O13 0.104913 0.984745 0.263942
O O14 0.000000 0.000000 0.302499
O O15 0.500000 0.500000 0.544417
O O16 0.454610 0.250000 0.607810
O O17 0.392430 0.450817 0.524007
O O18 0.868565 0.750000 0.664142
O O19 0.802638 0.507662 0.678974
O O20 0.312297 0.250000 0.495337
O O21 0.292374 0.490909 0.593535
O O22 0.738895 0.750000 0.680232
#
# Coordination Sequence:
#
# PCOD8181154 Si02
#       8
#     8   8   8   8   8   8   8   8
#     4  10  20  35  55  83 118 150 183 232 282 335
#     4  11  22  39  61  85 112 150 193 236 287 343
#     4  11  21  35  58  86 116 148 185 231 286 346
#     4   9  19  34  54  81 114 148 184 225 276 331
#     4  10  19  34  57  83 115 148 184 230 287 344
#     4  10  20  36  59  83 109 151 195 232 280 335
#     4  10  21  39  59  81 112 151 191 237 287 342
#     4   9  20  40  60  78 112 154 191 233 285 338
#
# _framework density 19.731938
#
# number of rings (size 3 to 8) (size 9 to 14) (size 15 to 20)
#    0.000    2.000    1.250    3.375    0.000    4.500 
#    0.000    4.375    0.000    0.000    0.000    0.000 
#    0.000    0.000    0.000    0.000    0.000    0.000 
#
# Total GULP energy -396860.670790 kJ/mol
# GULP energy per Si atom -12401.895962 kJ/mol
# Density = 1.968703 g / cm^3
# Si number density = 19.731938 Si / 1000 Ang^3
#
#
#
# Elastic Constant Matrix: (Units=GPa)
#
#
# Indices 1 2 3 4 5 6 
#
# 1 149.0383 41.9121 81.9786 0.0000 0.0000 0.0000
# 2 41.9121 77.1080 39.6907 0.0000 0.0000 0.0000
# 3 81.9786 39.6907 140.5021 0.0000 0.0000 0.0000
# 4 0.0000 0.0000 0.0000 31.0104 0.0000 0.0000
# 5 0.0000 0.0000 0.0000 0.0000 18.2140 0.0000
# 6 0.0000 0.0000 0.0000 0.0000 0.0000 23.8159
#
#
#
# Elastic Compliance Matrix: (Units=1/GPa)
#
#
# Indices 1 2 3 4 5 6 
#
# 1 0.010431 -0.002969 -0.005247 0.000000 0.000000 0.000000
# 2 -0.002969 0.016020 -0.002794 0.000000 0.000000 0.000000
# 3 -0.005247 -0.002794 0.010968 0.000000 0.000000 0.000000
# 4 0.000000 0.000000 0.000000 0.032247 0.000000 0.000000
# 5 0.000000 0.000000 0.000000 0.000000 0.054903 0.000000
# 6 0.000000 0.000000 0.000000 0.000000 0.000000 0.041989
#
#
# Mechanical properties :
#
#
# Convention : Reuss Voigt Hill
#
# Bulk Modulus (GPa) = 64.93417 77.09014 71.01215
# Shear Modulus (GPa) = 25.81164 28.14585 26.97874
#
# Velocity S-wave (km/s) = 3.62071 3.78088 3.70166
# Velocity P-wave (km/s) = 7.10345 7.62979 7.37132
#
# Compressibility (1/GPa) = 0.01540021
#
# Stress axis : x y z
#
# Youngs Moduli (GPa) = 95.86898 62.42057 91.17245
#
# Poissons Ratio (x) = 0.18530 0.47843
# Poissons Ratio (y) = 0.28460 0.25469
# Poissons Ratio (z) = 0.50307 0.17437
#
# Static dielectric constant tensor:
#      x y z
#    x 3.429290 0.000000 0.000000 
#    y 0.000000 3.426050 0.000000 
#    z 0.000000 0.000000 3.684380 
# 
# 
# High freq. dielectric constant tensor:
#      x y z
#    x 1.766430 0.000000 0.000000 
#    y 0.000000 1.756750 0.000000 
#    z 0.000000 0.000000 1.775900 
# 
# From -- ./inp_files/10667.got.cif
#   From: 2010.03.12/outbox.cif.g09.slc.cpg/sg39_6_cif.got.tgz:10667.got - 2010.04.14 02:53:20.
