data_PCOD8181105
_publ_section_title
;
Structure prediction by ZEFSAII (Michael W. Deem and Ramdas Pophale) SiO2 
 PCOD8181105
Probable space group: A B M 2
;
_chemical_formula_sum "Si O2"
_cell_formula_units_Z 64
_cell_length_a 8.590091
_cell_length_b 16.791384
_cell_length_c 23.458659
_cell_angle_alpha 90.000000
_cell_angle_beta 90.000000
_cell_angle_gamma 90.000000
_cell_volume 3383.665634
_symmetry_space_group_name_H-M "A B M 2"
_symmetry_group_IT_number 39
_symmetry_cell_setting 'orthorhombic'
loop_
_space_group_symop_operation_xyz
x,y,z
-x,-y,z
-x,1/2+y,z
x,1/2-y,z
x,1/2+y,1/2+z
-x,1/2-y,1/2+z
-x,y,1/2+z
x,-y,1/2+z
loop_
_atom_site_type_symbol
_atom_site_label
_atom_site_fract_x
_atom_site_fract_y
_atom_site_fract_z
Si Si1 0.797361 0.340489 0.018210
Si Si2 0.899709 0.424776 0.740511
Si Si3 0.899709 0.575224 0.033943
Si Si4 0.673923 0.485918 0.320485
Si Si5 0.692651 0.582799 0.137227
Si Si6 0.202639 0.659511 0.256243
Si Si7 0.673923 0.514082 0.453968
Si Si8 0.656757 0.894197 0.637227
O O1 0.761905 0.250000 0.001235
O O2 0.736339 0.357605 0.081670
O O3 0.982988 0.355228 0.015187
O O4 0.714828 0.395712 0.971186
O O5 0.794066 0.451960 0.793327
O O6 0.788272 0.389456 0.692219
O O7 0.000000 0.500000 0.717260
O O8 0.017012 0.355228 0.759267
O O9 0.788271 0.610543 0.082234
O O10 0.000000 0.500000 0.057194
O O11 0.794067 0.548039 0.981126
O O12 0.500000 0.500000 0.297011
O O13 0.714827 0.395713 0.303267
O O14 0.683627 0.499999 0.387227
O O15 0.676394 0.488234 0.137228
O O16 0.526517 0.626724 0.137227
O O17 0.238095 0.750000 0.273219
O O18 0.263660 0.642397 0.192783
O O19 0.500000 0.500000 0.477442
#
# Coordination Sequence:
#
# PCOD8181105 Si02
#       8
#     8   8   8   8   8   8   8   8
#     4  11  23  38  57  88 124 154 185 240 299 341
#     4  10  19  33  57  83 113 152 193 233 277 345
#     4  10  19  33  57  83 113 152 193 233 277 345
#     4  10  21  40  63  85 108 149 202 244 280 343
#     4  11  18  32  58  89 112 155 203 236 266 345
#     4  11  23  38  57  88 124 154 185 240 299 341
#     4  10  21  40  63  85 108 149 202 244 280 343
#     4  11  20  33  59  88 123 151 193 234 289 341
#
# _framework density 18.914399
#
# number of rings (size 3 to 8) (size 9 to 14) (size 15 to 20)
#    0.000    1.500    5.000    3.000    0.000    4.500 
#    0.000   11.250    0.000    0.000    0.000    0.000 
#    0.000    0.000    0.000    0.000    0.000    0.000 
#
# Total GULP energy -396844.686398 kJ/mol
# GULP energy per Si atom -12401.396450 kJ/mol
# Density = 1.887135 g / cm^3
# Si number density = 18.914399 Si / 1000 Ang^3
#
#
#
# Elastic Constant Matrix: (Units=GPa)
#
#
# Indices 1 2 3 4 5 6 
#
# 1 159.3771 47.2330 51.9162 0.0000 0.0000 0.0000
# 2 47.2330 109.4314 47.9248 0.0000 0.0000 0.0000
# 3 51.9162 47.9248 95.0429 0.0000 0.0000 0.0000
# 4 0.0000 0.0000 0.0000 -9.5112 0.0000 0.0000
# 5 0.0000 0.0000 0.0000 0.0000 37.4821 0.0000
# 6 0.0000 0.0000 0.0000 0.0000 0.0000 15.3346
#
#
#
# Elastic Compliance Matrix: (Units=1/GPa)
#
#
# Indices 1 2 3 4 5 6 
#
# 1 0.007948 -0.001963 -0.003352 0.000000 0.000000 0.000000
# 2 -0.001963 0.012213 -0.005086 0.000000 0.000000 0.000000
# 3 -0.003352 -0.005086 0.014917 0.000000 0.000000 0.000000
# 4 0.000000 0.000000 0.000000 -0.105139 0.000000 0.000000
# 5 0.000000 0.000000 0.000000 0.000000 0.026679 0.000000
# 6 0.000000 0.000000 0.000000 0.000000 0.000000 0.065212
#
#
# Mechanical properties :
#
#
# Convention : Reuss Voigt Hill
#
# Bulk Modulus (GPa) = 70.04466 73.11105 71.57786
# Shear Modulus (GPa) = 105.50694 23.11292 64.30993
#
# Velocity S-wave (km/s) = 7.47679 3.49947 5.83732
# Velocity P-wave (km/s) = 10.56643 7.42064 9.13004
#
# Compressibility (1/GPa) = 0.01427661
#
# Stress axis : x y z
#
# Youngs Moduli (GPa) = 125.81947 81.88208 67.03699
#
# Poissons Ratio (x) = 0.16070 0.22470
# Poissons Ratio (y) = 0.24693 0.34096
# Poissons Ratio (z) = 0.42173 0.41646
#
# Static dielectric constant tensor:
#      x y z
#    x 4.028730 0.000000 0.000000 
#    y 0.000000 3.207710 0.000000 
#    z 0.000000 0.000000 3.334270 
# 
# 
# High freq. dielectric constant tensor:
#      x y z
#    x 1.760690 0.000000 0.000000 
#    y 0.000000 1.700720 0.000000 
#    z 0.000000 0.000000 1.728560 
# 
# From -- ./inp_files/15745.got.cif
#   From: 2010.03.12/outbox.cif.g09.slc.cpg/sg39_8_cif.got.tgz:15745.got - 2010.04.14 02:53:20.
