data_PCOD8181017
_publ_section_title
;
Structure prediction by ZEFSAII (Michael W. Deem and Ramdas Pophale) SiO2 
 PCOD8181017
Probable space group: A B M 2
;
_chemical_formula_sum "Si O2"
_cell_formula_units_Z 64
_cell_length_a 14.611674
_cell_length_b 8.713908
_cell_length_c 24.472771
_cell_angle_alpha 90.000000
_cell_angle_beta 90.000000
_cell_angle_gamma 90.000000
_cell_volume 3115.990256
_symmetry_space_group_name_H-M "A B M 2"
_symmetry_group_IT_number 39
_symmetry_cell_setting 'orthorhombic'
loop_
_space_group_symop_operation_xyz
x,y,z
-x,-y,z
-x,1/2+y,z
x,1/2-y,z
x,1/2+y,1/2+z
-x,1/2-y,1/2+z
-x,y,1/2+z
x,-y,1/2+z
loop_
_atom_site_type_symbol
_atom_site_label
_atom_site_fract_x
_atom_site_fract_y
_atom_site_fract_z
Si Si1 0.410376 0.568914 0.506780
Si Si2 0.905269 0.068309 0.454343
Si Si3 0.675819 0.573595 0.600894
Si Si4 0.278685 0.068066 0.422506
Si Si5 0.862123 0.927867 0.077476
Si Si6 0.710166 0.426259 0.223086
Si Si7 0.399377 0.929589 0.819863
Si Si8 0.908994 0.570058 0.688143
O O1 0.500000 0.500000 0.476320
O O2 0.416292 0.750000 0.511458
O O3 0.410739 0.487278 0.566607
O O4 0.320525 0.518464 0.474415
O O5 0.900707 0.250000 0.445772
O O6 0.898147 0.022291 0.518099
O O7 0.825638 0.989318 0.418324
O O8 0.000000 0.000000 0.431475
O O9 0.700098 0.750000 0.586966
O O10 0.755099 0.461355 0.580208
O O11 0.658385 0.556510 0.665292
O O12 0.282341 0.250000 0.430785
O O13 0.335602 0.014453 0.369565
O O14 0.880832 0.750000 0.089143
O O15 0.911892 0.026547 0.124172
O O16 0.710247 0.250000 0.242657
O O17 0.653249 0.527449 0.264764
O O18 0.815109 0.488198 0.216928
O O19 0.413442 0.750000 0.821422
O O20 0.500000 0.000000 0.823363
O O21 0.913002 0.750000 0.693444
O O22 0.000000 0.500000 0.716834
#
# Coordination Sequence:
#
# PCOD8181017 Si02
#       8
#     8   8   8   8   8   8   8   8
#     4  12  24  38  59  89 122 161 203 246 306 369
#     4  11  23  37  58  89 124 165 208 250 302 360
#     4  10  20  36  58  86 123 163 200 246 303 360
#     4  11  24  43  65  90 122 158 202 255 308 365
#     4  10  19  32  53  84 121 163 208 247 295 354
#     4   9  21  40  62  89 122 160 202 250 304 358
#     4  11  25  44  69  95 117 153 201 254 311 366
#     4  10  20  34  55  86 123 165 208 250 301 356
#
# _framework density 20.539218000000002
#
# number of rings (size 3 to 8) (size 9 to 14) (size 15 to 20)
#    0.000    1.500    1.250    4.875    0.000    9.000 
#    0.000    0.625    0.000    1.500    0.000    0.000 
#    0.000    0.000    0.000    0.000    0.000    0.000 
#
# Total GULP energy -396804.339808 kJ/mol
# GULP energy per Si atom -12400.135619 kJ/mol
# Density = 2.049247 g / cm^3
# Si number density = 20.539218 Si / 1000 Ang^3
#
#
#
# Elastic Constant Matrix: (Units=GPa)
#
#
# Indices 1 2 3 4 5 6 
#
# 1 147.9492 43.9221 56.7888 0.0000 0.0000 0.0000
# 2 43.9221 86.8031 43.3120 0.0000 0.0000 0.0000
# 3 56.7888 43.3120 86.3076 0.0000 0.0000 0.0000
# 4 0.0000 0.0000 0.0000 25.4359 0.0000 0.0000
# 5 0.0000 0.0000 0.0000 0.0000 23.0337 0.0000
# 6 0.0000 0.0000 0.0000 0.0000 0.0000 40.5206
#
#
#
# Elastic Compliance Matrix: (Units=1/GPa)
#
#
# Indices 1 2 3 4 5 6 
#
# 1 0.009352 -0.002217 -0.005041 0.000000 0.000000 0.000000
# 2 -0.002217 0.015894 -0.006518 0.000000 0.000000 0.000000
# 3 -0.005041 -0.006518 0.018174 0.000000 0.000000 0.000000
# 4 0.000000 0.000000 0.000000 0.039315 0.000000 0.000000
# 5 0.000000 0.000000 0.000000 0.000000 0.043415 0.000000
# 6 0.000000 0.000000 0.000000 0.000000 0.000000 0.024679
#
#
# Mechanical properties :
#
#
# Convention : Reuss Voigt Hill
#
# Bulk Modulus (GPa) = 63.01408 67.67843 65.34626
# Shear Modulus (GPa) = 27.22288 29.60050 28.41169
#
# Velocity S-wave (km/s) = 3.64457 3.80039 3.72330
# Velocity P-wave (km/s) = 6.96110 7.23047 7.09706
#
# Compressibility (1/GPa) = 0.01586947
#
# Stress axis : x y z
#
# Youngs Moduli (GPa) = 106.92715 62.91644 55.02330
#
# Poissons Ratio (x) = 0.13948 0.27738
# Poissons Ratio (y) = 0.23704 0.35862
# Poissons Ratio (z) = 0.53903 0.41006
#
# Static dielectric constant tensor:
#      x y z
#    x 4.035070 0.000000 0.000000 
#    y 0.000000 3.650940 0.000000 
#    z 0.000000 0.000000 3.592460 
# 
# 
# High freq. dielectric constant tensor:
#      x y z
#    x 1.816930 0.000000 0.000000 
#    y 0.000000 1.809340 0.000000 
#    z 0.000000 0.000000 1.779670 
# 
# From -- ./inp_files/16172.got.cif
#   From: 2010.03.12/outbox.cif.g09.slc.cpg/sg39_9_cif.got.tgz:16172.got - 2010.04.14 02:53:20.
