data_PCOD8181118
_publ_section_title
;
Structure prediction by ZEFSAII (Michael W. Deem and Ramdas Pophale) SiO2 
 PCOD8181118
Probable space group: A B M 2
;
_chemical_formula_sum "Si O2"
_cell_formula_units_Z 56
_cell_length_a 14.463666
_cell_length_b 8.744645
_cell_length_c 25.312864
_cell_angle_alpha 90.000000
_cell_angle_beta 90.000000
_cell_angle_gamma 90.000000
_cell_volume 3201.561535
_symmetry_space_group_name_H-M "A B M 2"
_symmetry_group_IT_number 39
_symmetry_cell_setting 'orthorhombic'
loop_
_space_group_symop_operation_xyz
x,y,z
-x,-y,z
-x,1/2+y,z
x,1/2-y,z
x,1/2+y,1/2+z
-x,1/2-y,1/2+z
-x,y,1/2+z
x,-y,1/2+z
loop_
_atom_site_type_symbol
_atom_site_label
_atom_site_fract_x
_atom_site_fract_y
_atom_site_fract_z
Si Si1 0.712099 0.069397 0.665260
Si Si2 0.287901 0.569397 0.459633
Si Si3 0.399445 0.069794 0.062447
Si Si4 0.093353 0.070066 0.122122
Si Si5 0.093353 0.429934 0.002772
Si Si6 0.402981 0.068891 0.755859
Si Si7 0.597019 0.068891 0.869034
O O1 0.700398 0.250000 0.674669
O O2 0.655316 0.014557 0.614086
O O3 0.818971 0.022636 0.657388
O O4 0.677297 0.976441 0.715625
O O5 0.299601 0.750000 0.450224
O O6 0.344684 0.514557 0.510807
O O7 0.181029 0.522635 0.467505
O O8 0.322703 0.476442 0.409268
O O9 0.407950 0.250000 0.062447
O O10 0.500000 0.000000 0.062447
O O11 0.083242 0.250000 0.120961
O O12 0.107695 0.007742 0.062447
O O13 0.000000 0.000000 0.147211
O O14 0.083241 0.250000 0.003931
O O15 0.000000 0.500000 0.977682
O O16 0.412228 0.250000 0.760323
O O17 0.500000 0.000000 0.735404
O O18 0.376727 1.000000 0.812447
O O19 0.587772 0.250000 0.864571
O O20 0.500000 0.000000 0.889490
#
# Coordination Sequence:
#
# PCOD8181118 Si02
#       7
#     8   8   8   8   8   8   8
#     4  10  19  34  53  75 106 141 174 213 260 309
#     4  10  19  34  53  75 106 141 174 213 260 309
#     4  10  20  32  47  70 104 140 171 204 253 308
#     4   9  17  31  51  75 105 140 175 213 257 306
#     4   9  17  31  51  75 105 140 175 213 257 306
#     4  11  22  37  56  78 103 136 177 219 261 308
#     4  11  22  37  56  78 103 136 177 219 261 308
#
# _framework density 17.491464000000001
#
# number of rings (size 3 to 8) (size 9 to 14) (size 15 to 20)
#    0.000    2.000    1.429    4.286    0.000    4.571 
#    0.000    0.000    0.000    0.857    0.000    6.000 
#    0.000    0.000    0.000    0.000    0.000    0.000 
#
# Total GULP energy -347245.981427 kJ/mol
# GULP energy per Si atom -12401.642194 kJ/mol
# Density = 1.745165 g / cm^3
# Si number density = 17.491464 Si / 1000 Ang^3
#
#
#
# Elastic Constant Matrix: (Units=GPa)
#
#
# Indices 1 2 3 4 5 6 
#
# 1 160.5346 53.0189 72.6466 0.0000 0.0000 0.0000
# 2 53.0189 76.5146 42.6840 0.0000 0.0000 0.0000
# 3 72.6466 42.6840 94.7868 0.0000 0.0000 0.0000
# 4 0.0000 0.0000 0.0000 25.2278 0.0000 0.0000
# 5 0.0000 0.0000 0.0000 0.0000 20.0208 0.0000
# 6 0.0000 0.0000 0.0000 0.0000 0.0000 32.2404
#
#
#
# Elastic Compliance Matrix: (Units=1/GPa)
#
#
# Indices 1 2 3 4 5 6 
#
# 1 0.010240 -0.003629 -0.006214 0.000000 0.000000 0.000000
# 2 -0.003629 0.018740 -0.005658 0.000000 0.000000 0.000000
# 3 -0.006214 -0.005658 0.017860 0.000000 0.000000 0.000000
# 4 0.000000 0.000000 0.000000 0.039639 0.000000 0.000000
# 5 0.000000 0.000000 0.000000 0.000000 0.049948 0.000000
# 6 0.000000 0.000000 0.000000 0.000000 0.000000 0.031017
#
#
# Mechanical properties :
#
#
# Convention : Reuss Voigt Hill
#
# Bulk Modulus (GPa) = 63.13462 74.28167 68.70814
# Shear Modulus (GPa) = 24.54302 26.39688 25.46995
#
# Velocity S-wave (km/s) = 3.74992 3.88897 3.82007
# Velocity P-wave (km/s) = 7.41094 7.91991 7.66965
#
# Compressibility (1/GPa) = 0.01583917
#
# Stress axis : x y z
#
# Youngs Moduli (GPa) = 97.66053 53.36132 55.99099
#
# Poissons Ratio (x) = 0.19365 0.34791
# Poissons Ratio (y) = 0.35440 0.31678
# Poissons Ratio (z) = 0.60683 0.30190
#
# Static dielectric constant tensor:
#      x y z
#    x 3.364610 0.000000 0.000000 
#    y 0.000000 3.151350 0.000000 
#    z 0.000000 0.000000 3.158170 
# 
# 
# High freq. dielectric constant tensor:
#      x y z
#    x 1.680530 0.000000 0.000000 
#    y 0.000000 1.672980 0.000000 
#    z 0.000000 0.000000 1.659030 
# 
# From -- ./inp_files/14775.got.cif
#   From: 2010.03.12/outbox.cif.g09.slc.cpg/sg39_8_cif.got.tgz:14775.got - 2010.04.14 02:53:20.
