data_PCOD8181887
_publ_section_title
;
Structure prediction by ZEFSAII (Michael W. Deem and Ramdas Pophale) SiO2 
 PCOD8181887
Probable space group: A B M 2
;
_chemical_formula_sum "Si O2"
_cell_formula_units_Z 48
_cell_length_a 8.709255
_cell_length_b 27.878613
_cell_length_c 8.530004
_cell_angle_alpha 90.000000
_cell_angle_beta 90.000000
_cell_angle_gamma 90.000000
_cell_volume 2071.101602
_symmetry_space_group_name_H-M "A B M 2"
_symmetry_group_IT_number 39
_symmetry_cell_setting 'orthorhombic'
loop_
_space_group_symop_operation_xyz
x,y,z
-x,-y,z
-x,1/2+y,z
x,1/2-y,z
x,1/2+y,1/2+z
-x,1/2-y,1/2+z
-x,y,1/2+z
x,-y,1/2+z
loop_
_atom_site_type_symbol
_atom_site_label
_atom_site_fract_x
_atom_site_fract_y
_atom_site_fract_z
Si Si1 0.706506 0.003495 0.958380
Si Si2 0.782666 0.663087 0.164155
Si Si3 0.227900 0.068388 0.712466
Si Si4 0.608115 0.250000 0.801131
Si Si5 0.580550 0.568489 0.201282
Si Si6 0.713383 0.750000 0.664098
Si Si7 0.098874 0.834368 0.308088
O O1 0.600177 0.040068 0.862221
O O2 0.807605 0.968092 0.853885
O O3 0.818604 0.038129 0.058454
O O4 0.599585 0.970572 0.066646
O O5 0.847523 0.669065 0.987843
O O6 0.660093 0.703579 0.204029
O O7 0.700062 0.611937 0.182021
O O8 0.916060 0.672037 0.292531
O O9 0.405064 0.086580 0.702859
O O10 0.122510 0.113978 0.730404
O O11 0.424525 0.250000 0.789262
O O12 0.658558 0.250000 0.983017
O O13 0.816114 0.703650 0.698286
#
# Coordination Sequence:
#
# PCOD8181887 Si02
#       7
#     8   8   8   4   8   4   8
#     4  10  21  38  65 100 133 180 231 294 341 404
#     4  12  27  47  69 101 143 186 229 280 347 414
#     4  11  21  39  68  98 135 177 236 287 348 401
#     4  12  27  50  81 110 136 172 222 282 341 408
#     4  11  21  39  68  98 135 177 236 287 348 401
#     4  12  27  50  81 110 136 172 222 282 341 408
#     4  12  27  47  69 101 143 186 229 280 347 414
#
# _framework density 23.176075000000001
#
# number of rings (size 3 to 8) (size 9 to 14) (size 15 to 20)
#    0.000    0.667    1.667    8.000    4.667    0.000 
#    0.000    5.000    0.000    0.000    0.000    0.000 
#    0.000    0.000    0.000    0.000    0.000    0.000 
#
# Total GULP energy -297545.754250 kJ/mol
# GULP energy per Si atom -12397.739760 kJ/mol
# Density = 2.312332 g / cm^3
# Si number density = 23.176075 Si / 1000 Ang^3
#
#
#
# Elastic Constant Matrix: (Units=GPa)
#
#
# Indices 1 2 3 4 5 6 
#
# 1 79.2019 39.0695 14.4948 0.0000 0.0000 0.0000
# 2 39.0695 133.8514 46.8045 0.0000 0.0000 0.0000
# 3 14.4948 46.8045 134.6631 0.0000 0.0000 0.0000
# 4 0.0000 0.0000 0.0000 44.9776 0.0000 0.0000
# 5 0.0000 0.0000 0.0000 0.0000 14.9954 0.0000
# 6 0.0000 0.0000 0.0000 0.0000 0.0000 -28.2018
#
#
#
# Elastic Compliance Matrix: (Units=1/GPa)
#
#
# Indices 1 2 3 4 5 6 
#
# 1 0.014751 -0.004269 -0.000104 0.000000 0.000000 0.000000
# 2 -0.004269 0.009740 -0.002926 0.000000 0.000000 0.000000
# 3 -0.000104 -0.002926 0.008454 0.000000 0.000000 0.000000
# 4 0.000000 0.000000 0.000000 0.022233 0.000000 0.000000
# 5 0.000000 0.000000 0.000000 0.000000 0.066687 0.000000
# 6 0.000000 0.000000 0.000000 0.000000 0.000000 -0.035459
#
#
# Mechanical properties :
#
#
# Convention : Reuss Voigt Hill
#
# Bulk Modulus (GPa) = 54.50428 60.93934 57.72181
# Shear Modulus (GPa) = 46.67633 22.84408 34.76021
#
# Velocity S-wave (km/s) = 4.49262 3.14295 3.87697
# Velocity P-wave (km/s) = 7.10493 6.28665 6.70828
#
# Compressibility (1/GPa) = 0.01834718
#
# Stress axis : x y z
#
# Youngs Moduli (GPa) = 67.79213 102.66711 118.28649
#
# Poissons Ratio (x) = 0.43832 0.01229
# Poissons Ratio (y) = 0.28942 0.34609
# Poissons Ratio (z) = 0.00704 0.30039
#
# Static dielectric constant tensor:
#      x y z
#    x 3.964430 0.000000 0.000000 
#    y 0.000000 4.375500 0.000000 
#    z 0.000000 0.000000 4.542770 
# 
# 
# High freq. dielectric constant tensor:
#      x y z
#    x 1.901250 0.000000 0.000000 
#    y 0.000000 1.930040 0.000000 
#    z 0.000000 0.000000 1.937940 
# 
# From -- ./inp_files/2332.got.cif
#   From: 2010.03.12/outbox.cif.g09.slc.cpg/sg39_2_cif.got.tgz:2332.got - 2010.04.14 02:53:20.
