data_PCOD8181363
_publ_section_title
;
Structure prediction by ZEFSAII (Michael W. Deem and Ramdas Pophale) SiO2 
 PCOD8181363
Probable space group: A B M 2
;
_chemical_formula_sum "Si O2"
_cell_formula_units_Z 56
_cell_length_a 19.491427
_cell_length_b 8.848231
_cell_length_c 15.604390
_cell_angle_alpha 90.000000
_cell_angle_beta 90.000000
_cell_angle_gamma 90.000000
_cell_volume 2691.205638
_symmetry_space_group_name_H-M "A B M 2"
_symmetry_group_IT_number 39
_symmetry_cell_setting 'orthorhombic'
loop_
_space_group_symop_operation_xyz
x,y,z
-x,-y,z
-x,1/2+y,z
x,1/2-y,z
x,1/2+y,1/2+z
-x,1/2-y,1/2+z
-x,y,1/2+z
x,-y,1/2+z
loop_
_atom_site_type_symbol
_atom_site_label
_atom_site_fract_x
_atom_site_fract_y
_atom_site_fract_z
Si Si1 0.210267 0.928879 0.932530
Si Si2 0.650669 0.073085 0.184929
Si Si3 0.353750 0.568837 0.862931
Si Si4 0.065326 0.084640 0.177056
Si Si5 0.573755 0.931249 0.026202
Si Si6 0.934521 0.583605 0.378138
Si Si7 0.798031 0.077042 0.124258
O O1 0.207671 0.750000 0.922673
O O2 0.275373 0.986486 0.878298
O O3 0.138035 0.999126 0.899110
O O4 0.221601 0.981654 0.029852
O O5 0.630318 0.250000 0.180086
O O6 0.732895 0.052190 0.185348
O O7 0.621675 0.997702 0.271703
O O8 0.622153 0.985196 0.103094
O O9 0.361322 0.750000 0.864194
O O10 0.401193 0.498007 0.935990
O O11 0.067031 0.250000 0.135586
O O12 0.054531 0.094054 0.277718
O O13 0.137575 0.009186 0.160713
O O14 0.000000 0.000000 0.135253
O O15 0.571683 0.750000 0.022141
O O16 0.500000 0.000000 0.046341
O O17 0.933217 0.750000 0.419631
O O18 0.000000 0.500000 0.420041
O O19 0.820102 0.250000 0.119347
#
# Coordination Sequence:
#
# PCOD8181363 Si02
#       7
#     8   8   8   8   8   8   8
#     4   9  18  35  58  83 117 159 201 252 316 374
#     4  11  23  42  67  99 135 174 217 265 321 383
#     4  11  22  42  69  98 132 173 217 267 322 381
#     4  10  20  34  52  77 109 151 203 260 317 381
#     4  12  26  46  71 101 135 172 213 262 318 383
#     4   9  18  33  52  74 106 148 198 250 307 367
#     4  10  20  36  58  84 120 161 202 256 317 377
#
# _framework density 20.808516000000001
#
# number of rings (size 3 to 8) (size 9 to 14) (size 15 to 20)
#    0.000    1.714    1.429    3.429    0.000    4.000 
#    0.000    6.429    0.000    0.000    0.000    0.000 
#    0.000    0.000    0.000    0.000    0.000    0.000 
#
# Total GULP energy -347142.720849 kJ/mol
# GULP energy per Si atom -12397.954316 kJ/mol
# Density = 2.076116 g / cm^3
# Si number density = 20.808516 Si / 1000 Ang^3
#
#
#
# Elastic Constant Matrix: (Units=GPa)
#
#
# Indices 1 2 3 4 5 6 
#
# 1 92.9384 48.4332 10.9903 0.0000 0.0000 0.0000
# 2 48.4332 120.8150 41.1680 0.0000 0.0000 0.0000
# 3 10.9903 41.1680 86.4841 0.0000 0.0000 0.0000
# 4 0.0000 0.0000 0.0000 23.0798 0.0000 0.0000
# 5 0.0000 0.0000 0.0000 0.0000 28.8307 0.0000
# 6 0.0000 0.0000 0.0000 0.0000 0.0000 34.3234
#
#
#
# Elastic Compliance Matrix: (Units=1/GPa)
#
#
# Indices 1 2 3 4 5 6 
#
# 1 0.013679 -0.005839 0.001041 0.000000 0.000000 0.000000
# 2 -0.005839 0.012372 -0.005147 0.000000 0.000000 0.000000
# 3 0.001041 -0.005147 0.013881 0.000000 0.000000 0.000000
# 4 0.000000 0.000000 0.000000 0.043328 0.000000 0.000000
# 5 0.000000 0.000000 0.000000 0.000000 0.034685 0.000000
# 6 0.000000 0.000000 0.000000 0.000000 0.000000 0.029135
#
#
# Mechanical properties :
#
#
# Convention : Reuss Voigt Hill
#
# Bulk Modulus (GPa) = 49.89513 55.71338 52.80425
# Shear Modulus (GPa) = 28.79356 30.55651 29.67504
#
# Velocity S-wave (km/s) = 3.72390 3.83621 3.78047
# Velocity P-wave (km/s) = 6.52075 6.81575 6.66988
#
# Compressibility (1/GPa) = 0.02004204
#
# Stress axis : x y z
#
# Youngs Moduli (GPa) = 73.10263 80.83005 72.04261
#
# Poissons Ratio (x) = 0.47193 -0.07499
# Poissons Ratio (y) = 0.42682 0.37081
# Poissons Ratio (z) = -0.07609 0.41604
#
# Static dielectric constant tensor:
#      x y z
#    x 3.962150 0.000000 0.000000 
#    y 0.000000 3.854420 0.000000 
#    z 0.000000 0.000000 3.708830 
# 
# 
# High freq. dielectric constant tensor:
#      x y z
#    x 1.824380 0.000000 0.000000 
#    y 0.000000 1.803390 0.000000 
#    z 0.000000 0.000000 1.812530 
# 
# From -- ./inp_files/10323.got.cif
#   From: 2010.03.12/outbox.cif.g09.slc.cpg/sg39_6_cif.got.tgz:10323.got - 2010.04.14 02:53:20.
