data_PCOD8181983
_publ_section_title
;
Structure prediction by ZEFSAII (Michael W. Deem and Ramdas Pophale) SiO2 
 PCOD8181983
Probable space group: A B M 2
;
_chemical_formula_sum "Si O2"
_cell_formula_units_Z 44
_cell_length_a 5.504786
_cell_length_b 23.780989
_cell_length_c 15.669297
_cell_angle_alpha 90.000000
_cell_angle_beta 90.000000
_cell_angle_gamma 90.000000
_cell_volume 2051.256002
_symmetry_space_group_name_H-M "A B M 2"
_symmetry_group_IT_number 39
_symmetry_cell_setting 'orthorhombic'
loop_
_space_group_symop_operation_xyz
x,y,z
-x,-y,z
-x,1/2+y,z
x,1/2-y,z
x,1/2+y,1/2+z
-x,1/2-y,1/2+z
-x,y,1/2+z
x,-y,1/2+z
loop_
_atom_site_type_symbol
_atom_site_label
_atom_site_fract_x
_atom_site_fract_y
_atom_site_fract_z
Si Si1 0.233682 0.598210 0.699410
Si Si2 0.148649 0.914457 0.340059
Si Si3 0.384620 0.687309 0.984011
Si Si4 0.500000 0.000000 0.764792
Si Si5 0.105229 0.372177 0.019702
Si Si6 0.508378 0.814376 0.795824
O O1 0.427255 0.548336 0.697626
O O2 0.089660 0.596666 0.610705
O O3 0.352770 0.659638 0.717592
O O4 0.081320 0.578262 0.780681
O O5 0.071956 0.913898 0.439683
O O6 0.260756 0.853970 0.313043
O O7 0.311536 0.969820 0.328605
O O8 0.430409 0.750000 0.015917
O O9 0.625009 0.654493 0.014437
O O10 0.348541 0.684458 0.881876
O O11 0.127841 0.668541 0.023553
O O12 0.587382 0.750000 0.773587
#
# Coordination Sequence:
#
# PCOD8181983 Si02
#       6
#     8   8   8   4   8   8
#     4  11  23  42  65  96 131 169 226 274 332 398
#     4  10  22  44  64  94 130 173 224 273 333 396
#     4  10  21  41  63  95 137 179 221 265 321 393
#     4  10  24  44  68  90 128 172 222 286 336 392
#     4  11  24  40  68  96 134 175 220 274 333 394
#     4   9  20  38  64  93 133 176 214 266 326 390
#
# _framework density 21.450271999999998
#
# number of rings (size 3 to 8) (size 9 to 14) (size 15 to 20)
#    0.000    1.818    1.818    1.091    5.091    3.636 
#    0.000    3.636    0.000    0.000    0.000    0.000 
#    0.000    0.000    0.000    0.000    0.000    0.000 
#
# Total GULP energy -272602.745174 kJ/mol
# GULP energy per Si atom -12391.033872 kJ/mol
# Density = 2.140145 g / cm^3
# Si number density = 21.450272 Si / 1000 Ang^3
#
#
#
# Elastic Constant Matrix: (Units=GPa)
#
#
# Indices 1 2 3 4 5 6 
#
# 1 80.3479 12.9065 17.4130 0.0000 0.0000 0.0000
# 2 12.9065 113.3816 20.6759 0.0000 0.0000 0.0000
# 3 17.4130 20.6759 120.8090 0.0000 0.0000 0.0000
# 4 0.0000 0.0000 0.0000 14.0223 0.0000 0.0000
# 5 0.0000 0.0000 0.0000 0.0000 22.8527 0.0000
# 6 0.0000 0.0000 0.0000 0.0000 0.0000 20.0463
#
#
#
# Elastic Compliance Matrix: (Units=1/GPa)
#
#
# Indices 1 2 3 4 5 6 
#
# 1 0.012997 -0.001175 -0.001672 0.000000 0.000000 0.000000
# 2 -0.001175 0.009210 -0.001407 0.000000 0.000000 0.000000
# 3 -0.001672 -0.001407 0.008759 0.000000 0.000000 0.000000
# 4 0.000000 0.000000 0.000000 0.071315 0.000000 0.000000
# 5 0.000000 0.000000 0.000000 0.000000 0.043758 0.000000
# 6 0.000000 0.000000 0.000000 0.000000 0.000000 0.049885
#
#
# Mechanical properties :
#
#
# Convention : Reuss Voigt Hill
#
# Bulk Modulus (GPa) = 44.52607 46.28106 45.40356
# Shear Modulus (GPa) = 23.59399 28.95380 26.27389
#
# Velocity S-wave (km/s) = 3.32013 3.67796 3.50362
# Velocity P-wave (km/s) = 5.95824 6.29757 6.13025
#
# Compressibility (1/GPa) = 0.02245875
#
# Stress axis : x y z
#
# Youngs Moduli (GPa) = 76.94104 108.57718 114.16350
#
# Poissons Ratio (x) = 0.12753 0.19092
# Poissons Ratio (y) = 0.09037 0.16062
# Poissons Ratio (z) = 0.12867 0.15276
#
# Static dielectric constant tensor:
#      x y z
#    x 3.845660 0.000000 0.000000 
#    y 0.000000 3.879260 0.000000 
#    z 0.000000 0.000000 3.878310 
# 
# 
# High freq. dielectric constant tensor:
#      x y z
#    x 1.841460 0.000000 0.000000 
#    y 0.000000 1.838840 0.000000 
#    z 0.000000 0.000000 1.835390 
# 
# From -- ./inp_files/7494.got.cif
#   From: 2010.03.12/outbox.cif.g09.slc.cpg/sg39_4_cif.got.tgz:7494.got - 2010.04.14 02:53:20.
