data_PCOD8181415
_publ_section_title
;
Structure prediction by ZEFSAII (Michael W. Deem and Ramdas Pophale) SiO2 
 PCOD8181415
Probable space group: A B M 2
;
_chemical_formula_sum "Si O2"
_cell_formula_units_Z 48
_cell_length_a 13.906364
_cell_length_b 8.953060
_cell_length_c 20.116425
_cell_angle_alpha 90.000000
_cell_angle_beta 90.000000
_cell_angle_gamma 90.000000
_cell_volume 2504.585663
_symmetry_space_group_name_H-M "A B M 2"
_symmetry_group_IT_number 39
_symmetry_cell_setting 'orthorhombic'
loop_
_space_group_symop_operation_xyz
x,y,z
-x,-y,z
-x,1/2+y,z
x,1/2-y,z
x,1/2+y,1/2+z
-x,1/2-y,1/2+z
-x,y,1/2+z
x,-y,1/2+z
loop_
_atom_site_type_symbol
_atom_site_label
_atom_site_fract_x
_atom_site_fract_y
_atom_site_fract_z
Si Si1 0.599659 0.425879 0.198940
Si Si2 0.781419 0.924300 0.405861
Si Si3 0.899102 0.424921 0.036995
Si Si4 0.097357 0.919774 0.783850
Si Si5 0.215850 0.922377 0.652519
Si Si6 0.598894 0.424904 0.352516
O O1 0.500000 0.500000 0.176709
O O2 0.594306 0.250000 0.186480
O O3 0.681447 0.495865 0.152028
O O4 0.621561 0.464307 0.275822
O O5 0.761127 0.750000 0.393001
O O6 0.824454 0.955417 0.478005
O O7 0.856186 0.986747 0.350960
O O8 0.681964 0.012438 0.399867
O O9 0.915922 0.250000 0.048943
O O10 0.856969 0.497608 0.102994
O O11 0.000000 0.500000 0.018573
O O12 0.068964 0.750000 0.796222
O O13 0.173779 0.939150 0.725760
O O14 0.000000 0.000000 0.763885
O O15 0.228621 0.750000 0.631956
O O16 0.500000 0.500000 0.375360
O O17 0.589236 0.250000 0.363613
#
# Coordination Sequence:
#
# PCOD8181415 Si02
#       6
#     8   8   8   8   8   8
#     4  10  20  35  58  89 121 154 192 238 293 351
#     4  10  21  39  59  83 116 153 194 241 290 345
#     4  11  24  41  61  84 117 159 199 242 293 351
#     4  10  21  35  55  82 111 145 188 239 290 338
#     4  11  22  38  60  85 117 155 195 243 292 347
#     4  10  20  34  58  89 120 154 190 237 290 348
#
# _framework density 19.164847000000002
#
# number of rings (size 3 to 8) (size 9 to 14) (size 15 to 20)
#    0.000    1.667    1.667    3.000    0.000    6.000 
#    0.000    0.833    0.000    4.000    0.000    0.000 
#    0.000    0.000    0.000    0.000    0.000    0.000 
#
# Total GULP energy -297728.321555 kJ/mol
# GULP energy per Si atom -12405.346731 kJ/mol
# Density = 1.912123 g / cm^3
# Si number density = 19.164847 Si / 1000 Ang^3
#
#
#
# Elastic Constant Matrix: (Units=GPa)
#
#
# Indices 1 2 3 4 5 6 
#
# 1 127.5789 64.9398 14.6425 0.0000 0.0000 0.0000
# 2 64.9398 106.7449 33.2770 0.0000 0.0000 0.0000
# 3 14.6425 33.2770 52.3391 0.0000 0.0000 0.0000
# 4 0.0000 0.0000 0.0000 26.6614 0.0000 0.0000
# 5 0.0000 0.0000 0.0000 0.0000 29.9026 0.0000
# 6 0.0000 0.0000 0.0000 0.0000 0.0000 41.5467
#
#
#
# Elastic Compliance Matrix: (Units=1/GPa)
#
#
# Indices 1 2 3 4 5 6 
#
# 1 0.011452 -0.007443 0.001529 0.000000 0.000000 0.000000
# 2 -0.007443 0.016522 -0.008422 0.000000 0.000000 0.000000
# 3 0.001529 -0.008422 0.024033 0.000000 0.000000 0.000000
# 4 0.000000 0.000000 0.000000 0.037507 0.000000 0.000000
# 5 0.000000 0.000000 0.000000 0.000000 0.033442 0.000000
# 6 0.000000 0.000000 0.000000 0.000000 0.000000 0.024069
#
#
# Mechanical properties :
#
#
# Convention : Reuss Voigt Hill
#
# Bulk Modulus (GPa) = 42.85737 56.93125 49.89431
# Shear Modulus (GPa) = 27.25139 31.20905 29.23022
#
# Velocity S-wave (km/s) = 3.77496 4.03979 3.90962
# Velocity P-wave (km/s) = 6.43518 7.17847 6.81696
#
# Compressibility (1/GPa) = 0.02333321
#
# Stress axis : x y z
#
# Youngs Moduli (GPa) = 87.32405 60.52561 41.60889
#
# Poissons Ratio (x) = 0.45051 -0.06361
# Poissons Ratio (y) = 0.64998 0.35044
# Poissons Ratio (z) = -0.13349 0.50976
#
# Static dielectric constant tensor:
#      x y z
#    x 3.541390 0.000000 0.000000 
#    y 0.000000 3.573710 0.000000 
#    z 0.000000 0.000000 3.319280 
# 
# 
# High freq. dielectric constant tensor:
#      x y z
#    x 1.757500 0.000000 0.000000 
#    y 0.000000 1.753820 0.000000 
#    z 0.000000 0.000000 1.728850 
# 
# From -- ./inp_files/12631.got.cif
#   From: 2010.03.12/outbox.cif.g09.slc.cpg/sg39_7_cif.got.tgz:12631.got - 2010.04.14 02:53:20.
