data_PCOD8181019
_publ_section_title
;
Structure prediction by ZEFSAII (Michael W. Deem and Ramdas Pophale) SiO2 
 PCOD8181019
Probable space group: A B M 2
;
_chemical_formula_sum "Si O2"
_cell_formula_units_Z 56
_cell_length_a 9.756406
_cell_length_b 17.334514
_cell_length_c 18.166467
_cell_angle_alpha 90.000000
_cell_angle_beta 90.000000
_cell_angle_gamma 90.000000
_cell_volume 3072.359340
_symmetry_space_group_name_H-M "A B M 2"
_symmetry_group_IT_number 39
_symmetry_cell_setting 'orthorhombic'
loop_
_space_group_symop_operation_xyz
x,y,z
-x,-y,z
-x,1/2+y,z
x,1/2-y,z
x,1/2+y,1/2+z
-x,1/2-y,1/2+z
-x,y,1/2+z
x,-y,1/2+z
loop_
_atom_site_type_symbol
_atom_site_label
_atom_site_fract_x
_atom_site_fract_y
_atom_site_fract_z
Si Si1 0.903568 0.340445 0.575890
Si Si2 0.146979 0.032241 0.789176
Si Si3 0.553062 0.335724 0.134690
Si Si4 0.854637 0.538374 0.950700
Si Si5 0.367035 0.460678 0.537950
Si Si6 0.859178 0.834545 0.679485
Si Si7 0.301127 0.932956 0.672526
O O1 0.876431 0.250000 0.561856
O O2 0.862821 0.384978 0.501010
O O3 0.808896 0.371975 0.641895
O O4 0.061394 0.356205 0.602623
O O5 0.205384 0.057820 0.869305
O O6 0.105984 0.105574 0.741717
O O7 0.248370 0.971059 0.748821
O O8 0.000000 0.000000 0.807682
O O9 0.492568 0.250000 0.122515
O O10 0.587273 0.372652 0.054450
O O11 0.696053 0.332111 0.176215
O O12 0.444962 0.387049 0.181845
O O13 0.000000 0.500000 0.948260
O O14 0.757055 0.471106 0.982451
O O15 0.500000 0.500000 0.502545
O O16 0.323630 0.496642 0.616705
O O17 0.914096 0.750000 0.702953
#
# Coordination Sequence:
#
# PCOD8181019 Si02
#       7
#     8   8   8   8   8   8   8
#     4  10  20  35  59  83 108 146 186 233 280 332
#     4  11  21  36  55  83 115 151 185 236 283 340
#     4  10  19  32  54  83 110 138 184 233 275 322
#     4  10  22  35  55  81 113 147 186 226 288 346
#     4   9  18  34  53  80 105 141 184 230 272 324
#     4  10  20  33  54  83 110 143 186 234 283 326
#     4  10  19  33  58  80 108 143 186 231 272 329
#
# _framework density 18.227034
#
# number of rings (size 3 to 8) (size 9 to 14) (size 15 to 20)
#    0.000    2.000    2.857    1.286    2.000    0.571 
#    2.571    0.000    0.000    2.571    0.000    0.000 
#    0.000    0.000    0.000    0.000    0.000    0.000 
#
# Total GULP energy -346889.009906 kJ/mol
# GULP energy per Si atom -12388.893211 kJ/mol
# Density = 1.818555 g / cm^3
# Si number density = 18.227034 Si / 1000 Ang^3
#
#
#
# Elastic Constant Matrix: (Units=GPa)
#
#
# Indices 1 2 3 4 5 6 
#
# 1 89.4370 23.1603 38.3076 0.0000 0.0000 0.0000
# 2 23.1603 105.6508 56.4859 0.0000 0.0000 0.0000
# 3 38.3076 56.4859 118.3973 0.0000 0.0000 0.0000
# 4 0.0000 0.0000 0.0000 -527.5050 0.0000 0.0000
# 5 0.0000 0.0000 0.0000 0.0000 -31.5851 0.0000
# 6 0.0000 0.0000 0.0000 0.0000 0.0000 24.4497
#
#
#
# Elastic Compliance Matrix: (Units=1/GPa)
#
#
# Indices 1 2 3 4 5 6 
#
# 1 0.013031 -0.000809 -0.003830 0.000000 0.000000 0.000000
# 2 -0.000809 0.012756 -0.005824 0.000000 0.000000 0.000000
# 3 -0.003830 -0.005824 0.012464 0.000000 0.000000 0.000000
# 4 0.000000 0.000000 0.000000 -0.001896 0.000000 0.000000
# 5 0.000000 0.000000 0.000000 0.000000 -0.031660 0.000000
# 6 0.000000 0.000000 0.000000 0.000000 0.000000 0.040900
#
#
# Mechanical properties :
#
#
# Convention : Reuss Voigt Hill
#
# Bulk Modulus (GPa) = 57.72042 61.04365 59.38203
# Shear Modulus (GPa) = 69.15882 -93.89266 -12.36692
#
# Velocity S-wave (km/s) = 6.16647 -7.18503 -2.60762
# Velocity P-wave (km/s) = 9.07947 5.93881 4.85630
#
# Compressibility (1/GPa) = 0.01732489
#
# Stress axis : x y z
#
# Youngs Moduli (GPa) = 76.73942 78.39240 80.23019
#
# Poissons Ratio (x) = 0.06340 0.30731
# Poissons Ratio (y) = 0.06206 0.46728
# Poissons Ratio (z) = 0.29394 0.45658
#
# Static dielectric constant tensor:
#      x y z
#    x 3.543020 0.000000 0.000000 
#    y 0.000000 3.822590 0.000000 
#    z 0.000000 0.000000 3.265390 
# 
# 
# High freq. dielectric constant tensor:
#      x y z
#    x 1.722330 0.000000 0.000000 
#    y 0.000000 1.711360 0.000000 
#    z 0.000000 0.000000 1.668290 
# 
# From -- ./inp_files/14139.got.cif
#   From: 2010.03.12/outbox.cif.g09.slc.cpg/sg39_8_cif.got.tgz:14139.got - 2010.04.14 02:53:20.
