data_PCOD8181218
_publ_section_title
;
Structure prediction by ZEFSAII (Michael W. Deem and Ramdas Pophale) SiO2 
 PCOD8181218
Probable space group: A B M 2
;
_chemical_formula_sum "Si O2"
_cell_formula_units_Z 64
_cell_length_a 23.936971
_cell_length_b 8.630736
_cell_length_c 15.361644
_cell_angle_alpha 90.000000
_cell_angle_beta 90.000000
_cell_angle_gamma 90.000000
_cell_volume 3173.618524
_symmetry_space_group_name_H-M "A B M 2"
_symmetry_group_IT_number 39
_symmetry_cell_setting 'orthorhombic'
loop_
_space_group_symop_operation_xyz
x,y,z
-x,-y,z
-x,1/2+y,z
x,1/2-y,z
x,1/2+y,1/2+z
-x,1/2-y,1/2+z
-x,y,1/2+z
x,-y,1/2+z
loop_
_atom_site_type_symbol
_atom_site_label
_atom_site_fract_x
_atom_site_fract_y
_atom_site_fract_z
Si Si1 0.753340 0.431655 0.947500
Si Si2 0.135202 0.427680 0.998697
Si Si3 0.363017 0.930066 0.243653
Si Si4 0.760987 0.429174 0.263391
Si Si5 0.866169 0.071789 0.692336
Si Si6 0.365531 0.934458 0.439653
Si Si7 0.060651 0.068840 0.351111
Si Si8 0.561218 0.434736 0.088723
O O1 0.751724 0.250000 0.966756
O O2 0.768427 0.463118 0.847311
O O3 0.694000 0.504579 0.974101
O O4 0.801530 0.510572 0.004716
O O5 0.134774 0.250000 0.967595
O O6 0.109002 0.445216 0.095308
O O7 0.098769 0.527336 0.932946
O O8 0.375963 0.750000 0.245706
O O9 0.298599 0.963422 0.218106
O O10 0.375501 0.995667 0.340640
O O11 0.402283 0.003419 0.169243
O O12 0.763700 0.250000 0.292869
O O13 0.809971 0.469896 0.196887
O O14 0.851062 0.250000 0.712873
O O15 0.911206 0.007522 0.761745
O O16 0.365510 0.750000 0.443595
O O17 0.414652 0.002866 0.498101
O O18 0.053543 0.250000 0.346792
O O19 0.000000 0.000000 0.363283
O O20 0.500000 0.500000 0.102026
O O21 0.560840 0.250000 0.086134
#
# Coordination Sequence:
#
# PCOD8181218 Si02
#       8
#     8   8   8   8   8   8   8   8
#     4  11  21  36  59  90 127 165 203 252 308 370
#     4  11  23  40  62  93 126 163 206 256 308 365
#     4   8  19  38  59  85 119 156 199 247 301 359
#     4  10  19  35  61  90 122 162 203 250 308 368
#     4  10  23  40  60  91 127 160 201 253 308 366
#     4  10  21  40  62  89 120 159 203 254 308 366
#     4  11  24  44  66  89 122 165 207 256 307 363
#     4  11  23  41  61  87 120 160 204 252 301 365
#
# _framework density 20.166256000000001
#
# number of rings (size 3 to 8) (size 9 to 14) (size 15 to 20)
#    0.000    1.750    1.250    3.750    1.750    2.500 
#    0.000    9.375    0.000    0.000    0.000    0.000 
#    0.000    0.000    0.000    0.000    0.000    0.000 
#
# Total GULP energy -396845.082731 kJ/mol
# GULP energy per Si atom -12401.408835 kJ/mol
# Density = 2.012036 g / cm^3
# Si number density = 20.166256 Si / 1000 Ang^3
#
#
#
# Elastic Constant Matrix: (Units=GPa)
#
#
# Indices 1 2 3 4 5 6 
#
# 1 105.6496 19.0617 37.8642 0.0000 0.0000 0.0000
# 2 19.0617 54.7591 15.7991 0.0000 0.0000 0.0000
# 3 37.8642 15.7991 90.5318 0.0000 0.0000 0.0000
# 4 0.0000 0.0000 0.0000 26.4513 0.0000 0.0000
# 5 0.0000 0.0000 0.0000 0.0000 17.0950 0.0000
# 6 0.0000 0.0000 0.0000 0.0000 0.0000 34.8364
#
#
#
# Elastic Compliance Matrix: (Units=1/GPa)
#
#
# Indices 1 2 3 4 5 6 
#
# 1 0.011517 -0.002758 -0.004335 0.000000 0.000000 0.000000
# 2 -0.002758 0.019891 -0.002318 0.000000 0.000000 0.000000
# 3 -0.004335 -0.002318 0.013264 0.000000 0.000000 0.000000
# 4 0.000000 0.000000 0.000000 0.037805 0.000000 0.000000
# 5 0.000000 0.000000 0.000000 0.000000 0.058497 0.000000
# 6 0.000000 0.000000 0.000000 0.000000 0.000000 0.028706
#
#
# Mechanical properties :
#
#
# Convention : Reuss Voigt Hill
#
# Bulk Modulus (GPa) = 38.68701 44.04338 41.36519
# Shear Modulus (GPa) = 25.36566 27.55757 26.46162
#
# Velocity S-wave (km/s) = 3.55043 3.70066 3.62632
# Velocity P-wave (km/s) = 6.00276 6.33619 6.17173
#
# Compressibility (1/GPa) = 0.02584847
#
# Stress axis : x y z
#
# Youngs Moduli (GPa) = 86.83068 50.27507 75.39457
#
# Poissons Ratio (x) = 0.13866 0.32687
# Poissons Ratio (y) = 0.23949 0.17474
# Poissons Ratio (z) = 0.37645 0.11652
#
# Static dielectric constant tensor:
#      x y z
#    x 3.701570 0.000000 0.000000 
#    y 0.000000 3.561300 0.000000 
#    z 0.000000 0.000000 3.809160 
# 
# 
# High freq. dielectric constant tensor:
#      x y z
#    x 1.784260 0.000000 0.000000 
#    y 0.000000 1.782980 0.000000 
#    z 0.000000 0.000000 1.791950 
# 
# From -- ./inp_files/10580.got.cif
#   From: 2010.03.12/outbox.cif.g09.slc.cpg/sg39_6_cif.got.tgz:10580.got - 2010.04.14 02:53:20.
