data_PCOD8181260
_publ_section_title
;
Structure prediction by ZEFSAII (Michael W. Deem and Ramdas Pophale) SiO2 
 PCOD8181260
Probable space group: A B M 2
;
_chemical_formula_sum "Si O2"
_cell_formula_units_Z 56
_cell_length_a 15.162474
_cell_length_b 8.839550
_cell_length_c 20.139673
_cell_angle_alpha 90.000000
_cell_angle_beta 90.000000
_cell_angle_gamma 90.000000
_cell_volume 2699.309236
_symmetry_space_group_name_H-M "A B M 2"
_symmetry_group_IT_number 39
_symmetry_cell_setting 'orthorhombic'
loop_
_space_group_symop_operation_xyz
x,y,z
-x,-y,z
-x,1/2+y,z
x,1/2-y,z
x,1/2+y,1/2+z
-x,1/2-y,1/2+z
-x,y,1/2+z
x,-y,1/2+z
loop_
_atom_site_type_symbol
_atom_site_label
_atom_site_fract_x
_atom_site_fract_y
_atom_site_fract_z
Si Si1 0.268337 0.428876 0.077660
Si Si2 0.278197 0.070004 0.712535
Si Si3 0.909330 0.428270 0.030587
Si Si4 0.130663 0.078204 0.380806
Si Si5 0.410575 0.071390 0.968274
Si Si6 0.669588 0.075814 0.844736
Si Si7 0.914479 0.925397 0.751833
O O1 0.260082 0.250000 0.084520
O O2 0.312662 0.498074 0.144055
O O3 0.171850 0.500131 0.069909
O O4 0.330165 0.475714 0.016233
O O5 0.286773 0.250000 0.711784
O O6 0.176571 0.014858 0.720620
O O7 0.335730 0.005282 0.773225
O O8 0.908830 0.250000 0.043949
O O9 0.000000 0.500000 0.057718
O O10 0.900906 0.469166 0.953344
O O11 0.103893 0.250000 0.362881
O O12 0.235097 0.057579 0.377553
O O13 0.083674 0.965138 0.329955
O O14 0.420233 0.250000 0.963933
O O15 0.500000 0.000000 0.997910
O O16 0.397425 0.005141 0.894624
O O17 0.642450 0.250000 0.835880
O O18 0.923108 0.750000 0.740906
O O19 0.000000 0.000000 0.716724
#
# Coordination Sequence:
#
# PCOD8181260 Si02
#       7
#     8   8   8   8   8   8   8
#     4  11  24  42  63  90 125 166 210 260 313 371
#     4  10  22  39  60  86 120 164 207 253 311 371
#     4  11  22  36  55  84 121 165 212 258 312 366
#     4   9  18  32  53  81 114 154 197 248 306 358
#     4  11  24  42  68  99 128 160 202 252 312 375
#     4  10  19  37  64  93 123 156 199 251 306 367
#     4  10  20  32  50  77 111 153 202 254 304 358
#
# _framework density 20.746048999999999
#
# number of rings (size 3 to 8) (size 9 to 14) (size 15 to 20)
#    0.000    1.714    1.429    3.000    0.000    6.857 
#    0.000    2.143    0.000    1.714    0.000    0.000 
#    0.000    0.000    0.000    0.000    0.000    0.000 
#
# Total GULP energy -347289.723619 kJ/mol
# GULP energy per Si atom -12403.204415 kJ/mol
# Density = 2.069883 g / cm^3
# Si number density = 20.746049 Si / 1000 Ang^3
#
#
#
# Elastic Constant Matrix: (Units=GPa)
#
#
# Indices 1 2 3 4 5 6 
#
# 1 76.9971 35.1906 33.1999 0.0000 0.0000 0.0000
# 2 35.1906 94.7144 51.4244 0.0000 0.0000 0.0000
# 3 33.1999 51.4244 121.4649 0.0000 0.0000 0.0000
# 4 0.0000 0.0000 0.0000 34.1465 0.0000 0.0000
# 5 0.0000 0.0000 0.0000 0.0000 5.7091 0.0000
# 6 0.0000 0.0000 0.0000 0.0000 0.0000 33.2405
#
#
#
# Elastic Compliance Matrix: (Units=1/GPa)
#
#
# Indices 1 2 3 4 5 6 
#
# 1 0.016182 -0.004688 -0.002438 0.000000 0.000000 0.000000
# 2 -0.004688 0.015068 -0.005098 0.000000 0.000000 0.000000
# 3 -0.002438 -0.005098 0.011057 0.000000 0.000000 0.000000
# 4 0.000000 0.000000 0.000000 0.029286 0.000000 0.000000
# 5 0.000000 0.000000 0.000000 0.000000 0.175158 0.000000
# 6 0.000000 0.000000 0.000000 0.000000 0.000000 0.030084
#
#
# Mechanical properties :
#
#
# Convention : Reuss Voigt Hill
#
# Bulk Modulus (GPa) = 55.99599 59.20072 57.59835
# Shear Modulus (GPa) = 16.27415 26.17665 21.22540
#
# Velocity S-wave (km/s) = 2.80383 3.55599 3.20207
# Velocity P-wave (km/s) = 6.12632 6.74225 6.44165
#
# Compressibility (1/GPa) = 0.01785842
#
# Stress axis : x y z
#
# Youngs Moduli (GPa) = 61.79893 66.36663 90.43714
#
# Poissons Ratio (x) = 0.31116 0.22048
# Poissons Ratio (y) = 0.28974 0.46102
# Poissons Ratio (z) = 0.15066 0.33832
#
# Static dielectric constant tensor:
#      x y z
#    x 3.692910 0.000000 0.000000 
#    y 0.000000 3.698310 0.000000 
#    z 0.000000 0.000000 3.736590 
# 
# 
# High freq. dielectric constant tensor:
#      x y z
#    x 1.798380 0.000000 0.000000 
#    y 0.000000 1.818400 0.000000 
#    z 0.000000 0.000000 1.812020 
# 
# From -- ./inp_files/14752.got.cif
#   From: 2010.03.12/outbox.cif.g09.slc.cpg/sg39_8_cif.got.tgz:14752.got - 2010.04.14 02:53:20.
