data_PCOD8181955
_publ_section_title
;
Structure prediction by ZEFSAII (Michael W. Deem and Ramdas Pophale) SiO2 
 PCOD8181955
Probable space group: A B M 2
;
_chemical_formula_sum "Si O2"
_cell_formula_units_Z 56
_cell_length_a 5.063435
_cell_length_b 15.457062
_cell_length_c 33.115349
_cell_angle_alpha 90.000000
_cell_angle_beta 90.000000
_cell_angle_gamma 90.000000
_cell_volume 2591.800233
_symmetry_space_group_name_H-M "A B M 2"
_symmetry_group_IT_number 39
_symmetry_cell_setting 'orthorhombic'
loop_
_space_group_symop_operation_xyz
x,y,z
-x,-y,z
-x,1/2+y,z
x,1/2-y,z
x,1/2+y,1/2+z
-x,1/2-y,1/2+z
-x,y,1/2+z
x,-y,1/2+z
loop_
_atom_site_type_symbol
_atom_site_label
_atom_site_fract_x
_atom_site_fract_y
_atom_site_fract_z
Si Si1 0.032178 0.851669 0.030340
Si Si2 0.020834 0.151272 0.260876
Si Si3 0.545873 0.649958 0.979590
Si Si4 0.000000 0.500000 0.592952
Si Si5 0.917932 0.907071 0.348956
Si Si6 0.514646 0.650095 0.708533
Si Si7 0.413176 0.847056 0.390816
Si Si8 0.500000 0.000000 0.646488
O O1 0.023162 0.750000 0.043880
O O2 0.082338 0.914138 0.068131
O O3 0.761875 0.887258 0.010604
O O4 0.256783 0.866674 0.996955
O O5 0.071314 0.250000 0.273549
O O6 0.054070 0.095314 0.300831
O O7 0.730959 0.136710 0.243257
O O8 0.232893 0.123625 0.227176
O O9 0.617314 0.750000 0.975388
O O10 0.575639 0.607551 0.935087
O O11 0.750382 0.474295 0.619823
O O12 0.119927 0.843243 0.371866
O O13 0.613640 0.893400 0.360327
O O14 0.000000 0.000000 0.365034
O O15 0.517543 0.750000 0.693036
O O16 0.574603 0.584991 0.672229
O O17 0.517635 0.750000 0.395620
#
# Coordination Sequence:
#
# PCOD8181955 Si02
#       8
#     8   8   8   4   8   8   8   4
#     4  10  21  41  64  91 123 158 205 253 298 364
#     4  10  21  40  64  87 116 161 212 249 297 364
#     4   9  19  38  64  87 115 164 211 249 301 356
#     4  12  26  42  62 100 118 162 194 238 314 382
#     4  12  25  38  57  94 132 165 210 266 325 364
#     4  10  23  41  65  93 119 159 206 249 301 367
#     4  11  22  41  63  86 125 172 219 264 313 370
#     4  12  26  42  66  90 130 152 196 242 312 376
#
# _framework density 21.606605999999999
#
# number of rings (size 3 to 8) (size 9 to 14) (size 15 to 20)
#    0.000    1.429    0.000    5.143    2.000    4.571 
#    7.714    0.000    0.000    0.000    0.000    0.000 
#    0.000    0.000    0.000    0.000    0.000    0.000 
#
# Total GULP energy -347280.742360 kJ/mol
# GULP energy per Si atom -12402.883656 kJ/mol
# Density = 2.155743 g / cm^3
# Si number density = 21.606606 Si / 1000 Ang^3
#
#
#
# Elastic Constant Matrix: (Units=GPa)
#
#
# Indices 1 2 3 4 5 6 
#
# 1 90.8645 9.9040 14.1866 0.0000 0.0000 0.0000
# 2 9.9040 74.6243 38.8976 0.0000 0.0000 0.0000
# 3 14.1866 38.8976 103.4567 0.0000 0.0000 0.0000
# 4 0.0000 0.0000 0.0000 29.2835 0.0000 0.0000
# 5 0.0000 0.0000 0.0000 0.0000 35.2415 0.0000
# 6 0.0000 0.0000 0.0000 0.0000 0.0000 22.2087
#
#
#
# Elastic Compliance Matrix: (Units=1/GPa)
#
#
# Indices 1 2 3 4 5 6 
#
# 1 0.011290 -0.000860 -0.001225 0.000000 0.000000 0.000000
# 2 -0.000860 0.016732 -0.006173 0.000000 0.000000 0.000000
# 3 -0.001225 -0.006173 0.012155 0.000000 0.000000 0.000000
# 4 0.000000 0.000000 0.000000 0.034149 0.000000 0.000000
# 5 0.000000 0.000000 0.000000 0.000000 0.028376 0.000000
# 6 0.000000 0.000000 0.000000 0.000000 0.000000 0.045027
#
#
# Mechanical properties :
#
#
# Convention : Reuss Voigt Hill
#
# Bulk Modulus (GPa) = 42.26255 43.88021 43.07138
# Shear Modulus (GPa) = 29.04738 31.07721 30.06230
#
# Velocity S-wave (km/s) = 3.67055 3.79663 3.73412
# Velocity P-wave (km/s) = 6.12914 6.29063 6.21041
#
# Compressibility (1/GPa) = 0.02366161
#
# Stress axis : x y z
#
# Youngs Moduli (GPa) = 88.57103 59.76468 82.27206
#
# Poissons Ratio (x) = 0.05140 0.10077
# Poissons Ratio (y) = 0.07617 0.50787
# Poissons Ratio (z) = 0.10849 0.36893
#
# Static dielectric constant tensor:
#      x y z
#    x 3.960900 0.000000 0.000000 
#    y 0.000000 3.682990 0.000000 
#    z 0.000000 0.000000 3.780700 
# 
# 
# High freq. dielectric constant tensor:
#      x y z
#    x 1.862840 0.000000 0.000000 
#    y 0.000000 1.842520 0.000000 
#    z 0.000000 0.000000 1.844970 
# 
# From -- ./inp_files/17304.got.cif
#   From: 2010.03.12/outbox.cif.g09.slc.cpg/sg39_9_cif.got.tgz:17304.got - 2010.04.14 02:53:20.
