data_PCOD8181343
_publ_section_title
;
Structure prediction by ZEFSAII (Michael W. Deem and Ramdas Pophale) SiO2 
 PCOD8181343
Probable space group: A B M 2
;
_chemical_formula_sum "Si O2"
_cell_formula_units_Z 64
_cell_length_a 19.647517
_cell_length_b 9.002965
_cell_length_c 20.639017
_cell_angle_alpha 90.000000
_cell_angle_beta 90.000000
_cell_angle_gamma 90.000000
_cell_volume 3650.751260
_symmetry_space_group_name_H-M "A B M 2"
_symmetry_group_IT_number 39
_symmetry_cell_setting 'orthorhombic'
loop_
_space_group_symop_operation_xyz
x,y,z
-x,-y,z
-x,1/2+y,z
x,1/2-y,z
x,1/2+y,1/2+z
-x,1/2-y,1/2+z
-x,y,1/2+z
x,-y,1/2+z
loop_
_atom_site_type_symbol
_atom_site_label
_atom_site_fract_x
_atom_site_fract_y
_atom_site_fract_z
Si Si1 0.289185 0.580807 0.074840
Si Si2 0.564240 0.925013 0.939069
Si Si3 0.073054 0.925469 0.257931
Si Si4 0.436838 0.423252 0.578595
Si Si5 0.148046 0.078895 0.627285
Si Si6 0.927981 0.425357 0.513281
Si Si7 0.147983 0.573881 0.384879
Si Si8 0.286553 0.424119 0.939129
O O1 0.289989 0.750000 0.050381
O O2 0.362214 0.546233 0.109767
O O3 0.229798 0.554605 0.127519
O O4 0.276364 0.485849 0.010961
O O5 0.551772 0.750000 0.944052
O O6 0.638812 0.960480 0.908092
O O7 0.500000 0.000000 0.900342
O O8 0.565848 0.999486 0.009026
O O9 0.062246 0.750000 0.263370
O O10 0.118776 0.969141 0.196461
O O11 0.112865 0.990964 0.320349
O O12 0.000000 0.000000 0.251510
O O13 0.500000 0.500000 0.617914
O O14 0.452715 0.250000 0.572000
O O15 0.129373 0.250000 0.611862
O O16 0.118281 0.972609 0.572951
O O17 0.936821 0.250000 0.513850
O O18 0.894513 0.482228 0.446702
O O19 0.000000 0.500000 0.521948
O O20 0.147125 0.750000 0.380671
O O21 0.226281 0.516375 0.392045
O O22 0.277936 0.250000 0.948150
#
# Coordination Sequence:
#
# PCOD8181343 Si02
#       8
#     8   8   8   8   8   8   8   8
#     4   9  17  28  43  66  95 122 152 192 234 274
#     4   9  15  22  36  58  88 121 151 183 222 269
#     4  10  21  37  54  70  93 123 156 196 237 283
#     4   9  15  23  36  57  88 122 152 184 223 269
#     4  10  20  34  51  72  96 124 157 194 238 283
#     4  11  21  33  51  72  95 121 152 192 237 285
#     4   9  18  33  51  71  93 121 157 195 235 277
#     4   9  16  28  45  66  91 121 156 192 229 273
#
# _framework density 17.530636999999999
#
# number of rings (size 3 to 8) (size 9 to 14) (size 15 to 20)
#    0.000    2.500    1.250    2.625    0.000    2.500 
#    0.000    1.250    0.000    0.000    0.000    0.875 
#    0.000    0.000    0.000    0.000    0.000    0.000 
#
# Total GULP energy -396477.966343 kJ/mol
# GULP energy per Si atom -12389.936448 kJ/mol
# Density = 1.749074 g / cm^3
# Si number density = 17.530637 Si / 1000 Ang^3
#
#
#
# Elastic Constant Matrix: (Units=GPa)
#
#
# Indices 1 2 3 4 5 6 
#
# 1 184.9685 43.4567 54.8609 0.0000 0.0000 0.0000
# 2 43.4567 53.2896 22.7756 0.0000 0.0000 0.0000
# 3 54.8609 22.7756 84.9080 0.0000 0.0000 0.0000
# 4 0.0000 0.0000 0.0000 14.2565 0.0000 0.0000
# 5 0.0000 0.0000 0.0000 0.0000 21.6775 0.0000
# 6 0.0000 0.0000 0.0000 0.0000 0.0000 23.2757
#
#
#
# Elastic Compliance Matrix: (Units=1/GPa)
#
#
# Indices 1 2 3 4 5 6 
#
# 1 0.007575 -0.004614 -0.003657 0.000000 0.000000 0.000000
# 2 -0.004614 0.024006 -0.003458 0.000000 0.000000 0.000000
# 3 -0.003657 -0.003458 0.015068 0.000000 0.000000 0.000000
# 4 0.000000 0.000000 0.000000 0.070144 0.000000 0.000000
# 5 0.000000 0.000000 0.000000 0.000000 0.046131 0.000000
# 6 0.000000 0.000000 0.000000 0.000000 0.000000 0.042963
#
#
# Mechanical properties :
#
#
# Convention : Reuss Voigt Hill
#
# Bulk Modulus (GPa) = 43.12027 62.81696 52.96862
# Shear Modulus (GPa) = 21.09039 25.31345 23.20192
#
# Velocity S-wave (km/s) = 3.47228 3.80406 3.64195
# Velocity P-wave (km/s) = 6.38170 7.43001 6.92572
#
# Compressibility (1/GPa) = 0.02319095
#
# Stress axis : x y z
#
# Youngs Moduli (GPa) = 132.01349 41.65576 66.36758
#
# Poissons Ratio (x) = 0.19222 0.24268
# Poissons Ratio (y) = 0.60917 0.22949
# Poissons Ratio (z) = 0.48272 0.14404
#
# Static dielectric constant tensor:
#      x y z
#    x 4.390160 0.000000 0.000000 
#    y 0.000000 3.220440 0.000000 
#    z 0.000000 0.000000 2.951370 
# 
# 
# High freq. dielectric constant tensor:
#      x y z
#    x 1.711620 0.000000 0.000000 
#    y 0.000000 1.670930 0.000000 
#    z 0.000000 0.000000 1.617730 
# 
# From -- ./inp_files/15068.got.cif
#   From: 2010.03.12/outbox.cif.g09.slc.cpg/sg39_8_cif.got.tgz:15068.got - 2010.04.14 02:53:20.
