data_PCOD8181450
_publ_section_title
;
Structure prediction by ZEFSAII (Michael W. Deem and Ramdas Pophale) SiO2 
 PCOD8181450
Probable space group: A B M 2
;
_chemical_formula_sum "Si O2"
_cell_formula_units_Z 64
_cell_length_a 20.385020
_cell_length_b 8.751267
_cell_length_c 18.301091
_cell_angle_alpha 90.000000
_cell_angle_beta 90.000000
_cell_angle_gamma 90.000000
_cell_volume 3264.818605
_symmetry_space_group_name_H-M "A B M 2"
_symmetry_group_IT_number 39
_symmetry_cell_setting 'orthorhombic'
loop_
_space_group_symop_operation_xyz
x,y,z
-x,-y,z
-x,1/2+y,z
x,1/2-y,z
x,1/2+y,1/2+z
-x,1/2-y,1/2+z
-x,y,1/2+z
x,-y,1/2+z
loop_
_atom_site_type_symbol
_atom_site_label
_atom_site_fract_x
_atom_site_fract_y
_atom_site_fract_z
Si Si1 0.312929 0.426668 0.662320
Si Si2 0.817363 0.427230 0.079608
Si Si3 0.695743 0.927783 0.832916
Si Si4 0.817497 0.573499 0.409954
Si Si5 0.567269 0.929831 0.916977
Si Si6 0.567283 0.929361 0.082340
Si Si7 0.069495 0.569478 0.322006
Si Si8 0.069607 0.069501 0.167842
O O1 0.326891 0.250000 0.645668
O O2 0.247412 0.482292 0.621777
O O3 0.304379 0.458961 0.747336
O O4 0.373602 0.523237 0.633931
O O5 0.832402 0.250000 0.095896
O O6 0.878197 0.528138 0.105993
O O7 0.805932 0.459535 0.994792
O O8 0.708633 0.750000 0.850918
O O9 0.626973 0.984645 0.866340
O O10 0.752226 0.029156 0.867524
O O11 0.833918 0.750000 0.395041
O O12 0.878013 0.471171 0.383581
O O13 0.559774 0.750000 0.914141
O O14 0.500000 0.000000 0.885767
O O15 0.580347 0.987774 0.999649
O O16 0.559638 0.750000 0.084247
O O17 0.500000 0.000000 0.113136
O O18 0.062887 0.750000 0.313996
O O19 0.093081 0.500488 0.244867
O O20 0.000000 0.500000 0.345942
O O21 0.062653 0.250000 0.175822
O O22 0.000000 0.000000 0.144120
#
# Coordination Sequence:
#
# PCOD8181450 Si02
#       8
#     8   8   8   8   8   8   8   8
#     4  10  21  37  57  81 111 147 184 228 283 337
#     4  10  22  39  58  83 117 154 192 237 287 337
#     4  10  21  37  57  82 113 148 187 233 286 341
#     4  11  23  38  58  85 115 150 195 240 283 337
#     4   9  19  35  55  80 109 144 185 228 277 333
#     4  10  20  35  56  80 109 144 183 228 276 332
#     4  11  22  39  62  86 116 151 188 233 286 341
#     4  11  22  38  62  89 118 152 191 233 280 338
#
# _framework density 19.602924999999999
#
# number of rings (size 3 to 8) (size 9 to 14) (size 15 to 20)
#    0.000    1.750    0.000    5.250    0.000    5.000 
#    0.000    1.250    0.000    0.000    0.000    0.000 
#    0.000    0.000    0.000    0.000    0.000    0.000 
#
# Total GULP energy -396988.902178 kJ/mol
# GULP energy per Si atom -12405.903193 kJ/mol
# Density = 1.955831 g / cm^3
# Si number density = 19.602925 Si / 1000 Ang^3
#
#
#
# Elastic Constant Matrix: (Units=GPa)
#
#
# Indices 1 2 3 4 5 6 
#
# 1 139.8371 52.0008 65.8430 0.0000 0.0000 0.0000
# 2 52.0008 99.0315 42.4387 0.0000 0.0000 0.0000
# 3 65.8430 42.4387 96.2106 0.0000 0.0000 0.0000
# 4 0.0000 0.0000 0.0000 23.2495 0.0000 0.0000
# 5 0.0000 0.0000 0.0000 0.0000 36.3445 0.0000
# 6 0.0000 0.0000 0.0000 0.0000 0.0000 38.4597
#
#
#
# Elastic Compliance Matrix: (Units=1/GPa)
#
#
# Indices 1 2 3 4 5 6 
#
# 1 0.011336 -0.003240 -0.006329 0.000000 0.000000 0.000000
# 2 -0.003240 0.013378 -0.003683 0.000000 0.000000 0.000000
# 3 -0.006329 -0.003683 0.016350 0.000000 0.000000 0.000000
# 4 0.000000 0.000000 0.000000 0.043012 0.000000 0.000000
# 5 0.000000 0.000000 0.000000 0.000000 0.027514 0.000000
# 6 0.000000 0.000000 0.000000 0.000000 0.000000 0.026001
#
#
# Mechanical properties :
#
#
# Convention : Reuss Voigt Hill
#
# Bulk Modulus (GPa) = 68.68734 72.84938 70.76836
# Shear Modulus (GPa) = 29.59482 31.26386 30.42934
#
# Velocity S-wave (km/s) = 3.88972 3.99790 3.94418
# Velocity P-wave (km/s) = 7.43563 7.65207 7.54462
#
# Compressibility (1/GPa) = 0.01455872
#
# Stress axis : x y z
#
# Youngs Moduli (GPa) = 88.21414 74.75088 61.16337
#
# Poissons Ratio (x) = 0.24223 0.38708
# Poissons Ratio (y) = 0.28585 0.22528
# Poissons Ratio (z) = 0.55827 0.27533
#
# Static dielectric constant tensor:
#      x y z
#    x 3.746170 0.000000 0.000000 
#    y 0.000000 3.419830 0.000000 
#    z 0.000000 0.000000 3.596860 
# 
# 
# High freq. dielectric constant tensor:
#      x y z
#    x 1.776430 0.000000 0.000000 
#    y 0.000000 1.764800 0.000000 
#    z 0.000000 0.000000 1.763730 
# 
# From -- ./inp_files/13181.got.cif
#   From: 2010.03.12/outbox.cif.g09.slc.cpg/sg39_7_cif.got.tgz:13181.got - 2010.04.14 02:53:20.
