data_PCOD8181781
_publ_section_title
;
Structure prediction by ZEFSAII (Michael W. Deem and Ramdas Pophale) SiO2 
 PCOD8181781
Probable space group: A B M 2
;
_chemical_formula_sum "Si O2"
_cell_formula_units_Z 56
_cell_length_a 4.919068
_cell_length_b 17.285074
_cell_length_c 31.248306
_cell_angle_alpha 90.000000
_cell_angle_beta 90.000000
_cell_angle_gamma 90.000000
_cell_volume 2656.932665
_symmetry_space_group_name_H-M "A B M 2"
_symmetry_group_IT_number 39
_symmetry_cell_setting 'orthorhombic'
loop_
_space_group_symop_operation_xyz
x,y,z
-x,-y,z
-x,1/2+y,z
x,1/2-y,z
x,1/2+y,1/2+z
-x,1/2-y,1/2+z
-x,y,1/2+z
x,-y,1/2+z
loop_
_atom_site_type_symbol
_atom_site_label
_atom_site_fract_x
_atom_site_fract_y
_atom_site_fract_z
Si Si1 0.260908 0.553172 0.362300
Si Si2 0.266598 0.161791 0.228447
Si Si3 0.527509 0.663550 0.079990
Si Si4 0.027971 0.334310 0.523247
Si Si5 0.749818 0.448237 0.456402
Si Si6 0.262299 0.948248 0.652332
Si Si7 0.249333 0.837350 0.284487
O O1 0.500000 0.500000 0.345080
O O2 0.334454 0.586918 0.410087
O O3 0.240913 0.624658 0.330722
O O4 0.000000 0.500000 0.360812
O O5 0.304438 0.250000 0.212094
O O6 0.164464 0.111711 0.188213
O O7 0.541271 0.127364 0.249574
O O8 0.048529 0.156128 0.265671
O O9 0.430736 0.750000 0.096498
O O10 0.310762 0.633041 0.043693
O O11 0.571750 0.598013 0.115452
O O12 0.825952 0.675407 0.062140
O O13 0.088982 0.250000 0.502247
O O14 0.870510 0.386376 0.489103
O O15 0.500000 0.500000 0.475694
O O16 0.000000 0.500000 0.443934
O O17 0.500000 0.000000 0.672703
O O18 0.000000 0.000000 0.637004
O O19 0.343859 0.750000 0.292563
#
# Coordination Sequence:
#
# PCOD8181781 Si02
#       7
#     8   8   8   8   8   8   8
#     4  10  21  36  56  83 118 157 193 236 294 351
#     4  10  22  40  59  82 116 156 194 238 297 352
#     4  10  22  41  61  83 116 153 189 238 300 355
#     4  10  21  38  62  87 111 149 198 241 288 352
#     4  10  21  37  57  85 120 156 192 237 297 356
#     4  12  25  39  59  89 118 149 196 245 291 351
#     4  10  21  37  59  85 113 152 200 243 288 345
#
# _framework density 21.076937000000001
#
# number of rings (size 3 to 8) (size 9 to 14) (size 15 to 20)
#    0.000    1.714    0.000    3.857    0.000    6.286 
#    0.000    5.714    0.000   10.286    0.000    0.000 
#    0.000    0.000    0.000    0.000    0.000    0.000 
#
# Total GULP energy -346886.589803 kJ/mol
# GULP energy per Si atom -12388.806779 kJ/mol
# Density = 2.102896 g / cm^3
# Si number density = 21.076937 Si / 1000 Ang^3
#
#
#
# Elastic Constant Matrix: (Units=GPa)
#
#
# Indices 1 2 3 4 5 6 
#
# 1 115.9070 34.6440 21.5035 0.0000 0.0000 0.0000
# 2 34.6440 98.0244 68.7680 0.0000 0.0000 0.0000
# 3 21.5035 68.7680 104.2622 0.0000 0.0000 0.0000
# 4 0.0000 0.0000 0.0000 35.5714 0.0000 0.0000
# 5 0.0000 0.0000 0.0000 0.0000 32.6093 0.0000
# 6 0.0000 0.0000 0.0000 0.0000 0.0000 35.0231
#
#
#
# Elastic Compliance Matrix: (Units=1/GPa)
#
#
# Indices 1 2 3 4 5 6 
#
# 1 0.009660 -0.003753 0.000483 0.000000 0.000000 0.000000
# 2 -0.003753 0.020445 -0.012711 0.000000 0.000000 0.000000
# 3 0.000483 -0.012711 0.017875 0.000000 0.000000 0.000000
# 4 0.000000 0.000000 0.000000 0.028112 0.000000 0.000000
# 5 0.000000 0.000000 0.000000 0.000000 0.030666 0.000000
# 6 0.000000 0.000000 0.000000 0.000000 0.000000 0.028553
#
#
# Mechanical properties :
#
#
# Convention : Reuss Voigt Hill
#
# Bulk Modulus (GPa) = 62.42743 63.11384 62.77064
# Shear Modulus (GPa) = 28.96666 33.52597 31.24632
#
# Velocity S-wave (km/s) = 3.71122 3.99262 3.85449
# Velocity P-wave (km/s) = 6.93162 7.15990 7.04668
#
# Compressibility (1/GPa) = 0.01601860
#
# Stress axis : x y z
#
# Youngs Moduli (GPa) = 103.52298 48.91151 55.94302
#
# Poissons Ratio (x) = 0.18355 -0.02702
# Poissons Ratio (y) = 0.38850 0.71109
# Poissons Ratio (z) = -0.05000 0.62171
#
# Static dielectric constant tensor:
#      x y z
#    x 4.031940 0.000000 0.000000 
#    y 0.000000 4.018370 0.000000 
#    z 0.000000 0.000000 3.656270 
# 
# 
# High freq. dielectric constant tensor:
#      x y z
#    x 1.847920 0.000000 0.000000 
#    y 0.000000 1.817500 0.000000 
#    z 0.000000 0.000000 1.814230 
# 
# From -- ./inp_files/17264.got.cif
#   From: 2010.03.12/outbox.cif.g09.slc.cpg/sg39_9_cif.got.tgz:17264.got - 2010.04.14 02:53:20.
