data_PCOD8181319
_publ_section_title
;
Structure prediction by ZEFSAII (Michael W. Deem and Ramdas Pophale) SiO2 
 PCOD8181319
Probable space group: A B M 2
;
_chemical_formula_sum "Si O2"
_cell_formula_units_Z 56
_cell_length_a 15.381710
_cell_length_b 9.029951
_cell_length_c 20.032226
_cell_angle_alpha 90.000000
_cell_angle_beta 90.000000
_cell_angle_gamma 90.000000
_cell_volume 2782.397817
_symmetry_space_group_name_H-M "A B M 2"
_symmetry_group_IT_number 39
_symmetry_cell_setting 'orthorhombic'
loop_
_space_group_symop_operation_xyz
x,y,z
-x,-y,z
-x,1/2+y,z
x,1/2-y,z
x,1/2+y,1/2+z
-x,1/2-y,1/2+z
-x,y,1/2+z
x,-y,1/2+z
loop_
_atom_site_type_symbol
_atom_site_label
_atom_site_fract_x
_atom_site_fract_y
_atom_site_fract_z
Si Si1 0.739890 0.080458 0.964260
Si Si2 0.083046 0.582291 0.489984
Si Si3 0.681439 0.578944 0.086649
Si Si4 0.912715 0.574579 0.768207
Si Si5 0.259586 0.920853 0.814491
Si Si6 0.588663 0.423881 0.717737
Si Si7 0.871217 0.915884 0.137547
O O1 0.756886 0.250000 0.983138
O O2 0.702577 0.063152 0.889530
O O3 0.830434 0.995691 0.965735
O O4 0.671771 0.014206 0.018200
O O5 0.084661 0.750000 0.463424
O O6 0.074047 0.576729 0.569876
O O7 0.000000 0.500000 0.458434
O O8 0.677651 0.750000 0.065887
O O9 0.607066 0.536920 0.139987
O O10 0.771960 0.541998 0.122390
O O11 0.918226 0.750000 0.776618
O O12 0.828436 0.514366 0.806807
O O13 0.908032 0.533688 0.689837
O O14 0.000000 0.500000 0.798619
O O15 0.237910 0.750000 0.797889
O O16 0.333029 0.982653 0.764344
O O17 0.500000 0.500000 0.740541
O O18 0.578451 0.250000 0.727990
O O19 0.876247 0.750000 0.168425
#
# Coordination Sequence:
#
# PCOD8181319 Si02
#       7
#     8   8   8   8   8   8   8
#     4  10  21  36  59  84 112 153 196 241 291 349
#     4  10  20  33  51  76 111 152 197 246 294 347
#     4   9  18  36  61  85 116 153 185 235 294 346
#     4  12  24  35  54  83 116 157 203 250 295 348
#     4  10  22  43  62  82 120 162 198 243 298 350
#     4  10  21  40  66  93 120 153 193 241 298 354
#     4   9  17  33  54  77 110 151 191 239 296 346
#
# _framework density 20.126525999999998
#
# number of rings (size 3 to 8) (size 9 to 14) (size 15 to 20)
#    0.000    2.000    1.429    3.429    0.000    6.857 
#    0.000    0.714    0.000    3.429    0.000    0.000 
#    0.000    0.000    0.000    0.000    0.000    0.000 
#
# Total GULP energy -347195.253284 kJ/mol
# GULP energy per Si atom -12399.830474 kJ/mol
# Density = 2.008072 g / cm^3
# Si number density = 20.126526 Si / 1000 Ang^3
#
#
#
# Elastic Constant Matrix: (Units=GPa)
#
#
# Indices 1 2 3 4 5 6 
#
# 1 95.9858 45.3767 35.5683 0.0000 0.0000 0.0000
# 2 45.3767 116.5654 46.0566 0.0000 0.0000 0.0000
# 3 35.5683 46.0566 101.7906 0.0000 0.0000 0.0000
# 4 0.0000 0.0000 0.0000 26.5181 0.0000 0.0000
# 5 0.0000 0.0000 0.0000 0.0000 7.5630 0.0000
# 6 0.0000 0.0000 0.0000 0.0000 0.0000 31.6371
#
#
#
# Elastic Compliance Matrix: (Units=1/GPa)
#
#
# Indices 1 2 3 4 5 6 
#
# 1 0.013405 -0.004101 -0.002829 0.000000 0.000000 0.000000
# 2 -0.004101 0.011701 -0.003861 0.000000 0.000000 0.000000
# 3 -0.002829 -0.003861 0.012560 0.000000 0.000000 0.000000
# 4 0.000000 0.000000 0.000000 0.037710 0.000000 0.000000
# 5 0.000000 0.000000 0.000000 0.000000 0.132222 0.000000
# 6 0.000000 0.000000 0.000000 0.000000 0.000000 0.031608
#
#
# Mechanical properties :
#
#
# Convention : Reuss Voigt Hill
#
# Bulk Modulus (GPa) = 62.17308 63.14946 62.66127
# Shear Modulus (GPa) = 18.78648 25.63298 22.20973
#
# Velocity S-wave (km/s) = 3.05850 3.57261 3.32551
# Velocity P-wave (km/s) = 6.59020 6.96150 6.77839
#
# Compressibility (1/GPa) = 0.01608413
#
# Stress axis : x y z
#
# Youngs Moduli (GPa) = 74.59930 85.46388 79.62034
#
# Poissons Ratio (x) = 0.35046 0.22522
# Poissons Ratio (y) = 0.30591 0.30744
# Poissons Ratio (z) = 0.21101 0.33000
#
# Static dielectric constant tensor:
#      x y z
#    x 3.527520 0.000000 0.000000 
#    y 0.000000 3.627200 0.000000 
#    z 0.000000 0.000000 3.759210 
# 
# 
# High freq. dielectric constant tensor:
#      x y z
#    x 1.762740 0.000000 0.000000 
#    y 0.000000 1.781820 0.000000 
#    z 0.000000 0.000000 1.788220 
# 
# From -- ./inp_files/14729.got.cif
#   From: 2010.03.12/outbox.cif.g09.slc.cpg/sg39_8_cif.got.tgz:14729.got - 2010.04.14 02:53:20.
