data_PCOD8181864
_publ_section_title
;
Structure prediction by ZEFSAII (Michael W. Deem and Ramdas Pophale) SiO2 
 PCOD8181864
Probable space group: A B M 2
;
_chemical_formula_sum "Si O2"
_cell_formula_units_Z 64
_cell_length_a 18.955151
_cell_length_b 8.785690
_cell_length_c 19.277486
_cell_angle_alpha 90.000000
_cell_angle_beta 90.000000
_cell_angle_gamma 90.000000
_cell_volume 3210.358407
_symmetry_space_group_name_H-M "A B M 2"
_symmetry_group_IT_number 39
_symmetry_cell_setting 'orthorhombic'
loop_
_space_group_symop_operation_xyz
x,y,z
-x,-y,z
-x,1/2+y,z
x,1/2-y,z
x,1/2+y,1/2+z
-x,1/2-y,1/2+z
-x,y,1/2+z
x,-y,1/2+z
loop_
_atom_site_type_symbol
_atom_site_label
_atom_site_fract_x
_atom_site_fract_y
_atom_site_fract_z
Si Si1 0.700498 0.070992 0.414130
Si Si2 0.148207 0.075758 0.856004
Si Si3 0.156465 0.430063 0.093733
Si Si4 0.701534 0.069866 0.065481
Si Si5 0.925944 0.571337 0.474529
Si Si6 0.427239 0.929344 0.159656
Si Si7 0.426591 0.570166 0.316729
Si Si8 0.926678 0.926108 0.716394
O O1 0.696299 0.250000 0.429230
O O2 0.771499 0.029444 0.372157
O O3 0.635905 0.013339 0.366727
O O4 0.697281 0.983871 0.486474
O O5 0.133111 0.250000 0.878213
O O6 0.133134 0.053032 0.774801
O O7 0.093122 0.966149 0.895222
O O8 0.158048 0.250000 0.093999
O O9 0.234103 0.494967 0.107796
O O10 0.099814 0.489171 0.148319
O O11 0.135346 0.491320 0.018291
O O12 0.710927 0.250000 0.067459
O O13 0.632662 0.014825 0.106891
O O14 0.927865 0.750000 0.488165
O O15 0.000000 0.500000 0.496482
O O16 0.434761 0.750000 0.157856
O O17 0.410151 0.984731 0.238115
O O18 0.500000 0.000000 0.132820
O O19 0.500000 0.500000 0.343496
O O20 0.433201 0.750000 0.319854
O O21 0.939356 0.750000 0.698760
O O22 0.000000 0.000000 0.741095
#
# Coordination Sequence:
#
# PCOD8181864 Si02
#       8
#     8   8   8   8   8   8   8   8
#     4  10  21  38  61  87 121 162 200 244 299 358
#     4  10  22  40  63  90 122 160 201 249 302 361
#     4  12  25  42  62  88 122 159 203 253 305 362
#     4  11  23  39  61  90 122 160 202 251 301 358
#     4  12  24  40  64  90 120 158 201 249 300 359
#     4   9  20  38  62  89 121 157 201 245 295 353
#     4   9  19  37  61  88 119 159 200 245 294 352
#     4  11  24  42  64  90 122 159 201 251 306 364
#
# _framework density 19.935469000000001
#
# number of rings (size 3 to 8) (size 9 to 14) (size 15 to 20)
#    0.000    1.500    1.250    3.750    1.750    4.000 
#    0.000    2.500    0.000    0.000    0.000    0.000 
#    0.000    0.000    0.000    0.000    0.000    0.000 
#
# Total GULP energy -396951.524351 kJ/mol
# GULP energy per Si atom -12404.735136 kJ/mol
# Density = 1.989009 g / cm^3
# Si number density = 19.935469 Si / 1000 Ang^3
#
#
#
# Elastic Constant Matrix: (Units=GPa)
#
#
# Indices 1 2 3 4 5 6 
#
# 1 139.9142 51.2012 48.1902 0.0000 0.0000 0.0000
# 2 51.2012 96.2499 34.3533 0.0000 0.0000 0.0000
# 3 48.1902 34.3533 82.9088 0.0000 0.0000 0.0000
# 4 0.0000 0.0000 0.0000 29.9985 0.0000 0.0000
# 5 0.0000 0.0000 0.0000 0.0000 38.1873 0.0000
# 6 0.0000 0.0000 0.0000 0.0000 0.0000 36.0423
#
#
#
# Elastic Compliance Matrix: (Units=1/GPa)
#
#
# Indices 1 2 3 4 5 6 
#
# 1 0.009999 -0.003808 -0.004234 0.000000 0.000000 0.000000
# 2 -0.003808 0.013643 -0.003440 0.000000 0.000000 0.000000
# 3 -0.004234 -0.003440 0.015948 0.000000 0.000000 0.000000
# 4 0.000000 0.000000 0.000000 0.033335 0.000000 0.000000
# 5 0.000000 0.000000 0.000000 0.000000 0.026187 0.000000
# 6 0.000000 0.000000 0.000000 0.000000 0.000000 0.027745
#
#
# Mechanical properties :
#
#
# Convention : Reuss Voigt Hill
#
# Bulk Modulus (GPa) = 60.14509 65.17356 62.65933
# Shear Modulus (GPa) = 32.18290 33.20083 32.69187
#
# Velocity S-wave (km/s) = 4.02226 4.08538 4.05394
# Velocity P-wave (km/s) = 7.19770 7.41734 7.30835
#
# Compressibility (1/GPa) = 0.01662646
#
# Stress axis : x y z
#
# Youngs Moduli (GPa) = 100.00947 73.29798 62.70499
#
# Poissons Ratio (x) = 0.27911 0.26550
# Poissons Ratio (y) = 0.38082 0.21568
# Poissons Ratio (z) = 0.42345 0.25212
#
# Static dielectric constant tensor:
#      x y z
#    x 3.765820 0.000000 0.000000 
#    y 0.000000 3.565320 0.000000 
#    z 0.000000 0.000000 3.619030 
# 
# 
# High freq. dielectric constant tensor:
#      x y z
#    x 1.789290 0.000000 0.000000 
#    y 0.000000 1.776500 0.000000 
#    z 0.000000 0.000000 1.780060 
# 
# From -- ./inp_files/13220.got.cif
#   From: 2010.03.12/outbox.cif.g09.slc.cpg/sg39_7_cif.got.tgz:13220.got - 2010.04.14 02:53:20.
