data_PCOD8181171
_publ_section_title
;
Structure prediction by ZEFSAII (Michael W. Deem and Ramdas Pophale) SiO2 
 PCOD8181171
Probable space group: A B M 2
;
_chemical_formula_sum "Si O2"
_cell_formula_units_Z 48
_cell_length_a 13.983378
_cell_length_b 8.783842
_cell_length_c 20.056929
_cell_angle_alpha 90.000000
_cell_angle_beta 90.000000
_cell_angle_gamma 90.000000
_cell_volume 2463.548122
_symmetry_space_group_name_H-M "A B M 2"
_symmetry_group_IT_number 39
_symmetry_cell_setting 'orthorhombic'
loop_
_space_group_symop_operation_xyz
x,y,z
-x,-y,z
-x,1/2+y,z
x,1/2-y,z
x,1/2+y,1/2+z
-x,1/2-y,1/2+z
-x,y,1/2+z
x,-y,1/2+z
loop_
_atom_site_type_symbol
_atom_site_label
_atom_site_fract_x
_atom_site_fract_y
_atom_site_fract_z
Si Si1 0.897565 0.927245 0.871230
Si Si2 0.594856 0.926381 0.294068
Si Si3 0.798671 0.074109 0.750420
Si Si4 0.897226 0.571680 0.625457
Si Si5 0.597548 0.569847 0.937448
Si Si6 0.790813 0.574582 0.006628
O O1 0.899945 0.750000 0.852277
O O2 0.825007 0.014237 0.823302
O O3 0.864117 0.952500 0.946528
O O4 0.000000 0.000000 0.861137
O O5 0.575699 0.750000 0.308726
O O6 0.683981 0.948100 0.243680
O O7 0.500000 0.000000 0.260827
O O8 0.617106 0.006859 0.363950
O O9 0.827500 0.250000 0.743010
O O10 0.855610 0.979401 0.695987
O O11 0.911429 0.750000 0.626474
O O12 0.822588 0.527155 0.568373
O O13 0.000000 0.500000 0.610919
O O14 0.500000 0.500000 0.967630
O O15 0.589354 0.750000 0.932335
O O16 0.684663 0.522676 0.985431
O O17 0.791492 0.750000 0.029186
#
# Coordination Sequence:
#
# PCOD8181171 Si02
#       6
#     8   8   8   8   8   8
#     4  11  22  37  58  86 118 151 194 246 298 349
#     4  10  20  34  58  89 121 156 194 241 294 351
#     4  11  23  40  61  87 119 156 199 245 295 352
#     4  12  26  43  64  86 117 159 201 246 299 360
#     4  10  19  34  58  89 123 157 194 241 293 350
#     4  10  22  40  61  87 120 157 198 245 295 350
#
# _framework density 19.484092
#
# number of rings (size 3 to 8) (size 9 to 14) (size 15 to 20)
#    0.000    1.333    1.667    5.500    0.000    6.000 
#    0.000    0.833    0.000    0.000    0.000    0.000 
#    0.000    0.000    0.000    0.000    0.000    0.000 
#
# Total GULP energy -297677.894544 kJ/mol
# GULP energy per Si atom -12403.245606 kJ/mol
# Density = 1.943975 g / cm^3
# Si number density = 19.484092 Si / 1000 Ang^3
#
#
#
# Elastic Constant Matrix: (Units=GPa)
#
#
# Indices 1 2 3 4 5 6 
#
# 1 118.2708 43.7341 17.3549 0.0000 0.0000 0.0000
# 2 43.7341 116.2970 23.7433 0.0000 0.0000 0.0000
# 3 17.3549 23.7433 48.2961 0.0000 0.0000 0.0000
# 4 0.0000 0.0000 0.0000 33.2223 0.0000 0.0000
# 5 0.0000 0.0000 0.0000 0.0000 30.6597 0.0000
# 6 0.0000 0.0000 0.0000 0.0000 0.0000 34.1871
#
#
#
# Elastic Compliance Matrix: (Units=1/GPa)
#
#
# Indices 1 2 3 4 5 6 
#
# 1 0.009981 -0.003358 -0.001936 0.000000 0.000000 0.000000
# 2 -0.003358 0.010688 -0.004048 0.000000 0.000000 0.000000
# 3 -0.001936 -0.004048 0.023391 0.000000 0.000000 0.000000
# 4 0.000000 0.000000 0.000000 0.030100 0.000000 0.000000
# 5 0.000000 0.000000 0.000000 0.000000 0.032616 0.000000
# 6 0.000000 0.000000 0.000000 0.000000 0.000000 0.029251
#
#
# Mechanical properties :
#
#
# Convention : Reuss Voigt Hill
#
# Bulk Modulus (GPa) = 39.40580 50.28096 44.84338
# Shear Modulus (GPa) = 30.64304 32.81592 31.72948
#
# Velocity S-wave (km/s) = 3.97006 4.10840 4.03982
# Velocity P-wave (km/s) = 6.42523 6.95467 6.69519
#
# Compressibility (1/GPa) = 0.02537697
#
# Stress axis : x y z
#
# Youngs Moduli (GPa) = 100.19025 93.56359 42.75137
#
# Poissons Ratio (x) = 0.31421 0.08275
# Poissons Ratio (y) = 0.33646 0.17304
# Poissons Ratio (z) = 0.19393 0.37871
#
# Static dielectric constant tensor:
#      x y z
#    x 3.813060 0.000000 0.000000 
#    y 0.000000 3.669260 0.000000 
#    z 0.000000 0.000000 3.299080 
# 
# 
# High freq. dielectric constant tensor:
#      x y z
#    x 1.779330 0.000000 0.000000 
#    y 0.000000 1.772710 0.000000 
#    z 0.000000 0.000000 1.735790 
# 
# From -- ./inp_files/12636.got.cif
#   From: 2010.03.12/outbox.cif.g09.slc.cpg/sg39_7_cif.got.tgz:12636.got - 2010.04.14 02:53:20.
