data_PCOD8181146
_publ_section_title
;
Structure prediction by ZEFSAII (Michael W. Deem and Ramdas Pophale) SiO2 
 PCOD8181146
Probable space group: A B M 2
;
_chemical_formula_sum "Si O2"
_cell_formula_units_Z 64
_cell_length_a 19.162971
_cell_length_b 8.653003
_cell_length_c 20.286108
_cell_angle_alpha 90.000000
_cell_angle_beta 90.000000
_cell_angle_gamma 90.000000
_cell_volume 3363.786552
_symmetry_space_group_name_H-M "A B M 2"
_symmetry_group_IT_number 39
_symmetry_cell_setting 'orthorhombic'
loop_
_space_group_symop_operation_xyz
x,y,z
-x,-y,z
-x,1/2+y,z
x,1/2-y,z
x,1/2+y,1/2+z
-x,1/2-y,1/2+z
-x,y,1/2+z
x,-y,1/2+z
loop_
_atom_site_type_symbol
_atom_site_label
_atom_site_fract_x
_atom_site_fract_y
_atom_site_fract_z
Si Si1 0.428449 0.930629 0.951780
Si Si2 0.212231 0.568726 0.143485
Si Si3 0.293103 0.570060 0.764453
Si Si4 0.428014 0.068419 0.808873
Si Si5 0.785032 0.927319 0.883375
Si Si6 0.718743 0.070999 0.006780
Si Si7 0.073746 0.933095 0.679618
Si Si8 0.070510 0.070700 0.821893
O O1 0.439416 0.750000 0.940777
O O2 0.500000 0.000000 0.982247
O O3 0.411408 0.005695 0.881599
O O4 0.363678 0.966762 0.000026
O O5 0.210180 0.750000 0.157559
O O6 0.244109 0.484088 0.206033
O O7 0.258594 0.526913 0.080257
O O8 0.133905 0.505116 0.133358
O O9 0.307763 0.750000 0.758701
O O10 0.366696 0.481437 0.759511
O O11 0.257220 0.536115 0.834192
O O12 0.434291 0.250000 0.811997
O O13 0.500000 0.000000 0.781090
O O14 0.764805 0.750000 0.868460
O O15 0.867783 0.953135 0.874319
O O16 0.765323 0.969624 0.957699
O O17 0.733391 0.250000 0.991280
O O18 0.073901 0.750000 0.673095
O O19 0.088832 0.981210 0.754869
O O20 0.000000 0.000000 0.654958
O O21 0.058991 0.250000 0.804244
O O22 0.000000 0.000000 0.853391
#
# Coordination Sequence:
#
# PCOD8181146 Si02
#       8
#     8   8   8   8   8   8   8   8
#     4  10  19  34  56  85 115 150 193 237 288 350
#     4  11  23  41  60  85 119 158 200 247 297 348
#     4  12  23  37  59  87 117 153 196 243 294 350
#     4  11  21  35  57  87 119 154 192 245 297 348
#     4  11  22  36  59  87 117 151 193 243 292 347
#     4  10  23  40  60  84 118 157 197 243 293 352
#     4  11  21  35  58  86 115 152 193 243 293 353
#     4  10  20  34  55  85 118 151 191 241 293 349
#
# _framework density 19.026176
#
# number of rings (size 3 to 8) (size 9 to 14) (size 15 to 20)
#    0.000    1.250    2.500    6.375    0.000    3.000 
#    0.000    1.250    0.000    3.000    0.000    0.000 
#    0.000    0.000    0.000    0.000    0.000    0.000 
#
# Total GULP energy -396933.263992 kJ/mol
# GULP energy per Si atom -12404.164500 kJ/mol
# Density = 1.898287 g / cm^3
# Si number density = 19.026176 Si / 1000 Ang^3
#
#
#
# Elastic Constant Matrix: (Units=GPa)
#
#
# Indices 1 2 3 4 5 6 
#
# 1 143.1793 46.7975 36.8383 0.0000 0.0000 0.0000
# 2 46.7975 116.6120 23.7559 0.0000 0.0000 0.0000
# 3 36.8383 23.7559 50.8493 0.0000 0.0000 0.0000
# 4 0.0000 0.0000 0.0000 23.0257 0.0000 0.0000
# 5 0.0000 0.0000 0.0000 0.0000 1.7566 0.0000
# 6 0.0000 0.0000 0.0000 0.0000 0.0000 36.8016
#
#
#
# Elastic Compliance Matrix: (Units=1/GPa)
#
#
# Indices 1 2 3 4 5 6 
#
# 1 0.009243 -0.002592 -0.005485 0.000000 0.000000 0.000000
# 2 -0.002592 0.010204 -0.002890 0.000000 0.000000 0.000000
# 3 -0.005485 -0.002890 0.024990 0.000000 0.000000 0.000000
# 4 0.000000 0.000000 0.000000 0.043430 0.000000 0.000000
# 5 0.000000 0.000000 0.000000 0.000000 0.569277 0.000000
# 6 0.000000 0.000000 0.000000 0.000000 0.000000 0.027173
#
#
# Mechanical properties :
#
#
# Convention : Reuss Voigt Hill
#
# Bulk Modulus (GPa) = 44.43733 58.38045 51.40889
# Shear Modulus (GPa) = 7.00526 25.86672 16.43599
#
# Velocity S-wave (km/s) = 1.92091 3.69119 2.94234
# Velocity P-wave (km/s) = 5.32226 6.99409 6.21465
#
# Compressibility (1/GPa) = 0.02250360
#
# Stress axis : x y z
#
# Youngs Moduli (GPa) = 108.19472 97.99893 40.01652
#
# Poissons Ratio (x) = 0.25399 0.21949
# Poissons Ratio (y) = 0.28041 0.11563
# Poissons Ratio (z) = 0.59346 0.28318
#
# Static dielectric constant tensor:
#      x y z
#    x 4.003070 0.000000 0.000000 
#    y 0.000000 3.603000 0.000000 
#    z 0.000000 0.000000 3.131190 
# 
# 
# High freq. dielectric constant tensor:
#      x y z
#    x 1.761670 0.000000 0.000000 
#    y 0.000000 1.757330 0.000000 
#    z 0.000000 0.000000 1.697610 
# 
# From -- ./inp_files/15069.got.cif
#   From: 2010.03.12/outbox.cif.g09.slc.cpg/sg39_8_cif.got.tgz:15069.got - 2010.04.14 02:53:20.
