data_PCOD8181826
_publ_section_title
;
Structure prediction by ZEFSAII (Michael W. Deem and Ramdas Pophale) SiO2 
 PCOD8181826
Probable space group: A B M 2
;
_chemical_formula_sum "Si O2"
_cell_formula_units_Z 64
_cell_length_a 19.972836
_cell_length_b 18.094965
_cell_length_c 8.757067
_cell_angle_alpha 90.000000
_cell_angle_beta 90.000000
_cell_angle_gamma 90.000000
_cell_volume 3164.872042
_symmetry_space_group_name_H-M "A B M 2"
_symmetry_group_IT_number 39
_symmetry_cell_setting 'orthorhombic'
loop_
_space_group_symop_operation_xyz
x,y,z
-x,-y,z
-x,1/2+y,z
x,1/2-y,z
x,1/2+y,1/2+z
-x,1/2-y,1/2+z
-x,y,1/2+z
x,-y,1/2+z
loop_
_atom_site_type_symbol
_atom_site_label
_atom_site_fract_x
_atom_site_fract_y
_atom_site_fract_z
Si Si1 0.064019 0.165797 0.535530
Si Si2 0.963483 0.079893 0.339685
Si Si3 0.554073 0.662374 0.498679
Si Si4 0.819202 0.096724 0.884901
Si Si5 0.578175 0.837337 0.837073
Si Si6 0.688566 0.573459 0.987759
Si Si7 0.671852 0.583257 0.335613
Si Si8 0.164429 0.947117 0.541626
O O1 0.050978 0.250000 0.589139
O O2 0.058738 0.107075 0.672981
O O3 0.136372 0.163083 0.451940
O O4 0.011992 0.141868 0.406263
O O5 0.899371 0.080547 0.449307
O O6 0.000000 0.000000 0.329128
O O7 0.554565 0.750000 0.492539
O O8 0.566175 0.631531 0.667615
O O9 0.482240 0.632244 0.441911
O O10 0.612597 0.635102 0.389441
O O11 0.742844 0.123818 0.868196
O O12 0.847331 0.066278 0.722263
O O13 0.824479 0.033517 0.013387
O O14 0.579227 0.750000 0.836638
O O15 0.650114 0.863521 0.895342
O O16 0.661172 0.570565 0.157959
O O17 0.767721 0.593432 0.983217
O O18 0.671152 0.495419 0.915169
#
# Coordination Sequence:
#
# PCOD8181826 Si02
#       8
#     8   8   8   8   8   8   8   8
#     4  12  26  42  61  92 130 161 201 263 319 369
#     4  12  24  41  67  93 118 166 214 252 307 381
#     4  10  21  37  59  85 118 159 207 254 303 374
#     4  10  21  39  62  90 121 159 202 253 311 368
#     4  10  21  38  59  86 119 160 206 254 310 368
#     4  10  21  38  60  89 122 154 199 256 304 359
#     4  10  21  37  60  88 121 158 199 251 306 360
#     4  10  21  39  65  92 116 154 212 256 294 372
#
# _framework density 20.221986999999999
#
# number of rings (size 3 to 8) (size 9 to 14) (size 15 to 20)
#    0.000    1.500    1.250    3.750    0.000    5.500 
#    0.000    7.500    0.000    0.000    0.000    0.000 
#    0.000    0.000    0.000    0.000    0.000    0.000 
#
# Total GULP energy -396809.173848 kJ/mol
# GULP energy per Si atom -12400.286683 kJ/mol
# Density = 2.017596 g / cm^3
# Si number density = 20.221987 Si / 1000 Ang^3
#
#
#
# Elastic Constant Matrix: (Units=GPa)
#
#
# Indices 1 2 3 4 5 6 
#
# 1 128.8855 36.9095 51.3658 0.0000 0.0000 0.0000
# 2 36.9095 54.6923 35.2876 0.0000 0.0000 0.0000
# 3 51.3658 35.2876 121.3840 0.0000 0.0000 0.0000
# 4 0.0000 0.0000 0.0000 28.9944 0.0000 0.0000
# 5 0.0000 0.0000 0.0000 0.0000 38.1721 0.0000
# 6 0.0000 0.0000 0.0000 0.0000 0.0000 33.5823
#
#
#
# Elastic Compliance Matrix: (Units=1/GPa)
#
#
# Indices 1 2 3 4 5 6 
#
# 1 0.010386 -0.005137 -0.002902 0.000000 0.000000 0.000000
# 2 -0.005137 0.025046 -0.005107 0.000000 0.000000 0.000000
# 3 -0.002902 -0.005107 0.010951 0.000000 0.000000 0.000000
# 4 0.000000 0.000000 0.000000 0.034489 0.000000 0.000000
# 5 0.000000 0.000000 0.000000 0.000000 0.026197 0.000000
# 6 0.000000 0.000000 0.000000 0.000000 0.000000 0.029778
#
#
# Mechanical properties :
#
#
# Convention : Reuss Voigt Hill
#
# Bulk Modulus (GPa) = 49.77313 61.34309 55.55811
# Shear Modulus (GPa) = 29.43991 32.24300 30.84145
#
# Velocity S-wave (km/s) = 3.81968 3.99739 3.90955
# Velocity P-wave (km/s) = 6.64230 7.19070 6.92193
#
# Compressibility (1/GPa) = 0.02009116
#
# Stress axis : x y z
#
# Youngs Moduli (GPa) = 96.27936 39.92620 91.31574
#
# Poissons Ratio (x) = 0.20511 0.26498
# Poissons Ratio (y) = 0.49460 0.46638
# Poissons Ratio (z) = 0.27938 0.20392
#
# Static dielectric constant tensor:
#      x y z
#    x 4.051650 0.000000 0.000000 
#    y 0.000000 3.298680 0.000000 
#    z 0.000000 0.000000 3.892240 
# 
# 
# High freq. dielectric constant tensor:
#      x y z
#    x 1.807840 0.000000 0.000000 
#    y 0.000000 1.759740 0.000000 
#    z 0.000000 0.000000 1.808180 
# 
# From -- ./inp_files/4015.got.cif
#   From: 2010.03.12/outbox.cif.g09.slc.cpg/sg39_3_cif.got.tgz:4015.got - 2010.04.14 02:53:20.
