data_PCOD8181047
_publ_section_title
;
Structure prediction by ZEFSAII (Michael W. Deem and Ramdas Pophale) SiO2 
 PCOD8181047
Probable space group: A B M 2
;
_chemical_formula_sum "Si O2"
_cell_formula_units_Z 64
_cell_length_a 14.924937
_cell_length_b 26.113212
_cell_length_c 8.868629
_cell_angle_alpha 90.000000
_cell_angle_beta 90.000000
_cell_angle_gamma 90.000000
_cell_volume 3456.442119
_symmetry_space_group_name_H-M "A B M 2"
_symmetry_group_IT_number 39
_symmetry_cell_setting 'orthorhombic'
loop_
_space_group_symop_operation_xyz
x,y,z
-x,-y,z
-x,1/2+y,z
x,1/2-y,z
x,1/2+y,1/2+z
-x,1/2-y,1/2+z
-x,y,1/2+z
x,-y,1/2+z
loop_
_atom_site_type_symbol
_atom_site_label
_atom_site_fract_x
_atom_site_fract_y
_atom_site_fract_z
Si Si1 0.925263 0.309879 0.445310
Si Si2 0.426895 0.947737 0.267172
Si Si3 0.890902 0.810915 0.604665
Si Si4 0.276017 0.858955 0.953636
Si Si5 0.389445 0.960405 0.935869
Si Si6 0.419415 0.305785 0.987799
Si Si7 0.423383 0.838821 0.169509
Si Si8 0.237753 0.690512 0.636915
O O1 0.908498 0.250000 0.447215
O O2 0.912101 0.328820 0.274539
O O3 0.851417 0.333250 0.560087
O O4 0.023913 0.323578 0.501069
O O5 0.528190 0.943524 0.329092
O O6 0.390521 0.890236 0.255353
O O7 0.360915 0.983605 0.369457
O O8 0.428020 0.971066 0.100348
O O9 0.865855 0.750000 0.593542
O O10 0.815258 0.849617 0.544960
O O11 0.309079 0.918376 0.940914
O O12 0.263198 0.839330 0.786294
O O13 0.349537 0.824705 0.043523
O O14 0.443966 0.250000 0.055268
O O15 0.433838 0.300073 0.807653
O O16 0.484033 0.345564 0.075526
O O17 0.316334 0.318841 0.016812
O O18 0.224653 0.750000 0.679241
#
# Coordination Sequence:
#
# PCOD8181047 Si02
#       8
#     8   8   8   8   8   8   8   8
#     4   9  18  33  54  79 107 146 190 226 266 317
#     4  10  19  34  52  71  97 132 176 225 274 320
#     4  10  19  33  53  77 110 148 183 222 268 324
#     4  11  22  33  49  76 109 140 179 225 272 327
#     4  10  20  33  54  78 100 132 176 231 285 326
#     4  11  22  34  49  72 106 145 184 222 262 316
#     4  11  22  35  50  70 102 146 186 223 268 326
#     4  10  20  33  49  72 105 144 182 221 264 318
#
# _framework density 18.516151000000001
#
# number of rings (size 3 to 8) (size 9 to 14) (size 15 to 20)
#    0.000    1.750    0.000    6.750    0.000    7.000 
#    0.000    0.000    0.000    0.000    0.000    0.000 
#    0.000   65.000    0.000    0.000    0.000    0.000 
#
# Total GULP energy -396454.419044 kJ/mol
# GULP energy per Si atom -12389.200595 kJ/mol
# Density = 1.847401 g / cm^3
# Si number density = 18.516151 Si / 1000 Ang^3
#
#
#
# Elastic Constant Matrix: (Units=GPa)
#
#
# Indices 1 2 3 4 5 6 
#
# 1 108.4809 43.5777 47.2637 0.0000 0.0000 0.0000
# 2 43.5777 69.2082 38.0673 0.0000 0.0000 0.0000
# 3 47.2637 38.0673 125.8069 0.0000 0.0000 0.0000
# 4 0.0000 0.0000 0.0000 28.5503 0.0000 0.0000
# 5 0.0000 0.0000 0.0000 0.0000 38.6704 0.0000
# 6 0.0000 0.0000 0.0000 0.0000 0.0000 25.2167
#
#
#
# Elastic Compliance Matrix: (Units=1/GPa)
#
#
# Indices 1 2 3 4 5 6 
#
# 1 0.013181 -0.006689 -0.002928 0.000000 0.000000 0.000000
# 2 -0.006689 0.020729 -0.003759 0.000000 0.000000 0.000000
# 3 -0.002928 -0.003759 0.010186 0.000000 0.000000 0.000000
# 4 0.000000 0.000000 0.000000 0.035026 0.000000 0.000000
# 5 0.000000 0.000000 0.000000 0.000000 0.025860 0.000000
# 6 0.000000 0.000000 0.000000 0.000000 0.000000 0.039656
#
#
# Mechanical properties :
#
#
# Convention : Reuss Voigt Hill
#
# Bulk Modulus (GPa) = 57.65858 62.36816 60.01337
# Shear Modulus (GPa) = 28.22135 30.12664 29.17400
#
# Velocity S-wave (km/s) = 3.90827 4.03804 3.97369
# Velocity P-wave (km/s) = 7.18146 7.44965 7.31678
#
# Compressibility (1/GPa) = 0.01734347
#
# Stress axis : x y z
#
# Youngs Moduli (GPa) = 75.86748 48.24225 98.17278
#
# Poissons Ratio (x) = 0.32269 0.28743
# Poissons Ratio (y) = 0.50748 0.36905
# Poissons Ratio (z) = 0.22213 0.18135
#
# Static dielectric constant tensor:
#      x y z
#    x 3.342110 0.000000 0.000000 
#    y 0.000000 3.333050 0.000000 
#    z 0.000000 0.000000 3.711240 
# 
# 
# High freq. dielectric constant tensor:
#      x y z
#    x 1.697920 0.000000 0.000000 
#    y 0.000000 1.682250 0.000000 
#    z 0.000000 0.000000 1.748280 
# 
# From -- ./inp_files/2915.got.cif
#   From: 2010.03.12/outbox.cif.g09.slc.cpg/sg39_2_cif.got.tgz:2915.got - 2010.04.14 02:53:20.
