data_PCOD8181012
_publ_section_title
;
Structure prediction by ZEFSAII (Michael W. Deem and Ramdas Pophale) SiO2 
 PCOD8181012
Probable space group: A B M 2
;
_chemical_formula_sum "Si O2"
_cell_formula_units_Z 64
_cell_length_a 14.592667
_cell_length_b 8.831103
_cell_length_c 24.663124
_cell_angle_alpha 90.000000
_cell_angle_beta 90.000000
_cell_angle_gamma 90.000000
_cell_volume 3178.320643
_symmetry_space_group_name_H-M "A B M 2"
_symmetry_group_IT_number 39
_symmetry_cell_setting 'orthorhombic'
loop_
_space_group_symop_operation_xyz
x,y,z
-x,-y,z
-x,1/2+y,z
x,1/2-y,z
x,1/2+y,1/2+z
-x,1/2-y,1/2+z
-x,y,1/2+z
x,-y,1/2+z
loop_
_atom_site_type_symbol
_atom_site_label
_atom_site_fract_x
_atom_site_fract_y
_atom_site_fract_z
Si Si1 0.313370 0.580487 0.690110
Si Si2 0.719632 0.074389 0.809085
Si Si3 0.907789 0.072948 0.278568
Si Si4 0.093217 0.070747 0.045914
Si Si5 0.861477 0.575731 0.657481
Si Si6 0.274424 0.428879 0.509912
Si Si7 0.591156 0.921254 0.086705
Si Si8 0.399631 0.570959 0.908982
O O1 0.269624 0.750000 0.685707
O O2 0.335432 0.545924 0.752851
O O3 0.245322 0.456204 0.666175
O O4 0.403996 0.573396 0.652510
O O5 0.739466 0.250000 0.819969
O O6 0.653311 0.009413 0.855750
O O7 0.818170 0.993479 0.808117
O O8 0.908215 0.250000 0.289830
O O9 0.909558 0.035592 0.214415
O O10 0.000000 0.000000 0.303754
O O11 0.092157 0.250000 0.040435
O O12 0.099843 0.027726 0.109486
O O13 0.174489 0.004533 0.008588
O O14 0.000000 0.000000 0.022139
O O15 0.875203 0.750000 0.640696
O O16 0.262135 0.250000 0.512888
O O17 0.321952 0.489224 0.564178
O O18 0.336360 0.479439 0.459229
O O19 0.591865 0.750000 0.064792
O O20 0.500000 0.000000 0.065260
O O21 0.500000 0.500000 0.913913
O O22 0.412389 0.750000 0.906930
#
# Coordination Sequence:
#
# PCOD8181012 Si02
#       8
#     8   8   8   8   8   8   8   8
#     4   9  18  33  54  80 116 157 195 236 290 347
#     4   9  19  38  60  84 116 153 194 245 294 344
#     4  10  20  33  53  85 120 159 201 240 286 344
#     4  12  24  38  58  86 119 157 198 240 291 352
#     4  10  19  32  53  82 118 158 199 239 284 340
#     4  11  23  41  62  86 117 152 194 249 298 350
#     4  11  22  35  54  84 117 155 195 237 292 357
#     4  10  23  42  66  91 115 149 197 246 299 352
#
# _framework density 20.136420999999999
#
# number of rings (size 3 to 8) (size 9 to 14) (size 15 to 20)
#    0.000    1.750    1.250    3.375    0.000    6.000 
#    0.000    0.625    0.000    0.000    0.000    0.000 
#    0.000    0.000    0.000    0.000    0.000    0.000 
#
# Total GULP energy -396740.491909 kJ/mol
# GULP energy per Si atom -12398.140372 kJ/mol
# Density = 2.009059 g / cm^3
# Si number density = 20.136421 Si / 1000 Ang^3
#
#
#
# Elastic Constant Matrix: (Units=GPa)
#
#
# Indices 1 2 3 4 5 6 
#
# 1 151.3917 64.8328 62.7747 0.0000 0.0000 0.0000
# 2 64.8328 105.2949 40.1946 0.0000 0.0000 0.0000
# 3 62.7747 40.1946 101.4603 0.0000 0.0000 0.0000
# 4 0.0000 0.0000 0.0000 20.9965 0.0000 0.0000
# 5 0.0000 0.0000 0.0000 0.0000 24.3461 0.0000
# 6 0.0000 0.0000 0.0000 0.0000 0.0000 35.6563
#
#
#
# Elastic Compliance Matrix: (Units=1/GPa)
#
#
# Indices 1 2 3 4 5 6 
#
# 1 0.010562 -0.004723 -0.004664 0.000000 0.000000 0.000000
# 2 -0.004723 0.013301 -0.002347 0.000000 0.000000 0.000000
# 3 -0.004664 -0.002347 0.013671 0.000000 0.000000 0.000000
# 4 0.000000 0.000000 0.000000 0.047627 0.000000 0.000000
# 5 0.000000 0.000000 0.000000 0.000000 0.041074 0.000000
# 6 0.000000 0.000000 0.000000 0.000000 0.000000 0.028046
#
#
# Mechanical properties :
#
#
# Convention : Reuss Voigt Hill
#
# Bulk Modulus (GPa) = 71.08995 77.08347 74.08671
# Shear Modulus (GPa) = 27.40661 28.88943 28.14802
#
# Velocity S-wave (km/s) = 3.69324 3.79183 3.74286
# Velocity P-wave (km/s) = 7.31898 7.58514 7.45325
#
# Compressibility (1/GPa) = 0.01406669
#
# Stress axis : x y z
#
# Youngs Moduli (GPa) = 94.68175 75.18131 73.14523
#
# Poissons Ratio (x) = 0.35507 0.34112
# Poissons Ratio (y) = 0.44717 0.17170
# Poissons Ratio (z) = 0.44156 0.17648
#
# Static dielectric constant tensor:
#      x y z
#    x 3.614190 0.000000 0.000000 
#    y 0.000000 3.620940 0.000000 
#    z 0.000000 0.000000 3.639930 
# 
# 
# High freq. dielectric constant tensor:
#      x y z
#    x 1.785550 0.000000 0.000000 
#    y 0.000000 1.789480 0.000000 
#    z 0.000000 0.000000 1.769960 
# 
# From -- ./inp_files/16203.got.cif
#   From: 2010.03.12/outbox.cif.g09.slc.cpg/sg39_9_cif.got.tgz:16203.got - 2010.04.14 02:53:20.
