data_PCOD8181328
_publ_section_title
;
Structure prediction by ZEFSAII (Michael W. Deem and Ramdas Pophale) SiO2 
 PCOD8181328
Probable space group: A B M 2
;
_chemical_formula_sum "Si O2"
_cell_formula_units_Z 40
_cell_length_a 9.224168
_cell_length_b 8.685852
_cell_length_c 26.368926
_cell_angle_alpha 90.000000
_cell_angle_beta 90.000000
_cell_angle_gamma 90.000000
_cell_volume 2112.671972
_symmetry_space_group_name_H-M "A B M 2"
_symmetry_group_IT_number 39
_symmetry_cell_setting 'orthorhombic'
loop_
_space_group_symop_operation_xyz
x,y,z
-x,-y,z
-x,1/2+y,z
x,1/2-y,z
x,1/2+y,1/2+z
-x,1/2-y,1/2+z
-x,y,1/2+z
x,-y,1/2+z
loop_
_atom_site_type_symbol
_atom_site_label
_atom_site_fract_x
_atom_site_fract_y
_atom_site_fract_z
Si Si1 0.841492 0.930603 0.533100
Si Si2 0.158637 0.929903 0.142857
Si Si3 0.159220 0.069023 0.243267
Si Si4 0.160863 0.567927 0.431820
Si Si5 0.658681 0.932291 0.340478
O O1 0.851140 0.750000 0.521331
O O2 0.763260 0.960581 0.587984
O O3 0.765489 0.015329 0.485496
O O4 0.000000 0.000000 0.537455
O O5 0.146510 0.750000 0.153349
O O6 0.236939 0.008311 0.191251
O O7 0.000000 0.000000 0.140630
O O8 0.144711 0.250000 0.240395
O O9 0.257593 0.016253 0.289948
O O10 0.000000 0.000000 0.250795
O O11 0.152635 0.750000 0.428789
O O12 0.261372 0.504705 0.388052
O O13 0.000000 0.500000 0.426162
O O14 0.653128 0.750000 0.346809
O O15 0.500000 0.000000 0.336873
#
# Coordination Sequence:
#
# PCOD8181328 Si02
#       5
#     8   8   8   8   8
#     4   9  16  27  45  73 106 137 169 209 256 307
#     4   9  16  26  45  73 105 137 168 207 255 303
#     4  10  20  33  53  79 106 136 172 213 257 307
#     4  11  21  34  55  81 108 140 176 218 262 309
#     4  11  24  40  56  76 103 138 177 219 267 318
#
# _framework density 18.933371000000001
#
# number of rings (size 3 to 8) (size 9 to 14) (size 15 to 20)
#    0.000    2.000    0.000    7.200    0.000    7.200 
#    0.000    0.000    0.000    1.200    0.000    2.800 
#    0.000    0.000    0.000    0.000    0.000    0.000 
#
# Total GULP energy -247824.326407 kJ/mol
# GULP energy per Si atom -12391.216320 kJ/mol
# Density = 1.889028 g / cm^3
# Si number density = 18.933371 Si / 1000 Ang^3
#
#
#
# Elastic Constant Matrix: (Units=GPa)
#
#
# Indices 1 2 3 4 5 6 
#
# 1 67.0408 37.3655 67.4597 0.0000 0.0000 0.0000
# 2 37.3655 105.7890 78.0419 0.0000 0.0000 0.0000
# 3 67.4597 78.0419 226.0872 0.0000 0.0000 0.0000
# 4 0.0000 0.0000 0.0000 6.8257 0.0000 0.0000
# 5 0.0000 0.0000 0.0000 0.0000 -5.5274 0.0000
# 6 0.0000 0.0000 0.0000 0.0000 0.0000 22.1213
#
#
#
# Elastic Compliance Matrix: (Units=1/GPa)
#
#
# Indices 1 2 3 4 5 6 
#
# 1 0.022523 -0.004022 -0.005332 0.000000 0.000000 0.000000
# 2 -0.004022 0.013400 -0.003426 0.000000 0.000000 0.000000
# 3 -0.005332 -0.003426 0.007197 0.000000 0.000000 0.000000
# 4 0.000000 0.000000 0.000000 0.146505 0.000000 0.000000
# 5 0.000000 0.000000 0.000000 0.000000 -0.180916 0.000000
# 6 0.000000 0.000000 0.000000 0.000000 0.000000 0.045205
#
#
# Mechanical properties :
#
#
# Convention : Reuss Voigt Hill
#
# Bulk Modulus (GPa) = 56.94397 84.96125 70.95261
# Shear Modulus (GPa) = 58.59740 19.08724 38.84232
#
# Velocity S-wave (km/s) = 5.56924 3.17855 4.53429
# Velocity P-wave (km/s) = 8.45556 7.64474 8.06035
#
# Compressibility (1/GPa) = 0.01756112
#
# Stress axis : x y z
#
# Youngs Moduli (GPa) = 44.39825 74.62459 138.95498
#
# Poissons Ratio (x) = 0.30012 0.74094
# Poissons Ratio (y) = 0.17856 0.47601
# Poissons Ratio (z) = 0.23674 0.25563
#
# Static dielectric constant tensor:
#      x y z
#    x 3.022260 0.000000 0.000000 
#    y 0.000000 3.710360 0.000000 
#    z 0.000000 0.000000 4.802840 
# 
# 
# High freq. dielectric constant tensor:
#      x y z
#    x 1.666990 0.000000 0.000000 
#    y 0.000000 1.756590 0.000000 
#    z 0.000000 0.000000 1.774500 
# 
# From -- ./inp_files/16740.got.cif
#   From: 2010.03.12/outbox.cif.g09.slc.cpg/sg39_9_cif.got.tgz:16740.got - 2010.04.14 02:53:20.
