data_PCOD8181587
_publ_section_title
;
Structure prediction by ZEFSAII (Michael W. Deem and Ramdas Pophale) SiO2 
 PCOD8181587
Probable space group: A B M 2
;
_chemical_formula_sum "Si O2"
_cell_formula_units_Z 32
_cell_length_a 8.184117
_cell_length_b 20.453006
_cell_length_c 8.184512
_cell_angle_alpha 90.000000
_cell_angle_beta 90.000000
_cell_angle_gamma 90.000000
_cell_volume 1370.003779
_symmetry_space_group_name_H-M "A B M 2"
_symmetry_group_IT_number 39
_symmetry_cell_setting 'orthorhombic'
loop_
_space_group_symop_operation_xyz
x,y,z
-x,-y,z
-x,1/2+y,z
x,1/2-y,z
x,1/2+y,1/2+z
-x,1/2-y,1/2+z
-x,y,1/2+z
x,-y,1/2+z
loop_
_atom_site_type_symbol
_atom_site_label
_atom_site_fract_x
_atom_site_fract_y
_atom_site_fract_z
Si Si1 0.235106 0.822714 0.882710
Si Si2 0.354043 0.450290 0.286329
Si Si3 0.826842 0.950828 0.970960
Si Si4 0.059499 0.124908 0.679250
O O1 0.307161 0.750000 0.857310
O O2 0.378929 0.877044 0.858653
O O3 0.096352 0.835957 0.746942
O O4 0.161687 0.826936 0.064406
O O5 0.500000 0.500000 0.324582
O O6 0.190658 0.478841 0.378712
O O7 0.327849 0.444422 0.091964
O O8 0.819891 0.897707 0.824256
O O9 0.994065 0.938442 0.074391
#
# Coordination Sequence:
#
# PCOD8181587 Si02
#       4
#     8   8   8   8
#     4  10  20  36  61  92 129 165 200 253 316 374
#     4  11  23  38  59  86 121 165 213 249 289 357
#     4  10  21  36  59  88 119 155 200 259 306 351
#     4   9  20  36  59  94 126 155 198 253 319 375
#
# _framework density 23.357600999999999
#
# number of rings (size 3 to 8) (size 9 to 14) (size 15 to 20)
#    0.000    2.000    0.000    3.000    0.000   17.000 
#    0.000    2.500    0.000   30.000    0.000    0.000 
#    0.000    0.000    0.000    0.000    0.000    0.000 
#
# Total GULP energy -198226.376651 kJ/mol
# GULP energy per Si atom -12389.148541 kJ/mol
# Density = 2.330444 g / cm^3
# Si number density = 23.357601 Si / 1000 Ang^3
#
#
#
# Elastic Constant Matrix: (Units=GPa)
#
#
# Indices 1 2 3 4 5 6 
#
# 1 57.4932 51.8732 36.0722 0.0000 0.0000 0.0000
# 2 51.8732 201.7864 55.5714 0.0000 0.0000 0.0000
# 3 36.0722 55.5714 146.6562 0.0000 0.0000 0.0000
# 4 0.0000 0.0000 0.0000 25.0655 0.0000 0.0000
# 5 0.0000 0.0000 0.0000 0.0000 26.8497 0.0000
# 6 0.0000 0.0000 0.0000 0.0000 0.0000 31.7214
#
#
#
# Elastic Compliance Matrix: (Units=1/GPa)
#
#
# Indices 1 2 3 4 5 6 
#
# 1 0.024664 -0.005214 -0.004091 0.000000 0.000000 0.000000
# 2 -0.005214 0.006635 -0.001232 0.000000 0.000000 0.000000
# 3 -0.004091 -0.001232 0.008292 0.000000 0.000000 0.000000
# 4 0.000000 0.000000 0.000000 0.039895 0.000000 0.000000
# 5 0.000000 0.000000 0.000000 0.000000 0.037244 0.000000
# 6 0.000000 0.000000 0.000000 0.000000 0.000000 0.031524
#
#
# Mechanical properties :
#
#
# Convention : Reuss Voigt Hill
#
# Bulk Modulus (GPa) = 54.00133 76.99660 65.49897
# Shear Modulus (GPa) = 28.48984 34.22193 31.35588
#
# Velocity S-wave (km/s) = 3.49624 3.83185 3.66789
# Velocity P-wave (km/s) = 6.28235 7.25350 6.78532
#
# Compressibility (1/GPa) = 0.01851806
#
# Stress axis : x y z
#
# Youngs Moduli (GPa) = 40.54460 150.70907 120.60315
#
# Poissons Ratio (x) = 0.78577 0.49337
# Poissons Ratio (y) = 0.21139 0.14857
# Poissons Ratio (z) = 0.16586 0.18565
#
# Static dielectric constant tensor:
#      x y z
#    x 3.698650 0.000000 0.000000 
#    y 0.000000 4.070010 0.000000 
#    z 0.000000 0.000000 4.608080 
# 
# 
# High freq. dielectric constant tensor:
#      x y z
#    x 1.876180 0.000000 0.000000 
#    y 0.000000 1.904570 0.000000 
#    z 0.000000 0.000000 1.957630 
# 
# From -- ./inp_files/1980.got.cif
#   From: 2010.03.12/outbox.cif.g09.slc.cpg/sg39_1_cif.got.tgz:1980.got - 2010.04.14 02:53:20.
