data_PCOD8181497
_publ_section_title
;
Structure prediction by ZEFSAII (Michael W. Deem and Ramdas Pophale) SiO2 
 PCOD8181497
Probable space group: A B M 2
;
_chemical_formula_sum "Si O2"
_cell_formula_units_Z 64
_cell_length_a 14.203520
_cell_length_b 9.549107
_cell_length_c 24.046912
_cell_angle_alpha 90.000000
_cell_angle_beta 90.000000
_cell_angle_gamma 90.000000
_cell_volume 3261.505092
_symmetry_space_group_name_H-M "A B M 2"
_symmetry_group_IT_number 39
_symmetry_cell_setting 'orthorhombic'
loop_
_space_group_symop_operation_xyz
x,y,z
-x,-y,z
-x,1/2+y,z
x,1/2-y,z
x,1/2+y,1/2+z
-x,1/2-y,1/2+z
-x,y,1/2+z
x,-y,1/2+z
loop_
_atom_site_type_symbol
_atom_site_label
_atom_site_fract_x
_atom_site_fract_y
_atom_site_fract_z
Si Si1 0.231443 0.086745 0.151170
Si Si2 0.092840 0.087841 0.939571
Si Si3 0.742694 0.591302 0.021786
Si Si4 0.607879 0.041562 0.840134
Si Si5 0.589392 0.401272 0.719104
Si Si6 0.097279 0.080600 0.723504
Si Si7 0.591760 0.095425 0.961503
Si Si8 0.798906 0.408813 0.333386
O O1 0.208059 0.250000 0.164402
O O2 0.247800 0.062341 0.086572
O O3 0.325131 0.036263 0.183456
O O4 0.146940 0.984019 0.169053
O O5 0.065956 0.250000 0.930583
O O6 0.149026 0.022538 0.886553
O O7 0.155991 0.069266 0.994237
O O8 0.000000 0.000000 0.949748
O O9 0.706644 0.750000 0.009982
O O10 0.670749 0.480151 0.997114
O O11 0.622383 0.125585 0.782964
O O12 0.626153 0.121706 0.897823
O O13 0.500000 0.000000 0.840810
O O14 0.685449 0.918047 0.837881
O O15 0.500000 0.500000 0.713804
O O16 0.560898 0.250000 0.694516
O O17 0.085488 0.250000 0.718146
O O18 0.161248 0.031156 0.775663
O O19 0.000000 0.000000 0.731318
O O20 0.571818 0.250000 0.986692
O O21 0.500000 0.000000 0.964002
O O22 0.828104 0.250000 0.335483
#
# Coordination Sequence:
#
# PCOD8181497 Si02
#       8
#     8   8   8   8   8   8   8   8
#     4  10  22  41  62  87 118 158 204 252 300 351
#     4  10  21  39  61  87 116 152 193 245 301 356
#     4  10  22  41  63  85 118 160 203 250 303 350
#     4  10  20  35  58  91 121 153 193 237 293 355
#     4  10  21  37  58  86 120 154 194 240 293 351
#     4  11  23  40  63  91 120 157 199 247 304 360
#     4  11  23  38  60  90 123 159 201 244 298 359
#     4  10  20  37  62  89 121 158 195 240 296 361
#
# _framework density 19.622843
#
# number of rings (size 3 to 8) (size 9 to 14) (size 15 to 20)
#    0.000    1.750    2.500    1.500    0.000    6.500 
#    0.000    3.125    0.000    0.000    0.000    0.000 
#    0.000    0.000    0.000    0.000    0.000    0.000 
#
# Total GULP energy -396525.463444 kJ/mol
# GULP energy per Si atom -12391.420733 kJ/mol
# Density = 1.957818 g / cm^3
# Si number density = 19.622843 Si / 1000 Ang^3
#
#
#
# Elastic Constant Matrix: (Units=GPa)
#
#
# Indices 1 2 3 4 5 6 
#
# 1 136.4427 67.2755 60.6765 0.0000 0.0000 0.0000
# 2 67.2755 108.6762 45.3828 0.0000 0.0000 0.0000
# 3 60.6765 45.3828 121.9694 0.0000 0.0000 0.0000
# 4 0.0000 0.0000 0.0000 52.5135 0.0000 0.0000
# 5 0.0000 0.0000 0.0000 0.0000 21.9232 0.0000
# 6 0.0000 0.0000 0.0000 0.0000 0.0000 34.5524
#
#
#
# Elastic Compliance Matrix: (Units=1/GPa)
#
#
# Indices 1 2 3 4 5 6 
#
# 1 0.011836 -0.005764 -0.003743 0.000000 0.000000 0.000000
# 2 -0.005764 0.013701 -0.002231 0.000000 0.000000 0.000000
# 3 -0.003743 -0.002231 0.010891 0.000000 0.000000 0.000000
# 4 0.000000 0.000000 0.000000 0.019043 0.000000 0.000000
# 5 0.000000 0.000000 0.000000 0.000000 0.045614 0.000000
# 6 0.000000 0.000000 0.000000 0.000000 0.000000 0.028942
#
#
# Mechanical properties :
#
#
# Convention : Reuss Voigt Hill
#
# Bulk Modulus (GPa) = 77.20580 79.30644 78.25612
# Shear Modulus (GPa) = 31.68196 34.71473 33.19834
#
# Velocity S-wave (km/s) = 4.02250 4.21063 4.11764
# Velocity P-wave (km/s) = 7.81052 8.00889 7.91033
#
# Compressibility (1/GPa) = 0.01295240
#
# Stress axis : x y z
#
# Youngs Moduli (GPa) = 84.49093 72.98691 91.81870
#
# Poissons Ratio (x) = 0.42066 0.34371
# Poissons Ratio (y) = 0.48697 0.20482
# Poissons Ratio (z) = 0.31628 0.16281
#
# Static dielectric constant tensor:
#      x y z
#    x 3.493430 0.000000 0.000000 
#    y 0.000000 3.203040 0.000000 
#    z 0.000000 0.000000 3.899180 
# 
# 
# High freq. dielectric constant tensor:
#      x y z
#    x 1.766100 0.000000 0.000000 
#    y 0.000000 1.753640 0.000000 
#    z 0.000000 0.000000 1.770730 
# 
# From -- ./inp_files/16147.got.cif
#   From: 2010.03.12/outbox.cif.g09.slc.cpg/sg39_9_cif.got.tgz:16147.got - 2010.04.14 02:53:20.
