data_PCOD8181629
_publ_section_title
;
Structure prediction by ZEFSAII (Michael W. Deem and Ramdas Pophale) SiO2 
 PCOD8181629
Probable space group: A B M 2
;
_chemical_formula_sum "Si O2"
_cell_formula_units_Z 64
_cell_length_a 18.969416
_cell_length_b 9.058726
_cell_length_c 19.500129
_cell_angle_alpha 90.000000
_cell_angle_beta 90.000000
_cell_angle_gamma 90.000000
_cell_volume 3350.877635
_symmetry_space_group_name_H-M "A B M 2"
_symmetry_group_IT_number 39
_symmetry_cell_setting 'orthorhombic'
loop_
_space_group_symop_operation_xyz
x,y,z
-x,-y,z
-x,1/2+y,z
x,1/2-y,z
x,1/2+y,1/2+z
-x,1/2-y,1/2+z
-x,y,1/2+z
x,-y,1/2+z
loop_
_atom_site_type_symbol
_atom_site_label
_atom_site_fract_x
_atom_site_fract_y
_atom_site_fract_z
Si Si1 0.159483 0.080819 0.629510
Si Si2 0.427723 0.422301 0.337488
Si Si3 0.298100 0.076294 0.431617
Si Si4 0.931049 0.080573 0.998292
Si Si5 0.072457 0.080308 0.753570
Si Si6 0.427192 0.423806 0.180989
Si Si7 0.155994 0.419776 0.889062
Si Si8 0.689517 0.574866 0.590650
O O1 0.165012 0.250000 0.651781
O O2 0.129793 0.063739 0.553658
O O3 0.108164 0.005757 0.685723
O O4 0.238344 0.016326 0.626006
O O5 0.500000 0.500000 0.359738
O O6 0.441333 0.250000 0.345332
O O7 0.365779 0.475231 0.387916
O O8 0.406355 0.462904 0.259394
O O9 0.283735 0.250000 0.424277
O O10 0.310714 0.032448 0.510456
O O11 0.231331 0.993712 0.400110
O O12 0.948649 0.250000 0.982022
O O13 0.905422 0.001598 0.930038
O O14 0.000000 0.000000 0.026987
O O15 0.051797 0.250000 0.741208
O O16 0.132614 0.064319 0.810688
O O17 0.000000 0.000000 0.772904
O O18 0.500000 0.500000 0.161388
O O19 0.434290 0.250000 0.170053
O O20 0.371143 0.487555 0.128489
O O21 0.160243 0.250000 0.912356
O O22 0.679737 0.750000 0.599695
#
# Coordination Sequence:
#
# PCOD8181629 Si02
#       8
#     8   8   8   8   8   8   8   8
#     4   9  19  37  58  81 112 149 188 229 281 338
#     4   9  20  38  60  86 117 150 190 231 278 335
#     4  10  21  39  60  84 116 153 189 231 285 337
#     4  11  21  37  60  83 111 149 189 234 283 336
#     4  10  22  39  57  81 111 145 189 236 284 339
#     4  10  21  38  59  87 118 151 189 233 277 331
#     4  11  23  37  56  84 114 148 191 236 282 339
#     4  10  20  37  60  84 114 154 189 229 284 338
#
# _framework density 19.099474000000001
#
# number of rings (size 3 to 8) (size 9 to 14) (size 15 to 20)
#    0.000    2.000    1.250    1.875    1.750    4.000 
#    0.000    2.500    0.000    0.000    0.000    0.000 
#    0.000    0.000    0.000    0.000    0.000    0.000 
#
# Total GULP energy -396823.430340 kJ/mol
# GULP energy per Si atom -12400.732198 kJ/mol
# Density = 1.905600 g / cm^3
# Si number density = 19.099474 Si / 1000 Ang^3
#
#
#
# Elastic Constant Matrix: (Units=GPa)
#
#
# Indices 1 2 3 4 5 6 
#
# 1 151.1949 58.5729 59.0524 0.0000 0.0000 0.0000
# 2 58.5729 76.1599 40.9536 0.0000 0.0000 0.0000
# 3 59.0524 40.9536 92.2092 0.0000 0.0000 0.0000
# 4 0.0000 0.0000 0.0000 22.5597 0.0000 0.0000
# 5 0.0000 0.0000 0.0000 0.0000 34.8210 0.0000
# 6 0.0000 0.0000 0.0000 0.0000 0.0000 35.9271
#
#
#
# Elastic Compliance Matrix: (Units=1/GPa)
#
#
# Indices 1 2 3 4 5 6 
#
# 1 0.010490 -0.005853 -0.004118 0.000000 0.000000 0.000000
# 2 -0.005853 0.020516 -0.005363 0.000000 0.000000 0.000000
# 3 -0.004118 -0.005363 0.015865 0.000000 0.000000 0.000000
# 4 0.000000 0.000000 0.000000 0.044327 0.000000 0.000000
# 5 0.000000 0.000000 0.000000 0.000000 0.028718 0.000000
# 6 0.000000 0.000000 0.000000 0.000000 0.000000 0.027834
#
#
# Mechanical properties :
#
#
# Convention : Reuss Voigt Hill
#
# Bulk Modulus (GPa) = 61.72650 70.74689 66.23670
# Shear Modulus (GPa) = 27.20058 29.39389 28.29724
#
# Velocity S-wave (km/s) = 3.77789 3.92725 3.85329
# Velocity P-wave (km/s) = 7.17067 7.59514 7.38595
#
# Compressibility (1/GPa) = 0.01620050
#
# Stress axis : x y z
#
# Youngs Moduli (GPa) = 95.32914 48.74291 63.03370
#
# Poissons Ratio (x) = 0.28529 0.25960
# Poissons Ratio (y) = 0.55796 0.33808
# Poissons Ratio (z) = 0.39261 0.26143
#
# Static dielectric constant tensor:
#      x y z
#    x 3.620610 0.000000 0.000000 
#    y 0.000000 3.414300 0.000000 
#    z 0.000000 0.000000 3.574340 
# 
# 
# High freq. dielectric constant tensor:
#      x y z
#    x 1.754260 0.000000 0.000000 
#    y 0.000000 1.729810 0.000000 
#    z 0.000000 0.000000 1.749800 
# 
# From -- ./inp_files/13173.got.cif
#   From: 2010.03.12/outbox.cif.g09.slc.cpg/sg39_7_cif.got.tgz:13173.got - 2010.04.14 02:53:20.
