data_PCOD8181987
_publ_section_title
;
Structure prediction by ZEFSAII (Michael W. Deem and Ramdas Pophale) SiO2 
 PCOD8181987
Probable space group: A B M 2
;
_chemical_formula_sum "Si O2"
_cell_formula_units_Z 64
_cell_length_a 16.149544
_cell_length_b 17.269406
_cell_length_c 10.837618
_cell_angle_alpha 90.000000
_cell_angle_beta 90.000000
_cell_angle_gamma 90.000000
_cell_volume 3022.536144
_symmetry_space_group_name_H-M "A B M 2"
_symmetry_group_IT_number 39
_symmetry_cell_setting 'orthorhombic'
loop_
_space_group_symop_operation_xyz
x,y,z
-x,-y,z
-x,1/2+y,z
x,1/2-y,z
x,1/2+y,1/2+z
-x,1/2-y,1/2+z
-x,y,1/2+z
x,-y,1/2+z
loop_
_atom_site_type_symbol
_atom_site_label
_atom_site_fract_x
_atom_site_fract_y
_atom_site_fract_z
Si Si1 0.145607 0.106419 0.676540
Si Si2 0.563302 0.657083 0.927581
Si Si3 0.452021 0.161816 0.203074
Si Si4 0.853343 0.835112 0.421712
Si Si5 0.279371 0.598458 0.757865
Si Si6 0.281618 0.937049 0.345321
Si Si7 0.844105 0.557016 0.055789
Si Si8 0.037157 0.342456 0.898951
O O1 0.149196 0.169071 0.569167
O O2 0.235781 0.111545 0.739439
O O3 0.075573 0.133372 0.769835
O O4 0.124203 0.020546 0.623772
O O5 0.574158 0.750000 0.926366
O O6 0.505491 0.624658 0.815748
O O7 0.651643 0.616497 0.911618
O O8 0.529027 0.629909 0.063560
O O9 0.478674 0.250000 0.203051
O O10 0.355140 0.155797 0.233766
O O11 0.847086 0.750000 0.364565
O O12 0.773159 0.881645 0.378728
O O13 0.942340 0.871443 0.385665
O O14 0.319507 0.513397 0.779746
O O15 0.215197 0.605697 0.645677
O O16 0.211024 0.966883 0.438764
O O17 0.919974 0.611846 0.013013
O O18 0.043636 0.250000 0.923676
#
# Coordination Sequence:
#
# PCOD8181987 Si02
#       8
#     8   8   8   8   8   8   8   8
#     4  10  22  42  61  91 128 166 212 270 328 393
#     4  10  22  42  67  97 128 167 215 265 322 391
#     4  10  22  41  65  94 129 167 213 263 322 392
#     4  11  24  40  60  92 130 167 211 274 330 378
#     4  11  22  40  63  92 128 164 211 260 319 387
#     4  10  21  41  65  91 122 164 209 260 315 390
#     4  10  21  42  64  90 124 168 215 265 320 384
#     4  10  24  42  63  92 127 173 227 271 324 395
#
# _framework density 21.174271000000001
#
# number of rings (size 3 to 8) (size 9 to 14) (size 15 to 20)
#    0.000    1.750    2.500    0.750    1.750    5.500 
#    2.250    2.500    0.000    0.000    0.000    0.000 
#    0.000    0.000    0.000    0.000    0.000    0.000 
#
# Total GULP energy -396614.418110 kJ/mol
# GULP energy per Si atom -12394.200566 kJ/mol
# Density = 2.112608 g / cm^3
# Si number density = 21.174271 Si / 1000 Ang^3
#
#
#
# Elastic Constant Matrix: (Units=GPa)
#
#
# Indices 1 2 3 4 5 6 
#
# 1 88.3133 27.1566 49.8589 0.0000 0.0000 0.0000
# 2 27.1566 47.5193 25.5908 0.0000 0.0000 0.0000
# 3 49.8589 25.5908 126.3658 0.0000 0.0000 0.0000
# 4 0.0000 0.0000 0.0000 29.4749 0.0000 0.0000
# 5 0.0000 0.0000 0.0000 0.0000 35.4688 0.0000
# 6 0.0000 0.0000 0.0000 0.0000 0.0000 23.4205
#
#
#
# Elastic Compliance Matrix: (Units=1/GPa)
#
#
# Indices 1 2 3 4 5 6 
#
# 1 0.016190 -0.006524 -0.005067 0.000000 0.000000 0.000000
# 2 -0.006524 0.026249 -0.002742 0.000000 0.000000 0.000000
# 3 -0.005067 -0.002742 0.010468 0.000000 0.000000 0.000000
# 4 0.000000 0.000000 0.000000 0.033927 0.000000 0.000000
# 5 0.000000 0.000000 0.000000 0.000000 0.028194 0.000000
# 6 0.000000 0.000000 0.000000 0.000000 0.000000 0.042698
#
#
# Mechanical properties :
#
#
# Convention : Reuss Voigt Hill
#
# Bulk Modulus (GPa) = 41.25033 51.93455 46.59244
# Shear Modulus (GPa) = 25.71087 28.31233 27.01160
#
# Velocity S-wave (km/s) = 3.48839 3.66062 3.57554
# Velocity P-wave (km/s) = 5.97903 6.51516 6.25284
#
# Compressibility (1/GPa) = 0.02424223
#
# Stress axis : x y z
#
# Youngs Moduli (GPa) = 61.76687 38.09701 95.53002
#
# Poissons Ratio (x) = 0.24853 0.48403
# Poissons Ratio (y) = 0.40295 0.26192
# Poissons Ratio (z) = 0.31296 0.10445
#
# Static dielectric constant tensor:
#      x y z
#    x 3.652540 0.000000 0.000000 
#    y 0.000000 3.597890 0.000000 
#    z 0.000000 0.000000 4.216600 
# 
# 
# High freq. dielectric constant tensor:
#      x y z
#    x 1.818480 0.000000 0.000000 
#    y 0.000000 1.819180 0.000000 
#    z 0.000000 0.000000 1.848690 
# 
# From -- ./inp_files/6618.got.cif
#   From: 2010.03.12/outbox.cif.g09.slc.cpg/sg39_4_cif.got.tgz:6618.got - 2010.04.14 02:53:20.
