data_PCOD8181223
_publ_section_title
;
Structure prediction by ZEFSAII (Michael W. Deem and Ramdas Pophale) SiO2 
 PCOD8181223
Probable space group: A B M 2
;
_chemical_formula_sum "Si O2"
_cell_formula_units_Z 48
_cell_length_a 18.376988
_cell_length_b 24.270182
_cell_length_c 5.186072
_cell_angle_alpha 90.000000
_cell_angle_beta 90.000000
_cell_angle_gamma 90.000000
_cell_volume 2313.054719
_symmetry_space_group_name_H-M "A B M 2"
_symmetry_group_IT_number 39
_symmetry_cell_setting 'orthorhombic'
loop_
_space_group_symop_operation_xyz
x,y,z
-x,-y,z
-x,1/2+y,z
x,1/2-y,z
x,1/2+y,1/2+z
-x,1/2-y,1/2+z
-x,y,1/2+z
x,-y,1/2+z
loop_
_atom_site_type_symbol
_atom_site_label
_atom_site_fract_x
_atom_site_fract_y
_atom_site_fract_z
Si Si1 0.298831 0.312062 0.925520
Si Si2 0.954109 0.813499 0.231436
Si Si3 0.544332 0.651427 0.883602
Si Si4 0.190577 0.880768 0.711074
Si Si5 0.604639 0.967389 0.795243
Si Si6 0.245171 0.416030 0.715381
O O1 0.272537 0.250000 0.866894
O O2 0.385680 0.312618 0.961358
O O3 0.278550 0.353496 0.691786
O O4 0.255914 0.335789 0.177009
O O5 0.929700 0.750000 0.246950
O O6 0.884306 0.851032 0.274425
O O7 0.011435 0.827233 0.455172
O O8 0.515467 0.666330 0.599396
O O9 0.563362 0.586977 0.884078
O O10 0.185726 0.917075 0.447603
O O11 0.208215 0.924857 0.937909
O O12 0.691734 0.958961 0.787070
O O13 0.582372 0.986966 0.508494
#
# Coordination Sequence:
#
# PCOD8181223 Si02
#       6
#     8   8   8   8   8   8
#     4   9  22  37  58  80 107 155 199 232 276 327
#     4  10  20  32  49  80 119 156 195 231 267 325
#     4  11  25  40  55  80 115 145 185 240 284 336
#     4  10  19  36  56  78 115 154 189 229 282 321
#     4  11  22  38  63  84 110 142 181 232 300 356
#     4   9  21  35  56  84 112 139 188 244 270 336
#
# _framework density 20.751778999999999
#
# number of rings (size 3 to 8) (size 9 to 14) (size 15 to 20)
#    1.000    1.000    0.000    3.500    4.667    4.000 
#    0.000    0.000    0.000    0.000    0.000    0.000 
#    0.000   46.667    0.000    0.000    0.000    0.000 
#
# Total GULP energy -297384.000432 kJ/mol
# GULP energy per Si atom -12391.000018 kJ/mol
# Density = 2.070455 g / cm^3
# Si number density = 20.751779 Si / 1000 Ang^3
#
#
#
# Elastic Constant Matrix: (Units=GPa)
#
#
# Indices 1 2 3 4 5 6 
#
# 1 70.1862 -9.6153 15.4356 0.0000 0.0000 0.0000
# 2 -9.6153 20.9721 4.3401 0.0000 0.0000 0.0000
# 3 15.4356 4.3401 121.2247 0.0000 0.0000 0.0000
# 4 0.0000 0.0000 0.0000 13.0528 0.0000 0.0000
# 5 0.0000 0.0000 0.0000 0.0000 18.5088 0.0000
# 6 0.0000 0.0000 0.0000 0.0000 0.0000 26.0440
#
#
#
# Elastic Compliance Matrix: (Units=1/GPa)
#
#
# Indices 1 2 3 4 5 6 
#
# 1 0.015809 0.007722 -0.002289 0.000000 0.000000 0.000000
# 2 0.007722 0.051810 -0.002838 0.000000 0.000000 0.000000
# 3 -0.002289 -0.002838 0.008642 0.000000 0.000000 0.000000
# 4 0.000000 0.000000 0.000000 0.076612 0.000000 0.000000
# 5 0.000000 0.000000 0.000000 0.000000 0.054028 0.000000
# 6 0.000000 0.000000 0.000000 0.000000 0.000000 0.038397
#
#
# Mechanical properties :
#
#
# Convention : Reuss Voigt Hill
#
# Bulk Modulus (GPa) = 12.27740 25.85596 19.06668
# Shear Modulus (GPa) = 18.70838 25.00262 21.85550
#
# Velocity S-wave (km/s) = 3.00581 3.47485 3.24880
# Velocity P-wave (km/s) = 4.23977 5.34660 4.82503
#
# Compressibility (1/GPa) = 0.08145046
#
# Stress axis : x y z
#
# Youngs Moduli (GPa) = 63.25424 19.30124 115.71036
#
# Poissons Ratio (x) = -0.14904 0.26491
# Poissons Ratio (y) = -0.48845 0.32840
# Poissons Ratio (z) = 0.14482 0.05478
#
# Static dielectric constant tensor:
#      x y z
#    x 3.534790 0.000000 0.000000 
#    y 0.000000 3.473920 0.000000 
#    z 0.000000 0.000000 3.707390 
# 
# 
# High freq. dielectric constant tensor:
#      x y z
#    x 1.794970 0.000000 0.000000 
#    y 0.000000 1.783240 0.000000 
#    z 0.000000 0.000000 1.818800 
# 
# From -- ./inp_files/809.got.cif
#   From: 2010.03.12/outbox.cif.g09.slc.cpg/sg39_1_cif.got.tgz:809.got - 2010.04.14 02:53:20.
