data_PCOD8181818
_publ_section_title
;
Structure prediction by ZEFSAII (Michael W. Deem and Ramdas Pophale) SiO2 
 PCOD8181818
Probable space group: A B M 2
;
_chemical_formula_sum "Si O2"
_cell_formula_units_Z 64
_cell_length_a 14.242352
_cell_length_b 8.892232
_cell_length_c 25.547909
_cell_angle_alpha 90.000000
_cell_angle_beta 90.000000
_cell_angle_gamma 90.000000
_cell_volume 3235.548102
_symmetry_space_group_name_H-M "A B M 2"
_symmetry_group_IT_number 39
_symmetry_cell_setting 'orthorhombic'
loop_
_space_group_symop_operation_xyz
x,y,z
-x,-y,z
-x,1/2+y,z
x,1/2-y,z
x,1/2+y,1/2+z
-x,1/2-y,1/2+z
-x,y,1/2+z
x,-y,1/2+z
loop_
_atom_site_type_symbol
_atom_site_label
_atom_site_fract_x
_atom_site_fract_y
_atom_site_fract_z
Si Si1 0.597775 0.073158 0.197550
Si Si2 0.729027 0.427448 0.104475
Si Si3 0.098292 0.424719 0.869359
Si Si4 0.397902 0.426914 0.507147
Si Si5 0.897446 0.571189 0.150433
Si Si6 0.101146 0.928049 0.253495
Si Si7 0.289268 0.924887 0.414029
Si Si8 0.595857 0.924483 0.814102
O O1 0.584093 0.250000 0.193899
O O2 0.675209 0.019873 0.156589
O O3 0.628760 0.022132 0.256196
O O4 0.500000 0.000000 0.181394
O O5 0.748834 0.250000 0.102840
O O6 0.828186 0.516554 0.103793
O O7 0.666504 0.479348 0.055335
O O8 0.075987 0.250000 0.869095
O O9 0.139419 0.467467 0.811495
O O10 0.177934 0.464915 0.912299
O O11 0.000000 0.500000 0.884429
O O12 0.500000 0.500000 0.510712
O O13 0.413228 0.250000 0.506927
O O14 0.343777 0.473263 0.454793
O O15 0.906111 0.750000 0.151483
O O16 0.848007 0.508486 0.204355
O O17 0.000000 0.500000 0.140853
O O18 0.101080 0.750000 0.243023
O O19 0.000000 0.000000 0.251174
O O20 0.305633 0.750000 0.427803
O O21 0.325085 0.964061 0.355988
O O22 0.574390 0.750000 0.812320
O O23 0.500000 0.000000 0.832296
#
# Coordination Sequence:
#
# PCOD8181818 Si02
#       8
#     8   8   8   8   8   8   8   8
#     4   9  18  33  55  80 111 146 180 229 286 344
#     4  10  22  39  60  84 112 150 195 239 289 344
#     4   9  19  34  55  82 115 155 196 239 287 341
#     4  11  24  42  64  89 115 149 192 241 293 345
#     4  11  22  36  56  84 118 155 195 239 286 340
#     4   9  16  29  51  77 112 153 191 232 278 333
#     4  10  21  37  58  84 113 151 197 239 288 345
#     4   9  18  32  52  78 109 143 180 224 282 344
#
# _framework density 19.780266999999998
#
# number of rings (size 3 to 8) (size 9 to 14) (size 15 to 20)
#    0.000    2.250    0.000    3.375    1.750    4.000 
#    0.000    0.625    0.000    1.500    0.000    0.000 
#    0.000    0.000    0.000    0.000    0.000    0.000 
#
# Total GULP energy -396605.018673 kJ/mol
# GULP energy per Si atom -12393.906834 kJ/mol
# Density = 1.973525 g / cm^3
# Si number density = 19.780267 Si / 1000 Ang^3
#
#
#
# Elastic Constant Matrix: (Units=GPa)
#
#
# Indices 1 2 3 4 5 6 
#
# 1 118.6875 42.2937 58.2589 0.0000 0.0000 0.0000
# 2 42.2937 64.1012 32.2533 0.0000 0.0000 0.0000
# 3 58.2589 32.2533 71.6482 0.0000 0.0000 0.0000
# 4 0.0000 0.0000 0.0000 24.7013 0.0000 0.0000
# 5 0.0000 0.0000 0.0000 0.0000 65.0688 0.0000
# 6 0.0000 0.0000 0.0000 0.0000 0.0000 30.6194
#
#
#
# Elastic Compliance Matrix: (Units=1/GPa)
#
#
# Indices 1 2 3 4 5 6 
#
# 1 0.015127 -0.004902 -0.010093 0.000000 0.000000 0.000000
# 2 -0.004902 0.021757 -0.005808 0.000000 0.000000 0.000000
# 3 -0.010093 -0.005808 0.024779 0.000000 0.000000 0.000000
# 4 0.000000 0.000000 0.000000 0.040484 0.000000 0.000000
# 5 0.000000 0.000000 0.000000 0.000000 0.015368 0.000000
# 6 0.000000 0.000000 0.000000 0.000000 0.000000 0.032659
#
#
# Mechanical properties :
#
#
# Convention : Reuss Voigt Hill
#
# Bulk Modulus (GPa) = 49.86129 57.78318 53.82224
# Shear Modulus (GPa) = 25.19331 32.18665 28.68998
#
# Velocity S-wave (km/s) = 3.57271 4.03825 3.81259
# Velocity P-wave (km/s) = 6.50241 7.14277 6.83010
#
# Compressibility (1/GPa) = 0.02005564
#
# Stress axis : x y z
#
# Youngs Moduli (GPa) = 66.10881 45.96187 40.35727
#
# Poissons Ratio (x) = 0.22530 0.40733
# Poissons Ratio (y) = 0.32406 0.23441
# Poissons Ratio (z) = 0.66724 0.26696
#
# Static dielectric constant tensor:
#      x y z
#    x 3.438660 0.000000 0.000000 
#    y 0.000000 3.483680 0.000000 
#    z 0.000000 0.000000 4.177110 
# 
# 
# High freq. dielectric constant tensor:
#      x y z
#    x 1.775230 0.000000 0.000000 
#    y 0.000000 1.762890 0.000000 
#    z 0.000000 0.000000 1.762360 
# 
# From -- ./inp_files/16249.got.cif
#   From: 2010.03.12/outbox.cif.g09.slc.cpg/sg39_9_cif.got.tgz:16249.got - 2010.04.14 02:53:20.
