data_PCOD8181552
_publ_section_title
;
Structure prediction by ZEFSAII (Michael W. Deem and Ramdas Pophale) SiO2 
 PCOD8181552
Probable space group: A B M 2
;
_chemical_formula_sum "Si O2"
_cell_formula_units_Z 64
_cell_length_a 14.280567
_cell_length_b 8.791770
_cell_length_c 25.068734
_cell_angle_alpha 90.000000
_cell_angle_beta 90.000000
_cell_angle_gamma 90.000000
_cell_volume 3147.416167
_symmetry_space_group_name_H-M "A B M 2"
_symmetry_group_IT_number 39
_symmetry_cell_setting 'orthorhombic'
loop_
_space_group_symop_operation_xyz
x,y,z
-x,-y,z
-x,1/2+y,z
x,1/2-y,z
x,1/2+y,1/2+z
-x,1/2-y,1/2+z
-x,y,1/2+z
x,-y,1/2+z
loop_
_atom_site_type_symbol
_atom_site_label
_atom_site_fract_x
_atom_site_fract_y
_atom_site_fract_z
Si Si1 0.398238 0.573261 0.643120
Si Si2 0.898226 0.569655 0.504201
Si Si3 0.100067 0.926620 0.817694
Si Si4 0.784486 0.569681 0.907930
Si Si5 0.397567 0.069239 0.375611
Si Si6 0.222119 0.928729 0.106114
Si Si7 0.596436 0.076212 0.758922
Si Si8 0.900584 0.425446 0.694635
O O1 0.500000 0.500000 0.636481
O O2 0.408647 0.750000 0.629989
O O3 0.326626 0.497560 0.601428
O O4 0.349918 0.550140 0.702691
O O5 0.906094 0.750000 0.497993
O O6 0.851825 0.500411 0.452005
O O7 0.836095 0.520627 0.554591
O O8 0.000000 0.500000 0.512689
O O9 0.097747 0.750000 0.834673
O O10 0.129199 0.944142 0.756144
O O11 0.177478 0.016651 0.850719
O O12 0.000000 0.000000 0.829495
O O13 0.783879 0.750000 0.912581
O O14 0.678689 0.505489 0.915088
O O15 0.400093 0.250000 0.384746
O O16 0.361711 0.020164 0.315537
O O17 0.500000 0.000000 0.387229
O O18 0.230259 0.750000 0.110402
O O19 0.175171 0.990949 0.159314
O O20 0.573957 0.250000 0.768580
O O21 0.500000 0.000000 0.746562
O O22 0.906403 0.250000 0.678071
O O23 0.000000 0.500000 0.683360
#
# Coordination Sequence:
#
# PCOD8181552 Si02
#       8
#     8   8   8   8   8   8   8   8
#     4  10  20  36  58  87 124 165 208 252 303 359
#     4  11  25  46  69  92 120 156 202 257 312 368
#     4  10  21  38  59  86 122 160 198 245 303 367
#     4  12  25  40  62  91 121 159 206 252 307 365
#     4  10  20  37  59  87 125 164 207 252 302 360
#     4  11  24  40  62  91 122 159 205 252 306 365
#     4   8  16  30  51  79 114 157 199 240 288 344
#     4  10  21  37  59  87 122 160 198 244 303 366
#
# _framework density 20.334140000000001
#
# number of rings (size 3 to 8) (size 9 to 14) (size 15 to 20)
#    0.000    1.750    0.000    4.125    1.750    5.500 
#    0.000    0.625    0.000    3.000    0.000    0.000 
#    0.000    0.000    0.000    0.000    0.000    0.000 
#
# Total GULP energy -396662.170748 kJ/mol
# GULP energy per Si atom -12395.692836 kJ/mol
# Density = 2.028786 g / cm^3
# Si number density = 20.334140 Si / 1000 Ang^3
#
#
#
# Elastic Constant Matrix: (Units=GPa)
#
#
# Indices 1 2 3 4 5 6 
#
# 1 122.9905 55.5745 56.2043 0.0000 0.0000 0.0000
# 2 55.5745 100.3225 41.3294 0.0000 0.0000 0.0000
# 3 56.2043 41.3294 62.6496 0.0000 0.0000 0.0000
# 4 0.0000 0.0000 0.0000 26.3281 0.0000 0.0000
# 5 0.0000 0.0000 0.0000 0.0000 32.1011 0.0000
# 6 0.0000 0.0000 0.0000 0.0000 0.0000 39.1304
#
#
#
# Elastic Compliance Matrix: (Units=1/GPa)
#
#
# Indices 1 2 3 4 5 6 
#
# 1 0.014731 -0.003730 -0.010755 0.000000 0.000000 0.000000
# 2 -0.003730 0.014632 -0.006307 0.000000 0.000000 0.000000
# 3 -0.010755 -0.006307 0.029771 0.000000 0.000000 0.000000
# 4 0.000000 0.000000 0.000000 0.037982 0.000000 0.000000
# 5 0.000000 0.000000 0.000000 0.000000 0.031152 0.000000
# 6 0.000000 0.000000 0.000000 0.000000 0.000000 0.025556
#
#
# Mechanical properties :
#
#
# Convention : Reuss Voigt Hill
#
# Bulk Modulus (GPa) = 56.97648 65.79766 61.38707
# Shear Modulus (GPa) = 24.84400 28.36887 26.60644
#
# Velocity S-wave (km/s) = 3.49920 3.73920 3.62119
# Velocity P-wave (km/s) = 6.66384 7.14637 6.90932
#
# Compressibility (1/GPa) = 0.01755110
#
# Stress axis : x y z
#
# Youngs Moduli (GPa) = 67.88516 68.34320 33.58996
#
# Poissons Ratio (x) = 0.25489 0.36126
# Poissons Ratio (y) = 0.25318 0.21184
# Poissons Ratio (z) = 0.73010 0.43102
#
# Static dielectric constant tensor:
#      x y z
#    x 3.668690 0.000000 0.000000 
#    y 0.000000 3.707920 0.000000 
#    z 0.000000 0.000000 3.756780 
# 
# 
# High freq. dielectric constant tensor:
#      x y z
#    x 1.800690 0.000000 0.000000 
#    y 0.000000 1.806330 0.000000 
#    z 0.000000 0.000000 1.783880 
# 
# From -- ./inp_files/16259.got.cif
#   From: 2010.03.12/outbox.cif.g09.slc.cpg/sg39_9_cif.got.tgz:16259.got - 2010.04.14 02:53:20.
