data_PCOD8181809
_publ_section_title
;
Structure prediction by ZEFSAII (Michael W. Deem and Ramdas Pophale) SiO2 
 PCOD8181809
Probable space group: A B M 2
;
_chemical_formula_sum "Si O2"
_cell_formula_units_Z 64
_cell_length_a 13.788763
_cell_length_b 8.765399
_cell_length_c 27.380882
_cell_angle_alpha 90.000000
_cell_angle_beta 90.000000
_cell_angle_gamma 90.000000
_cell_volume 3309.363180
_symmetry_space_group_name_H-M "A B M 2"
_symmetry_group_IT_number 39
_symmetry_cell_setting 'orthorhombic'
loop_
_space_group_symop_operation_xyz
x,y,z
-x,-y,z
-x,1/2+y,z
x,1/2-y,z
x,1/2+y,1/2+z
-x,1/2-y,1/2+z
-x,y,1/2+z
x,-y,1/2+z
loop_
_atom_site_type_symbol
_atom_site_label
_atom_site_fract_x
_atom_site_fract_y
_atom_site_fract_z
Si Si1 0.398331 0.072766 0.191780
Si Si2 0.104769 0.572079 0.442917
Si Si3 0.774325 0.927467 0.847369
Si Si4 0.102713 0.069031 0.656101
Si Si5 0.792772 0.430338 0.745622
Si Si6 0.722814 0.429912 0.600268
Si Si7 0.274795 0.071542 0.498938
Si Si8 0.395104 0.071107 0.403978
O O1 0.415358 0.250000 0.194931
O O2 0.316449 0.021414 0.230517
O O3 0.363211 0.025150 0.137591
O O4 0.500000 0.000000 0.205898
O O5 0.100655 0.750000 0.455257
O O6 0.147301 0.541532 0.389329
O O7 0.169882 0.490168 0.483516
O O8 0.000000 0.500000 0.445648
O O9 0.761304 0.750000 0.836089
O O10 0.814385 0.013277 0.799967
O O11 0.670888 0.995786 0.862463
O O12 0.097271 0.250000 0.656631
O O13 0.130907 0.009385 0.709726
O O14 0.178976 0.014956 0.615426
O O15 0.000000 0.000000 0.640691
O O16 0.807603 0.250000 0.741383
O O17 0.742447 0.250000 0.601540
O O18 0.689199 0.484706 0.547136
O O19 0.267219 0.250000 0.509438
O O20 0.353037 0.033346 0.457336
O O21 0.399162 0.250000 0.394030
O O22 0.500000 0.000000 0.399706
#
# Coordination Sequence:
#
# PCOD8181809 Si02
#       8
#     8   8   8   8   8   8   8   8
#     4   9  20  36  55  79 108 142 179 221 267 317
#     4  10  21  37  57  81 110 143 180 224 272 323
#     4  10  21  37  57  82 111 145 185 228 276 327
#     4  11  22  38  59  83 111 144 183 227 275 327
#     4  10  21  38  57  81 113 147 184 227 274 324
#     4  10  21  38  57  81 112 144 181 226 274 324
#     4  10  21  37  57  82 110 143 183 225 272 325
#     4  10  21  37  57  81 111 146 185 230 278 329
#
# _framework density 19.339067
#
# number of rings (size 3 to 8) (size 9 to 14) (size 15 to 20)
#    0.000    2.000    0.000    4.125    0.000    8.000 
#    0.000    7.500    0.000    0.000    0.000    0.000 
#    0.000    0.000    0.000    0.000    0.000    0.000 
#
# Total GULP energy -396938.756909 kJ/mol
# GULP energy per Si atom -12404.336153 kJ/mol
# Density = 1.929505 g / cm^3
# Si number density = 19.339067 Si / 1000 Ang^3
#
#
#
# Elastic Constant Matrix: (Units=GPa)
#
#
# Indices 1 2 3 4 5 6 
#
# 1 41.5867 -2.1052 -36.3889 0.0000 0.0000 0.0000
# 2 -2.1052 79.3120 4.6427 0.0000 0.0000 0.0000
# 3 -36.3889 4.6427 51.7540 0.0000 0.0000 0.0000
# 4 0.0000 0.0000 0.0000 35.4214 0.0000 0.0000
# 5 0.0000 0.0000 0.0000 0.0000 11.6236 0.0000
# 6 0.0000 0.0000 0.0000 0.0000 0.0000 34.0023
#
#
#
# Elastic Compliance Matrix: (Units=1/GPa)
#
#
# Indices 1 2 3 4 5 6 
#
# 1 0.062562 -0.000919 0.044070 0.000000 0.000000 0.000000
# 2 -0.000919 0.012688 -0.001785 0.000000 0.000000 0.000000
# 3 0.044070 -0.001785 0.050469 0.000000 0.000000 0.000000
# 4 0.000000 0.000000 0.000000 0.028232 0.000000 0.000000
# 5 0.000000 0.000000 0.000000 0.000000 0.086032 0.000000
# 6 0.000000 0.000000 0.000000 0.000000 0.000000 0.029410
#
#
# Mechanical properties :
#
#
# Convention : Reuss Voigt Hill
#
# Bulk Modulus (GPa) = 4.79726 11.66111 8.22919
# Shear Modulus (GPa) = 19.52036 29.97639 24.74837
#
# Velocity S-wave (km/s) = 3.18051 3.94133 3.58118
# Velocity P-wave (km/s) = 3.99669 5.17253 4.62215
#
# Compressibility (1/GPa) = 0.20845223
#
# Stress axis : x y z
#
# Youngs Moduli (GPa) = 15.98421 78.81154 19.81428
#
# Poissons Ratio (x) = 0.07244 -0.87322
# Poissons Ratio (y) = 0.01469 0.03536
# Poissons Ratio (z) = -0.70443 0.14064
#
# Static dielectric constant tensor:
#      x y z
#    x 3.565030 0.000000 0.000000 
#    y 0.000000 3.631170 0.000000 
#    z 0.000000 0.000000 3.569190 
# 
# 
# High freq. dielectric constant tensor:
#      x y z
#    x 1.750390 0.000000 0.000000 
#    y 0.000000 1.767330 0.000000 
#    z 0.000000 0.000000 1.754720 
# 
# From -- ./inp_files/17870.got.cif
#   From: 2010.03.12/outbox.cif.g09.slc.cpg/sg39_9_cif.got.tgz:17870.got - 2010.04.14 02:53:20.
