data_PCOD8181731
_publ_section_title
;
Structure prediction by ZEFSAII (Michael W. Deem and Ramdas Pophale) SiO2 
 PCOD8181731
Probable space group: A B M 2
;
_chemical_formula_sum "Si O2"
_cell_formula_units_Z 48
_cell_length_a 9.149880
_cell_length_b 18.086580
_cell_length_c 13.739041
_cell_angle_alpha 90.000000
_cell_angle_beta 90.000000
_cell_angle_gamma 90.000000
_cell_volume 2273.674398
_symmetry_space_group_name_H-M "A B M 2"
_symmetry_group_IT_number 39
_symmetry_cell_setting 'orthorhombic'
loop_
_space_group_symop_operation_xyz
x,y,z
-x,-y,z
-x,1/2+y,z
x,1/2-y,z
x,1/2+y,1/2+z
-x,1/2-y,1/2+z
-x,y,1/2+z
x,-y,1/2+z
loop_
_atom_site_type_symbol
_atom_site_label
_atom_site_fract_x
_atom_site_fract_y
_atom_site_fract_z
Si Si1 0.613669 0.834798 0.633660
Si Si2 0.892607 0.665121 0.751301
Si Si3 0.106579 0.066932 0.138492
Si Si4 0.779512 0.835220 0.962699
Si Si5 0.446755 0.334586 0.419868
Si Si6 0.602535 0.567549 0.242106
O O1 0.580674 0.750000 0.660258
O O2 0.750146 0.864996 0.694645
O O3 0.645264 0.844327 0.519038
O O4 0.470069 0.880386 0.660931
O O5 0.917188 0.750000 0.723130
O O6 0.875788 0.654510 0.866234
O O7 0.031942 0.620519 0.716245
O O8 0.248589 0.036449 0.195267
O O9 0.150335 0.111552 0.042404
O O10 0.000000 0.000000 0.108632
O O11 0.783179 0.750000 0.999024
O O12 0.614092 0.858727 0.937982
O O13 0.442600 0.250000 0.383128
O O14 0.369734 0.385755 0.340048
O O15 0.500000 0.500000 0.270490
#
# Coordination Sequence:
#
# PCOD8181731 Si02
#       6
#     8   8   8   8   8   8
#     4  10  20  40  69  97 127 164 215 276 329 389
#     4  10  22  42  68  97 134 168 208 271 336 395
#     4  12  27  44  63  95 138 179 218 265 328 407
#     4  10  21  42  70  98 128 169 222 276 330 384
#     4  10  21  40  71 103 124 163 225 282 329 383
#     4  12  25  42  64  94 130 173 222 270 326 388
#
# _framework density 21.111201999999999
#
# number of rings (size 3 to 8) (size 9 to 14) (size 15 to 20)
#    0.000    1.333    3.333    2.000    0.000    4.667 
#    3.000    3.333    0.000    0.000    0.000    0.000 
#    0.000    0.000    0.000    0.000    0.000    0.000 
#
# Total GULP energy -297690.722872 kJ/mol
# GULP energy per Si atom -12403.780120 kJ/mol
# Density = 2.106315 g / cm^3
# Si number density = 21.111202 Si / 1000 Ang^3
#
#
#
# Elastic Constant Matrix: (Units=GPa)
#
#
# Indices 1 2 3 4 5 6 
#
# 1 90.1845 38.3683 35.5286 0.0000 0.0000 0.0000
# 2 38.3683 85.4725 47.7600 0.0000 0.0000 0.0000
# 3 35.5286 47.7600 115.1043 0.0000 0.0000 0.0000
# 4 0.0000 0.0000 0.0000 9.3209 0.0000 0.0000
# 5 0.0000 0.0000 0.0000 0.0000 30.4602 0.0000
# 6 0.0000 0.0000 0.0000 0.0000 0.0000 29.4257
#
#
#
# Elastic Compliance Matrix: (Units=1/GPa)
#
#
# Indices 1 2 3 4 5 6 
#
# 1 0.014141 -0.005089 -0.002253 0.000000 0.000000 0.000000
# 2 -0.005089 0.017062 -0.005509 0.000000 0.000000 0.000000
# 3 -0.002253 -0.005509 0.011669 0.000000 0.000000 0.000000
# 4 0.000000 0.000000 0.000000 0.107286 0.000000 0.000000
# 5 0.000000 0.000000 0.000000 0.000000 0.032830 0.000000
# 6 0.000000 0.000000 0.000000 0.000000 0.000000 0.033984
#
#
# Mechanical properties :
#
#
# Convention : Reuss Voigt Hill
#
# Bulk Modulus (GPa) = 58.23981 59.34167 58.79074
# Shear Modulus (GPa) = 20.12902 25.11498 22.62200
#
# Velocity S-wave (km/s) = 3.09119 3.45287 3.27703
# Velocity P-wave (km/s) = 6.35513 6.63827 6.49824
#
# Compressibility (1/GPa) = 0.01717038
#
# Stress axis : x y z
#
# Youngs Moduli (GPa) = 70.71602 58.60910 85.69646
#
# Poissons Ratio (x) = 0.29825 0.19311
# Poissons Ratio (y) = 0.35985 0.47209
# Poissons Ratio (z) = 0.15935 0.32287
#
# Static dielectric constant tensor:
#      x y z
#    x 3.765410 0.000000 0.000000 
#    y 0.000000 3.781320 0.000000 
#    z 0.000000 0.000000 3.825370 
# 
# 
# High freq. dielectric constant tensor:
#      x y z
#    x 1.817710 0.000000 0.000000 
#    y 0.000000 1.826850 0.000000 
#    z 0.000000 0.000000 1.836450 
# 
# From -- ./inp_files/8325.got.cif
#   From: 2010.03.12/outbox.cif.g09.slc.cpg/sg39_5_cif.got.tgz:8325.got - 2010.04.14 02:53:20.
