data_PCOD8181098
_publ_section_title
;
Structure prediction by ZEFSAII (Michael W. Deem and Ramdas Pophale) SiO2 
 PCOD8181098
Probable space group: A B M 2
;
_chemical_formula_sum "Si O2"
_cell_formula_units_Z 64
_cell_length_a 12.447458
_cell_length_b 17.932882
_cell_length_c 14.559066
_cell_angle_alpha 90.000000
_cell_angle_beta 90.000000
_cell_angle_gamma 90.000000
_cell_volume 3249.857176
_symmetry_space_group_name_H-M "A B M 2"
_symmetry_group_IT_number 39
_symmetry_cell_setting 'orthorhombic'
loop_
_space_group_symop_operation_xyz
x,y,z
-x,-y,z
-x,1/2+y,z
x,1/2-y,z
x,1/2+y,1/2+z
-x,1/2-y,1/2+z
-x,y,1/2+z
x,-y,1/2+z
loop_
_atom_site_type_symbol
_atom_site_label
_atom_site_fract_x
_atom_site_fract_y
_atom_site_fract_z
Si Si1 0.324442 0.338096 0.911790
Si Si2 0.400435 0.838526 0.214439
Si Si3 0.391429 0.838668 0.608679
Si Si4 0.956531 0.832224 0.705202
Si Si5 0.806172 0.164018 0.727743
Si Si6 0.776336 0.333902 0.069637
Si Si7 0.103231 0.591143 0.381955
Si Si8 0.137532 0.418434 0.407572
O O1 0.330217 0.250000 0.907782
O O2 0.378175 0.370899 0.817578
O O3 0.198794 0.358945 0.922711
O O4 0.389124 0.367233 0.002347
O O5 0.406293 0.750000 0.221589
O O6 0.508707 0.871080 0.167712
O O7 0.304564 0.863126 0.147385
O O8 0.397557 0.750000 0.607599
O O9 0.283731 0.866645 0.658664
O O10 0.944166 0.750000 0.752292
O O11 0.895484 0.833616 0.609834
O O12 0.908117 0.894290 0.773028
O O13 0.079624 0.847129 0.678134
O O14 0.784127 0.250000 0.754244
O O15 0.806202 0.115215 0.818645
O O16 0.744419 0.250000 0.036254
O O17 0.781142 0.392402 0.987089
O O18 0.136331 0.506701 0.399835
O O19 0.985180 0.610900 0.423713
#
# Coordination Sequence:
#
# PCOD8181098 Si02
#       8
#     8   8   8   8   8   8   8   8
#     4  10  19  34  58  82 107 144 185 235 278 325
#     4   9  18  34  56  83 111 141 184 232 280 329
#     4   9  19  33  54  86 112 139 184 230 280 329
#     4   9  17  32  56  82 107 140 185 234 281 327
#     4   9  18  34  53  79 113 143 177 228 279 326
#     4  10  19  33  56  84 110 143 184 230 279 330
#     4  10  20  37  52  77 113 149 189 225 273 337
#     4  10  22  35  51  82 116 151 183 225 282 335
#
# _framework density 19.693172000000001
#
# number of rings (size 3 to 8) (size 9 to 14) (size 15 to 20)
#    0.000    2.500    1.250    0.750    1.750    2.500 
#    2.250    5.000    0.000    4.500    0.000    0.000 
#    0.000    0.000    0.000    0.000    0.000    0.000 
#
# Total GULP energy -396562.063198 kJ/mol
# GULP energy per Si atom -12392.564475 kJ/mol
# Density = 1.964835 g / cm^3
# Si number density = 19.693172 Si / 1000 Ang^3
#
#
#
# Elastic Constant Matrix: (Units=GPa)
#
#
# Indices 1 2 3 4 5 6 
#
# 1 116.3293 17.2910 76.1814 0.0000 0.0000 0.0000
# 2 17.2910 35.6309 34.6296 0.0000 0.0000 0.0000
# 3 76.1814 34.6296 142.0609 0.0000 0.0000 0.0000
# 4 0.0000 0.0000 0.0000 -0.1150 0.0000 0.0000
# 5 0.0000 0.0000 0.0000 0.0000 27.4053 0.0000
# 6 0.0000 0.0000 0.0000 0.0000 0.0000 15.0670
#
#
#
# Elastic Compliance Matrix: (Units=1/GPa)
#
#
# Indices 1 2 3 4 5 6 
#
# 1 0.013260 0.000624 -0.007263 0.000000 0.000000 0.000000
# 2 0.000624 0.036808 -0.009307 0.000000 0.000000 0.000000
# 3 -0.007263 -0.009307 0.013203 0.000000 0.000000 0.000000
# 4 0.000000 0.000000 0.000000 -8.696853 0.000000 0.000000
# 5 0.000000 0.000000 0.000000 0.000000 0.036489 0.000000
# 6 0.000000 0.000000 0.000000 0.000000 0.000000 0.066370
#
#
# Mechanical properties :
#
#
# Convention : Reuss Voigt Hill
#
# Bulk Modulus (GPa) = 31.86860 61.13612 46.50236
# Shear Modulus (GPa) = -0.58904 19.53271 9.47184
#
# Velocity S-wave (km/s) = -0.54750 3.15279 2.19548
# Velocity P-wave (km/s) = 3.97719 6.66071 5.48558
#
# Compressibility (1/GPa) = 0.03137885
#
# Stress axis : x y z
#
# Youngs Moduli (GPa) = 75.41604 27.16769 75.74175
#
# Poissons Ratio (x) = -0.01695 0.55010
# Poissons Ratio (y) = -0.04706 0.70495
# Poissons Ratio (z) = 0.54773 0.25286
#
# Static dielectric constant tensor:
#      x y z
#    x 3.729890 0.000000 0.000000 
#    y 0.000000 3.252270 0.000000 
#    z 0.000000 0.000000 3.683440 
# 
# 
# High freq. dielectric constant tensor:
#      x y z
#    x 1.767650 0.000000 0.000000 
#    y 0.000000 1.723230 0.000000 
#    z 0.000000 0.000000 1.765930 
# 
# From -- ./inp_files/9474.got.cif
#   From: 2010.03.12/outbox.cif.g09.slc.cpg/sg39_5_cif.got.tgz:9474.got - 2010.04.14 02:53:20.
