data_PCOD8181097
_publ_section_title
;
Structure prediction by ZEFSAII (Michael W. Deem and Ramdas Pophale) SiO2 
 PCOD8181097
Probable space group: A B M 2
;
_chemical_formula_sum "Si O2"
_cell_formula_units_Z 64
_cell_length_a 21.356618
_cell_length_b 9.288135
_cell_length_c 16.141990
_cell_angle_alpha 90.000000
_cell_angle_beta 90.000000
_cell_angle_gamma 90.000000
_cell_volume 3201.976002
_symmetry_space_group_name_H-M "A B M 2"
_symmetry_group_IT_number 39
_symmetry_cell_setting 'orthorhombic'
loop_
_space_group_symop_operation_xyz
x,y,z
-x,-y,z
-x,1/2+y,z
x,1/2-y,z
x,1/2+y,1/2+z
-x,1/2-y,1/2+z
-x,y,1/2+z
x,-y,1/2+z
loop_
_atom_site_type_symbol
_atom_site_label
_atom_site_fract_x
_atom_site_fract_y
_atom_site_fract_z
Si Si1 0.359336 0.082263 0.243320
Si Si2 0.859270 0.592991 0.603896
Si Si3 0.178245 0.588965 0.380623
Si Si4 0.214314 0.918338 0.733285
Si Si5 0.058967 0.586182 0.497621
Si Si6 0.435732 0.080332 0.407054
Si Si7 0.627118 0.416221 0.080138
Si Si8 0.749743 0.904782 0.490714
O O1 0.369317 0.250000 0.226549
O O2 0.286407 0.041413 0.249284
O O3 0.390037 0.035869 0.330950
O O4 0.391096 0.002961 0.163627
O O5 0.877416 0.750000 0.643824
O O6 0.810457 0.496688 0.652991
O O7 0.920740 0.499948 0.581159
O O8 0.819750 0.625341 0.521871
O O9 0.192061 0.750000 0.348940
O O10 0.169658 0.479201 0.305352
O O11 0.114808 0.586894 0.432386
O O12 0.241850 0.536823 0.427623
O O13 0.203633 0.750000 0.723315
O O14 0.040125 0.750000 0.520462
O O15 0.000000 0.500000 0.459452
O O16 0.447430 0.250000 0.406812
O O17 0.408572 0.031051 0.496633
O O18 0.500000 0.000000 0.390912
O O19 0.612159 0.250000 0.098190
O O20 0.700677 0.444053 0.062650
O O21 0.727355 0.750000 0.448880
#
# Coordination Sequence:
#
# PCOD8181097 Si02
#       8
#     8   8   8   8   8   8   8   8
#     4  10  22  39  61  88 121 157 197 247 303 362
#     4  10  19  33  56  83 113 146 183 228 282 343
#     4  10  21  34  53  81 113 147 187 235 286 344
#     4  11  21  35  56  84 118 149 184 234 296 355
#     4  10  21  38  58  81 110 148 194 239 284 339
#     4  10  23  42  60  82 117 159 203 251 299 357
#     4  10  20  37  61  87 116 152 195 243 299 361
#     4   9  17  32  54  80 110 142 178 223 284 348
#
# _framework density 19.987659000000001
#
# number of rings (size 3 to 8) (size 9 to 14) (size 15 to 20)
#    0.000    2.000    1.250    2.250    0.000    6.500 
#    0.000    4.375    0.000    1.500    0.000    0.000 
#    0.000    0.000    0.000    0.000    0.000    0.000 
#
# Total GULP energy -396492.874345 kJ/mol
# GULP energy per Si atom -12390.402323 kJ/mol
# Density = 1.994217 g / cm^3
# Si number density = 19.987659 Si / 1000 Ang^3
#
#
#
# Elastic Constant Matrix: (Units=GPa)
#
#
# Indices 1 2 3 4 5 6 
#
# 1 66.6737 46.8807 31.4680 0.0000 0.0000 0.0000
# 2 46.8807 127.9245 55.4586 0.0000 0.0000 0.0000
# 3 31.4680 55.4586 100.1635 0.0000 0.0000 0.0000
# 4 0.0000 0.0000 0.0000 35.8869 0.0000 0.0000
# 5 0.0000 0.0000 0.0000 0.0000 16.7442 0.0000
# 6 0.0000 0.0000 0.0000 0.0000 0.0000 26.9943
#
#
#
# Elastic Compliance Matrix: (Units=1/GPa)
#
#
# Indices 1 2 3 4 5 6 
#
# 1 0.020893 -0.006331 -0.003059 0.000000 0.000000 0.000000
# 2 -0.006331 0.012204 -0.004768 0.000000 0.000000 0.000000
# 3 -0.003059 -0.004768 0.013585 0.000000 0.000000 0.000000
# 4 0.000000 0.000000 0.000000 0.027865 0.000000 0.000000
# 5 0.000000 0.000000 0.000000 0.000000 0.059722 0.000000
# 6 0.000000 0.000000 0.000000 0.000000 0.000000 0.037045
#
#
# Mechanical properties :
#
#
# Convention : Reuss Voigt Hill
#
# Bulk Modulus (GPa) = 54.44637 62.48625 58.46631
# Shear Modulus (GPa) = 24.30096 26.65538 25.47817
#
# Velocity S-wave (km/s) = 3.49061 3.65580 3.57416
# Velocity P-wave (km/s) = 6.59886 7.01071 6.80790
#
# Compressibility (1/GPa) = 0.01836670
#
# Stress axis : x y z
#
# Youngs Moduli (GPa) = 47.86179 81.93758 73.61152
#
# Poissons Ratio (x) = 0.51873 0.22516
# Poissons Ratio (y) = 0.30300 0.35101
# Poissons Ratio (z) = 0.14640 0.39071
#
# Static dielectric constant tensor:
#      x y z
#    x 3.455990 0.000000 0.000000 
#    y 0.000000 3.916480 0.000000 
#    z 0.000000 0.000000 3.626090 
# 
# 
# High freq. dielectric constant tensor:
#      x y z
#    x 1.762290 0.000000 0.000000 
#    y 0.000000 1.789080 0.000000 
#    z 0.000000 0.000000 1.770310 
# 
# From -- ./inp_files/13205.got.cif
#   From: 2010.03.12/outbox.cif.g09.slc.cpg/sg39_7_cif.got.tgz:13205.got - 2010.04.14 02:53:20.
