data_PCOD8181401
_publ_section_title
;
Structure prediction by ZEFSAII (Michael W. Deem and Ramdas Pophale) SiO2 
 PCOD8181401
Probable space group: A B M 2
;
_chemical_formula_sum "Si O2"
_cell_formula_units_Z 64
_cell_length_a 14.557475
_cell_length_b 8.961383
_cell_length_c 24.594367
_cell_angle_alpha 90.000000
_cell_angle_beta 90.000000
_cell_angle_gamma 90.000000
_cell_volume 3208.460827
_symmetry_space_group_name_H-M "A B M 2"
_symmetry_group_IT_number 39
_symmetry_cell_setting 'orthorhombic'
loop_
_space_group_symop_operation_xyz
x,y,z
-x,-y,z
-x,1/2+y,z
x,1/2-y,z
x,1/2+y,1/2+z
-x,1/2-y,1/2+z
-x,y,1/2+z
x,-y,1/2+z
loop_
_atom_site_type_symbol
_atom_site_label
_atom_site_fract_x
_atom_site_fract_y
_atom_site_fract_z
Si Si1 0.230585 0.925877 0.637190
Si Si2 0.779080 0.575356 0.936347
Si Si3 0.406764 0.926640 0.178653
Si Si4 0.408428 0.573580 0.910843
Si Si5 0.366810 0.416526 0.289354
Si Si6 0.088289 0.422458 0.223547
Si Si7 0.900193 0.425617 0.538581
Si Si8 0.832521 0.416147 0.832308
O O1 0.251827 0.750000 0.634707
O O2 0.178830 0.975676 0.692095
O O3 0.167017 0.976945 0.587037
O O4 0.326569 0.013334 0.639094
O O5 0.757926 0.750000 0.938449
O O6 0.682028 0.489780 0.940731
O O7 0.830852 0.535813 0.880279
O O8 0.847926 0.525079 0.983752
O O9 0.411644 0.750000 0.173985
O O10 0.500000 0.000000 0.156220
O O11 0.395077 0.970360 0.242106
O O12 0.500000 0.500000 0.936704
O O13 0.409202 0.750000 0.919646
O O14 0.408127 0.530760 0.847046
O O15 0.401750 0.250000 0.273663
O O16 0.258205 0.413855 0.295819
O O17 0.075141 0.250000 0.212291
O O18 0.091007 0.460294 0.287989
O O19 0.000000 0.500000 0.197491
O O20 0.916770 0.250000 0.540360
O O21 0.000000 0.500000 0.542528
O O22 0.848655 0.250000 0.856996
#
# Coordination Sequence:
#
# PCOD8181401 Si02
#       8
#     8   8   8   8   8   8   8   8
#     4  10  21  42  63  82 115 152 190 244 294 342
#     4  10  21  37  57  86 118 151 194 243 291 343
#     4  12  24  36  56  86 118 155 196 237 287 346
#     4  10  20  34  55  84 118 159 199 239 287 343
#     4   9  17  33  54  78 114 156 198 236 282 338
#     4  10  20  34  55  82 114 149 187 232 288 348
#     4  10  23  42  67  91 114 149 195 245 298 349
#     4   9  18  34  54  79 114 158 193 231 289 343
#
# _framework density 19.947258000000001
#
# number of rings (size 3 to 8) (size 9 to 14) (size 15 to 20)
#    0.000    2.000    1.250    3.375    0.000    6.500 
#    0.000    3.125    0.000    0.000    0.000    0.000 
#    0.000    0.000    0.000    0.000    0.000    0.000 
#
# Total GULP energy -396711.866669 kJ/mol
# GULP energy per Si atom -12397.245833 kJ/mol
# Density = 1.990186 g / cm^3
# Si number density = 19.947258 Si / 1000 Ang^3
#
#
#
# Elastic Constant Matrix: (Units=GPa)
#
#
# Indices 1 2 3 4 5 6 
#
# 1 148.3889 67.7809 61.1562 0.0000 0.0000 0.0000
# 2 67.7809 91.6082 45.4410 0.0000 0.0000 0.0000
# 3 61.1562 45.4410 87.8718 0.0000 0.0000 0.0000
# 4 0.0000 0.0000 0.0000 23.9819 0.0000 0.0000
# 5 0.0000 0.0000 0.0000 0.0000 4.6230 0.0000
# 6 0.0000 0.0000 0.0000 0.0000 0.0000 36.9590
#
#
#
# Elastic Compliance Matrix: (Units=1/GPa)
#
#
# Indices 1 2 3 4 5 6 
#
# 1 0.011543 -0.006127 -0.004865 0.000000 0.000000 0.000000
# 2 -0.006127 0.017935 -0.005010 0.000000 0.000000 0.000000
# 3 -0.004865 -0.005010 0.017357 0.000000 0.000000 0.000000
# 4 0.000000 0.000000 0.000000 0.041698 0.000000 0.000000
# 5 0.000000 0.000000 0.000000 0.000000 0.216308 0.000000
# 6 0.000000 0.000000 0.000000 0.000000 0.000000 0.027057
#
#
# Mechanical properties :
#
#
# Convention : Reuss Voigt Hill
#
# Bulk Modulus (GPa) = 67.43146 75.18058 71.30602
# Shear Modulus (GPa) = 13.55580 23.34552 18.45066
#
# Velocity S-wave (km/s) = 2.60971 3.42477 3.04464
# Velocity P-wave (km/s) = 6.55431 7.30823 6.94151
#
# Compressibility (1/GPa) = 0.01482987
#
# Stress axis : x y z
#
# Youngs Moduli (GPa) = 86.63321 55.75693 57.61399
#
# Poissons Ratio (x) = 0.34165 0.28028
# Poissons Ratio (y) = 0.53084 0.28865
# Poissons Ratio (z) = 0.42146 0.27935
#
# Static dielectric constant tensor:
#      x y z
#    x 3.750570 0.000000 0.000000 
#    y 0.000000 3.484720 0.000000 
#    z 0.000000 0.000000 3.538250 
# 
# 
# High freq. dielectric constant tensor:
#      x y z
#    x 1.789350 0.000000 0.000000 
#    y 0.000000 1.770470 0.000000 
#    z 0.000000 0.000000 1.758830 
# 
# From -- ./inp_files/16222.got.cif
#   From: 2010.03.12/outbox.cif.g09.slc.cpg/sg39_9_cif.got.tgz:16222.got - 2010.04.14 02:53:20.
