data_PCOD8181495
_publ_section_title
;
Structure prediction by ZEFSAII (Michael W. Deem and Ramdas Pophale) SiO2 
 PCOD8181495
Probable space group: A B M 2
;
_chemical_formula_sum "Si O2"
_cell_formula_units_Z 64
_cell_length_a 23.939711
_cell_length_b 8.617968
_cell_length_c 15.211313
_cell_angle_alpha 90.000000
_cell_angle_beta 90.000000
_cell_angle_gamma 90.000000
_cell_volume 3138.271286
_symmetry_space_group_name_H-M "A B M 2"
_symmetry_group_IT_number 39
_symmetry_cell_setting 'orthorhombic'
loop_
_space_group_symop_operation_xyz
x,y,z
-x,-y,z
-x,1/2+y,z
x,1/2-y,z
x,1/2+y,1/2+z
-x,1/2-y,1/2+z
-x,y,1/2+z
x,-y,1/2+z
loop_
_atom_site_type_symbol
_atom_site_label
_atom_site_fract_x
_atom_site_fract_y
_atom_site_fract_z
Si Si1 0.558481 0.933122 0.157850
Si Si2 0.235967 0.068808 0.011743
Si Si3 0.941565 0.428555 0.401930
Si Si4 0.941614 0.571396 0.109591
Si Si5 0.829365 0.569276 0.671701
Si Si6 0.558854 0.432841 0.855811
Si Si7 0.171952 0.930585 0.851605
Si Si8 0.364348 0.932411 0.501545
O O1 0.554050 0.750000 0.157026
O O2 0.571596 0.992855 0.256611
O O3 0.500000 0.000000 0.123555
O O4 0.606514 0.991018 0.091462
O O5 0.228642 0.250000 0.033102
O O6 0.207928 0.970178 0.088116
O O7 0.300141 0.018350 0.005937
O O8 0.206473 0.032353 0.920162
O O9 0.937956 0.250000 0.372518
O O10 0.934408 0.445967 0.505770
O O11 0.893297 0.526515 0.355431
O O12 0.000000 0.500000 0.370146
O O13 0.937638 0.750000 0.138832
O O14 0.893564 0.473683 0.155680
O O15 0.000000 0.500000 0.141349
O O16 0.825049 0.750000 0.692745
O O17 0.805814 0.473098 0.754684
O O18 0.500000 0.500000 0.889919
O O19 0.554423 0.250000 0.858610
O O20 0.609017 0.486889 0.917105
O O21 0.181026 0.750000 0.871514
O O22 0.371687 0.750000 0.489753
#
# Coordination Sequence:
#
# PCOD8181495 Si02
#       8
#     8   8   8   8   8   8   8   8
#     4   9  19  36  57  86 121 158 194 237 290 346
#     4  11  24  44  64  88 123 161 204 257 311 365
#     4  10  20  36  61  91 125 158 196 245 303 367
#     4  10  20  36  61  91 125 159 196 245 303 365
#     4  12  25  42  65  91 121 159 205 253 307 369
#     4  10  20  35  58  88 124 160 200 244 294 352
#     4  12  25  42  65  90 120 160 206 254 308 366
#     4  10  22  39  61  87 119 157 199 247 299 354
#
# _framework density 20.393393
#
# number of rings (size 3 to 8) (size 9 to 14) (size 15 to 20)
#    0.000    1.500    1.250    4.125    0.000    5.500 
#    0.000    3.750    0.000    0.000    0.000    0.000 
#    0.000    0.000    0.000    0.000    0.000    0.000 
#
# Total GULP energy -396984.475427 kJ/mol
# GULP energy per Si atom -12405.764857 kJ/mol
# Density = 2.034698 g / cm^3
# Si number density = 20.393393 Si / 1000 Ang^3
#
#
#
# Elastic Constant Matrix: (Units=GPa)
#
#
# Indices 1 2 3 4 5 6 
#
# 1 131.3991 29.5273 55.0303 0.0000 0.0000 0.0000
# 2 29.5273 69.0306 16.2805 0.0000 0.0000 0.0000
# 3 55.0303 16.2805 97.4880 0.0000 0.0000 0.0000
# 4 0.0000 0.0000 0.0000 25.6924 0.0000 0.0000
# 5 0.0000 0.0000 0.0000 0.0000 -16.3826 0.0000
# 6 0.0000 0.0000 0.0000 0.0000 0.0000 31.7766
#
#
#
# Elastic Compliance Matrix: (Units=1/GPa)
#
#
# Indices 1 2 3 4 5 6 
#
# 1 0.010627 -0.003259 -0.005455 0.000000 0.000000 0.000000
# 2 -0.003259 0.016080 -0.000846 0.000000 0.000000 0.000000
# 3 -0.005455 -0.000846 0.013478 0.000000 0.000000 0.000000
# 4 0.000000 0.000000 0.000000 0.038922 0.000000 0.000000
# 5 0.000000 0.000000 0.000000 0.000000 -0.061040 0.000000
# 6 0.000000 0.000000 0.000000 0.000000 0.000000 0.031470
#
#
# Mechanical properties :
#
#
# Convention : Reuss Voigt Hill
#
# Bulk Modulus (GPa) = 47.46939 55.51043 51.48991
# Shear Modulus (GPa) = 66.07011 21.35593 43.71302
#
# Velocity S-wave (km/s) = 5.69808 3.23956 4.63481
# Velocity P-wave (km/s) = 8.16200 6.42432 7.34473
#
# Compressibility (1/GPa) = 0.02106621
#
# Stress axis : x y z
#
# Youngs Moduli (GPa) = 94.09815 62.18956 74.19561
#
# Poissons Ratio (x) = 0.20269 0.40471
# Poissons Ratio (y) = 0.30669 0.06273
# Poissons Ratio (z) = 0.51327 0.05258
#
# Static dielectric constant tensor:
#      x y z
#    x 3.757870 0.000000 0.000000 
#    y 0.000000 3.677990 0.000000 
#    z 0.000000 0.000000 3.843320 
# 
# 
# High freq. dielectric constant tensor:
#      x y z
#    x 1.793030 0.000000 0.000000 
#    y 0.000000 1.801300 0.000000 
#    z 0.000000 0.000000 1.806440 
# 
# From -- ./inp_files/10684.got.cif
#   From: 2010.03.12/outbox.cif.g09.slc.cpg/sg39_6_cif.got.tgz:10684.got - 2010.04.14 02:53:20.
