data_PCOD8181797
_publ_section_title
;
Structure prediction by ZEFSAII (Michael W. Deem and Ramdas Pophale) SiO2 
 PCOD8181797
Probable space group: A B M 2
;
_chemical_formula_sum "Si O2"
_cell_formula_units_Z 64
_cell_length_a 12.358980
_cell_length_b 28.762602
_cell_length_c 8.762589
_cell_angle_alpha 90.000000
_cell_angle_beta 90.000000
_cell_angle_gamma 90.000000
_cell_volume 3114.893793
_symmetry_space_group_name_H-M "A B M 2"
_symmetry_group_IT_number 39
_symmetry_cell_setting 'orthorhombic'
loop_
_space_group_symop_operation_xyz
x,y,z
-x,-y,z
-x,1/2+y,z
x,1/2-y,z
x,1/2+y,1/2+z
-x,1/2-y,1/2+z
-x,y,1/2+z
x,-y,1/2+z
loop_
_atom_site_type_symbol
_atom_site_label
_atom_site_fract_x
_atom_site_fract_y
_atom_site_fract_z
Si Si1 0.009343 0.891018 0.420850
Si Si2 0.377456 0.599891 0.196074
Si Si3 0.355632 0.696674 0.712130
Si Si4 0.852728 0.633463 0.183051
Si Si5 0.493127 0.154053 0.954167
Si Si6 0.753311 0.533718 0.178321
Si Si7 0.855024 0.933932 0.662733
Si Si8 0.613818 0.984775 0.897717
O O1 0.086536 0.858198 0.522981
O O2 0.083756 0.925013 0.321048
O O3 0.937220 0.855949 0.318927
O O4 0.932365 0.923438 0.522012
O O5 0.405007 0.634610 0.335285
O O6 0.250166 0.600144 0.155087
O O7 0.406183 0.547899 0.250165
O O8 0.449801 0.612146 0.048084
O O9 0.320308 0.750000 0.719229
O O10 0.249891 0.665801 0.694102
O O11 0.414679 0.683104 0.868562
O O12 0.433676 0.688924 0.568537
O O13 0.825975 0.578794 0.198299
O O14 0.826133 0.488135 0.156846
O O15 0.680606 0.529011 0.332168
O O16 0.679374 0.541858 0.028874
O O17 0.500000 0.000000 0.967851
#
# Coordination Sequence:
#
# PCOD8181797 Si02
#       8
#     8   8   8   8   8   8   8   8
#     4  10  22  38  62  84 114 160 202 251 297 343
#     4  10  22  37  58  87 124 161 198 242 287 353
#     4  11  23  42  66  92 120 149 190 251 309 373
#     4  11  23  40  60  85 117 153 203 247 303 352
#     4  10  22  38  65  91 119 159 197 234 299 370
#     4  11  23  37  53  82 120 164 204 254 283 343
#     4  10  21  37  54  86 120 157 206 248 285 334
#     4  11  24  33  52  81 126 166 208 233 285 342
#
# _framework density 20.546447000000001
#
# number of rings (size 3 to 8) (size 9 to 14) (size 15 to 20)
#    0.000    1.500    0.000    5.250    8.750    3.000 
#    0.000    0.625    0.000    0.000    0.000    0.000 
#    0.000    0.000    0.000    0.000    0.000    0.000 
#
# Total GULP energy -396875.196430 kJ/mol
# GULP energy per Si atom -12402.349888 kJ/mol
# Density = 2.049968 g / cm^3
# Si number density = 20.546447 Si / 1000 Ang^3
#
#
#
# Elastic Constant Matrix: (Units=GPa)
#
#
# Indices 1 2 3 4 5 6 
#
# 1 120.8584 48.4804 40.6504 0.0000 0.0000 0.0000
# 2 48.4804 85.5518 35.9431 0.0000 0.0000 0.0000
# 3 40.6504 35.9431 91.1311 0.0000 0.0000 0.0000
# 4 0.0000 0.0000 0.0000 16.4466 0.0000 0.0000
# 5 0.0000 0.0000 0.0000 0.0000 30.1582 0.0000
# 6 0.0000 0.0000 0.0000 0.0000 0.0000 11.4248
#
#
#
# Elastic Compliance Matrix: (Units=1/GPa)
#
#
# Indices 1 2 3 4 5 6 
#
# 1 0.011367 -0.005167 -0.003032 0.000000 0.000000 0.000000
# 2 -0.005167 0.016360 -0.004147 0.000000 0.000000 0.000000
# 3 -0.003032 -0.004147 0.013962 0.000000 0.000000 0.000000
# 4 0.000000 0.000000 0.000000 0.060803 0.000000 0.000000
# 5 0.000000 0.000000 0.000000 0.000000 0.033158 0.000000
# 6 0.000000 0.000000 0.000000 0.000000 0.000000 0.087529
#
#
# Mechanical properties :
#
#
# Convention : Reuss Voigt Hill
#
# Bulk Modulus (GPa) = 58.84485 60.85434 59.84960
# Shear Modulus (GPa) = 19.72097 23.10374 21.41236
#
# Velocity S-wave (km/s) = 3.10146 3.35694 3.23173
# Velocity P-wave (km/s) = 6.44419 6.68638 6.56640
#
# Compressibility (1/GPa) = 0.01699384
#
# Stress axis : x y z
#
# Youngs Moduli (GPa) = 87.97497 61.12650 71.62522
#
# Poissons Ratio (x) = 0.31586 0.21719
# Poissons Ratio (y) = 0.45460 0.29706
# Poissons Ratio (z) = 0.26677 0.25351
#
# Static dielectric constant tensor:
#      x y z
#    x 4.011480 0.000000 0.000000 
#    y 0.000000 3.249400 0.000000 
#    z 0.000000 0.000000 4.109290 
# 
# 
# High freq. dielectric constant tensor:
#      x y z
#    x 1.821370 0.000000 0.000000 
#    y 0.000000 1.751960 0.000000 
#    z 0.000000 0.000000 1.828680 
# 
# From -- ./inp_files/2911.got.cif
#   From: 2010.03.12/outbox.cif.g09.slc.cpg/sg39_2_cif.got.tgz:2911.got - 2010.04.14 02:53:20.
