data_PCOD8181046
_publ_section_title
;
Structure prediction by ZEFSAII (Michael W. Deem and Ramdas Pophale) SiO2 
 PCOD8181046
Probable space group: A B M 2
;
_chemical_formula_sum "Si O2"
_cell_formula_units_Z 64
_cell_length_a 5.455899
_cell_length_b 26.702633
_cell_length_c 20.389796
_cell_angle_alpha 90.000000
_cell_angle_beta 90.000000
_cell_angle_gamma 90.000000
_cell_volume 2970.525532
_symmetry_space_group_name_H-M "A B M 2"
_symmetry_group_IT_number 39
_symmetry_cell_setting 'orthorhombic'
loop_
_space_group_symop_operation_xyz
x,y,z
-x,-y,z
-x,1/2+y,z
x,1/2-y,z
x,1/2+y,1/2+z
-x,1/2-y,1/2+z
-x,y,1/2+z
x,-y,1/2+z
loop_
_atom_site_type_symbol
_atom_site_label
_atom_site_fract_x
_atom_site_fract_y
_atom_site_fract_z
Si Si1 0.498559 0.691798 0.629300
Si Si2 0.251818 0.483372 0.767404
Si Si3 0.062998 0.127495 0.428414
Si Si4 0.564536 0.195036 0.866690
Si Si5 0.250330 0.022819 0.415597
Si Si6 0.785693 0.626899 0.803492
Si Si7 0.263734 0.194311 0.998203
Si Si8 0.996640 0.190228 0.197459
O O1 0.515616 0.750000 0.641989
O O2 0.470025 0.679262 0.551659
O O3 0.755536 0.669949 0.657031
O O4 0.247750 0.672016 0.663189
O O5 0.500000 0.500000 0.729510
O O6 0.252431 0.512882 0.837480
O O7 0.268726 0.423792 0.765697
O O8 0.000000 0.500000 0.730969
O O9 0.181875 0.175443 0.394107
O O10 0.252649 0.081586 0.437116
O O11 0.862888 0.108035 0.376033
O O12 0.942717 0.150099 0.495247
O O13 0.606163 0.250000 0.836150
O O14 0.461922 0.159773 0.808877
O O15 0.373585 0.197553 0.926176
O O16 0.500000 0.000000 0.446790
O O17 0.000000 0.000000 0.446564
O O18 0.988370 0.661451 0.767181
O O19 0.155254 0.250000 0.017335
O O20 0.990771 0.250000 0.207653
#
# Coordination Sequence:
#
# PCOD8181046 Si02
#       8
#     8   8   8   8   8   8   8   8
#     4   9  20  39  58  78 109 151 202 245 273 324
#     4  10  19  33  53  77 110 143 186 230 275 332
#     4  11  21  33  56  84 117 153 187 240 292 359
#     4  10  21  33  51  81 121 157 183 221 287 356
#     4  10  19  34  52  76 112 147 185 227 277 338
#     4  11  22  35  53  83 121 150 190 234 290 359
#     4   9  20  36  55  82 114 153 199 241 285 339
#     4  10  22  37  57  82 113 155 194 236 286 337
#
# _framework density 21.545010000000001
#
# number of rings (size 3 to 8) (size 9 to 14) (size 15 to 20)
#    0.000    2.000    2.500    2.250    5.250    1.500 
#    0.000    0.000    0.000    0.000    0.000    3.500 
#    0.000    0.000    0.000    0.000    0.000    0.000 
#
# Total GULP energy -396461.206676 kJ/mol
# GULP energy per Si atom -12389.412709 kJ/mol
# Density = 2.149597 g / cm^3
# Si number density = 21.545010 Si / 1000 Ang^3
#
#
#
# Elastic Constant Matrix: (Units=GPa)
#
#
# Indices 1 2 3 4 5 6 
#
# 1 133.8546 25.6401 4.5698 0.0000 0.0000 0.0000
# 2 25.6401 99.9824 8.4327 0.0000 0.0000 0.0000
# 3 4.5698 8.4327 32.0592 0.0000 0.0000 0.0000
# 4 0.0000 0.0000 0.0000 10.3528 0.0000 0.0000
# 5 0.0000 0.0000 0.0000 0.0000 16.3514 0.0000
# 6 0.0000 0.0000 0.0000 0.0000 0.0000 25.0792
#
#
#
# Elastic Compliance Matrix: (Units=1/GPa)
#
#
# Indices 1 2 3 4 5 6 
#
# 1 0.007868 -0.001967 -0.000604 0.000000 0.000000 0.000000
# 2 -0.001967 0.010720 -0.002539 0.000000 0.000000 0.000000
# 3 -0.000604 -0.002539 0.031946 0.000000 0.000000 0.000000
# 4 0.000000 0.000000 0.000000 0.096592 0.000000 0.000000
# 5 0.000000 0.000000 0.000000 0.000000 0.061157 0.000000
# 6 0.000000 0.000000 0.000000 0.000000 0.000000 0.039874
#
#
# Mechanical properties :
#
#
# Convention : Reuss Voigt Hill
#
# Bulk Modulus (GPa) = 24.80531 38.13126 31.46829
# Shear Modulus (GPa) = 18.39477 25.50693 21.95085
#
# Velocity S-wave (km/s) = 2.92513 3.44450 3.19539
# Velocity P-wave (km/s) = 4.79028 5.79278 5.31522
#
# Compressibility (1/GPa) = 0.04031394
#
# Stress axis : x y z
#
# Youngs Moduli (GPa) = 127.09445 93.28075 31.30239
#
# Poissons Ratio (x) = 0.18346 0.01891
# Poissons Ratio (y) = 0.24997 0.07949
# Poissons Ratio (z) = 0.07679 0.23688
#
# Static dielectric constant tensor:
#      x y z
#    x 4.438020 0.000000 0.000000 
#    y 0.000000 3.851350 0.000000 
#    z 0.000000 0.000000 3.445450 
# 
# 
# High freq. dielectric constant tensor:
#      x y z
#    x 1.862910 0.000000 0.000000 
#    y 0.000000 1.833960 0.000000 
#    z 0.000000 0.000000 1.780970 
# 
# From -- ./inp_files/13647.got.cif
#   From: 2010.03.12/outbox.cif.g09.slc.cpg/sg39_7_cif.got.tgz:13647.got - 2010.04.14 02:53:20.
