data_PCOD8181806
_publ_section_title
;
Structure prediction by ZEFSAII (Michael W. Deem and Ramdas Pophale) SiO2 
 PCOD8181806
Probable space group: A B M 2
;
_chemical_formula_sum "Si O2"
_cell_formula_units_Z 64
_cell_length_a 20.048440
_cell_length_b 16.545066
_cell_length_c 9.327027
_cell_angle_alpha 90.000000
_cell_angle_beta 90.000000
_cell_angle_gamma 90.000000
_cell_volume 3093.800626
_symmetry_space_group_name_H-M "A B M 2"
_symmetry_group_IT_number 39
_symmetry_cell_setting 'orthorhombic'
loop_
_space_group_symop_operation_xyz
x,y,z
-x,-y,z
-x,1/2+y,z
x,1/2-y,z
x,1/2+y,1/2+z
-x,1/2-y,1/2+z
-x,y,1/2+z
x,-y,1/2+z
loop_
_atom_site_type_symbol
_atom_site_label
_atom_site_fract_x
_atom_site_fract_y
_atom_site_fract_z
Si Si1 0.462437 0.085504 0.078830
Si Si2 0.933009 0.656391 0.209405
Si Si3 0.343842 0.654706 0.743765
Si Si4 0.939999 0.155570 0.042688
Si Si5 0.670732 0.843182 0.564293
Si Si6 0.563338 0.842501 0.776300
Si Si7 0.204600 0.081418 0.219108
Si Si8 0.804521 0.423169 0.050396
O O1 0.388514 0.094361 0.147312
O O2 0.504785 0.154658 0.158500
O O3 0.500000 0.000000 0.104159
O O4 0.456223 0.101951 0.910184
O O5 0.927944 0.750000 0.175185
O O6 0.947472 0.639417 0.374932
O O7 0.863277 0.619523 0.156581
O O8 0.994439 0.619333 0.119205
O O9 0.360793 0.750000 0.722404
O O10 0.353914 0.624855 0.908615
O O11 0.266274 0.642837 0.700389
O O12 0.930312 0.250000 0.076627
O O13 0.875763 0.109001 0.105606
O O14 0.653815 0.750000 0.566659
O O15 0.628884 0.880434 0.697262
O O16 0.749306 0.855548 0.584772
O O17 0.573637 0.750000 0.827453
O O18 0.192578 0.057725 0.383010
O O19 0.220352 0.001783 0.131248
#
# Coordination Sequence:
#
# PCOD8181806 Si02
#       8
#     8   8   8   8   8   8   8   8
#     4  12  26  42  63  92 124 156 196 249 307 362
#     4   9  18  35  57  84 113 152 204 250 296 352
#     4  10  21  42  68  91 118 158 204 251 305 365
#     4   9  18  34  58  83 115 156 201 250 298 353
#     4   9  20  39  66  90 116 155 204 252 299 360
#     4  11  23  42  65  89 120 159 201 245 298 369
#     4  10  22  37  58  85 120 159 197 248 300 359
#     4  10  21  37  56  85 123 158 198 244 304 360
#
# _framework density 20.686530000000001
#
# number of rings (size 3 to 8) (size 9 to 14) (size 15 to 20)
#    0.000    2.000    0.000    3.000    1.750    6.500 
#    0.000    3.125    0.000    6.000    0.000    0.000 
#    0.000    0.000    0.000    0.000    0.000    0.000 
#
# Total GULP energy -396738.382795 kJ/mol
# GULP energy per Si atom -12398.074462 kJ/mol
# Density = 2.063945 g / cm^3
# Si number density = 20.686530 Si / 1000 Ang^3
#
#
#
# Elastic Constant Matrix: (Units=GPa)
#
#
# Indices 1 2 3 4 5 6 
#
# 1 144.4763 35.1145 60.3385 0.0000 0.0000 0.0000
# 2 35.1145 63.6826 32.5440 0.0000 0.0000 0.0000
# 3 60.3385 32.5440 82.7482 0.0000 0.0000 0.0000
# 4 0.0000 0.0000 0.0000 23.8793 0.0000 0.0000
# 5 0.0000 0.0000 0.0000 0.0000 40.0630 0.0000
# 6 0.0000 0.0000 0.0000 0.0000 0.0000 35.4709
#
#
#
# Elastic Compliance Matrix: (Units=1/GPa)
#
#
# Indices 1 2 3 4 5 6 
#
# 1 0.010211 -0.002285 -0.006547 0.000000 0.000000 0.000000
# 2 -0.002285 0.020164 -0.006264 0.000000 0.000000 0.000000
# 3 -0.006547 -0.006264 0.019323 0.000000 0.000000 0.000000
# 4 0.000000 0.000000 0.000000 0.041877 0.000000 0.000000
# 5 0.000000 0.000000 0.000000 0.000000 0.024961 0.000000
# 6 0.000000 0.000000 0.000000 0.000000 0.000000 0.028192
#
#
# Mechanical properties :
#
#
# Convention : Reuss Voigt Hill
#
# Bulk Modulus (GPa) = 51.26805 60.76676 56.01741
# Shear Modulus (GPa) = 27.56001 30.74331 29.15166
#
# Velocity S-wave (km/s) = 3.65399 3.85925 3.75802
# Velocity P-wave (km/s) = 6.52987 7.02119 6.77999
#
# Compressibility (1/GPa) = 0.01950533
#
# Stress axis : x y z
#
# Youngs Moduli (GPa) = 97.93163 49.59362 51.75237
#
# Poissons Ratio (x) = 0.11330 0.33884
# Poissons Ratio (y) = 0.22373 0.32420
# Poissons Ratio (z) = 0.64119 0.31067
#
# Static dielectric constant tensor:
#      x y z
#    x 4.067910 0.000000 0.000000 
#    y 0.000000 3.503670 0.000000 
#    z 0.000000 0.000000 3.753140 
# 
# 
# High freq. dielectric constant tensor:
#      x y z
#    x 1.825750 0.000000 0.000000 
#    y 0.000000 1.794120 0.000000 
#    z 0.000000 0.000000 1.803310 
# 
# From -- ./inp_files/4010.got.cif
#   From: 2010.03.12/outbox.cif.g09.slc.cpg/sg39_3_cif.got.tgz:4010.got - 2010.04.14 02:53:20.
