data_PCOD8181661
_publ_section_title
;
Structure prediction by ZEFSAII (Michael W. Deem and Ramdas Pophale) SiO2 
 PCOD8181661
Probable space group: A B M 2
;
_chemical_formula_sum "Si O2"
_cell_formula_units_Z 64
_cell_length_a 15.178501
_cell_length_b 22.998207
_cell_length_c 9.157387
_cell_angle_alpha 90.000000
_cell_angle_beta 90.000000
_cell_angle_gamma 90.000000
_cell_volume 3196.645159
_symmetry_space_group_name_H-M "A B M 2"
_symmetry_group_IT_number 39
_symmetry_cell_setting 'orthorhombic'
loop_
_space_group_symop_operation_xyz
x,y,z
-x,-y,z
-x,1/2+y,z
x,1/2-y,z
x,1/2+y,1/2+z
-x,1/2-y,1/2+z
-x,y,1/2+z
x,-y,1/2+z
loop_
_atom_site_type_symbol
_atom_site_label
_atom_site_fract_x
_atom_site_fract_y
_atom_site_fract_z
Si Si1 0.738109 0.933365 0.666660
Si Si2 0.035897 0.183320 0.381562
Si Si3 0.718538 0.315568 0.702363
Si Si4 0.396047 0.600445 0.550424
Si Si5 0.778103 0.817608 0.514782
Si Si6 0.218963 0.962428 0.491486
Si Si7 0.545708 0.557733 0.758283
Si Si8 0.893491 0.637531 0.093539
O O1 0.749178 0.863732 0.639987
O O2 0.635992 0.952869 0.670397
O O3 0.786311 0.969419 0.536177
O O4 0.783874 0.951839 0.818504
O O5 0.025667 0.250000 0.327772
O O6 0.116790 0.178774 0.494387
O O7 0.049906 0.142079 0.241371
O O8 0.947391 0.161750 0.457093
O O9 0.697666 0.250000 0.729425
O O10 0.634267 0.338201 0.614247
O O11 0.806351 0.323137 0.606638
O O12 0.731488 0.341076 0.865989
O O13 0.310948 0.559111 0.561312
O O14 0.476383 0.581205 0.646448
O O15 0.431808 0.603962 0.385334
O O16 0.752564 0.750000 0.554782
O O17 0.136474 0.928911 0.564669
O O18 0.500000 0.500000 0.827486
#
# Coordination Sequence:
#
# PCOD8181661 Si02
#       8
#     8   8   8   8   8   8   8   8
#     4  11  24  40  65  94 126 168 212 261 319 380
#     4  10  20  37  65  94 123 166 214 260 306 368
#     4   9  19  39  62  87 125 168 206 255 318 375
#     4  10  22  36  59  91 119 157 204 259 310 361
#     4   9  21  40  66  93 122 168 217 261 311 376
#     4  10  24  40  61  93 126 168 203 261 323 373
#     4  11  22  37  60  92 120 155 208 260 309 366
#     4  10  21  38  62  93 125 158 212 258 315 368
#
# _framework density 20.020990999999999
#
# number of rings (size 3 to 8) (size 9 to 14) (size 15 to 20)
#    0.000    2.000    1.250    2.250   10.500    0.000 
#    0.000    8.125    0.000    0.000    0.000    0.000 
#    0.000    0.000    0.000    0.000    0.000    0.000 
#
# Total GULP energy -396614.136391 kJ/mol
# GULP energy per Si atom -12394.191762 kJ/mol
# Density = 1.997542 g / cm^3
# Si number density = 20.020991 Si / 1000 Ang^3
#
#
#
# Elastic Constant Matrix: (Units=GPa)
#
#
# Indices 1 2 3 4 5 6 
#
# 1 56.2687 35.8104 50.3910 0.0000 0.0000 0.0000
# 2 35.8104 96.2538 53.2661 0.0000 0.0000 0.0000
# 3 50.3910 53.2661 113.0897 0.0000 0.0000 0.0000
# 4 0.0000 0.0000 0.0000 54.5456 0.0000 0.0000
# 5 0.0000 0.0000 0.0000 0.0000 29.4274 0.0000
# 6 0.0000 0.0000 0.0000 0.0000 0.0000 26.7613
#
#
#
# Elastic Compliance Matrix: (Units=1/GPa)
#
#
# Indices 1 2 3 4 5 6 
#
# 1 0.031480 -0.005342 -0.011511 0.000000 0.000000 0.000000
# 2 -0.005342 0.014958 -0.004665 0.000000 0.000000 0.000000
# 3 -0.011511 -0.004665 0.016169 0.000000 0.000000 0.000000
# 4 0.000000 0.000000 0.000000 0.018333 0.000000 0.000000
# 5 0.000000 0.000000 0.000000 0.000000 0.033982 0.000000
# 6 0.000000 0.000000 0.000000 0.000000 0.000000 0.037367
#
#
# Mechanical properties :
#
#
# Convention : Reuss Voigt Hill
#
# Bulk Modulus (GPa) = 51.09523 60.50526 55.80025
# Shear Modulus (GPa) = 24.77089 30.55651 27.66370
#
# Velocity S-wave (km/s) = 3.52127 3.91093 3.72120
# Velocity P-wave (km/s) = 6.48912 7.11901 6.81135
#
# Compressibility (1/GPa) = 0.01957130
#
# Stress axis : x y z
#
# Youngs Moduli (GPa) = 31.76611 66.85266 61.84662
#
# Poissons Ratio (x) = 0.35711 0.71192
# Poissons Ratio (y) = 0.16969 0.28853
# Poissons Ratio (z) = 0.36566 0.31188
#
# Static dielectric constant tensor:
#      x y z
#    x 3.684360 0.000000 0.000000 
#    y 0.000000 3.571120 0.000000 
#    z 0.000000 0.000000 3.632880 
# 
# 
# High freq. dielectric constant tensor:
#      x y z
#    x 1.774080 0.000000 0.000000 
#    y 0.000000 1.765390 0.000000 
#    z 0.000000 0.000000 1.782130 
# 
# From -- ./inp_files/3505.got.cif
#   From: 2010.03.12/outbox.cif.g09.slc.cpg/sg39_2_cif.got.tgz:3505.got - 2010.04.14 02:53:20.
