data_PCOD8181188
_publ_section_title
;
Structure prediction by ZEFSAII (Michael W. Deem and Ramdas Pophale) SiO2 
 PCOD8181188
Probable space group: A B M 2
;
_chemical_formula_sum "Si O2"
_cell_formula_units_Z 60
_cell_length_a 12.607245
_cell_length_b 21.092890
_cell_length_c 12.204026
_cell_angle_alpha 90.000000
_cell_angle_beta 90.000000
_cell_angle_gamma 90.000000
_cell_volume 3245.334037
_symmetry_space_group_name_H-M "A B M 2"
_symmetry_group_IT_number 39
_symmetry_cell_setting 'orthorhombic'
loop_
_space_group_symop_operation_xyz
x,y,z
-x,-y,z
-x,1/2+y,z
x,1/2-y,z
x,1/2+y,1/2+z
-x,1/2-y,1/2+z
-x,y,1/2+z
x,-y,1/2+z
loop_
_atom_site_type_symbol
_atom_site_label
_atom_site_fract_x
_atom_site_fract_y
_atom_site_fract_z
Si Si1 0.204957 0.578140 0.324390
Si Si2 0.500000 0.500000 0.118181
Si Si3 0.869138 0.554447 0.587210
Si Si4 0.279946 0.175864 0.103420
Si Si5 0.909071 0.408925 0.535262
Si Si6 0.321453 0.033015 0.451311
Si Si7 0.563887 0.612956 0.270789
Si Si8 0.635357 0.822374 0.864899
O O1 0.149955 0.555803 0.215399
O O2 0.112259 0.600799 0.406374
O O3 0.274826 0.522624 0.377008
O O4 0.280950 0.636819 0.295745
O O5 0.504977 0.562214 0.193816
O O6 0.395391 0.501623 0.043805
O O7 0.888075 0.481101 0.565025
O O8 0.769033 0.574305 0.512702
O O9 0.966193 0.602134 0.558674
O O10 0.254283 0.250000 0.116398
O O11 0.167753 0.138306 0.102539
O O12 0.347390 0.151974 0.206121
O O13 0.348872 0.162225 0.994074
O O14 0.385849 0.079531 0.375134
O O15 0.481725 0.662261 0.322884
O O16 0.660596 0.750000 0.839545
#
# Coordination Sequence:
#
# PCOD8181188 Si02
#       8
#     8   4   8   8   8   8   8   8
#     4  10  19  35  54  76 108 143 176 220 278 332
#     4  12  22  34  54  84 118 152 180 222 286 348
#     4  10  20  34  56  83 109 136 175 231 284 329
#     4  10  21  38  57  77 108 150 192 229 275 342
#     4   9  20  35  54  80 106 139 182 224 273 335
#     4  11  21  33  53  84 112 140 179 224 277 341
#     4  12  21  33  55  82 112 143 180 230 282 331
#     4  10  21  36  53  75 105 145 187 221 264 333
#
# _framework density 18.488081999999999
#
# number of rings (size 3 to 8) (size 9 to 14) (size 15 to 20)
#    0.000    1.600    0.000    8.000    0.000    5.333 
#    0.000    0.667    0.000    5.600    0.000    0.000 
#    0.000    0.000    0.000    0.000    0.000    0.000 
#
# Total GULP energy -371999.035074 kJ/mol
# GULP energy per Si atom -12399.967836 kJ/mol
# Density = 1.844600 g / cm^3
# Si number density = 18.488082 Si / 1000 Ang^3
#
#
#
# Elastic Constant Matrix: (Units=GPa)
#
#
# Indices 1 2 3 4 5 6 
#
# 1 123.3196 34.9570 47.4739 0.0000 0.0000 0.0000
# 2 34.9570 65.3473 17.0027 0.0000 0.0000 0.0000
# 3 47.4739 17.0027 80.2818 0.0000 0.0000 0.0000
# 4 0.0000 0.0000 0.0000 16.1201 0.0000 0.0000
# 5 0.0000 0.0000 0.0000 0.0000 25.1857 0.0000
# 6 0.0000 0.0000 0.0000 0.0000 0.0000 24.1177
#
#
#
# Elastic Compliance Matrix: (Units=1/GPa)
#
#
# Indices 1 2 3 4 5 6 
#
# 1 0.011737 -0.004733 -0.005938 0.000000 0.000000 0.000000
# 2 -0.004733 0.018104 -0.001035 0.000000 0.000000 0.000000
# 3 -0.005938 -0.001035 0.016187 0.000000 0.000000 0.000000
# 4 0.000000 0.000000 0.000000 0.062034 0.000000 0.000000
# 5 0.000000 0.000000 0.000000 0.000000 0.039705 0.000000
# 6 0.000000 0.000000 0.000000 0.000000 0.000000 0.041463
#
#
# Mechanical properties :
#
#
# Convention : Reuss Voigt Hill
#
# Bulk Modulus (GPa) = 44.21921 51.97955 48.09938
# Shear Modulus (GPa) = 22.70854 24.38572 23.54713
#
# Velocity S-wave (km/s) = 3.50848 3.63574 3.57268
# Velocity P-wave (km/s) = 6.35470 6.76764 6.56442
#
# Compressibility (1/GPa) = 0.02261461
#
# Stress axis : x y z
#
# Youngs Moduli (GPa) = 85.20305 55.23548 61.77925
#
# Poissons Ratio (x) = 0.26145 0.36684
# Poissons Ratio (y) = 0.40331 0.06395
# Poissons Ratio (z) = 0.50593 0.05718
#
# Static dielectric constant tensor:
#      x y z
#    x 3.894210 0.000000 0.000000 
#    y 0.000000 3.315410 0.000000 
#    z 0.000000 0.000000 3.527170 
# 
# 
# High freq. dielectric constant tensor:
#      x y z
#    x 1.723160 0.000000 0.000000 
#    y 0.000000 1.699370 0.000000 
#    z 0.000000 0.000000 1.724240 
# 
# From -- ./inp_files/6022.got.cif
#   From: 2010.03.12/outbox.cif.g09.slc.cpg/sg39_4_cif.got.tgz:6022.got - 2010.04.14 02:53:20.
