data_PCOD8181857
_publ_section_title
;
Structure prediction by ZEFSAII (Michael W. Deem and Ramdas Pophale) SiO2 
 PCOD8181857
Probable space group: A B M 2
;
_chemical_formula_sum "Si O2"
_cell_formula_units_Z 40
_cell_length_a 9.195330
_cell_length_b 8.701774
_cell_length_c 25.184016
_cell_angle_alpha 90.000000
_cell_angle_beta 90.000000
_cell_angle_gamma 90.000000
_cell_volume 2015.116254
_symmetry_space_group_name_H-M "A B M 2"
_symmetry_group_IT_number 39
_symmetry_cell_setting 'orthorhombic'
loop_
_space_group_symop_operation_xyz
x,y,z
-x,-y,z
-x,1/2+y,z
x,1/2-y,z
x,1/2+y,1/2+z
-x,1/2-y,1/2+z
-x,y,1/2+z
x,-y,1/2+z
loop_
_atom_site_type_symbol
_atom_site_label
_atom_site_fract_x
_atom_site_fract_y
_atom_site_fract_z
Si Si1 0.349386 0.070456 0.349560
Si Si2 0.843701 0.430906 0.053225
Si Si3 0.842002 0.571484 0.249197
Si Si4 0.344894 0.932072 0.462384
Si Si5 0.342256 0.069999 0.655803
O O1 0.373359 0.250000 0.360972
O O2 0.222792 0.040566 0.307376
O O3 0.500000 0.000000 0.327583
O O4 0.302742 0.986622 0.403526
O O5 0.854650 0.250000 0.043965
O O6 0.744587 0.474103 0.103073
O O7 0.000000 0.500000 0.065514
O O8 0.780215 0.509100 0.000903
O O9 0.853931 0.750000 0.236343
O O10 0.736929 0.496669 0.206704
O O11 0.000000 0.500000 0.245731
O O12 0.353987 0.750000 0.464440
O O13 0.500000 0.000000 0.480305
O O14 0.356289 0.250000 0.663630
O O15 0.500000 0.000000 0.650129
#
# Coordination Sequence:
#
# PCOD8181857 Si02
#       5
#     8   8   8   8   8
#     4  10  21  38  60  87 118 155 199 246 294 349
#     4  11  24  41  61  88 121 157 196 242 295 352
#     4  11  24  40  61  88 121 158 197 243 296 351
#     4  11  22  38  62  89 119 157 199 246 294 347
#     4  11  24  41  64  90 119 155 197 243 292 349
#
# _framework density 19.849971
#
# number of rings (size 3 to 8) (size 9 to 14) (size 15 to 20)
#    0.000    1.200    0.000    7.200    0.000   12.000 
#    0.000    2.000    0.000    0.000    0.000    0.000 
#    0.000    0.000    0.000    0.000    0.000    0.000 
#
# Total GULP energy -248130.685202 kJ/mol
# GULP energy per Si atom -12406.534260 kJ/mol
# Density = 1.980479 g / cm^3
# Si number density = 19.849971 Si / 1000 Ang^3
#
#
#
# Elastic Constant Matrix: (Units=GPa)
#
#
# Indices 1 2 3 4 5 6 
#
# 1 167.3272 88.9497 79.4187 0.0000 0.0000 0.0000
# 2 88.9497 118.7344 68.4586 0.0000 0.0000 0.0000
# 3 79.4187 68.4586 104.1079 0.0000 0.0000 0.0000
# 4 0.0000 0.0000 0.0000 29.3373 0.0000 0.0000
# 5 0.0000 0.0000 0.0000 0.0000 -64.5986 0.0000
# 6 0.0000 0.0000 0.0000 0.0000 0.0000 40.2681
#
#
#
# Elastic Compliance Matrix: (Units=1/GPa)
#
#
# Indices 1 2 3 4 5 6 
#
# 1 0.011306 -0.005633 -0.004921 0.000000 0.000000 0.000000
# 2 -0.005633 0.016371 -0.006468 0.000000 0.000000 0.000000
# 3 -0.004921 -0.006468 0.017613 0.000000 0.000000 0.000000
# 4 0.000000 0.000000 0.000000 0.034086 0.000000 0.000000
# 5 0.000000 0.000000 0.000000 0.000000 -0.015480 0.000000
# 6 0.000000 0.000000 0.000000 0.000000 0.000000 0.024834
#
#
# Mechanical properties :
#
#
# Convention : Reuss Voigt Hill
#
# Bulk Modulus (GPa) = 88.91966 95.98037 92.45002
# Shear Modulus (GPa) = 39.51828 11.22421 25.37124
#
# Velocity S-wave (km/s) = 4.46673 2.38050 3.57900
# Velocity P-wave (km/s) = 8.45549 7.48422 7.98464
#
# Compressibility (1/GPa) = 0.01124611
#
# Stress axis : x y z
#
# Youngs Moduli (GPa) = 88.44585 61.08186 56.77643
#
# Poissons Ratio (x) = 0.34406 0.27940
# Poissons Ratio (y) = 0.49820 0.36726
# Poissons Ratio (z) = 0.43525 0.39511
#
# Static dielectric constant tensor:
#      x y z
#    x 3.735590 0.000000 0.000000 
#    y 0.000000 3.843960 0.000000 
#    z 0.000000 0.000000 3.823750 
# 
# 
# High freq. dielectric constant tensor:
#      x y z
#    x 1.782470 0.000000 0.000000 
#    y 0.000000 1.795460 0.000000 
#    z 0.000000 0.000000 1.788300 
# 
# From -- ./inp_files/15452.got.cif
#   From: 2010.03.12/outbox.cif.g09.slc.cpg/sg39_8_cif.got.tgz:15452.got - 2010.04.14 02:53:20.
