data_PCOD8181316
_publ_section_title
;
Structure prediction by ZEFSAII (Michael W. Deem and Ramdas Pophale) SiO2 
 PCOD8181316
Probable space group: A B M 2
;
_chemical_formula_sum "Si O2"
_cell_formula_units_Z 56
_cell_length_a 19.870603
_cell_length_b 8.662054
_cell_length_c 15.528806
_cell_angle_alpha 90.000000
_cell_angle_beta 90.000000
_cell_angle_gamma 90.000000
_cell_volume 2672.821757
_symmetry_space_group_name_H-M "A B M 2"
_symmetry_group_IT_number 39
_symmetry_cell_setting 'orthorhombic'
loop_
_space_group_symop_operation_xyz
x,y,z
-x,-y,z
-x,1/2+y,z
x,1/2-y,z
x,1/2+y,1/2+z
-x,1/2-y,1/2+z
-x,y,1/2+z
x,-y,1/2+z
loop_
_atom_site_type_symbol
_atom_site_label
_atom_site_fract_x
_atom_site_fract_y
_atom_site_fract_z
Si Si1 0.926864 0.933717 0.682110
Si Si2 0.701425 0.921045 0.325050
Si Si3 0.159868 0.932021 0.527963
Si Si4 0.151896 0.935683 0.840376
Si Si5 0.435835 0.418510 0.269152
Si Si6 0.700234 0.078323 0.025829
Si Si7 0.564959 0.581075 0.070789
O O1 0.928149 0.750000 0.689064
O O2 0.881496 0.985508 0.602699
O O3 0.902297 0.003784 0.772918
O O4 0.000000 0.000000 0.663716
O O5 0.705058 0.750000 0.284061
O O6 0.774468 0.998754 0.308449
O O7 0.636159 0.007819 0.283837
O O8 0.688194 0.915049 0.425393
O O9 0.146656 0.750000 0.530181
O O10 0.136453 0.998921 0.435543
O O11 0.238064 0.965458 0.547977
O O12 0.151624 0.750000 0.846274
O O13 0.500000 0.500000 0.314093
O O14 0.428968 0.250000 0.313426
O O15 0.452575 0.398024 0.170046
O O16 0.716325 0.250000 0.061411
O O17 0.632004 0.018880 0.067356
O O18 0.500000 0.500000 0.026181
O O19 0.575880 0.750000 0.028078
#
# Coordination Sequence:
#
# PCOD8181316 Si02
#       7
#     8   8   8   8   8   8   8
#     4  12  26  45  68 100 132 167 212 256 310 379
#     4   8  17  34  56  80 110 148 190 238 298 357
#     4  11  23  42  66  95 131 171 213 262 316 375
#     4  10  21  41  67  96 130 169 210 262 318 372
#     4   9  18  33  50  73 104 145 190 239 293 354
#     4  10  20  36  57  83 115 151 196 250 307 369
#     4  10  20  33  51  75 108 149 196 247 304 367
#
# _framework density 20.951640999999999
#
# number of rings (size 3 to 8) (size 9 to 14) (size 15 to 20)
#    0.000    2.000    0.000    4.714    2.000    1.714 
#    0.000    8.571    0.000    0.000    0.000    0.000 
#    0.000    0.000    0.000    0.000    0.000    0.000 
#
# Total GULP energy -346997.994723 kJ/mol
# GULP energy per Si atom -12392.785526 kJ/mol
# Density = 2.090395 g / cm^3
# Si number density = 20.951641 Si / 1000 Ang^3
#
#
#
# Elastic Constant Matrix: (Units=GPa)
#
#
# Indices 1 2 3 4 5 6 
#
# 1 102.9555 20.6530 38.4780 0.0000 0.0000 0.0000
# 2 20.6530 103.2116 25.3925 0.0000 0.0000 0.0000
# 3 38.4780 25.3925 61.3922 0.0000 0.0000 0.0000
# 4 0.0000 0.0000 0.0000 23.9907 0.0000 0.0000
# 5 0.0000 0.0000 0.0000 0.0000 -28.0974 0.0000
# 6 0.0000 0.0000 0.0000 0.0000 0.0000 35.6960
#
#
#
# Elastic Compliance Matrix: (Units=1/GPa)
#
#
# Indices 1 2 3 4 5 6 
#
# 1 0.012723 -0.000650 -0.007705 0.000000 0.000000 0.000000
# 2 -0.000650 0.010820 -0.004068 0.000000 0.000000 0.000000
# 3 -0.007705 -0.004068 0.022800 0.000000 0.000000 0.000000
# 4 0.000000 0.000000 0.000000 0.041683 0.000000 0.000000
# 5 0.000000 0.000000 0.000000 0.000000 -0.035590 0.000000
# 6 0.000000 0.000000 0.000000 0.000000 0.000000 0.028014
#
#
# Mechanical properties :
#
#
# Convention : Reuss Voigt Hill
#
# Bulk Modulus (GPa) = 46.51828 48.51178 47.51503
# Shear Modulus (GPa) = 44.45945 18.52025 31.48985
#
# Velocity S-wave (km/s) = 4.61152 2.97636 3.88103
# Velocity P-wave (km/s) = 7.11377 5.91744 6.54300
#
# Compressibility (1/GPa) = 0.02149692
#
# Stress axis : x y z
#
# Youngs Moduli (GPa) = 78.59709 92.42424 43.85871
#
# Poissons Ratio (x) = 0.06010 0.33795
# Poissons Ratio (y) = 0.05111 0.17840
# Poissons Ratio (z) = 0.60562 0.37594
#
# Static dielectric constant tensor:
#      x y z
#    x 4.094160 0.000000 0.000000 
#    y 0.000000 4.066020 0.000000 
#    z 0.000000 0.000000 3.597840 
# 
# 
# High freq. dielectric constant tensor:
#      x y z
#    x 1.833840 0.000000 0.000000 
#    y 0.000000 1.813900 0.000000 
#    z 0.000000 0.000000 1.807280 
# 
# From -- ./inp_files/10396.got.cif
#   From: 2010.03.12/outbox.cif.g09.slc.cpg/sg39_6_cif.got.tgz:10396.got - 2010.04.14 02:53:20.
