data_PCOD8181901
_publ_section_title
;
Structure prediction by ZEFSAII (Michael W. Deem and Ramdas Pophale) SiO2 
 PCOD8181901
Probable space group: A B M 2
;
_chemical_formula_sum "Si O2"
_cell_formula_units_Z 44
_cell_length_a 15.613383
_cell_length_b 9.766121
_cell_length_c 14.360488
_cell_angle_alpha 90.000000
_cell_angle_beta 90.000000
_cell_angle_gamma 90.000000
_cell_volume 2189.718625
_symmetry_space_group_name_H-M "A B M 2"
_symmetry_group_IT_number 39
_symmetry_cell_setting 'orthorhombic'
loop_
_space_group_symop_operation_xyz
x,y,z
-x,-y,z
-x,1/2+y,z
x,1/2-y,z
x,1/2+y,1/2+z
-x,1/2-y,1/2+z
-x,y,1/2+z
x,-y,1/2+z
loop_
_atom_site_type_symbol
_atom_site_label
_atom_site_fract_x
_atom_site_fract_y
_atom_site_fract_z
Si Si1 0.000000 0.500000 0.801170
Si Si2 0.683652 0.093630 0.604970
Si Si3 0.722208 0.411202 0.933336
Si Si4 0.875157 0.596780 0.149320
Si Si5 0.879933 0.902913 0.943512
Si Si6 0.578683 0.594095 0.281571
O O1 0.080713 0.524162 0.735715
O O2 0.038507 0.389373 0.874369
O O3 0.674340 0.250000 0.567532
O O4 0.773458 0.078850 0.659507
O O5 0.608022 0.058870 0.676720
O O6 0.679042 0.983412 0.522639
O O7 0.739903 0.250000 0.953126
O O8 0.810163 0.488472 0.905681
O O9 0.658031 0.431968 0.848842
O O10 0.906470 0.750000 0.161076
O O11 0.905905 0.544336 0.047298
O O12 0.839231 0.750000 0.953968
O O13 0.500000 0.500000 0.311447
O O14 0.547345 0.750000 0.288893
#
# Coordination Sequence:
#
# PCOD8181901 Si02
#       6
#     4   8   8   8   8   8
#     4  12  20  32  56  84 110 144 188 234 276 328
#     4   9  19  39  61  80 109 149 187 226 277 333
#     4  10  21  39  61  83 110 148 191 232 277 332
#     4   9  19  36  54  75 108 146 182 224 275 328
#     4  10  22  38  56  81 113 149 188 232 283 335
#     4  10  22  38  58  86 118 149 183 228 282 338
#
# _framework density 20.093904999999999
#
# number of rings (size 3 to 8) (size 9 to 14) (size 15 to 20)
#    0.000    2.182    0.000    3.818    0.000    5.818 
#    0.000   16.364    0.000    0.000    0.000    0.000 
#    0.000    0.000    0.000    0.000    0.000    0.000 
#
# Total GULP energy -272568.996139 kJ/mol
# GULP energy per Si atom -12389.499825 kJ/mol
# Density = 2.004817 g / cm^3
# Si number density = 20.093905 Si / 1000 Ang^3
#
#
#
# Elastic Constant Matrix: (Units=GPa)
#
#
# Indices 1 2 3 4 5 6 
#
# 1 56.1842 39.1604 38.3873 0.0000 0.0000 0.0000
# 2 39.1604 104.8934 45.2042 0.0000 0.0000 0.0000
# 3 38.3873 45.2042 100.8580 0.0000 0.0000 0.0000
# 4 0.0000 0.0000 0.0000 7.7364 0.0000 0.0000
# 5 0.0000 0.0000 0.0000 0.0000 21.0873 0.0000
# 6 0.0000 0.0000 0.0000 0.0000 0.0000 27.7731
#
#
#
# Elastic Compliance Matrix: (Units=1/GPa)
#
#
# Indices 1 2 3 4 5 6 
#
# 1 0.027872 -0.007231 -0.007368 0.000000 0.000000 0.000000
# 2 -0.007231 0.013691 -0.003384 0.000000 0.000000 0.000000
# 3 -0.007368 -0.003384 0.014236 0.000000 0.000000 0.000000
# 4 0.000000 0.000000 0.000000 0.129260 0.000000 0.000000
# 5 0.000000 0.000000 0.000000 0.000000 0.047422 0.000000
# 6 0.000000 0.000000 0.000000 0.000000 0.000000 0.036006
#
#
# Mechanical properties :
#
#
# Convention : Reuss Voigt Hill
#
# Bulk Modulus (GPa) = 50.41768 56.38217 53.39992
# Shear Modulus (GPa) = 16.07387 20.59827 18.33607
#
# Velocity S-wave (km/s) = 2.83138 3.20519 3.02407
# Velocity P-wave (km/s) = 5.98619 6.46668 6.23107
#
# Compressibility (1/GPa) = 0.01983431
#
# Stress axis : x y z
#
# Youngs Moduli (GPa) = 35.87815 73.03835 70.24441
#
# Poissons Ratio (x) = 0.52811 0.51754
# Poissons Ratio (y) = 0.25942 0.23774
# Poissons Ratio (z) = 0.26434 0.24720
#
# Static dielectric constant tensor:
#      x y z
#    x 3.531180 0.000000 0.000000 
#    y 0.000000 3.623220 0.000000 
#    z 0.000000 0.000000 3.783950 
# 
# 
# High freq. dielectric constant tensor:
#      x y z
#    x 1.774260 0.000000 0.000000 
#    y 0.000000 1.772330 0.000000 
#    z 0.000000 0.000000 1.799370 
# 
# From -- ./inp_files/9968.got.cif
#   From: 2010.03.12/outbox.cif.g09.slc.cpg/sg39_5_cif.got.tgz:9968.got - 2010.04.14 02:53:20.
