data_PCOD8181597
_publ_section_title
;
Structure prediction by ZEFSAII (Michael W. Deem and Ramdas Pophale) SiO2 
 PCOD8181597
Probable space group: A B M 2
;
_chemical_formula_sum "Si O2"
_cell_formula_units_Z 64
_cell_length_a 13.238667
_cell_length_b 24.836350
_cell_length_c 9.447145
_cell_angle_alpha 90.000000
_cell_angle_beta 90.000000
_cell_angle_gamma 90.000000
_cell_volume 3106.222855
_symmetry_space_group_name_H-M "A B M 2"
_symmetry_group_IT_number 39
_symmetry_cell_setting 'orthorhombic'
loop_
_space_group_symop_operation_xyz
x,y,z
-x,-y,z
-x,1/2+y,z
x,1/2-y,z
x,1/2+y,1/2+z
-x,1/2-y,1/2+z
-x,y,1/2+z
x,-y,1/2+z
loop_
_atom_site_type_symbol
_atom_site_label
_atom_site_fract_x
_atom_site_fract_y
_atom_site_fract_z
Si Si1 0.610173 0.413806 0.793880
Si Si2 0.241969 0.497358 0.896873
Si Si3 0.078070 0.855906 0.702304
Si Si4 0.588892 0.415136 0.458071
Si Si5 0.085151 0.811905 0.395006
Si Si6 0.309882 0.308493 0.935478
Si Si7 0.279990 0.809299 0.767953
Si Si8 0.109777 0.980859 0.656411
O O1 0.705953 0.448054 0.843233
O O2 0.585789 0.422636 0.627635
O O3 0.516862 0.432985 0.890291
O O4 0.637429 0.351469 0.826929
O O5 0.322097 0.449315 0.887358
O O6 0.141993 0.489123 0.800946
O O7 0.198625 0.500884 0.053639
O O8 0.059481 0.824535 0.557106
O O9 0.166052 0.829009 0.798317
O O10 0.109930 0.916653 0.668316
O O11 0.976146 0.852223 0.793653
O O12 0.607075 0.353900 0.405811
O O13 0.055565 0.750000 0.364608
O O14 0.203391 0.821900 0.360303
O O15 0.350869 0.250000 0.883839
O O16 0.287834 0.306600 0.100456
O O17 0.298992 0.750000 0.835578
O O18 0.000000 0.000000 0.606758
#
# Coordination Sequence:
#
# PCOD8181597 Si02
#       8
#     8   8   8   8   8   8   8   8
#     4  11  24  42  65  98 125 168 221 274 329 398
#     4  12  24  47  65  92 132 169 220 272 328 399
#     4  11  22  39  61  92 131 167 224 267 326 394
#     4  11  24  41  67  93 126 169 220 272 335 392
#     4  10  20  36  63  93 125 171 216 264 321 392
#     4   8  17  36  61  89 124 165 209 260 324 393
#     4   9  17  37  63  88 124 168 208 262 325 394
#     4  12  28  42  67  97 132 174 221 271 337 393
#
# _framework density 20.603802999999999
#
# number of rings (size 3 to 8) (size 9 to 14) (size 15 to 20)
#    0.000    1.500    2.500    4.125    7.000    1.500 
#    0.000    1.250    0.000    1.500    0.000    0.000 
#    0.000    0.000    0.000    0.000    0.000    0.000 
#
# Total GULP energy -396732.036374 kJ/mol
# GULP energy per Si atom -12397.876137 kJ/mol
# Density = 2.055691 g / cm^3
# Si number density = 20.603803 Si / 1000 Ang^3
#
#
#
# Elastic Constant Matrix: (Units=GPa)
#
#
# Indices 1 2 3 4 5 6 
#
# 1 94.8680 36.5898 32.3270 0.0000 0.0000 0.0000
# 2 36.5898 105.3871 34.7328 0.0000 0.0000 0.0000
# 3 32.3270 34.7328 63.3534 0.0000 0.0000 0.0000
# 4 0.0000 0.0000 0.0000 22.0426 0.0000 0.0000
# 5 0.0000 0.0000 0.0000 0.0000 38.3597 0.0000
# 6 0.0000 0.0000 0.0000 0.0000 0.0000 31.6489
#
#
#
# Elastic Compliance Matrix: (Units=1/GPa)
#
#
# Indices 1 2 3 4 5 6 
#
# 1 0.013468 -0.002943 -0.005259 0.000000 0.000000 0.000000
# 2 -0.002943 0.012224 -0.005200 0.000000 0.000000 0.000000
# 3 -0.005259 -0.005200 0.021319 0.000000 0.000000 0.000000
# 4 0.000000 0.000000 0.000000 0.045367 0.000000 0.000000
# 5 0.000000 0.000000 0.000000 0.000000 0.026069 0.000000
# 6 0.000000 0.000000 0.000000 0.000000 0.000000 0.031597
#
#
# Mechanical properties :
#
#
# Convention : Reuss Voigt Hill
#
# Bulk Modulus (GPa) = 49.48695 52.32307 50.90501
# Shear Modulus (GPa) = 27.23558 29.07418 28.15488
#
# Velocity S-wave (km/s) = 3.63970 3.76055 3.70062
# Velocity P-wave (km/s) = 6.46016 6.65625 6.55894
#
# Compressibility (1/GPa) = 0.02020735
#
# Stress axis : x y z
#
# Youngs Moduli (GPa) = 74.25023 81.80331 46.90676
#
# Poissons Ratio (x) = 0.24073 0.24668
# Poissons Ratio (y) = 0.21850 0.24393
# Poissons Ratio (z) = 0.39047 0.42540
#
# Static dielectric constant tensor:
#      x y z
#    x 3.748060 0.000000 0.000000 
#    y 0.000000 4.093210 0.000000 
#    z 0.000000 0.000000 3.430410 
# 
# 
# High freq. dielectric constant tensor:
#      x y z
#    x 1.810010 0.000000 0.000000 
#    y 0.000000 1.817560 0.000000 
#    z 0.000000 0.000000 1.777080 
# 
# From -- ./inp_files/3511.got.cif
#   From: 2010.03.12/outbox.cif.g09.slc.cpg/sg39_2_cif.got.tgz:3511.got - 2010.04.14 02:53:20.
