data_PCOD8181617
_publ_section_title
;
Structure prediction by ZEFSAII (Michael W. Deem and Ramdas Pophale) SiO2 
 PCOD8181617
Probable space group: A B M 2
;
_chemical_formula_sum "Si O2"
_cell_formula_units_Z 56
_cell_length_a 20.101191
_cell_length_b 8.427973
_cell_length_c 15.808637
_cell_angle_alpha 90.000000
_cell_angle_beta 90.000000
_cell_angle_gamma 90.000000
_cell_volume 2678.177475
_symmetry_space_group_name_H-M "A B M 2"
_symmetry_group_IT_number 39
_symmetry_cell_setting 'orthorhombic'
loop_
_space_group_symop_operation_xyz
x,y,z
-x,-y,z
-x,1/2+y,z
x,1/2-y,z
x,1/2+y,1/2+z
-x,1/2-y,1/2+z
-x,y,1/2+z
x,-y,1/2+z
loop_
_atom_site_type_symbol
_atom_site_label
_atom_site_fract_x
_atom_site_fract_y
_atom_site_fract_z
Si Si1 0.073963 0.439006 0.647380
Si Si2 0.839361 0.061590 0.497276
Si Si3 0.703384 0.562591 0.488946
Si Si4 0.432836 0.569155 0.066019
Si Si5 0.435931 0.432250 0.246793
Si Si6 0.693667 0.429650 0.312153
Si Si7 0.839019 0.063223 0.303843
O O1 0.077304 0.250000 0.642598
O O2 0.101835 0.510132 0.559827
O O3 0.112059 0.504745 0.731553
O O4 0.000000 0.500000 0.657697
O O5 0.831219 0.250000 0.498924
O O6 0.853515 0.999231 0.400011
O O7 0.772734 0.976648 0.536170
O O8 0.698739 0.750000 0.468005
O O9 0.637807 0.498388 0.536876
O O10 0.708007 0.444999 0.410362
O O11 0.500000 0.500000 0.022346
O O12 0.433316 0.750000 0.040900
O O13 0.435156 0.543461 0.165356
O O14 0.500000 0.500000 0.300148
O O15 0.446334 0.250000 0.222404
O O16 0.366213 0.450049 0.293759
O O17 0.673413 0.250000 0.287416
O O18 0.764063 0.478976 0.270118
O O19 0.846856 0.250000 0.309200
#
# Coordination Sequence:
#
# PCOD8181617 Si02
#       7
#     8   8   8   8   8   8   8
#     4  11  23  41  63  92 123 159 199 242 295 361
#     4  10  21  40  63  91 123 160 202 250 302 359
#     4  10  21  37  57  84 115 152 195 242 294 354
#     4  10  21  36  54  77 110 149 192 240 295 349
#     4  11  22  36  54  79 111 149 194 243 295 354
#     4  10  20  37  59  83 112 150 193 244 297 351
#     4   8  19  39  62  86 120 159 198 243 298 353
#
# _framework density 20.909742000000001
#
# number of rings (size 3 to 8) (size 9 to 14) (size 15 to 20)
#    0.000    2.000    0.000    5.143    2.000    3.429 
#    0.000   10.714    0.000    0.000    0.000    0.000 
#    0.000    0.000    0.000    0.000    0.000    0.000 
#
# Total GULP energy -346898.642654 kJ/mol
# GULP energy per Si atom -12389.237238 kJ/mol
# Density = 2.086215 g / cm^3
# Si number density = 20.909742 Si / 1000 Ang^3
#
#
#
# Elastic Constant Matrix: (Units=GPa)
#
#
# Indices 1 2 3 4 5 6 
#
# 1 173.0763 37.4642 57.2890 0.0000 0.0000 0.0000
# 2 37.4642 68.0915 19.2917 0.0000 0.0000 0.0000
# 3 57.2890 19.2917 78.1901 0.0000 0.0000 0.0000
# 4 0.0000 0.0000 0.0000 23.8883 0.0000 0.0000
# 5 0.0000 0.0000 0.0000 0.0000 22.4198 0.0000
# 6 0.0000 0.0000 0.0000 0.0000 0.0000 36.0158
#
#
#
# Elastic Compliance Matrix: (Units=1/GPa)
#
#
# Indices 1 2 3 4 5 6 
#
# 1 0.008163 -0.003007 -0.005239 0.000000 0.000000 0.000000
# 2 -0.003007 0.016898 -0.001966 0.000000 0.000000 0.000000
# 3 -0.005239 -0.001966 0.017113 0.000000 0.000000 0.000000
# 4 0.000000 0.000000 0.000000 0.041862 0.000000 0.000000
# 5 0.000000 0.000000 0.000000 0.000000 0.044603 0.000000
# 6 0.000000 0.000000 0.000000 0.000000 0.000000 0.027766
#
#
# Mechanical properties :
#
#
# Convention : Reuss Voigt Hill
#
# Bulk Modulus (GPa) = 45.97775 60.82753 53.40264
# Shear Modulus (GPa) = 27.16253 30.15231 28.65742
#
# Velocity S-wave (km/s) = 3.60813 3.80152 3.70608
# Velocity P-wave (km/s) = 6.27650 6.95862 6.62634
#
# Compressibility (1/GPa) = 0.02174965
#
# Stress axis : x y z
#
# Youngs Moduli (GPa) = 122.50745 59.18027 58.43552
#
# Poissons Ratio (x) = 0.17795 0.30614
# Poissons Ratio (y) = 0.36837 0.11488
# Poissons Ratio (z) = 0.64180 0.11635
#
# Static dielectric constant tensor:
#      x y z
#    x 4.819750 0.000000 0.000000 
#    y 0.000000 3.535900 0.000000 
#    z 0.000000 0.000000 3.727380 
# 
# 
# High freq. dielectric constant tensor:
#      x y z
#    x 1.838380 0.000000 0.000000 
#    y 0.000000 1.809320 0.000000 
#    z 0.000000 0.000000 1.799580 
# 
# From -- ./inp_files/10394.got.cif
#   From: 2010.03.12/outbox.cif.g09.slc.cpg/sg39_6_cif.got.tgz:10394.got - 2010.04.14 02:53:20.
