data_PCOD8181447
_publ_section_title
;
Structure prediction by ZEFSAII (Michael W. Deem and Ramdas Pophale) SiO2 
 PCOD8181447
Probable space group: A B M 2
;
_chemical_formula_sum "Si O2"
_cell_formula_units_Z 64
_cell_length_a 8.646780
_cell_length_b 16.481882
_cell_length_c 23.090289
_cell_angle_alpha 90.000000
_cell_angle_beta 90.000000
_cell_angle_gamma 90.000000
_cell_volume 3290.717331
_symmetry_space_group_name_H-M "A B M 2"
_symmetry_group_IT_number 39
_symmetry_cell_setting 'orthorhombic'
loop_
_space_group_symop_operation_xyz
x,y,z
-x,-y,z
-x,1/2+y,z
x,1/2-y,z
x,1/2+y,1/2+z
-x,1/2-y,1/2+z
-x,y,1/2+z
x,-y,1/2+z
loop_
_atom_site_type_symbol
_atom_site_label
_atom_site_fract_x
_atom_site_fract_y
_atom_site_fract_z
Si Si1 0.295159 0.341374 0.014370
Si Si2 0.601250 0.922648 0.527304
Si Si3 0.672453 0.976477 0.822332
Si Si4 0.300982 0.070244 0.209554
Si Si5 0.820937 0.013788 0.443505
Si Si6 0.783387 0.587481 0.640200
Si Si7 0.893754 0.342454 0.628674
Si Si8 0.611965 0.342681 0.237970
O O1 0.253813 0.250000 0.997364
O O2 0.481016 0.351878 0.010740
O O3 0.228231 0.363269 0.077775
O O4 0.216090 0.397499 0.967000
O O5 0.696758 0.890383 0.581397
O O6 0.500000 0.000000 0.545170
O O7 0.717289 0.944667 0.474637
O O8 0.787969 0.985701 0.875371
O O9 0.669761 0.884195 0.797595
O O10 0.500000 0.000000 0.842457
O O11 0.739326 0.036882 0.773149
O O12 0.192889 0.145239 0.190514
O O13 0.477331 0.100915 0.210559
O O14 0.267574 0.001476 0.161470
O O15 0.000000 0.000000 0.455224
O O16 0.745655 0.654449 0.689549
O O17 0.964713 0.594555 0.625699
O O18 0.952108 0.250000 0.624258
O O19 0.561800 0.250000 0.250472
#
# Coordination Sequence:
#
# PCOD8181447 Si02
#       8
#     8   8   8   8   8   8   8   8
#     4  10  22  38  58  83 113 149 190 233 281 335
#     4  10  20  35  58  82 107 146 192 231 273 333
#     4   9  20  37  57  80 106 143 192 233 270 325
#     4  10  20  35  56  79 108 148 191 227 268 330
#     4  11  22  39  61  84 111 146 187 236 288 339
#     4  11  20  33  53  82 115 148 184 228 280 335
#     4  11  22  34  52  83 119 151 181 227 287 337
#     4  10  20  35  56  83 113 147 185 229 277 330
#
# _framework density 19.448647000000001
#
# number of rings (size 3 to 8) (size 9 to 14) (size 15 to 20)
#    0.000    1.750    0.000    7.125    0.000    4.500 
#    0.000    0.625    0.000    4.500    0.000    0.000 
#    0.000    0.000    0.000    0.000    0.000    0.000 
#
# Total GULP energy -396753.614443 kJ/mol
# GULP energy per Si atom -12398.550451 kJ/mol
# Density = 1.940438 g / cm^3
# Si number density = 19.448647 Si / 1000 Ang^3
#
#
#
# Elastic Constant Matrix: (Units=GPa)
#
#
# Indices 1 2 3 4 5 6 
#
# 1 117.0362 23.7087 52.3012 0.0000 0.0000 0.0000
# 2 23.7087 75.9709 40.3873 0.0000 0.0000 0.0000
# 3 52.3012 40.3873 112.3667 0.0000 0.0000 0.0000
# 4 0.0000 0.0000 0.0000 20.8493 0.0000 0.0000
# 5 0.0000 0.0000 0.0000 0.0000 26.3070 0.0000
# 6 0.0000 0.0000 0.0000 0.0000 0.0000 25.9470
#
#
#
# Elastic Compliance Matrix: (Units=1/GPa)
#
#
# Indices 1 2 3 4 5 6 
#
# 1 0.010834 -0.000866 -0.004732 0.000000 0.000000 0.000000
# 2 -0.000866 0.016341 -0.005471 0.000000 0.000000 0.000000
# 3 -0.004732 -0.005471 0.013068 0.000000 0.000000 0.000000
# 4 0.000000 0.000000 0.000000 0.047963 0.000000 0.000000
# 5 0.000000 0.000000 0.000000 0.000000 0.038013 0.000000
# 6 0.000000 0.000000 0.000000 0.000000 0.000000 0.038540
#
#
# Mechanical properties :
#
#
# Convention : Reuss Voigt Hill
#
# Bulk Modulus (GPa) = 55.22471 59.79646 57.51059
# Shear Modulus (GPa) = 25.91595 27.21909 26.56752
#
# Velocity S-wave (km/s) = 3.65435 3.74510 3.70000
# Velocity P-wave (km/s) = 6.80165 7.03659 6.92012
#
# Compressibility (1/GPa) = 0.01810784
#
# Stress axis : x y z
#
# Youngs Moduli (GPa) = 92.30022 61.19456 76.52262
#
# Poissons Ratio (x) = 0.05297 0.36208
# Poissons Ratio (y) = 0.07990 0.41862
# Poissons Ratio (z) = 0.43673 0.33477
#
# Static dielectric constant tensor:
#      x y z
#    x 3.621710 0.000000 0.000000 
#    y 0.000000 3.487950 0.000000 
#    z 0.000000 0.000000 3.429220 
# 
# 
# High freq. dielectric constant tensor:
#      x y z
#    x 1.759720 0.000000 0.000000 
#    y 0.000000 1.748550 0.000000 
#    z 0.000000 0.000000 1.748520 
# 
# From -- ./inp_files/14180.got.cif
#   From: 2010.03.12/outbox.cif.g09.slc.cpg/sg39_8_cif.got.tgz:14180.got - 2010.04.14 02:53:20.
