data_PCOD8181273
_publ_section_title
;
Structure prediction by ZEFSAII (Michael W. Deem and Ramdas Pophale) SiO2 
 PCOD8181273
Probable space group: A B M 2
;
_chemical_formula_sum "Si O2"
_cell_formula_units_Z 48
_cell_length_a 9.332688
_cell_length_b 17.179242
_cell_length_c 14.613310
_cell_angle_alpha 90.000000
_cell_angle_beta 90.000000
_cell_angle_gamma 90.000000
_cell_volume 2342.930155
_symmetry_space_group_name_H-M "A B M 2"
_symmetry_group_IT_number 39
_symmetry_cell_setting 'orthorhombic'
loop_
_space_group_symop_operation_xyz
x,y,z
-x,-y,z
-x,1/2+y,z
x,1/2-y,z
x,1/2+y,1/2+z
-x,1/2-y,1/2+z
-x,y,1/2+z
x,-y,1/2+z
loop_
_atom_site_type_symbol
_atom_site_label
_atom_site_fract_x
_atom_site_fract_y
_atom_site_fract_z
Si Si1 0.484494 0.338771 0.774020
Si Si2 0.270975 0.424272 0.882755
Si Si3 0.237500 0.563102 0.747408
Si Si4 0.978904 0.337629 0.302530
Si Si5 0.774627 0.664398 0.635600
Si Si6 0.164225 0.505684 0.054043
O O1 0.527558 0.250000 0.794186
O O2 0.416928 0.374563 0.867891
O O3 0.621737 0.385129 0.739740
O O4 0.369522 0.345152 0.693373
O O5 0.268738 0.483560 0.798483
O O6 0.133033 0.368045 0.878142
O O7 0.270585 0.467509 0.979706
O O8 0.118703 0.609050 0.804955
O O9 0.180951 0.542052 0.647257
O O10 0.022032 0.250000 0.328906
O O11 0.910897 0.341319 0.201999
O O12 0.774950 0.750000 0.587574
O O13 0.787691 0.595959 0.561267
O O14 0.000000 0.500000 0.020718
#
# Coordination Sequence:
#
# PCOD8181273 Si02
#       6
#     8   8   8   8   8   8
#     4  10  22  43  63  88 127 172 214 263 323 389
#     4  11  23  40  64  92 128 174 216 264 326 386
#     4  12  21  40  64  96 126 164 221 273 322 385
#     4  10  19  38  65  91 125 167 207 265 330 386
#     4   9  19  38  63  88 122 165 206 259 329 384
#     4  12  22  39  67 101 130 164 225 281 325 393
#
# _framework density 20.487166999999999
#
# number of rings (size 3 to 8) (size 9 to 14) (size 15 to 20)
#    0.000    1.333    5.000    4.000    0.000    0.000 
#    6.000    8.333    0.000    0.000    0.000    0.000 
#    0.000    0.000    0.000    0.000    0.000    0.000 
#
# Total GULP energy -297652.047082 kJ/mol
# GULP energy per Si atom -12402.168628 kJ/mol
# Density = 2.044054 g / cm^3
# Si number density = 20.487167 Si / 1000 Ang^3
#
#
#
# Elastic Constant Matrix: (Units=GPa)
#
#
# Indices 1 2 3 4 5 6 
#
# 1 77.0011 26.1151 -12.4232 0.0000 0.0000 0.0000
# 2 26.1151 137.5444 21.0805 0.0000 0.0000 0.0000
# 3 -12.4232 21.0805 58.9777 0.0000 0.0000 0.0000
# 4 0.0000 0.0000 0.0000 30.0066 0.0000 0.0000
# 5 0.0000 0.0000 0.0000 0.0000 16.9016 0.0000
# 6 0.0000 0.0000 0.0000 0.0000 0.0000 15.0306
#
#
#
# Elastic Compliance Matrix: (Units=1/GPa)
#
#
# Indices 1 2 3 4 5 6 
#
# 1 0.014880 -0.003497 0.004384 0.000000 0.000000 0.000000
# 2 -0.003497 0.008514 -0.003780 0.000000 0.000000 0.000000
# 3 0.004384 -0.003780 0.019230 0.000000 0.000000 0.000000
# 4 0.000000 0.000000 0.000000 0.033326 0.000000 0.000000
# 5 0.000000 0.000000 0.000000 0.000000 0.059166 0.000000
# 6 0.000000 0.000000 0.000000 0.000000 0.000000 0.066531
#
#
# Mechanical properties :
#
#
# Convention : Reuss Voigt Hill
#
# Bulk Modulus (GPa) = 27.14509 38.11867 32.63188
# Shear Modulus (GPa) = 22.75711 28.30448 25.53079
#
# Velocity S-wave (km/s) = 3.33648 3.72098 3.53396
# Velocity P-wave (km/s) = 5.30296 6.09159 5.71090
#
# Compressibility (1/GPa) = 0.03683907
#
# Stress axis : x y z
#
# Youngs Moduli (GPa) = 67.20288 117.45794 52.00174
#
# Poissons Ratio (x) = 0.41078 -0.22800
# Poissons Ratio (y) = 0.23503 0.19655
# Poissons Ratio (z) = -0.29465 0.44396
#
# Static dielectric constant tensor:
#      x y z
#    x 3.678110 0.000000 0.000000 
#    y 0.000000 4.132060 0.000000 
#    z 0.000000 0.000000 3.334070 
# 
# 
# High freq. dielectric constant tensor:
#      x y z
#    x 1.800110 0.000000 0.000000 
#    y 0.000000 1.825800 0.000000 
#    z 0.000000 0.000000 1.763210 
# 
# From -- ./inp_files/8321.got.cif
#   From: 2010.03.12/outbox.cif.g09.slc.cpg/sg39_5_cif.got.tgz:8321.got - 2010.04.14 02:53:20.
