data_PCOD8181081
_publ_section_title
;
Structure prediction by ZEFSAII (Michael W. Deem and Ramdas Pophale) SiO2 
 PCOD8181081
Probable space group: A B M 2
;
_chemical_formula_sum "Si O2"
_cell_formula_units_Z 64
_cell_length_a 24.046354
_cell_length_b 8.869754
_cell_length_c 15.400806
_cell_angle_alpha 90.000000
_cell_angle_beta 90.000000
_cell_angle_gamma 90.000000
_cell_volume 3284.764674
_symmetry_space_group_name_H-M "A B M 2"
_symmetry_group_IT_number 39
_symmetry_cell_setting 'orthorhombic'
loop_
_space_group_symop_operation_xyz
x,y,z
-x,-y,z
-x,1/2+y,z
x,1/2-y,z
x,1/2+y,1/2+z
-x,1/2-y,1/2+z
-x,y,1/2+z
x,-y,1/2+z
loop_
_atom_site_type_symbol
_atom_site_label
_atom_site_fract_x
_atom_site_fract_y
_atom_site_fract_z
Si Si1 0.741667 0.928790 0.437750
Si Si2 0.555662 0.426668 0.331204
Si Si3 0.444580 0.426014 0.030456
Si Si4 0.133934 0.928404 0.930650
Si Si5 0.325283 0.076493 0.087926
Si Si6 0.940551 0.569787 0.590568
Si Si7 0.059498 0.069703 0.270903
Si Si8 0.334385 0.075961 0.281559
O O1 0.743547 0.750000 0.436029
O O2 0.803854 0.996197 0.430992
O O3 0.706609 0.989628 0.355363
O O4 0.714944 0.979771 0.527907
O O5 0.500000 0.500000 0.291520
O O6 0.550940 0.250000 0.320349
O O7 0.562714 0.477254 0.430933
O O8 0.608522 0.484892 0.278816
O O9 0.500000 0.500000 0.071432
O O10 0.453190 0.250000 0.039354
O O11 0.389141 0.480232 0.080080
O O12 0.136342 0.750000 0.930324
O O13 0.102234 0.984012 0.844714
O O14 0.102033 0.983455 0.016526
O O15 0.321732 0.250000 0.057562
O O16 0.305574 0.056387 0.187411
O O17 0.945549 0.750000 0.597988
O O18 0.918569 0.499669 0.680638
O O19 0.000000 0.500000 0.566562
O O20 0.054592 0.250000 0.263927
O O21 0.000000 0.000000 0.294839
O O22 0.348403 0.250000 0.299947
#
# Coordination Sequence:
#
# PCOD8181081 Si02
#       8
#     8   8   8   8   8   8   8   8
#     4  10  21  39  58  78 105 143 187 228 269 317
#     4  10  19  33  55  80 109 141 174 217 269 326
#     4   9  18  32  52  76 105 136 169 212 263 319
#     4   9  20  36  55  78 109 146 184 225 269 318
#     4  10  21  38  56  80 110 141 177 224 274 322
#     4  10  19  34  55  81 113 145 178 221 268 319
#     4  10  19  34  56  83 115 147 180 221 268 321
#     4  10  21  36  57  80 107 141 179 222 272 326
#
# _framework density 19.483892000000001
#
# number of rings (size 3 to 8) (size 9 to 14) (size 15 to 20)
#    0.000    2.250    1.250    2.250    0.000    3.000 
#    0.000    6.875    0.000    0.000    0.000    0.000 
#    0.000    0.000    0.000    0.000    0.000    0.000 
#
# Total GULP energy -396827.818052 kJ/mol
# GULP energy per Si atom -12400.869314 kJ/mol
# Density = 1.943955 g / cm^3
# Si number density = 19.483892 Si / 1000 Ang^3
#
#
#
# Elastic Constant Matrix: (Units=GPa)
#
#
# Indices 1 2 3 4 5 6 
#
# 1 145.6084 33.2494 79.1917 0.0000 0.0000 0.0000
# 2 33.2494 51.8144 32.2802 0.0000 0.0000 0.0000
# 3 79.1917 32.2802 124.6454 0.0000 0.0000 0.0000
# 4 0.0000 0.0000 0.0000 21.8659 0.0000 0.0000
# 5 0.0000 0.0000 0.0000 0.0000 13.4360 0.0000
# 6 0.0000 0.0000 0.0000 0.0000 0.0000 24.3636
#
#
#
# Elastic Compliance Matrix: (Units=1/GPa)
#
#
# Indices 1 2 3 4 5 6 
#
# 1 0.010922 -0.003202 -0.006110 0.000000 0.000000 0.000000
# 2 -0.003202 0.023951 -0.004168 0.000000 0.000000 0.000000
# 3 -0.006110 -0.004168 0.012984 0.000000 0.000000 0.000000
# 4 0.000000 0.000000 0.000000 0.045733 0.000000 0.000000
# 5 0.000000 0.000000 0.000000 0.000000 0.074427 0.000000
# 6 0.000000 0.000000 0.000000 0.000000 0.000000 0.041045
#
#
# Mechanical properties :
#
#
# Convention : Reuss Voigt Hill
#
# Bulk Modulus (GPa) = 47.85467 67.94565 57.90016
# Shear Modulus (GPa) = 20.57708 23.75620 22.16664
#
# Velocity S-wave (km/s) = 3.25331 3.49560 3.37663
# Velocity P-wave (km/s) = 6.22306 7.15826 6.70698
#
# Compressibility (1/GPa) = 0.02089660
#
# Stress axis : x y z
#
# Youngs Moduli (GPa) = 91.55948 41.75122 77.01776
#
# Poissons Ratio (x) = 0.13370 0.47056
# Poissons Ratio (y) = 0.29319 0.32104
# Poissons Ratio (z) = 0.55941 0.17403
#
# Static dielectric constant tensor:
#      x y z
#    x 3.703870 0.000000 0.000000 
#    y 0.000000 3.345640 0.000000 
#    z 0.000000 0.000000 3.623350 
# 
# 
# High freq. dielectric constant tensor:
#      x y z
#    x 1.756380 0.000000 0.000000 
#    y 0.000000 1.742720 0.000000 
#    z 0.000000 0.000000 1.764090 
# 
# From -- ./inp_files/10672.got.cif
#   From: 2010.03.12/outbox.cif.g09.slc.cpg/sg39_6_cif.got.tgz:10672.got - 2010.04.14 02:53:20.
