data_PCOD8181920
_publ_section_title
;
Structure prediction by ZEFSAII (Michael W. Deem and Ramdas Pophale) SiO2 
 PCOD8181920
Probable space group: A B M 2
;
_chemical_formula_sum "Si O2"
_cell_formula_units_Z 64
_cell_length_a 8.289554
_cell_length_b 30.229961
_cell_length_c 12.075724
_cell_angle_alpha 90.000000
_cell_angle_beta 90.000000
_cell_angle_gamma 90.000000
_cell_volume 3026.090626
_symmetry_space_group_name_H-M "A B M 2"
_symmetry_group_IT_number 39
_symmetry_cell_setting 'orthorhombic'
loop_
_space_group_symop_operation_xyz
x,y,z
-x,-y,z
-x,1/2+y,z
x,1/2-y,z
x,1/2+y,1/2+z
-x,1/2-y,1/2+z
-x,y,1/2+z
x,-y,1/2+z
loop_
_atom_site_type_symbol
_atom_site_label
_atom_site_fract_x
_atom_site_fract_y
_atom_site_fract_z
Si Si1 0.701239 0.575501 0.358300
Si Si2 0.157352 0.566497 0.630967
Si Si3 0.802887 0.100772 0.163354
Si Si4 0.317629 0.801714 0.761704
Si Si5 0.322710 0.483128 0.552636
Si Si6 0.209277 0.342680 0.034460
Si Si7 0.132749 0.847238 0.955205
Si Si8 0.415537 0.859846 0.342280
O O1 0.714854 0.565167 0.230099
O O2 0.698541 0.529415 0.423664
O O3 0.857039 0.605068 0.393979
O O4 0.537050 0.602140 0.382735
O O5 0.179376 0.518471 0.574978
O O6 0.210050 0.604267 0.545782
O O7 0.978814 0.578183 0.674208
O O8 0.687513 0.061545 0.123881
O O9 0.738965 0.119291 0.280018
O O10 0.796809 0.142569 0.078363
O O11 0.342251 0.750000 0.749557
O O12 0.220896 0.819042 0.653847
O O13 0.228056 0.812173 0.878275
O O14 0.491289 0.825518 0.762391
O O15 0.500000 0.500000 0.578399
O O16 0.356012 0.332511 0.950722
O O17 0.045975 0.327918 0.971934
#
# Coordination Sequence:
#
# PCOD8181920 Si02
#       8
#     8   8   8   8   8   8   8   8
#     4  10  21  39  62  91 130 173 222 273 335 390
#     4  11  21  41  65  93 131 175 229 277 327 399
#     4  10  23  41  67  96 127 181 229 271 335 394
#     4  11  26  45  69 102 135 170 221 282 341 412
#     4  11  23  36  58  92 133 173 228 276 326 388
#     4  11  23  41  72  97 132 176 222 267 340 409
#     4   9  21  43  70  92 129 174 217 273 331 406
#     4  11  23  40  70  96 134 180 219 277 342 414
#
# _framework density 21.149398000000001
#
# number of rings (size 3 to 8) (size 9 to 14) (size 15 to 20)
#    0.000    1.500    2.500    2.625    7.000    3.500 
#    0.000    5.000    0.000    0.000    0.000    0.000 
#    0.000    0.000    0.000    0.000    0.000    0.000 
#
# Total GULP energy -396635.807762 kJ/mol
# GULP energy per Si atom -12394.868993 kJ/mol
# Density = 2.110126 g / cm^3
# Si number density = 21.149398 Si / 1000 Ang^3
#
#
#
# Elastic Constant Matrix: (Units=GPa)
#
#
# Indices 1 2 3 4 5 6 
#
# 1 121.2462 42.8245 41.8296 0.0000 0.0000 0.0000
# 2 42.8245 93.8548 25.6673 0.0000 0.0000 0.0000
# 3 41.8296 25.6673 80.5510 0.0000 0.0000 0.0000
# 4 0.0000 0.0000 0.0000 26.0447 0.0000 0.0000
# 5 0.0000 0.0000 0.0000 0.0000 37.5201 0.0000
# 6 0.0000 0.0000 0.0000 0.0000 0.0000 12.4083
#
#
#
# Elastic Compliance Matrix: (Units=1/GPa)
#
#
# Indices 1 2 3 4 5 6 
#
# 1 0.011189 -0.003852 -0.004583 0.000000 0.000000 0.000000
# 2 -0.003852 0.012998 -0.002141 0.000000 0.000000 0.000000
# 3 -0.004583 -0.002141 0.015477 0.000000 0.000000 0.000000
# 4 0.000000 0.000000 0.000000 0.038395 0.000000 0.000000
# 5 0.000000 0.000000 0.000000 0.000000 0.026652 0.000000
# 6 0.000000 0.000000 0.000000 0.000000 0.000000 0.080591
#
#
# Mechanical properties :
#
#
# Convention : Reuss Voigt Hill
#
# Bulk Modulus (GPa) = 54.02199 57.36608 55.69403
# Shear Modulus (GPa) = 23.51533 27.54999 25.53266
#
# Velocity S-wave (km/s) = 3.33809 3.61312 3.47832
# Velocity P-wave (km/s) = 6.36047 6.67752 6.52092
#
# Compressibility (1/GPa) = 0.01851098
#
# Stress axis : x y z
#
# Youngs Moduli (GPa) = 89.36989 76.93456 64.61275
#
# Poissons Ratio (x) = 0.29637 0.29613
# Poissons Ratio (y) = 0.34427 0.13836
# Poissons Ratio (z) = 0.40959 0.16475
#
# Static dielectric constant tensor:
#      x y z
#    x 3.816590 0.000000 0.000000 
#    y 0.000000 3.594280 0.000000 
#    z 0.000000 0.000000 3.933830 
# 
# 
# High freq. dielectric constant tensor:
#      x y z
#    x 1.831240 0.000000 0.000000 
#    y 0.000000 1.799870 0.000000 
#    z 0.000000 0.000000 1.837320 
# 
# From -- ./inp_files/5401.got.cif
#   From: 2010.03.12/outbox.cif.g09.slc.cpg/sg39_3_cif.got.tgz:5401.got - 2010.04.14 02:53:20.
