data_PCOD8181785
_publ_section_title
;
Structure prediction by ZEFSAII (Michael W. Deem and Ramdas Pophale) SiO2 
 PCOD8181785
Probable space group: A B M 2
;
_chemical_formula_sum "Si O2"
_cell_formula_units_Z 64
_cell_length_a 23.641454
_cell_length_b 9.196340
_cell_length_c 15.253006
_cell_angle_alpha 90.000000
_cell_angle_beta 90.000000
_cell_angle_gamma 90.000000
_cell_volume 3316.229997
_symmetry_space_group_name_H-M "A B M 2"
_symmetry_group_IT_number 39
_symmetry_cell_setting 'orthorhombic'
loop_
_space_group_symop_operation_xyz
x,y,z
-x,-y,z
-x,1/2+y,z
x,1/2-y,z
x,1/2+y,1/2+z
-x,1/2-y,1/2+z
-x,y,1/2+z
x,-y,1/2+z
loop_
_atom_site_type_symbol
_atom_site_label
_atom_site_fract_x
_atom_site_fract_y
_atom_site_fract_z
Si Si1 0.141729 0.921531 0.382310
Si Si2 0.058454 0.579878 0.538638
Si Si3 0.131239 0.578035 0.703599
Si Si4 0.256649 0.413130 0.182312
Si Si5 0.254585 0.586189 0.885545
Si Si6 0.440722 0.423332 0.793726
Si Si7 0.376840 0.082963 0.442680
Si Si8 0.637906 0.916419 0.636227
O O1 0.144772 0.750000 0.367583
O O2 0.100058 0.965235 0.460540
O O3 0.118053 0.995552 0.293974
O O4 0.203847 0.977544 0.409080
O O5 0.046784 0.750000 0.537513
O O6 0.084900 0.533114 0.631944
O O7 0.000000 0.500000 0.524091
O O8 0.131793 0.750000 0.723527
O O9 0.192672 0.530659 0.666428
O O10 0.262643 0.250000 0.147013
O O11 0.271163 0.424563 0.284299
O O12 0.301316 0.507738 0.129351
O O13 0.235166 0.750000 0.909137
O O14 0.310646 0.540696 0.937796
O O15 0.500000 0.500000 0.778532
O O16 0.448373 0.250000 0.795227
O O17 0.414588 0.475017 0.885580
O O18 0.400925 0.477956 0.714303
O O19 0.385977 0.250000 0.411575
O O20 0.394893 0.062945 0.544094
O O21 0.651403 0.750000 0.655331
#
# Coordination Sequence:
#
# PCOD8181785 Si02
#       8
#     8   8   8   8   8   8   8   8
#     4  10  21  36  57  86 116 148 191 242 289 340
#     4  10  23  41  59  82 115 154 197 242 288 346
#     4   9  20  39  58  81 115 154 192 234 289 347
#     4   9  17  32  57  84 114 152 189 228 284 345
#     4   9  18  34  57  84 118 156 189 230 288 347
#     4  11  24  42  62  85 116 155 196 241 287 337
#     4  10  21  39  60  86 119 154 192 236 286 342
#     4  10  22  37  57  88 120 149 188 237 286 337
#
# _framework density 19.299023999999999
#
# number of rings (size 3 to 8) (size 9 to 14) (size 15 to 20)
#    0.000    2.250    1.250    1.500    1.750    6.000 
#    0.000    3.750    0.000    0.000    0.000    0.000 
#    0.000    0.000    0.000    0.000    0.000    0.000 
#
# Total GULP energy -396833.996687 kJ/mol
# GULP energy per Si atom -12401.062396 kJ/mol
# Density = 1.925510 g / cm^3
# Si number density = 19.299024 Si / 1000 Ang^3
#
#
#
# Elastic Constant Matrix: (Units=GPa)
#
#
# Indices 1 2 3 4 5 6 
#
# 1 85.8619 38.2089 33.1488 0.0000 0.0000 0.0000
# 2 38.2089 60.9234 30.0718 0.0000 0.0000 0.0000
# 3 33.1488 30.0718 70.5380 0.0000 0.0000 0.0000
# 4 0.0000 0.0000 0.0000 28.4345 0.0000 0.0000
# 5 0.0000 0.0000 0.0000 0.0000 21.3028 0.0000
# 6 0.0000 0.0000 0.0000 0.0000 0.0000 35.2843
#
#
#
# Elastic Compliance Matrix: (Units=1/GPa)
#
#
# Indices 1 2 3 4 5 6 
#
# 1 0.017172 -0.008595 -0.004406 0.000000 0.000000 0.000000
# 2 -0.008595 0.025091 -0.006657 0.000000 0.000000 0.000000
# 3 -0.004406 -0.006657 0.019085 0.000000 0.000000 0.000000
# 4 0.000000 0.000000 0.000000 0.035168 0.000000 0.000000
# 5 0.000000 0.000000 0.000000 0.000000 0.046942 0.000000
# 6 0.000000 0.000000 0.000000 0.000000 0.000000 0.028341
#
#
# Mechanical properties :
#
#
# Convention : Reuss Voigt Hill
#
# Bulk Modulus (GPa) = 45.38897 46.68692 46.03794
# Shear Modulus (GPa) = 22.88735 24.73059 23.80897
#
# Velocity S-wave (km/s) = 3.44747 3.58361 3.51620
# Velocity P-wave (km/s) = 6.27827 6.43171 6.35545
#
# Compressibility (1/GPa) = 0.02203179
#
# Stress axis : x y z
#
# Youngs Moduli (GPa) = 58.23284 39.85525 52.39602
#
# Poissons Ratio (x) = 0.34257 0.23084
# Poissons Ratio (y) = 0.50053 0.34883
# Poissons Ratio (z) = 0.25656 0.26534
#
# Static dielectric constant tensor:
#      x y z
#    x 3.454410 0.000000 0.000000 
#    y 0.000000 3.434120 0.000000 
#    z 0.000000 0.000000 3.562980 
# 
# 
# High freq. dielectric constant tensor:
#      x y z
#    x 1.746310 0.000000 0.000000 
#    y 0.000000 1.745000 0.000000 
#    z 0.000000 0.000000 1.755800 
# 
# From -- ./inp_files/10568.got.cif
#   From: 2010.03.12/outbox.cif.g09.slc.cpg/sg39_6_cif.got.tgz:10568.got - 2010.04.14 02:53:20.
