data_PCOD8181644
_publ_section_title
;
Structure prediction by ZEFSAII (Michael W. Deem and Ramdas Pophale) SiO2 
 PCOD8181644
Probable space group: A B M 2
;
_chemical_formula_sum "Si O2"
_cell_formula_units_Z 60
_cell_length_a 7.927070
_cell_length_b 28.009201
_cell_length_c 12.494036
_cell_angle_alpha 90.000000
_cell_angle_beta 90.000000
_cell_angle_gamma 90.000000
_cell_volume 2774.062020
_symmetry_space_group_name_H-M "A B M 2"
_symmetry_group_IT_number 39
_symmetry_cell_setting 'orthorhombic'
loop_
_space_group_symop_operation_xyz
x,y,z
-x,-y,z
-x,1/2+y,z
x,1/2-y,z
x,1/2+y,1/2+z
-x,1/2-y,1/2+z
-x,y,1/2+z
x,-y,1/2+z
loop_
_atom_site_type_symbol
_atom_site_label
_atom_site_fract_x
_atom_site_fract_y
_atom_site_fract_z
Si Si1 0.084583 0.574576 0.334960
Si Si2 0.836938 0.194887 0.549106
Si Si3 0.323358 0.692849 0.770472
Si Si4 0.130749 0.642523 0.962719
Si Si5 0.571525 0.418576 0.976514
Si Si6 0.500000 0.000000 0.635320
Si Si7 0.231761 0.022304 0.302867
Si Si8 0.659726 0.147942 0.356460
O O1 0.183825 0.526149 0.367976
O O2 0.204464 0.616934 0.284666
O O3 0.997039 0.598988 0.437425
O O4 0.927983 0.554654 0.262691
O O5 0.852374 0.250000 0.569913
O O6 0.735207 0.174973 0.652642
O O7 0.748523 0.186539 0.433880
O O8 0.029723 0.175880 0.545365
O O9 0.329198 0.750000 0.782349
O O10 0.192962 0.671558 0.857156
O O11 0.513320 0.672213 0.786334
O O12 0.293907 0.620283 0.020470
O O13 0.646350 0.446804 0.876043
O O14 0.406265 0.391813 0.938016
O O15 0.516155 0.452102 0.070253
O O16 0.328342 0.995318 0.699488
#
# Coordination Sequence:
#
# PCOD8181644 Si02
#       8
#     8   8   8   8   8   4   8   8
#     4   9  19  37  58  81 113 153 192 238 293 342
#     4  10  21  38  61  89 120 155 196 245 305 369
#     4  10  21  38  62  90 120 157 198 245 307 369
#     4   9  20  39  62  86 119 153 194 249 299 359
#     4  10  22  38  57  85 113 151 198 239 294 354
#     4  12  22  34  58  84 116 156 192 240 296 346
#     4  10  21  38  56  80 117 154 194 244 289 346
#     4  10  20  37  61  86 119 156 197 249 295 355
#
# _framework density 21.628931999999999
#
# number of rings (size 3 to 8) (size 9 to 14) (size 15 to 20)
#    0.000    2.133    0.000    2.800    0.000    5.333 
#    0.000   16.000    0.000   14.400    0.000    0.000 
#    0.000    0.000    0.000    0.000    0.000    0.000 
#
# Total GULP energy -371665.019304 kJ/mol
# GULP energy per Si atom -12388.833977 kJ/mol
# Density = 2.157970 g / cm^3
# Si number density = 21.628932 Si / 1000 Ang^3
#
#
#
# Elastic Constant Matrix: (Units=GPa)
#
#
# Indices 1 2 3 4 5 6 
#
# 1 87.1259 39.1495 17.0202 0.0000 0.0000 0.0000
# 2 39.1495 100.0802 27.8279 0.0000 0.0000 0.0000
# 3 17.0202 27.8279 45.5280 0.0000 0.0000 0.0000
# 4 0.0000 0.0000 0.0000 45.2259 0.0000 0.0000
# 5 0.0000 0.0000 0.0000 0.0000 25.7802 0.0000
# 6 0.0000 0.0000 0.0000 0.0000 0.0000 44.4313
#
#
#
# Elastic Compliance Matrix: (Units=1/GPa)
#
#
# Indices 1 2 3 4 5 6 
#
# 1 0.014121 -0.004887 -0.002292 0.000000 0.000000 0.000000
# 2 -0.004887 0.013729 -0.006565 0.000000 0.000000 0.000000
# 3 -0.002292 -0.006565 0.026834 0.000000 0.000000 0.000000
# 4 0.000000 0.000000 0.000000 0.022111 0.000000 0.000000
# 5 0.000000 0.000000 0.000000 0.000000 0.038789 0.000000
# 6 0.000000 0.000000 0.000000 0.000000 0.000000 0.022507
#
#
# Mechanical properties :
#
#
# Convention : Reuss Voigt Hill
#
# Bulk Modulus (GPa) = 36.76873 44.52549 40.64711
# Shear Modulus (GPa) = 28.62967 33.00324 30.81646
#
# Velocity S-wave (km/s) = 3.64218 3.91049 3.77872
# Velocity P-wave (km/s) = 5.89271 6.40469 6.15403
#
# Compressibility (1/GPa) = 0.02719702
#
# Stress axis : x y z
#
# Youngs Moduli (GPa) = 70.81551 72.83921 37.26625
#
# Poissons Ratio (x) = 0.35593 0.08542
# Poissons Ratio (y) = 0.34605 0.24464
# Poissons Ratio (z) = 0.16233 0.47816
#
# Static dielectric constant tensor:
#      x y z
#    x 4.383870 0.000000 0.000000 
#    y 0.000000 4.047010 0.000000 
#    z 0.000000 0.000000 3.461880 
# 
# 
# High freq. dielectric constant tensor:
#      x y z
#    x 1.873290 0.000000 0.000000 
#    y 0.000000 1.869030 0.000000 
#    z 0.000000 0.000000 1.801610 
# 
# From -- ./inp_files/5366.got.cif
#   From: 2010.03.12/outbox.cif.g09.slc.cpg/sg39_3_cif.got.tgz:5366.got - 2010.04.14 02:53:20.
