data_PCOD8181952
_publ_section_title
;
Structure prediction by ZEFSAII (Michael W. Deem and Ramdas Pophale) SiO2 
 PCOD8181952
Probable space group: A B M 2
;
_chemical_formula_sum "Si O2"
_cell_formula_units_Z 64
_cell_length_a 23.577991
_cell_length_b 8.570338
_cell_length_c 15.126272
_cell_angle_alpha 90.000000
_cell_angle_beta 90.000000
_cell_angle_gamma 90.000000
_cell_volume 3056.586237
_symmetry_space_group_name_H-M "A B M 2"
_symmetry_group_IT_number 39
_symmetry_cell_setting 'orthorhombic'
loop_
_space_group_symop_operation_xyz
x,y,z
-x,-y,z
-x,1/2+y,z
x,1/2-y,z
x,1/2+y,1/2+z
-x,1/2-y,1/2+z
-x,y,1/2+z
x,-y,1/2+z
loop_
_atom_site_type_symbol
_atom_site_label
_atom_site_fract_x
_atom_site_fract_y
_atom_site_fract_z
Si Si1 0.866236 0.935294 0.607160
Si Si2 0.746740 0.568411 0.087681
Si Si3 0.560765 0.066813 0.683641
Si Si4 0.634465 0.066993 0.031018
Si Si5 0.613197 0.069514 0.351815
Si Si6 0.267024 0.570753 0.273377
Si Si7 0.938482 0.935667 0.957142
Si Si8 0.142707 0.431073 0.805489
O O1 0.864834 0.750000 0.604787
O O2 0.871899 0.998546 0.707958
O O3 0.808239 0.999623 0.564442
O O4 0.919150 0.999958 0.552194
O O5 0.746012 0.750000 0.064449
O O6 0.700046 0.484035 0.027103
O O7 0.730705 0.542636 0.189811
O O8 0.561999 0.250000 0.667112
O O9 0.500000 0.000000 0.656584
O O10 0.608172 0.985029 0.623978
O O11 0.574207 0.028719 0.785486
O O12 0.629180 0.250000 0.019917
O O13 0.600073 0.985583 0.951187
O O14 0.597391 0.250000 0.340182
O O15 0.679654 0.036394 0.335125
O O16 0.267142 0.750000 0.238458
O O17 0.209086 0.538330 0.327865
O O18 0.938827 0.750000 0.960181
O O19 0.896449 0.005663 0.881663
O O20 0.000000 0.000000 0.934359
O O21 0.128678 0.250000 0.804019
#
# Coordination Sequence:
#
# PCOD8181952 Si02
#       8
#     8   8   8   8   8   8   8   8
#     4  10  21  40  62  89 122 161 205 258 316 374
#     4  11  21  36  61  93 129 168 211 259 317 384
#     4  12  26  47  71  96 129 172 219 267 320 381
#     4  12  25  42  64  96 133 172 217 267 321 380
#     4  11  23  40  66  99 132 169 212 264 324 382
#     4   9  18  36  62  90 126 165 205 257 319 378
#     4  11  23  40  61  87 120 162 209 257 309 374
#     4   8  18  37  60  86 118 159 201 249 307 365
#
# _framework density 20.938392
#
# number of rings (size 3 to 8) (size 9 to 14) (size 15 to 20)
#    0.000    1.500    1.250    5.250    1.750    1.500 
#    0.000   10.000    0.000    0.000    0.000    0.000 
#    0.000    0.000    0.000    0.000    0.000    0.000 
#
# Total GULP energy -396916.872406 kJ/mol
# GULP energy per Si atom -12403.652263 kJ/mol
# Density = 2.089074 g / cm^3
# Si number density = 20.938392 Si / 1000 Ang^3
#
#
#
# Elastic Constant Matrix: (Units=GPa)
#
#
# Indices 1 2 3 4 5 6 
#
# 1 87.9509 26.1673 14.0468 0.0000 0.0000 0.0000
# 2 26.1673 91.1852 12.2903 0.0000 0.0000 0.0000
# 3 14.0468 12.2903 65.6573 0.0000 0.0000 0.0000
# 4 0.0000 0.0000 0.0000 31.7376 0.0000 0.0000
# 5 0.0000 0.0000 0.0000 0.0000 31.0015 0.0000
# 6 0.0000 0.0000 0.0000 0.0000 0.0000 34.2022
#
#
#
# Elastic Compliance Matrix: (Units=1/GPa)
#
#
# Indices 1 2 3 4 5 6 
#
# 1 0.012704 -0.003364 -0.002088 0.000000 0.000000 0.000000
# 2 -0.003364 0.012141 -0.001553 0.000000 0.000000 0.000000
# 3 -0.002088 -0.001553 0.015968 0.000000 0.000000 0.000000
# 4 0.000000 0.000000 0.000000 0.031508 0.000000 0.000000
# 5 0.000000 0.000000 0.000000 0.000000 0.032256 0.000000
# 6 0.000000 0.000000 0.000000 0.000000 0.000000 0.029238
#
#
# Mechanical properties :
#
#
# Convention : Reuss Voigt Hill
#
# Bulk Modulus (GPa) = 37.30940 38.86692 38.08816
# Shear Modulus (GPa) = 31.89547 32.20754 32.05151
#
# Velocity S-wave (km/s) = 3.90718 3.92625 3.91673
# Velocity P-wave (km/s) = 6.18159 6.25753 6.21968
#
# Compressibility (1/GPa) = 0.02680290
#
# Stress axis : x y z
#
# Youngs Moduli (GPa) = 78.71260 82.36240 62.62498
#
# Poissons Ratio (x) = 0.27709 0.13078
# Poissons Ratio (y) = 0.26481 0.09726
# Poissons Ratio (z) = 0.16437 0.12791
#
# Static dielectric constant tensor:
#      x y z
#    x 3.780640 0.000000 0.000000 
#    y 0.000000 3.629480 0.000000 
#    z 0.000000 0.000000 3.859040 
# 
# 
# High freq. dielectric constant tensor:
#      x y z
#    x 1.819590 0.000000 0.000000 
#    y 0.000000 1.813490 0.000000 
#    z 0.000000 0.000000 1.820400 
# 
# From -- ./inp_files/10692.got.cif
#   From: 2010.03.12/outbox.cif.g09.slc.cpg/sg39_6_cif.got.tgz:10692.got - 2010.04.14 02:53:20.
