data_PCOD8181862
_publ_section_title
;
Structure prediction by ZEFSAII (Michael W. Deem and Ramdas Pophale) SiO2 
 PCOD8181862
Probable space group: A B M 2
;
_chemical_formula_sum "Si O2"
_cell_formula_units_Z 64
_cell_length_a 11.099786
_cell_length_b 14.667018
_cell_length_c 18.377352
_cell_angle_alpha 90.000000
_cell_angle_beta 90.000000
_cell_angle_gamma 90.000000
_cell_volume 2991.846892
_symmetry_space_group_name_H-M "A B M 2"
_symmetry_group_IT_number 39
_symmetry_cell_setting 'orthorhombic'
loop_
_space_group_symop_operation_xyz
x,y,z
-x,-y,z
-x,1/2+y,z
x,1/2-y,z
x,1/2+y,1/2+z
-x,1/2-y,1/2+z
-x,y,1/2+z
x,-y,1/2+z
loop_
_atom_site_type_symbol
_atom_site_label
_atom_site_fract_x
_atom_site_fract_y
_atom_site_fract_z
Si Si1 0.161600 0.847687 0.669970
Si Si2 0.430530 0.642065 0.413117
Si Si3 0.022429 0.102803 0.789121
Si Si4 0.034262 0.902359 0.065940
Si Si5 0.699350 0.852609 0.763182
Si Si6 0.266789 0.467538 0.633216
Si Si7 0.873693 0.849169 0.421547
Si Si8 0.336326 0.034043 0.467353
O O1 0.230732 0.750000 0.669342
O O2 0.071774 0.843568 0.738703
O O3 0.080539 0.853185 0.598322
O O4 0.258593 0.929126 0.664428
O O5 0.424665 0.750000 0.436298
O O6 0.395602 0.631178 0.328446
O O7 0.557270 0.595399 0.433398
O O8 0.338319 0.575480 0.455674
O O9 0.162316 0.128582 0.784853
O O10 0.985461 0.122655 0.871917
O O11 0.000000 0.000000 0.765922
O O12 0.133275 0.922623 0.129229
O O13 0.082324 0.836460 0.003983
O O14 0.000000 0.000000 0.030551
O O15 0.689369 0.750000 0.735994
O O16 0.658095 0.914230 0.694826
O O17 0.330026 0.454736 0.554779
O O18 0.820328 0.750000 0.398338
O O19 0.775963 0.929376 0.421205
#
# Coordination Sequence:
#
# PCOD8181862 Si02
#       8
#     8   8   8   8   8   8   8   8
#     4  11  20  33  55  87 132 174 207 255 312 384
#     4  10  23  45  70  95 121 161 217 277 330 382
#     4  12  21  36  56  88 136 175 209 258 317 387
#     4   9  18  34  51  81 124 171 214 255 311 379
#     4  11  22  38  64  96 128 168 216 264 322 389
#     4  10  21  38  60  91 123 168 214 258 326 387
#     4  11  22  34  57  92 126 170 216 260 321 395
#     4  10  23  44  68  91 125 166 213 275 330 385
#
# _framework density 21.391468
#
# number of rings (size 3 to 8) (size 9 to 14) (size 15 to 20)
#    0.000    1.500    2.500    3.375    0.000    5.000 
#    0.000    3.750    0.000    0.000    0.000    0.000 
#    0.000    0.000    0.000    0.000    0.000    0.000 
#
# Total GULP energy -396453.848649 kJ/mol
# GULP energy per Si atom -12389.182770 kJ/mol
# Density = 2.134278 g / cm^3
# Si number density = 21.391468 Si / 1000 Ang^3
#
#
#
# Elastic Constant Matrix: (Units=GPa)
#
#
# Indices 1 2 3 4 5 6 
#
# 1 52.3588 37.1402 35.1478 0.0000 0.0000 0.0000
# 2 37.1402 171.7731 59.0678 0.0000 0.0000 0.0000
# 3 35.1478 59.0678 101.7978 0.0000 0.0000 0.0000
# 4 0.0000 0.0000 0.0000 24.7317 0.0000 0.0000
# 5 0.0000 0.0000 0.0000 0.0000 24.4989 0.0000
# 6 0.0000 0.0000 0.0000 0.0000 0.0000 24.0419
#
#
#
# Elastic Compliance Matrix: (Units=1/GPa)
#
#
# Indices 1 2 3 4 5 6 
#
# 1 0.026189 -0.003190 -0.007192 0.000000 0.000000 0.000000
# 2 -0.003190 0.007661 -0.003344 0.000000 0.000000 0.000000
# 3 -0.007192 -0.003344 0.014247 0.000000 0.000000 0.000000
# 4 0.000000 0.000000 0.000000 0.040434 0.000000 0.000000
# 5 0.000000 0.000000 0.000000 0.000000 0.040818 0.000000
# 6 0.000000 0.000000 0.000000 0.000000 0.000000 0.041594
#
#
# Mechanical properties :
#
#
# Convention : Reuss Voigt Hill
#
# Bulk Modulus (GPa) = 48.43408 65.40458 56.91933
# Shear Modulus (GPa) = 24.35743 27.62609 25.99176
#
# Velocity S-wave (km/s) = 3.37805 3.59758 3.48954
# Velocity P-wave (km/s) = 6.15678 6.92085 6.54997
#
# Compressibility (1/GPa) = 0.02064662
#
# Stress axis : x y z
#
# Youngs Moduli (GPa) = 38.18384 130.52760 70.19083
#
# Poissons Ratio (x) = 0.41632 0.50479
# Poissons Ratio (y) = 0.12179 0.23473
# Poissons Ratio (z) = 0.27460 0.43650
#
# Static dielectric constant tensor:
#      x y z
#    x 3.687070 0.000000 0.000000 
#    y 0.000000 4.613000 0.000000 
#    z 0.000000 0.000000 3.822410 
# 
# 
# High freq. dielectric constant tensor:
#      x y z
#    x 1.802460 0.000000 0.000000 
#    y 0.000000 1.857890 0.000000 
#    z 0.000000 0.000000 1.843870 
# 
# From -- ./inp_files/12382.got.cif
#   From: 2010.03.12/outbox.cif.g09.slc.cpg/sg39_7_cif.got.tgz:12382.got - 2010.04.14 02:53:20.
