data_PCOD8181722
_publ_section_title
;
Structure prediction by ZEFSAII (Michael W. Deem and Ramdas Pophale) SiO2 
 PCOD8181722
Probable space group: A B M 2
;
_chemical_formula_sum "Si O2"
_cell_formula_units_Z 64
_cell_length_a 14.047847
_cell_length_b 18.420972
_cell_length_c 12.225716
_cell_angle_alpha 90.000000
_cell_angle_beta 90.000000
_cell_angle_gamma 90.000000
_cell_volume 3163.709612
_symmetry_space_group_name_H-M "A B M 2"
_symmetry_group_IT_number 39
_symmetry_cell_setting 'orthorhombic'
loop_
_space_group_symop_operation_xyz
x,y,z
-x,-y,z
-x,1/2+y,z
x,1/2-y,z
x,1/2+y,1/2+z
-x,1/2-y,1/2+z
-x,y,1/2+z
x,-y,1/2+z
loop_
_atom_site_type_symbol
_atom_site_label
_atom_site_fract_x
_atom_site_fract_y
_atom_site_fract_z
Si Si1 0.676422 0.570713 0.215380
Si Si2 0.353507 0.568360 0.078352
Si Si3 0.801373 0.465894 0.914513
Si Si4 0.157141 0.127109 0.902734
Si Si5 0.027182 0.081522 0.289573
Si Si6 0.651567 0.333672 0.286965
Si Si7 0.481392 0.082394 0.374859
Si Si8 0.840602 0.669088 0.137094
O O1 0.636422 0.512626 0.127863
O O2 0.740100 0.526915 0.303309
O O3 0.591575 0.610986 0.281467
O O4 0.737709 0.632794 0.156923
O O5 0.355239 0.629867 0.168901
O O6 0.254691 0.574490 0.011164
O O7 0.440853 0.585323 0.997506
O O8 0.823678 0.547239 0.951399
O O9 0.898202 0.421810 0.890711
O O10 0.242694 0.158698 0.832094
O O11 0.064381 0.127004 0.826079
O O12 0.140614 0.177000 0.007996
O O13 0.074079 0.122423 0.187992
O O14 0.000000 0.000000 0.251675
O O15 0.624014 0.250000 0.274406
O O16 0.577748 0.370989 0.371197
O O17 0.500000 0.000000 0.340492
O O18 0.839788 0.750000 0.188012
#
# Coordination Sequence:
#
# PCOD8181722 Si02
#       8
#     8   8   8   8   8   8   8   8
#     4  10  20  40  65  93 123 161 213 263 311 385
#     4  11  21  39  69  91 127 164 215 259 322 388
#     4   9  18  38  65 100 120 156 215 271 306 370
#     4  11  21  41  63  91 132 165 214 267 318 377
#     4   9  22  40  66  96 126 167 220 266 313 377
#     4  12  27  43  61  93 133 170 212 267 327 382
#     4  11  24  40  66  97 123 162 217 271 313 381
#     4  11  24  39  63  97 131 172 207 261 340 386
#
# _framework density 20.229417000000002
#
# number of rings (size 3 to 8) (size 9 to 14) (size 15 to 20)
#    0.000    1.500    3.750    1.125    1.750    4.500 
#    0.000    5.000    0.000    0.000    0.000    0.000 
#    0.000    0.000    0.000    0.000    0.000    0.000 
#
# Total GULP energy -396896.612197 kJ/mol
# GULP energy per Si atom -12403.019131 kJ/mol
# Density = 2.018337 g / cm^3
# Si number density = 20.229417 Si / 1000 Ang^3
#
#
#
# Elastic Constant Matrix: (Units=GPa)
#
#
# Indices 1 2 3 4 5 6 
#
# 1 119.2903 39.5999 54.7267 0.0000 0.0000 0.0000
# 2 39.5999 102.8515 45.1100 0.0000 0.0000 0.0000
# 3 54.7267 45.1100 118.1673 0.0000 0.0000 0.0000
# 4 0.0000 0.0000 0.0000 13.3693 0.0000 0.0000
# 5 0.0000 0.0000 0.0000 0.0000 32.6779 0.0000
# 6 0.0000 0.0000 0.0000 0.0000 0.0000 20.5124
#
#
#
# Elastic Compliance Matrix: (Units=1/GPa)
#
#
# Indices 1 2 3 4 5 6 
#
# 1 0.011129 -0.002431 -0.004226 0.000000 0.000000 0.000000
# 2 -0.002431 0.012209 -0.003535 0.000000 0.000000 0.000000
# 3 -0.004226 -0.003535 0.011769 0.000000 0.000000 0.000000
# 4 0.000000 0.000000 0.000000 0.074798 0.000000 0.000000
# 5 0.000000 0.000000 0.000000 0.000000 0.030602 0.000000
# 6 0.000000 0.000000 0.000000 0.000000 0.000000 0.048751
#
#
# Mechanical properties :
#
#
# Convention : Reuss Voigt Hill
#
# Bulk Modulus (GPa) = 67.92096 68.79804 68.35950
# Shear Modulus (GPa) = 23.30460 26.70341 25.00401
#
# Velocity S-wave (km/s) = 3.39782 3.63716 3.51952
# Velocity P-wave (km/s) = 7.00298 7.19175 7.09800
#
# Compressibility (1/GPa) = 0.01472300
#
# Stress axis : x y z
#
# Youngs Moduli (GPa) = 89.85758 81.90539 84.96828
#
# Poissons Ratio (x) = 0.19914 0.35907
# Poissons Ratio (y) = 0.21847 0.30035
# Poissons Ratio (z) = 0.37973 0.28952
#
# Static dielectric constant tensor:
#      x y z
#    x 3.941270 0.000000 0.000000 
#    y 0.000000 3.427640 0.000000 
#    z 0.000000 0.000000 3.588970 
# 
# 
# High freq. dielectric constant tensor:
#      x y z
#    x 1.802690 0.000000 0.000000 
#    y 0.000000 1.765400 0.000000 
#    z 0.000000 0.000000 1.792010 
# 
# From -- ./inp_files/6613.got.cif
#   From: 2010.03.12/outbox.cif.g09.slc.cpg/sg39_4_cif.got.tgz:6613.got - 2010.04.14 02:53:20.
