data_PCOD8181563
_publ_section_title
;
Structure prediction by ZEFSAII (Michael W. Deem and Ramdas Pophale) SiO2 
 PCOD8181563
Probable space group: A B M 2
;
_chemical_formula_sum "Si O2"
_cell_formula_units_Z 64
_cell_length_a 24.191397
_cell_length_b 9.056614
_cell_length_c 15.146411
_cell_angle_alpha 90.000000
_cell_angle_beta 90.000000
_cell_angle_gamma 90.000000
_cell_volume 3318.459671
_symmetry_space_group_name_H-M "A B M 2"
_symmetry_group_IT_number 39
_symmetry_cell_setting 'orthorhombic'
loop_
_space_group_symop_operation_xyz
x,y,z
-x,-y,z
-x,1/2+y,z
x,1/2-y,z
x,1/2+y,1/2+z
-x,1/2-y,1/2+z
-x,y,1/2+z
x,-y,1/2+z
loop_
_atom_site_type_symbol
_atom_site_label
_atom_site_fract_x
_atom_site_fract_y
_atom_site_fract_z
Si Si1 0.442936 0.424197 0.005750
Si Si2 0.051366 0.587539 0.700093
Si Si3 0.362216 0.419606 0.845810
Si Si4 0.825952 0.426096 0.495209
Si Si5 0.051704 0.087795 0.990383
Si Si6 0.752547 0.075249 0.850960
Si Si7 0.557020 0.575931 0.685738
Si Si8 0.171204 0.425577 0.193460
O O1 0.500000 0.500000 0.975610
O O2 0.452609 0.250000 0.019845
O O3 0.421717 0.499708 0.095862
O O4 0.397604 0.455858 0.932101
O O5 0.048404 0.750000 0.741624
O O6 0.045862 0.595554 0.595144
O O7 0.110692 0.512095 0.722687
O O8 0.000000 0.500000 0.742204
O O9 0.342409 0.250000 0.846419
O O10 0.310463 0.527157 0.844975
O O11 0.397757 0.455056 0.759633
O O12 0.821439 0.250000 0.486917
O O13 0.887817 0.480181 0.467280
O O14 0.780467 0.502685 0.435515
O O15 0.812891 0.479121 0.595229
O O16 0.048126 0.250000 0.949151
O O17 0.000000 0.000000 0.948619
O O18 0.756226 0.250000 0.860066
O O19 0.783111 0.018696 0.762360
O O20 0.500000 0.500000 0.715986
O O21 0.547203 0.750000 0.671219
O O22 0.165921 0.250000 0.191603
#
# Coordination Sequence:
#
# PCOD8181563 Si02
#       8
#     8   8   8   8   8   8   8   8
#     4  10  20  36  59  86 115 146 178 214 261 314
#     4   8  13  25  46  71  97 125 162 206 255 313
#     4  10  23  40  56  77 110 149 182 218 265 314
#     4   9  18  36  57  74 101 141 177 213 267 327
#     4   8  14  25  46  73  98 128 165 208 259 316
#     4  11  23  37  55  79 104 136 183 231 266 306
#     4  10  20  36  59  87 117 146 178 218 263 311
#     4   8  17  35  55  73 100 139 174 210 264 323
#
# _framework density 19.286055999999999
#
# number of rings (size 3 to 8) (size 9 to 14) (size 15 to 20)
#    0.000    2.750    0.000    3.750    0.000    3.500 
#    0.000    8.750    0.000    3.000    0.000    0.000 
#    0.000    0.000    0.000    0.000    0.000    0.000 
#
# Total GULP energy -396661.588453 kJ/mol
# GULP energy per Si atom -12395.674639 kJ/mol
# Density = 1.924216 g / cm^3
# Si number density = 19.286056 Si / 1000 Ang^3
#
#
#
# Elastic Constant Matrix: (Units=GPa)
#
#
# Indices 1 2 3 4 5 6 
#
# 1 144.5635 56.8015 75.7225 0.0000 0.0000 0.0000
# 2 56.8015 79.7022 43.3663 0.0000 0.0000 0.0000
# 3 75.7225 43.3663 102.3115 0.0000 0.0000 0.0000
# 4 0.0000 0.0000 0.0000 15.8651 0.0000 0.0000
# 5 0.0000 0.0000 0.0000 0.0000 -72.6261 0.0000
# 6 0.0000 0.0000 0.0000 0.0000 0.0000 36.0078
#
#
#
# Elastic Compliance Matrix: (Units=1/GPa)
#
#
# Indices 1 2 3 4 5 6 
#
# 1 0.012728 -0.005128 -0.007247 0.000000 0.000000 0.000000
# 2 -0.005128 0.018374 -0.003993 0.000000 0.000000 0.000000
# 3 -0.007247 -0.003993 0.016830 0.000000 0.000000 0.000000
# 4 0.000000 0.000000 0.000000 0.063032 0.000000 0.000000
# 5 0.000000 0.000000 0.000000 0.000000 -0.013769 0.000000
# 6 0.000000 0.000000 0.000000 0.000000 0.000000 0.027772
#
#
# Mechanical properties :
#
#
# Convention : Reuss Voigt Hill
#
# Bulk Modulus (GPa) = 65.80279 75.37307 70.58793
# Shear Modulus (GPa) = 30.71891 5.89514 18.30703
#
# Velocity S-wave (km/s) = 3.99533 1.75023 3.08431
# Velocity P-wave (km/s) = 7.44828 6.57654 7.02595
#
# Compressibility (1/GPa) = 0.01519692
#
# Stress axis : x y z
#
# Youngs Moduli (GPa) = 78.56651 54.42561 59.41830
#
# Poissons Ratio (x) = 0.27909 0.43059
# Poissons Ratio (y) = 0.40289 0.23724
# Poissons Ratio (z) = 0.56935 0.21730
#
# Static dielectric constant tensor:
#      x y z
#    x 3.683000 0.000000 0.000000 
#    y 0.000000 3.521020 0.000000 
#    z 0.000000 0.000000 3.465360 
# 
# 
# High freq. dielectric constant tensor:
#      x y z
#    x 1.753650 0.000000 0.000000 
#    y 0.000000 1.737340 0.000000 
#    z 0.000000 0.000000 1.744240 
# 
# From -- ./inp_files/10647.got.cif
#   From: 2010.03.12/outbox.cif.g09.slc.cpg/sg39_6_cif.got.tgz:10647.got - 2010.04.14 02:53:20.
