data_PCOD8181111
_publ_section_title
;
Structure prediction by ZEFSAII (Michael W. Deem and Ramdas Pophale) SiO2 
 PCOD8181111
Probable space group: A B M 2
;
_chemical_formula_sum "Si O2"
_cell_formula_units_Z 64
_cell_length_a 10.132110
_cell_length_b 18.230955
_cell_length_c 18.081195
_cell_angle_alpha 90.000000
_cell_angle_beta 90.000000
_cell_angle_gamma 90.000000
_cell_volume 3339.922928
_symmetry_space_group_name_H-M "A B M 2"
_symmetry_group_IT_number 39
_symmetry_cell_setting 'orthorhombic'
loop_
_space_group_symop_operation_xyz
x,y,z
-x,-y,z
-x,1/2+y,z
x,1/2-y,z
x,1/2+y,1/2+z
-x,1/2-y,1/2+z
-x,y,1/2+z
x,-y,1/2+z
loop_
_atom_site_type_symbol
_atom_site_label
_atom_site_fract_x
_atom_site_fract_y
_atom_site_fract_z
Si Si1 0.288297 0.833483 0.375000
Si Si2 0.858164 0.488961 0.092427
Si Si3 0.632155 0.961655 0.357085
Si Si4 0.563241 0.832352 0.727821
Si Si5 0.623990 0.955360 0.191987
Si Si6 0.273853 0.834574 0.081153
Si Si7 0.445201 0.331435 0.441499
Si Si8 0.867288 0.036370 0.429818
O O1 0.239146 0.750000 0.362703
O O2 0.362539 0.864188 0.300923
O O3 0.394880 0.838932 0.441950
O O4 0.160523 0.882450 0.395870
O O5 0.746928 0.531589 0.138970
O O6 0.832226 0.401514 0.077294
O O7 0.000000 0.500000 0.133354
O O8 0.873051 0.536879 0.018176
O O9 0.663858 0.984321 0.273137
O O10 0.616685 0.875424 0.372625
O O11 0.500000 0.000000 0.386603
O O12 0.748023 0.984757 0.409820
O O13 0.519922 0.750000 0.744334
O O14 0.427464 0.872628 0.704577
O O15 0.667722 0.838681 0.662487
O O16 0.500000 0.000000 0.159429
O O17 0.217950 0.750000 0.068350
O O18 0.388457 0.853402 0.021803
O O19 0.402147 0.250000 0.421765
O O20 0.000000 0.000000 0.396186
#
# Coordination Sequence:
#
# PCOD8181111 Si02
#       8
#     8   8   8   8   8   8   8   8
#     4  10  20  38  62  89 123 156 198 255 313 364
#     4  11  25  41  57  86 123 163 204 251 298 363
#     4  11  20  35  59  88 116 150 190 244 305 348
#     4  10  20  36  60  92 122 149 193 253 309 364
#     4  11  21  35  59  89 117 151 198 245 306 355
#     4  10  21  38  60  84 116 159 200 240 301 369
#     4  10  19  33  59  89 112 147 198 248 300 358
#     4  11  24  40  56  85 123 159 203 248 294 357
#
# _framework density 19.162119000000001
#
# number of rings (size 3 to 8) (size 9 to 14) (size 15 to 20)
#    0.000    1.500    5.000    0.750    1.750    1.000 
#    0.000    3.750    0.000    0.000    0.000    0.000 
#    0.000    0.000    0.000    0.000    0.000    0.000 
#
# Total GULP energy -396470.669320 kJ/mol
# GULP energy per Si atom -12389.708416 kJ/mol
# Density = 1.911851 g / cm^3
# Si number density = 19.162119 Si / 1000 Ang^3
#
#
#
# Elastic Constant Matrix: (Units=GPa)
#
#
# Indices 1 2 3 4 5 6 
#
# 1 122.3612 49.5321 49.2861 0.0000 0.0000 0.0000
# 2 49.5321 123.9657 32.7278 0.0000 0.0000 0.0000
# 3 49.2861 32.7278 74.6035 0.0000 0.0000 0.0000
# 4 0.0000 0.0000 0.0000 29.9463 0.0000 0.0000
# 5 0.0000 0.0000 0.0000 0.0000 27.2496 0.0000
# 6 0.0000 0.0000 0.0000 0.0000 0.0000 31.9932
#
#
#
# Elastic Compliance Matrix: (Units=1/GPa)
#
#
# Indices 1 2 3 4 5 6 
#
# 1 0.012093 -0.003079 -0.006638 0.000000 0.000000 0.000000
# 2 -0.003079 0.009908 -0.002312 0.000000 0.000000 0.000000
# 3 -0.006638 -0.002312 0.018804 0.000000 0.000000 0.000000
# 4 0.000000 0.000000 0.000000 0.033393 0.000000 0.000000
# 5 0.000000 0.000000 0.000000 0.000000 0.036698 0.000000
# 6 0.000000 0.000000 0.000000 0.000000 0.000000 0.031257
#
#
# Mechanical properties :
#
#
# Convention : Reuss Voigt Hill
#
# Bulk Modulus (GPa) = 59.71833 64.89139 62.30486
# Shear Modulus (GPa) = 29.10488 30.46344 29.78416
#
# Velocity S-wave (km/s) = 3.90150 3.99152 3.94677
# Velocity P-wave (km/s) = 7.17831 7.42839 7.30442
#
# Compressibility (1/GPa) = 0.01674528
#
# Stress axis : x y z
#
# Youngs Moduli (GPa) = 82.69360 100.93351 53.18052
#
# Poissons Ratio (x) = 0.31081 0.35302
# Poissons Ratio (y) = 0.25464 0.12295
# Poissons Ratio (z) = 0.54893 0.23336
#
# Static dielectric constant tensor:
#      x y z
#    x 3.400240 0.000000 0.000000 
#    y 0.000000 3.766660 0.000000 
#    z 0.000000 0.000000 3.522750 
# 
# 
# High freq. dielectric constant tensor:
#      x y z
#    x 1.712600 0.000000 0.000000 
#    y 0.000000 1.760360 0.000000 
#    z 0.000000 0.000000 1.746940 
# 
# From -- ./inp_files/14243.got.cif
#   From: 2010.03.12/outbox.cif.g09.slc.cpg/sg39_8_cif.got.tgz:14243.got - 2010.04.14 02:53:20.
