data_PCOD8181815
_publ_section_title
;
Structure prediction by ZEFSAII (Michael W. Deem and Ramdas Pophale) SiO2 
 PCOD8181815
Probable space group: A B M 2
;
_chemical_formula_sum "Si O2"
_cell_formula_units_Z 64
_cell_length_a 15.336340
_cell_length_b 16.855131
_cell_length_c 12.162945
_cell_angle_alpha 90.000000
_cell_angle_beta 90.000000
_cell_angle_gamma 90.000000
_cell_volume 3144.072871
_symmetry_space_group_name_H-M "A B M 2"
_symmetry_group_IT_number 39
_symmetry_cell_setting 'orthorhombic'
loop_
_space_group_symop_operation_xyz
x,y,z
-x,-y,z
-x,1/2+y,z
x,1/2-y,z
x,1/2+y,1/2+z
-x,1/2-y,1/2+z
-x,y,1/2+z
x,-y,1/2+z
loop_
_atom_site_type_symbol
_atom_site_label
_atom_site_fract_x
_atom_site_fract_y
_atom_site_fract_z
Si Si1 0.413383 0.155005 0.522790
Si Si2 0.143208 0.840150 0.796957
Si Si3 0.905038 0.592465 0.522122
Si Si4 0.251949 0.343303 0.662707
Si Si5 0.899391 0.908387 0.064517
Si Si6 0.392580 0.655108 0.567206
Si Si7 0.656702 0.839175 0.300278
Si Si8 0.243302 0.656622 0.408302
O O1 0.408927 0.250000 0.521169
O O2 0.340575 0.121997 0.607832
O O3 0.509270 0.123907 0.552217
O O4 0.393645 0.119814 0.401433
O O5 0.107944 0.750000 0.782535
O O6 0.136319 0.888476 0.684558
O O7 0.242913 0.838709 0.833052
O O8 0.092770 0.885745 0.893237
O O9 0.832654 0.639952 0.589369
O O10 0.887121 0.500251 0.538192
O O11 0.999909 0.617428 0.565505
O O12 0.261576 0.250000 0.672779
O O13 0.241433 0.380504 0.785228
O O14 0.846076 0.861592 0.971757
O O15 0.387653 0.750000 0.565314
O O16 0.360838 0.618598 0.683694
O O17 0.327248 0.621492 0.473683
O O18 0.620828 0.750000 0.287723
O O19 0.252791 0.750000 0.399941
#
# Coordination Sequence:
#
# PCOD8181815 Si02
#       8
#     8   8   8   8   8   8   8   8
#     4   9  17  29  50  82 118 154 192 244 305 357
#     4  11  22  41  67  91 120 161 211 258 299 359
#     4  11  26  42  62  87 122 159 204 251 308 370
#     4  10  21  37  57  86 122 155 196 250 304 359
#     4  11  26  42  62  87 122 159 204 251 308 370
#     4   9  17  29  50  82 118 154 192 244 305 357
#     4   9  16  30  51  79 115 148 193 248 292 346
#     4  10  21  37  57  86 122 155 196 250 304 359
#
# _framework density 20.355761999999999
#
# number of rings (size 3 to 8) (size 9 to 14) (size 15 to 20)
#    0.000    2.000    2.500    0.750    5.250    3.000 
#    0.000    0.000    0.000    0.750    0.000    3.500 
#    0.000    0.000    0.000    0.000    0.000    0.000 
#
# Total GULP energy -396716.245545 kJ/mol
# GULP energy per Si atom -12397.382673 kJ/mol
# Density = 2.030943 g / cm^3
# Si number density = 20.355762 Si / 1000 Ang^3
#
#
#
# Elastic Constant Matrix: (Units=GPa)
#
#
# Indices 1 2 3 4 5 6 
#
# 1 113.3848 10.9710 41.0051 0.0000 0.0000 0.0000
# 2 10.9710 37.5176 23.5060 0.0000 0.0000 0.0000
# 3 41.0051 23.5060 156.1099 0.0000 0.0000 0.0000
# 4 0.0000 0.0000 0.0000 20.8746 0.0000 0.0000
# 5 0.0000 0.0000 0.0000 0.0000 21.0532 0.0000
# 6 0.0000 0.0000 0.0000 0.0000 0.0000 -17.3466
#
#
#
# Elastic Compliance Matrix: (Units=1/GPa)
#
#
# Indices 1 2 3 4 5 6 
#
# 1 0.009810 -0.001385 -0.002368 0.000000 0.000000 0.000000
# 2 -0.001385 0.029626 -0.004097 0.000000 0.000000 0.000000
# 3 -0.002368 -0.004097 0.007645 0.000000 0.000000 0.000000
# 4 0.000000 0.000000 0.000000 0.047905 0.000000 0.000000
# 5 0.000000 0.000000 0.000000 0.000000 0.047499 0.000000
# 6 0.000000 0.000000 0.000000 0.000000 0.000000 -0.057648
#
#
# Mechanical properties :
#
#
# Convention : Reuss Voigt Hill
#
# Bulk Modulus (GPa) = 31.86716 50.88630 41.37673
# Shear Modulus (GPa) = 45.04624 20.35159 32.69892
#
# Velocity S-wave (km/s) = 4.70930 3.16538 4.01230
# Velocity P-wave (km/s) = 6.72749 6.19776 6.46805
#
# Compressibility (1/GPa) = 0.03138027
#
# Stress axis : x y z
#
# Youngs Moduli (GPa) = 101.93694 33.75401 130.80915
#
# Poissons Ratio (x) = 0.04675 0.30979
# Poissons Ratio (y) = 0.14117 0.53594
# Poissons Ratio (z) = 0.24141 0.13830
#
# Static dielectric constant tensor:
#      x y z
#    x 3.829880 0.000000 0.000000 
#    y 0.000000 3.234360 0.000000 
#    z 0.000000 0.000000 4.053770 
# 
# 
# High freq. dielectric constant tensor:
#      x y z
#    x 1.802980 0.000000 0.000000 
#    y 0.000000 1.743610 0.000000 
#    z 0.000000 0.000000 1.816000 
# 
# From -- ./inp_files/6649.got.cif
#   From: 2010.03.12/outbox.cif.g09.slc.cpg/sg39_4_cif.got.tgz:6649.got - 2010.04.14 02:53:20.
