data_PCOD8181451
_publ_section_title
;
Structure prediction by ZEFSAII (Michael W. Deem and Ramdas Pophale) SiO2 
 PCOD8181451
Probable space group: A B M 2
;
_chemical_formula_sum "Si O2"
_cell_formula_units_Z 64
_cell_length_a 24.286255
_cell_length_b 9.452193
_cell_length_c 14.902105
_cell_angle_alpha 90.000000
_cell_angle_beta 90.000000
_cell_angle_gamma 90.000000
_cell_volume 3420.902926
_symmetry_space_group_name_H-M "A B M 2"
_symmetry_group_IT_number 39
_symmetry_cell_setting 'orthorhombic'
loop_
_space_group_symop_operation_xyz
x,y,z
-x,-y,z
-x,1/2+y,z
x,1/2-y,z
x,1/2+y,1/2+z
-x,1/2-y,1/2+z
-x,y,1/2+z
x,-y,1/2+z
loop_
_atom_site_type_symbol
_atom_site_label
_atom_site_fract_x
_atom_site_fract_y
_atom_site_fract_z
Si Si1 0.444660 0.582593 0.980360
Si Si2 0.049076 0.593933 0.702151
Si Si3 0.370678 0.413613 0.848345
Si Si4 0.831750 0.417414 0.497465
Si Si5 0.048883 0.093281 0.988563
Si Si6 0.757044 0.915145 0.836053
Si Si7 0.552362 0.588525 0.685837
Si Si8 0.171818 0.418153 0.197918
O O1 0.500000 0.500000 0.952547
O O2 0.451540 0.750000 0.961141
O O3 0.395370 0.517943 0.922589
O O4 0.430141 0.551737 0.084208
O O5 0.041152 0.750000 0.742217
O O6 0.044468 0.599008 0.595440
O O7 0.109971 0.536520 0.728235
O O8 0.000000 0.500000 0.743984
O O9 0.380066 0.250000 0.876757
O O10 0.306922 0.450781 0.841039
O O11 0.396871 0.445171 0.751070
O O12 0.838226 0.250000 0.503930
O O13 0.891480 0.474722 0.463850
O O14 0.784272 0.465077 0.429491
O O15 0.817039 0.472751 0.596604
O O16 0.042512 0.250000 0.947910
O O17 0.000000 0.000000 0.946380
O O18 0.767873 0.750000 0.818270
O O19 0.782922 0.004063 0.756419
O O20 0.500000 0.500000 0.718221
O O21 0.533673 0.750000 0.692722
O O22 0.179267 0.250000 0.206458
#
# Coordination Sequence:
#
# PCOD8181451 Si02
#       8
#     8   8   8   8   8   8   8   8
#     4  10  20  35  56  81 108 137 168 204 250 301
#     4   8  14  25  44  69  94 121 156 201 252 306
#     4  10  21  36  53  76 107 140 175 215 254 295
#     4   8  16  33  53  70  96 135 169 203 257 316
#     4   8  13  24  44  68  92 120 157 200 249 306
#     4  10  21  36  53  74 101 136 178 217 252 297
#     4   9  19  35  54  78 108 137 165 203 251 300
#     4   9  18  34  53  72  98 132 169 211 258 307
#
# _framework density 18.70851
#
# number of rings (size 3 to 8) (size 9 to 14) (size 15 to 20)
#    0.000    3.000    0.000    2.250    0.000    4.000 
#    0.000    3.750    0.000    3.000    0.000    0.000 
#    0.000    0.000    0.000    0.000    0.000    0.000 
#
# Total GULP energy -396699.916838 kJ/mol
# GULP energy per Si atom -12396.872401 kJ/mol
# Density = 1.866593 g / cm^3
# Si number density = 18.708510 Si / 1000 Ang^3
#
#
#
# Elastic Constant Matrix: (Units=GPa)
#
#
# Indices 1 2 3 4 5 6 
#
# 1 169.2534 69.5537 75.5278 0.0000 0.0000 0.0000
# 2 69.5537 72.7808 45.2310 0.0000 0.0000 0.0000
# 3 75.5278 45.2310 88.9374 0.0000 0.0000 0.0000
# 4 0.0000 0.0000 0.0000 -107.2159 0.0000 0.0000
# 5 0.0000 0.0000 0.0000 0.0000 47.9589 0.0000
# 6 0.0000 0.0000 0.0000 0.0000 0.0000 32.1247
#
#
#
# Elastic Compliance Matrix: (Units=1/GPa)
#
#
# Indices 1 2 3 4 5 6 
#
# 1 0.011678 -0.007306 -0.006202 0.000000 0.000000 0.000000
# 2 -0.007306 0.024660 -0.006337 0.000000 0.000000 0.000000
# 3 -0.006202 -0.006337 0.019733 0.000000 0.000000 0.000000
# 4 0.000000 0.000000 0.000000 -0.009327 0.000000 0.000000
# 5 0.000000 0.000000 0.000000 0.000000 0.020851 0.000000
# 6 0.000000 0.000000 0.000000 0.000000 0.000000 0.031129
#
#
# Mechanical properties :
#
#
# Convention : Reuss Voigt Hill
#
# Bulk Modulus (GPa) = 61.04202 79.06628 70.05415
# Shear Modulus (GPa) = 34.75238 3.95083 19.35161
#
# Velocity S-wave (km/s) = 4.31463 1.45477 3.21966
# Velocity P-wave (km/s) = 7.58420 6.72129 7.16575
#
# Compressibility (1/GPa) = 0.01638216
#
# Stress axis : x y z
#
# Youngs Moduli (GPa) = 85.62974 40.55089 50.67596
#
# Poissons Ratio (x) = 0.29627 0.31427
# Poissons Ratio (y) = 0.62563 0.32113
# Poissons Ratio (z) = 0.53105 0.25697
#
# Static dielectric constant tensor:
#      x y z
#    x 3.420290 0.000000 0.000000 
#    y 0.000000 3.453880 0.000000 
#    z 0.000000 0.000000 3.347660 
# 
# 
# High freq. dielectric constant tensor:
#      x y z
#    x 1.726600 0.000000 0.000000 
#    y 0.000000 1.710130 0.000000 
#    z 0.000000 0.000000 1.718930 
# 
# From -- ./inp_files/10646.got.cif
#   From: 2010.03.12/outbox.cif.g09.slc.cpg/sg39_6_cif.got.tgz:10646.got - 2010.04.14 02:53:20.
