data_PCOD8181398
_publ_section_title
;
Structure prediction by ZEFSAII (Michael W. Deem and Ramdas Pophale) SiO2 
 PCOD8181398
Probable space group: A B M 2
;
_chemical_formula_sum "Si O2"
_cell_formula_units_Z 52
_cell_length_a 17.594664
_cell_length_b 13.053925
_cell_length_c 12.264514
_cell_angle_alpha 90.000000
_cell_angle_beta 90.000000
_cell_angle_gamma 90.000000
_cell_volume 2816.906514
_symmetry_space_group_name_H-M "A B M 2"
_symmetry_group_IT_number 39
_symmetry_cell_setting 'orthorhombic'
loop_
_space_group_symop_operation_xyz
x,y,z
-x,-y,z
-x,1/2+y,z
x,1/2-y,z
x,1/2+y,1/2+z
-x,1/2-y,1/2+z
-x,y,1/2+z
x,-y,1/2+z
loop_
_atom_site_type_symbol
_atom_site_label
_atom_site_fract_x
_atom_site_fract_y
_atom_site_fract_z
Si Si1 0.621714 0.369314 0.393110
Si Si2 0.254618 0.498662 0.010487
Si Si3 0.500000 0.000000 0.515510
Si Si4 0.039071 0.636182 0.078393
Si Si5 0.885902 0.945477 0.146018
Si Si6 0.855250 0.634461 0.380641
Si Si7 0.624397 0.370490 0.136472
O O1 0.612911 0.250000 0.420319
O O2 0.695271 0.411374 0.455115
O O3 0.548343 0.428117 0.436458
O O4 0.630007 0.388855 0.265065
O O5 0.213050 0.560671 0.914994
O O6 0.195198 0.439388 0.087281
O O7 0.301818 0.579675 0.081675
O O8 0.549526 0.926460 0.592186
O O9 0.053136 0.750000 0.122263
O O10 0.086293 0.563121 0.160522
O O11 0.949576 0.611450 0.072958
O O12 0.071408 0.620375 0.957034
O O13 0.882511 0.890603 0.260567
O O14 0.824181 0.750000 0.385469
O O15 0.620854 0.250000 0.107936
#
# Coordination Sequence:
#
# PCOD8181398 Si02
#       7
#     8   8   4   8   8   8   8
#     4  10  21  36  55  81 110 139 174 216 259 305
#     4  10  21  36  53  78 108 140 176 216 259 312
#     4  10  20  36  58  82 108 136 174 214 254 306
#     4   9  20  36  53  75 103 136 176 221 270 319
#     4  10  20  34  55  78 104 136 177 224 266 308
#     4  10  20  36  56  77 104 139 178 219 265 318
#     4  10  20  36  57  79 107 141 172 208 258 311
#
# _framework density 18.459966000000001
#
# number of rings (size 3 to 8) (size 9 to 14) (size 15 to 20)
#    0.000    2.154    0.000    2.769    0.000    6.769 
#    0.000    0.769    0.000   12.923    0.000    0.000 
#    0.000    0.000    0.000    0.000    0.000    0.000 
#
# Total GULP energy -322426.733855 kJ/mol
# GULP energy per Si atom -12401.028225 kJ/mol
# Density = 1.841795 g / cm^3
# Si number density = 18.459966 Si / 1000 Ang^3
#
#
#
# Elastic Constant Matrix: (Units=GPa)
#
#
# Indices 1 2 3 4 5 6 
#
# 1 126.6438 49.4839 50.0698 0.0000 0.0000 0.0000
# 2 49.4839 117.8045 49.9635 0.0000 0.0000 0.0000
# 3 50.0698 49.9635 91.4639 0.0000 0.0000 0.0000
# 4 0.0000 0.0000 0.0000 33.6247 0.0000 0.0000
# 5 0.0000 0.0000 0.0000 0.0000 21.6950 0.0000
# 6 0.0000 0.0000 0.0000 0.0000 0.0000 21.4878
#
#
#
# Elastic Compliance Matrix: (Units=1/GPa)
#
#
# Indices 1 2 3 4 5 6 
#
# 1 0.010658 -0.002606 -0.004411 0.000000 0.000000 0.000000
# 2 -0.002606 0.011686 -0.004957 0.000000 0.000000 0.000000
# 3 -0.004411 -0.004957 0.016056 0.000000 0.000000 0.000000
# 4 0.000000 0.000000 0.000000 0.029740 0.000000 0.000000
# 5 0.000000 0.000000 0.000000 0.000000 0.046093 0.000000
# 6 0.000000 0.000000 0.000000 0.000000 0.000000 0.046538
#
#
# Mechanical properties :
#
#
# Convention : Reuss Voigt Hill
#
# Bulk Modulus (GPa) = 69.19570 70.54962 69.87266
# Shear Modulus (GPa) = 26.38012 27.78783 27.08398
#
# Velocity S-wave (km/s) = 3.78437 3.88403 3.83453
# Velocity P-wave (km/s) = 7.52734 7.64296 7.58537
#
# Compressibility (1/GPa) = 0.01445177
#
# Stress axis : x y z
#
# Youngs Moduli (GPa) = 93.82219 85.57487 62.28333
#
# Poissons Ratio (x) = 0.22303 0.27473
# Poissons Ratio (y) = 0.24453 0.30872
# Poissons Ratio (z) = 0.41385 0.42417
#
# Static dielectric constant tensor:
#      x y z
#    x 3.473330 0.000000 0.000000 
#    y 0.000000 3.633130 0.000000 
#    z 0.000000 0.000000 3.304960 
# 
# 
# High freq. dielectric constant tensor:
#      x y z
#    x 1.723710 0.000000 0.000000 
#    y 0.000000 1.730150 0.000000 
#    z 0.000000 0.000000 1.712640 
# 
# From -- ./inp_files/6840.got.cif
#   From: 2010.03.12/outbox.cif.g09.slc.cpg/sg39_4_cif.got.tgz:6840.got - 2010.04.14 02:53:20.
