data_PCOD8181372
_publ_section_title
;
Structure prediction by ZEFSAII (Michael W. Deem and Ramdas Pophale) SiO2 
 PCOD8181372
Probable space group: A B M 2
;
_chemical_formula_sum "Si O2"
_cell_formula_units_Z 56
_cell_length_a 19.774668
_cell_length_b 8.938349
_cell_length_c 16.146500
_cell_angle_alpha 90.000000
_cell_angle_beta 90.000000
_cell_angle_gamma 90.000000
_cell_volume 2853.940441
_symmetry_space_group_name_H-M "A B M 2"
_symmetry_group_IT_number 39
_symmetry_cell_setting 'orthorhombic'
loop_
_space_group_symop_operation_xyz
x,y,z
-x,-y,z
-x,1/2+y,z
x,1/2-y,z
x,1/2+y,1/2+z
-x,1/2-y,1/2+z
-x,y,1/2+z
x,-y,1/2+z
loop_
_atom_site_type_symbol
_atom_site_label
_atom_site_fract_x
_atom_site_fract_y
_atom_site_fract_z
Si Si1 0.848403 0.579085 0.529920
Si Si2 0.072992 0.928438 0.192260
Si Si3 0.438777 0.077410 0.610669
Si Si4 0.303239 0.583263 0.013355
Si Si5 0.564844 0.575923 0.283332
Si Si6 0.845246 0.574412 0.853789
Si Si7 0.307225 0.920565 0.353035
O O1 0.869406 0.750000 0.515723
O O2 0.889230 0.513154 0.608809
O O3 0.769677 0.564733 0.556570
O O4 0.865041 0.499078 0.442202
O O5 0.069242 0.750000 0.191616
O O6 0.109096 0.983208 0.277322
O O7 0.000000 0.000000 0.191755
O O8 0.455806 0.250000 0.631187
O O9 0.363964 0.065229 0.576298
O O10 0.500000 0.000000 0.555726
O O11 0.438452 0.969381 0.688762
O O12 0.306947 0.750000 0.972008
O O13 0.311678 0.447319 0.950593
O O14 0.500000 0.500000 0.330075
O O15 0.557504 0.750000 0.298082
O O16 0.638012 0.526763 0.313148
O O17 0.853391 0.750000 0.867825
O O18 0.768639 0.535167 0.825751
O O19 0.324282 0.750000 0.330606
#
# Coordination Sequence:
#
# PCOD8181372 Si02
#       7
#     8   8   8   8   8   8   8
#     4   9  19  37  60  84 114 151 192 237 285 338
#     4  10  22  39  60  87 117 153 192 232 283 346
#     4  10  20  34  53  76 106 144 183 227 279 331
#     4   9  19  35  56  79 106 143 186 228 277 335
#     4  11  22  36  53  76 108 144 186 232 280 333
#     4   9  20  38  60  85 117 153 192 236 286 342
#     4  10  20  35  57  81 108 142 184 231 281 336
#
# _framework density 19.621994000000001
#
# number of rings (size 3 to 8) (size 9 to 14) (size 15 to 20)
#    0.000    2.286    0.000    3.000    2.000    4.000 
#    0.000    4.286    0.000    0.000    0.000    0.000 
#    0.000    0.000    0.000    0.000    0.000    0.000 
#
# Total GULP energy -346890.866182 kJ/mol
# GULP energy per Si atom -12388.959506 kJ/mol
# Density = 1.957733 g / cm^3
# Si number density = 19.621994 Si / 1000 Ang^3
#
#
#
# Elastic Constant Matrix: (Units=GPa)
#
#
# Indices 1 2 3 4 5 6 
#
# 1 156.6305 58.6345 81.1695 0.0000 0.0000 0.0000
# 2 58.6345 84.1733 40.4437 0.0000 0.0000 0.0000
# 3 81.1695 40.4437 110.2679 0.0000 0.0000 0.0000
# 4 0.0000 0.0000 0.0000 30.4729 0.0000 0.0000
# 5 0.0000 0.0000 0.0000 0.0000 119.5352 0.0000
# 6 0.0000 0.0000 0.0000 0.0000 0.0000 -0.9788
#
#
#
# Elastic Compliance Matrix: (Units=1/GPa)
#
#
# Indices 1 2 3 4 5 6 
#
# 1 0.011783 -0.004905 -0.006875 0.000000 0.000000 0.000000
# 2 -0.004905 0.016464 -0.002428 0.000000 0.000000 0.000000
# 3 -0.006875 -0.002428 0.015020 0.000000 0.000000 0.000000
# 4 0.000000 0.000000 0.000000 0.032816 0.000000 0.000000
# 5 0.000000 0.000000 0.000000 0.000000 0.008366 0.000000
# 6 0.000000 0.000000 0.000000 0.000000 0.000000 -1.021687
#
#
# Mechanical properties :
#
#
# Convention : Reuss Voigt Hill
#
# Bulk Modulus (GPa) = 67.33302 79.06301 73.19802
# Shear Modulus (GPa) = -5.53175 41.19414 17.83119
#
# Velocity S-wave (km/s) = -1.68086 4.58688 3.01779
# Velocity P-wave (km/s) = 5.53376 8.27243 7.03760
#
# Compressibility (1/GPa) = 0.01485155
#
# Stress axis : x y z
#
# Youngs Moduli (GPa) = 84.86596 60.74029 66.57825
#
# Poissons Ratio (x) = 0.29793 0.45771
# Poissons Ratio (y) = 0.41626 0.16164
# Poissons Ratio (z) = 0.58344 0.14747
#
# Static dielectric constant tensor:
#      x y z
#    x -8.163720 0.000000 0.000000 
#    y 0.000000 3.623770 0.000000 
#    z 0.000000 0.000000 3.510930 
# 
# 
# High freq. dielectric constant tensor:
#      x y z
#    x 1.781770 0.000000 0.000000 
#    y 0.000000 1.762480 0.000000 
#    z 0.000000 0.000000 1.747290 
# 
# From -- ./inp_files/10336.got.cif
#   From: 2010.03.12/outbox.cif.g09.slc.cpg/sg39_6_cif.got.tgz:10336.got - 2010.04.14 02:53:20.
