data_PCOD8181356
_publ_section_title
;
Structure prediction by ZEFSAII (Michael W. Deem and Ramdas Pophale) SiO2 
 PCOD8181356
Probable space group: A B M 2
;
_chemical_formula_sum "Si O2"
_cell_formula_units_Z 64
_cell_length_a 20.634617
_cell_length_b 8.804244
_cell_length_c 18.927614
_cell_angle_alpha 90.000000
_cell_angle_beta 90.000000
_cell_angle_gamma 90.000000
_cell_volume 3438.621331
_symmetry_space_group_name_H-M "A B M 2"
_symmetry_group_IT_number 39
_symmetry_cell_setting 'orthorhombic'
loop_
_space_group_symop_operation_xyz
x,y,z
-x,-y,z
-x,1/2+y,z
x,1/2-y,z
x,1/2+y,1/2+z
-x,1/2-y,1/2+z
-x,y,1/2+z
x,-y,1/2+z
loop_
_atom_site_type_symbol
_atom_site_label
_atom_site_fract_x
_atom_site_fract_y
_atom_site_fract_z
Si Si1 0.675392 0.076389 0.868160
Si Si2 0.064843 0.421126 0.200308
Si Si3 0.431661 0.070165 0.609050
Si Si4 0.193917 0.579423 0.200540
Si Si5 0.324608 0.923611 0.701016
Si Si6 0.806083 0.920577 0.868636
Si Si7 0.568339 0.429835 0.460125
Si Si8 0.935157 0.578874 0.368868
O O1 0.665951 0.250000 0.892306
O O2 0.669642 0.059225 0.784588
O O3 0.745492 0.020188 0.895019
O O4 0.620833 0.970254 0.901391
O O5 0.066725 0.250000 0.171841
O O6 0.127692 0.508080 0.170234
O O7 0.065014 0.424397 0.284588
O O8 0.000000 0.500000 0.170818
O O9 0.438686 0.250000 0.601861
O O10 0.500000 0.000000 0.633076
O O11 0.379167 0.029746 0.667784
O O12 0.409423 0.000000 0.534588
O O13 0.201172 0.750000 0.171144
O O14 0.254508 0.479812 0.174157
O O15 0.191313 0.579905 0.284588
O O16 0.334049 0.750000 0.676870
O O17 0.798828 0.750000 0.898032
O O18 0.872308 0.991920 0.898942
O O19 0.500000 0.500000 0.436100
O O20 0.561314 0.250000 0.467314
O O21 0.933275 0.750000 0.397335
O O22 0.000000 0.500000 0.398358
#
# Coordination Sequence:
#
# PCOD8181356 Si02
#       8
#     8   8   8   8   8   8   8   8
#     4  10  20  34  52  75 103 134 168 206 249 297
#     4   9  15  22  33  51  78 115 157 198 240 288
#     4  11  22  38  58  78 102 131 165 204 248 297
#     4   9  16  26  40  60  88 122 159 199 244 292
#     4  10  20  34  52  75 103 134 168 206 249 297
#     4   9  16  26  40  60  88 122 159 199 244 292
#     4  11  22  38  58  78 102 131 165 204 248 297
#     4   9  15  22  33  51  78 115 157 198 240 288
#
# _framework density 18.612109
#
# number of rings (size 3 to 8) (size 9 to 14) (size 15 to 20)
#    0.000    2.250    0.000    5.250    0.000    8.000 
#    0.000    0.000    0.000    0.000    0.000    0.000 
#    0.000    1.000    0.000   10.000    0.000   15.500 
#
# Total GULP energy -396834.934782 kJ/mol
# GULP energy per Si atom -12401.091712 kJ/mol
# Density = 1.856975 g / cm^3
# Si number density = 18.612109 Si / 1000 Ang^3
#
#
#
# Elastic Constant Matrix: (Units=GPa)
#
#
# Indices 1 2 3 4 5 6 
#
# 1 148.8682 67.3198 32.9829 0.0000 0.0000 0.0000
# 2 67.3198 166.5203 25.1453 0.0000 0.0000 0.0000
# 3 32.9829 25.1453 18.9762 0.0000 0.0000 0.0000
# 4 0.0000 0.0000 0.0000 18.0187 0.0000 0.0000
# 5 0.0000 0.0000 0.0000 0.0000 -1.0914 0.0000
# 6 0.0000 0.0000 0.0000 0.0000 0.0000 42.2066
#
#
#
# Elastic Compliance Matrix: (Units=1/GPa)
#
#
# Indices 1 2 3 4 5 6 
#
# 1 0.011448 -0.002030 -0.017208 0.000000 0.000000 0.000000
# 2 -0.002030 0.007867 -0.006897 0.000000 0.000000 0.000000
# 3 -0.017208 -0.006897 0.091747 0.000000 0.000000 0.000000
# 4 0.000000 0.000000 0.000000 0.055498 0.000000 0.000000
# 5 0.000000 0.000000 0.000000 0.000000 -0.916227 0.000000
# 6 0.000000 0.000000 0.000000 0.000000 0.000000 0.023693
#
#
# Mechanical properties :
#
#
# Convention : Reuss Voigt Hill
#
# Bulk Modulus (GPa) = 17.00909 65.02896 41.01903
# Shear Modulus (GPa) = -7.64401 25.75456 9.05527
#
# Velocity S-wave (km/s) = -2.02877 3.72392 2.20813
# Velocity P-wave (km/s) = 1.91590 7.31471 5.34676
#
# Compressibility (1/GPa) = 0.05879208
#
# Stress axis : x y z
#
# Youngs Moduli (GPa) = 87.35354 127.10866 10.89950
#
# Poissons Ratio (x) = 0.25797 0.18756
# Poissons Ratio (y) = 0.17728 0.07518
# Poissons Ratio (z) = 1.50320 0.87672
#
# Static dielectric constant tensor:
#      x y z
#    x 3.620180 0.000000 0.000000 
#    y 0.000000 3.660080 0.000000 
#    z 0.000000 0.000000 2.774970 
# 
# 
# High freq. dielectric constant tensor:
#      x y z
#    x 1.740620 0.000000 0.000000 
#    y 0.000000 1.745050 0.000000 
#    z 0.000000 0.000000 1.649560 
# 
# From -- ./inp_files/4004.got.cif
#   From: 2010.03.12/outbox.cif.g09.slc.cpg/sg39_3_cif.got.tgz:4004.got - 2010.04.14 02:53:20.
