data_PCOD8181560
_publ_section_title
;
Structure prediction by ZEFSAII (Michael W. Deem and Ramdas Pophale) SiO2 
 PCOD8181560
Probable space group: A B M 2
;
_chemical_formula_sum "Si O2"
_cell_formula_units_Z 56
_cell_length_a 19.887145
_cell_length_b 15.806954
_cell_length_c 9.003994
_cell_angle_alpha 90.000000
_cell_angle_beta 90.000000
_cell_angle_gamma 90.000000
_cell_volume 2830.452210
_symmetry_space_group_name_H-M "A B M 2"
_symmetry_group_IT_number 39
_symmetry_cell_setting 'orthorhombic'
loop_
_space_group_symop_operation_xyz
x,y,z
-x,-y,z
-x,1/2+y,z
x,1/2-y,z
x,1/2+y,1/2+z
-x,1/2-y,1/2+z
-x,y,1/2+z
x,-y,1/2+z
loop_
_atom_site_type_symbol
_atom_site_label
_atom_site_fract_x
_atom_site_fract_y
_atom_site_fract_z
Si Si1 0.164411 0.057450 0.555530
Si Si2 0.472670 0.909907 0.406300
Si Si3 0.745270 0.486941 0.806578
Si Si4 0.652886 0.977067 0.058575
Si Si5 0.951790 0.154262 0.186835
Si Si6 0.051887 0.932152 0.486091
Si Si7 0.412213 0.153540 0.606429
O O1 0.206544 0.075190 0.403691
O O2 0.112599 0.133078 0.584051
O O3 0.212323 0.047591 0.698069
O O4 0.123196 0.970293 0.534471
O O5 0.529785 0.854369 0.483065
O O6 0.442626 0.857976 0.270318
O O7 0.500000 0.000000 0.345570
O O8 0.416754 0.928904 0.533135
O O9 0.688948 0.438906 0.706402
O O10 0.703488 0.543323 0.923560
O O11 0.642961 0.079683 0.077057
O O12 0.969426 0.250000 0.163982
O O13 0.935258 0.136202 0.358110
O O14 0.018259 0.105454 0.133935
O O15 0.000000 0.000000 0.416831
O O16 0.382550 0.250000 0.595440
#
# Coordination Sequence:
#
# PCOD8181560 Si02
#       7
#     8   8   8   8   8   8   8
#     4  10  20  37  62  86 105 150 194 234 259 340
#     4  10  20  36  59  85 112 148 190 224 274 338
#     4  10  20  36  60  84 106 146 202 230 264 310
#     4  10  20  37  62  86 105 150 194 234 259 340
#     4  11  22  36  57  88 118 143 175 238 295 327
#     4  10  20  36  59  85 112 148 190 224 274 338
#     4  11  22  36  57  88 118 143 175 238 295 327
#
# _framework density 19.784825999999999
#
# number of rings (size 3 to 8) (size 9 to 14) (size 15 to 20)
#    0.000    1.714    2.857    3.429    4.000    0.000 
#    0.000    2.857    0.000    3.429    0.000    0.000 
#    0.000    0.000    0.000    0.000    0.000    0.000 
#
# Total GULP energy -347036.098871 kJ/mol
# GULP energy per Si atom -12394.146388 kJ/mol
# Density = 1.973979 g / cm^3
# Si number density = 19.784826 Si / 1000 Ang^3
#
#
#
# Elastic Constant Matrix: (Units=GPa)
#
#
# Indices 1 2 3 4 5 6 
#
# 1 85.4969 16.9380 30.5839 0.0000 0.0000 0.0000
# 2 16.9380 78.0145 20.8902 0.0000 0.0000 0.0000
# 3 30.5839 20.8902 108.8239 0.0000 0.0000 0.0000
# 4 0.0000 0.0000 0.0000 18.1916 0.0000 0.0000
# 5 0.0000 0.0000 0.0000 0.0000 39.1928 0.0000
# 6 0.0000 0.0000 0.0000 0.0000 0.0000 8.1555
#
#
#
# Elastic Compliance Matrix: (Units=1/GPa)
#
#
# Indices 1 2 3 4 5 6 
#
# 1 0.013290 -0.001987 -0.003353 0.000000 0.000000 0.000000
# 2 -0.001987 0.013810 -0.002092 0.000000 0.000000 0.000000
# 3 -0.003353 -0.002092 0.010533 0.000000 0.000000 0.000000
# 4 0.000000 0.000000 0.000000 0.054970 0.000000 0.000000
# 5 0.000000 0.000000 0.000000 0.000000 0.025515 0.000000
# 6 0.000000 0.000000 0.000000 0.000000 0.000000 0.122617
#
#
# Mechanical properties :
#
#
# Convention : Reuss Voigt Hill
#
# Bulk Modulus (GPa) = 43.92460 45.46216 44.69338
# Shear Modulus (GPa) = 18.99767 26.70286 22.85027
#
# Velocity S-wave (km/s) = 3.10209 3.67776 3.40213
# Velocity P-wave (km/s) = 5.92284 6.40802 6.17020
#
# Compressibility (1/GPa) = 0.02276629
#
# Stress axis : x y z
#
# Youngs Moduli (GPa) = 75.24657 72.41170 94.93718
#
# Poissons Ratio (x) = 0.14391 0.31836
# Poissons Ratio (y) = 0.14955 0.19865
# Poissons Ratio (z) = 0.25233 0.15152
#
# Static dielectric constant tensor:
#      x y z
#    x 3.814400 0.000000 0.000000 
#    y 0.000000 3.191760 0.000000 
#    z 0.000000 0.000000 3.784340 
# 
# 
# High freq. dielectric constant tensor:
#      x y z
#    x 1.781700 0.000000 0.000000 
#    y 0.000000 1.714200 0.000000 
#    z 0.000000 0.000000 1.791700 
# 
# From -- ./inp_files/3967.got.cif
#   From: 2010.03.12/outbox.cif.g09.slc.cpg/sg39_2_cif.got.tgz:3967.got - 2010.04.14 02:53:20.
