data_PCOD8181151
_publ_section_title
;
Structure prediction by ZEFSAII (Michael W. Deem and Ramdas Pophale) SiO2 
 PCOD8181151
Probable space group: A B M 2
;
_chemical_formula_sum "Si O2"
_cell_formula_units_Z 64
_cell_length_a 24.201307
_cell_length_b 9.045747
_cell_length_c 15.210535
_cell_angle_alpha 90.000000
_cell_angle_beta 90.000000
_cell_angle_gamma 90.000000
_cell_volume 3329.873594
_symmetry_space_group_name_H-M "A B M 2"
_symmetry_group_IT_number 39
_symmetry_cell_setting 'orthorhombic'
loop_
_space_group_symop_operation_xyz
x,y,z
-x,-y,z
-x,1/2+y,z
x,1/2-y,z
x,1/2+y,1/2+z
-x,1/2-y,1/2+z
-x,y,1/2+z
x,-y,1/2+z
loop_
_atom_site_type_symbol
_atom_site_label
_atom_site_fract_x
_atom_site_fract_y
_atom_site_fract_z
Si Si1 0.167229 0.922529 0.451250
Si Si2 0.442675 0.575352 0.454569
Si Si3 0.631857 0.423373 0.814046
Si Si4 0.241084 0.424761 0.307624
Si Si5 0.169869 0.921812 0.647778
Si Si6 0.945070 0.419239 0.910082
Si Si7 0.555773 0.578115 0.154571
Si Si8 0.946424 0.917044 0.201555
O O1 0.161285 0.750000 0.428562
O O2 0.191172 0.948244 0.549264
O O3 0.210956 0.997411 0.387923
O O4 0.107452 0.996215 0.448071
O O5 0.500000 0.500000 0.426075
O O6 0.448396 0.750000 0.441569
O O7 0.394161 0.514108 0.393896
O O8 0.427698 0.532616 0.555231
O O9 0.624732 0.250000 0.833239
O O10 0.695282 0.471118 0.807392
O O11 0.604335 0.467781 0.721092
O O12 0.233820 0.250000 0.318506
O O13 0.214584 0.485054 0.216642
O O14 0.162489 0.750000 0.669234
O O15 0.109092 0.993249 0.662734
O O16 0.944879 0.250000 0.942568
O O17 0.942495 0.427880 0.805756
O O18 0.000000 0.500000 0.945718
O O19 0.500000 0.500000 0.185885
O O20 0.543283 0.750000 0.159196
O O21 0.952378 0.750000 0.168701
O O22 0.000000 0.000000 0.164436
#
# Coordination Sequence:
#
# PCOD8181151 Si02
#       8
#     8   8   8   8   8   8   8   8
#     4  11  22  36  58  85 111 141 184 233 279 330
#     4  10  20  35  57  85 119 150 182 225 274 327
#     4  10  21  36  58  83 109 147 192 231 275 328
#     4  10  21  41  60  76 108 151 190 230 277 330
#     4   9  19  37  58  78 105 145 185 224 277 336
#     4  10  19  34  57  82 112 146 180 221 276 337
#     4   9  19  35  55  83 114 148 184 222 272 328
#     4   9  17  32  54  78 104 138 175 214 266 328
#
# _framework density 19.219947999999999
#
# number of rings (size 3 to 8) (size 9 to 14) (size 15 to 20)
#    0.000    2.250    1.250    1.500    0.000    4.500 
#    0.000    6.250    0.000    0.000    0.000    0.000 
#    0.000    0.000    0.000    0.000    0.000    0.000 
#
# Total GULP energy -396819.928287 kJ/mol
# GULP energy per Si atom -12400.622759 kJ/mol
# Density = 1.917620 g / cm^3
# Si number density = 19.219948 Si / 1000 Ang^3
#
#
#
# Elastic Constant Matrix: (Units=GPa)
#
#
# Indices 1 2 3 4 5 6 
#
# 1 173.6543 60.3673 87.1407 0.0000 0.0000 0.0000
# 2 60.3673 66.6070 43.8258 0.0000 0.0000 0.0000
# 3 87.1407 43.8258 109.4659 0.0000 0.0000 0.0000
# 4 0.0000 0.0000 0.0000 23.1268 0.0000 0.0000
# 5 0.0000 0.0000 0.0000 0.0000 6.0010 0.0000
# 6 0.0000 0.0000 0.0000 0.0000 0.0000 30.7667
#
#
#
# Elastic Compliance Matrix: (Units=1/GPa)
#
#
# Indices 1 2 3 4 5 6 
#
# 1 0.010983 -0.005704 -0.006459 0.000000 0.000000 0.000000
# 2 -0.005704 0.023345 -0.004806 0.000000 0.000000 0.000000
# 3 -0.006459 -0.004806 0.016201 0.000000 0.000000 0.000000
# 4 0.000000 0.000000 0.000000 0.043240 0.000000 0.000000
# 5 0.000000 0.000000 0.000000 0.000000 0.166638 0.000000
# 6 0.000000 0.000000 0.000000 0.000000 0.000000 0.032503
#
#
# Mechanical properties :
#
#
# Convention : Reuss Voigt Hill
#
# Bulk Modulus (GPa) = 60.27319 81.37721 70.82520
# Shear Modulus (GPa) = 15.04312 22.53846 18.79079
#
# Velocity S-wave (km/s) = 2.80068 3.42813 3.13017
# Velocity P-wave (km/s) = 6.47196 7.62242 7.07063
#
# Compressibility (1/GPa) = 0.01659112
#
# Stress axis : x y z
#
# Youngs Moduli (GPa) = 91.05285 42.83561 61.72363
#
# Poissons Ratio (x) = 0.24432 0.39869
# Poissons Ratio (y) = 0.51935 0.29664
# Poissons Ratio (z) = 0.58813 0.20587
#
# Static dielectric constant tensor:
#      x y z
#    x 3.606580 0.000000 0.000000 
#    y 0.000000 3.434340 0.000000 
#    z 0.000000 0.000000 3.596350 
# 
# 
# High freq. dielectric constant tensor:
#      x y z
#    x 1.747890 0.000000 0.000000 
#    y 0.000000 1.734340 0.000000 
#    z 0.000000 0.000000 1.753830 
# 
# From -- ./inp_files/10562.got.cif
#   From: 2010.03.12/outbox.cif.g09.slc.cpg/sg39_6_cif.got.tgz:10562.got - 2010.04.14 02:53:20.
