data_PCOD8181685
_publ_section_title
;
Structure prediction by ZEFSAII (Michael W. Deem and Ramdas Pophale) SiO2 
 PCOD8181685
Probable space group: A B M 2
;
_chemical_formula_sum "Si O2"
_cell_formula_units_Z 64
_cell_length_a 24.493713
_cell_length_b 8.382914
_cell_length_c 14.882802
_cell_angle_alpha 90.000000
_cell_angle_beta 90.000000
_cell_angle_gamma 90.000000
_cell_volume 3055.866233
_symmetry_space_group_name_H-M "A B M 2"
_symmetry_group_IT_number 39
_symmetry_cell_setting 'orthorhombic'
loop_
_space_group_symop_operation_xyz
x,y,z
-x,-y,z
-x,1/2+y,z
x,1/2-y,z
x,1/2+y,1/2+z
-x,1/2-y,1/2+z
-x,y,1/2+z
x,-y,1/2+z
loop_
_atom_site_type_symbol
_atom_site_label
_atom_site_fract_x
_atom_site_fract_y
_atom_site_fract_z
Si Si1 0.866871 0.938203 0.174700
Si Si2 0.559522 0.433762 0.022090
Si Si3 0.366469 0.938188 0.673666
Si Si4 0.059437 0.933762 0.022931
Si Si5 0.869016 0.431727 0.372034
Si Si6 0.750224 0.928614 0.157744
Si Si7 0.630774 0.931717 0.870960
Si Si8 0.250053 0.069663 0.842772
O O1 0.861561 0.750000 0.193293
O O2 0.809176 0.004955 0.130667
O O3 0.878809 0.026656 0.267948
O O4 0.915564 0.970439 0.106423
O O5 0.500000 0.500000 0.002125
O O6 0.556836 0.250000 0.048780
O O7 0.594805 0.453531 0.932164
O O8 0.585020 0.529785 0.105049
O O9 0.361156 0.750000 0.692308
O O10 0.308637 0.005001 0.630157
O O11 0.378710 0.026623 0.766813
O O12 0.056608 0.750000 0.049515
O O13 0.095220 0.953556 0.933558
O O14 0.000000 0.000000 0.002053
O O15 0.887743 0.250000 0.388582
O O16 0.805150 0.452982 0.400882
O O17 0.750282 0.750000 0.121071
O O18 0.750063 0.935730 0.266232
O O19 0.611978 0.750000 0.887327
O O20 0.694546 0.952887 0.900364
O O21 0.249959 0.250000 0.801036
#
# Coordination Sequence:
#
# PCOD8181685 Si02
#       8
#     8   8   8   8   8   8   8   8
#     4  10  20  38  62  90 121 155 191 235 287 343
#     4  12  26  43  60  83 113 152 200 248 291 342
#     4  10  20  38  62  90 121 155 191 235 287 343
#     4  12  26  43  60  83 113 152 200 248 291 342
#     4  10  20  38  62  90 121 155 191 235 287 343
#     4   8  16  31  56  87 120 152 186 227 280 341
#     4  10  20  38  62  90 121 155 191 235 287 343
#     4   8  16  31  56  87 120 152 186 227 280 341
#
# _framework density 20.943327
#
# number of rings (size 3 to 8) (size 9 to 14) (size 15 to 20)
#    0.000    2.000    0.000    3.750    0.000    4.000 
#    0.000   10.000    0.000    0.000    0.000    0.000 
#    0.000    0.000    0.000    0.000    0.000    0.000 
#
# Total GULP energy -396565.551306 kJ/mol
# GULP energy per Si atom -12392.673478 kJ/mol
# Density = 2.089566 g / cm^3
# Si number density = 20.943327 Si / 1000 Ang^3
#
#
#
# Elastic Constant Matrix: (Units=GPa)
#
#
# Indices 1 2 3 4 5 6 
#
# 1 142.8836 22.6425 46.2792 0.0000 0.0000 0.0000
# 2 22.6425 65.8187 4.3011 0.0000 0.0000 0.0000
# 3 46.2792 4.3011 74.9492 0.0000 0.0000 0.0000
# 4 0.0000 0.0000 0.0000 32.0048 0.0000 0.0000
# 5 0.0000 0.0000 0.0000 0.0000 34.0432 0.0000
# 6 0.0000 0.0000 0.0000 0.0000 0.0000 27.0445
#
#
#
# Elastic Compliance Matrix: (Units=1/GPa)
#
#
# Indices 1 2 3 4 5 6 
#
# 1 0.009241 -0.002817 -0.005544 0.000000 0.000000 0.000000
# 2 -0.002817 0.016109 0.000815 0.000000 0.000000 0.000000
# 3 -0.005544 0.000815 0.016719 0.000000 0.000000 0.000000
# 4 0.000000 0.000000 0.000000 0.031245 0.000000 0.000000
# 5 0.000000 0.000000 0.000000 0.000000 0.029374 0.000000
# 6 0.000000 0.000000 0.000000 0.000000 0.000000 0.036976
#
#
# Mechanical properties :
#
#
# Convention : Reuss Voigt Hill
#
# Bulk Modulus (GPa) = 37.06937 47.78857 42.42897
# Shear Modulus (GPa) = 30.53446 32.64707 31.59076
#
# Velocity S-wave (km/s) = 3.82246 3.95248 3.88802
# Velocity P-wave (km/s) = 6.10081 6.61038 6.36070
#
# Compressibility (1/GPa) = 0.02697645
#
# Stress axis : x y z
#
# Youngs Moduli (GPa) = 108.21533 62.07724 59.81180
#
# Poissons Ratio (x) = 0.17485 0.33162
# Poissons Ratio (y) = 0.30480 -0.04873
# Poissons Ratio (z) = 0.59998 -0.05058
#
# Static dielectric constant tensor:
#      x y z
#    x 4.080650 0.000000 0.000000 
#    y 0.000000 3.723790 0.000000 
#    z 0.000000 0.000000 3.378360 
# 
# 
# High freq. dielectric constant tensor:
#      x y z
#    x 1.834270 0.000000 0.000000 
#    y 0.000000 1.816890 0.000000 
#    z 0.000000 0.000000 1.795190 
# 
# From -- ./inp_files/10676.got.cif
#   From: 2010.03.12/outbox.cif.g09.slc.cpg/sg39_6_cif.got.tgz:10676.got - 2010.04.14 02:53:20.
