data_PCOD8181959
_publ_section_title
;
Structure prediction by ZEFSAII (Michael W. Deem and Ramdas Pophale) SiO2 
 PCOD8181959
Probable space group: A B M 2
;
_chemical_formula_sum "Si O2"
_cell_formula_units_Z 48
_cell_length_a 10.834021
_cell_length_b 21.885905
_cell_length_c 9.786242
_cell_angle_alpha 90.000000
_cell_angle_beta 90.000000
_cell_angle_gamma 90.000000
_cell_volume 2320.438881
_symmetry_space_group_name_H-M "A B M 2"
_symmetry_group_IT_number 39
_symmetry_cell_setting 'orthorhombic'
loop_
_space_group_symop_operation_xyz
x,y,z
-x,-y,z
-x,1/2+y,z
x,1/2-y,z
x,1/2+y,1/2+z
-x,1/2-y,1/2+z
-x,y,1/2+z
x,-y,1/2+z
loop_
_atom_site_type_symbol
_atom_site_label
_atom_site_fract_x
_atom_site_fract_y
_atom_site_fract_z
Si Si1 0.872153 0.319120 0.796310
Si Si2 0.801034 0.929525 0.958441
Si Si3 0.390566 0.679150 0.459490
Si Si4 0.143748 0.481772 0.683508
Si Si5 0.397854 0.319346 0.266581
Si Si6 0.964745 0.372995 0.056758
O O1 0.861552 0.250000 0.747346
O O2 0.737193 0.351043 0.780257
O O3 0.968420 0.349098 0.692556
O O4 0.911352 0.321357 0.955584
O O5 0.724396 0.866741 0.948808
O O6 0.784172 0.973123 0.826600
O O7 0.943907 0.910912 0.959688
O O8 0.777068 0.968691 0.096791
O O9 0.351307 0.750000 0.422794
O O10 0.496556 0.651379 0.361530
O O11 0.444979 0.677123 0.611645
O O12 0.146360 0.417063 0.603622
O O13 0.000000 0.500000 0.705258
O O14 0.383727 0.250000 0.318225
#
# Coordination Sequence:
#
# PCOD8181959 Si02
#       6
#     8   8   8   8   8   8
#     4  11  22  37  59  94 136 169 202 261 328 382
#     4  11  22  38  64  90 120 164 210 265 305 380
#     4  10  21  40  65  92 121 163 211 262 323 375
#     4  10  22  38  60  92 121 164 216 252 313 379
#     4   9  20  38  60  87 126 167 206 253 312 386
#     4  11  21  37  60  92 127 166 205 259 314 385
#
# _framework density 20.685742000000001
#
# number of rings (size 3 to 8) (size 9 to 14) (size 15 to 20)
#    0.000    1.667    3.333    2.000    2.333    2.000 
#    0.000    1.667    0.000    8.000    0.000    0.000 
#    0.000    0.000    0.000    0.000    0.000    0.000 
#
# Total GULP energy -297419.342582 kJ/mol
# GULP energy per Si atom -12392.472608 kJ/mol
# Density = 2.063866 g / cm^3
# Si number density = 20.685742 Si / 1000 Ang^3
#
#
#
# Elastic Constant Matrix: (Units=GPa)
#
#
# Indices 1 2 3 4 5 6 
#
# 1 56.1081 30.2189 43.8805 0.0000 0.0000 0.0000
# 2 30.2189 88.5086 45.0659 0.0000 0.0000 0.0000
# 3 43.8805 45.0659 136.8710 0.0000 0.0000 0.0000
# 4 0.0000 0.0000 0.0000 36.8068 0.0000 0.0000
# 5 0.0000 0.0000 0.0000 0.0000 27.6677 0.0000
# 6 0.0000 0.0000 0.0000 0.0000 0.0000 19.4515
#
#
#
# Elastic Compliance Matrix: (Units=1/GPa)
#
#
# Indices 1 2 3 4 5 6 
#
# 1 0.025864 -0.005537 -0.006469 0.000000 0.000000 0.000000
# 2 -0.005537 0.014759 -0.003085 0.000000 0.000000 0.000000
# 3 -0.006469 -0.003085 0.010396 0.000000 0.000000 0.000000
# 4 0.000000 0.000000 0.000000 0.027169 0.000000 0.000000
# 5 0.000000 0.000000 0.000000 0.000000 0.036143 0.000000
# 6 0.000000 0.000000 0.000000 0.000000 0.000000 0.051410
#
#
# Mechanical properties :
#
#
# Convention : Reuss Voigt Hill
#
# Bulk Modulus (GPa) = 47.98819 57.75756 52.87287
# Shear Modulus (GPa) = 24.64667 27.60671 26.12669
#
# Velocity S-wave (km/s) = 3.45553 3.65715 3.55777
# Velocity P-wave (km/s) = 6.25859 6.76868 6.51863
#
# Compressibility (1/GPa) = 0.02083846
#
# Stress axis : x y z
#
# Youngs Moduli (GPa) = 38.66397 67.75408 96.19402
#
# Poissons Ratio (x) = 0.37514 0.62227
# Poissons Ratio (y) = 0.21407 0.29671
# Poissons Ratio (z) = 0.25011 0.20899
#
# Static dielectric constant tensor:
#      x y z
#    x 3.511290 0.000000 0.000000 
#    y 0.000000 3.741610 0.000000 
#    z 0.000000 0.000000 3.887670 
# 
# 
# High freq. dielectric constant tensor:
#      x y z
#    x 1.768320 0.000000 0.000000 
#    y 0.000000 1.798500 0.000000 
#    z 0.000000 0.000000 1.826130 
# 
# From -- ./inp_files/2700.got.cif
#   From: 2010.03.12/outbox.cif.g09.slc.cpg/sg39_2_cif.got.tgz:2700.got - 2010.04.14 02:53:20.
