data_PCOD8181700
_publ_section_title
;
Structure prediction by ZEFSAII (Michael W. Deem and Ramdas Pophale) SiO2 
 PCOD8181700
Probable space group: A B M 2
;
_chemical_formula_sum "Si O2"
_cell_formula_units_Z 56
_cell_length_a 5.318796
_cell_length_b 13.783332
_cell_length_c 30.309312
_cell_angle_alpha 90.000000
_cell_angle_beta 90.000000
_cell_angle_gamma 90.000000
_cell_volume 2221.997822
_symmetry_space_group_name_H-M "A B M 2"
_symmetry_group_IT_number 39
_symmetry_cell_setting 'orthorhombic'
loop_
_space_group_symop_operation_xyz
x,y,z
-x,-y,z
-x,1/2+y,z
x,1/2-y,z
x,1/2+y,1/2+z
-x,1/2-y,1/2+z
-x,y,1/2+z
x,-y,1/2+z
loop_
_atom_site_type_symbol
_atom_site_label
_atom_site_fract_x
_atom_site_fract_y
_atom_site_fract_z
Si Si1 0.597102 0.894119 0.390270
Si Si2 0.216803 0.639004 0.696910
Si Si3 0.500000 0.500000 0.636503
Si Si4 0.000000 0.500000 0.767542
Si Si5 0.889715 0.643669 0.838126
Si Si6 0.355319 0.358058 0.489836
Si Si7 0.887893 0.856953 0.615575
Si Si8 0.145480 0.138245 0.029113
O O1 0.862266 0.893311 0.364329
O O2 0.645116 0.846522 0.437320
O O3 0.365399 0.841878 0.365963
O O4 0.500000 0.000000 0.399537
O O5 0.288305 0.750000 0.710234
O O6 0.432338 0.591033 0.667657
O O7 0.175858 0.571600 0.739465
O O8 0.968408 0.637763 0.666618
O O9 0.289360 0.449889 0.605749
O O10 0.171225 0.430620 0.798363
O O11 0.956799 0.750000 0.819107
O O12 0.351129 0.250000 0.510546
O O13 0.103853 0.411639 0.507631
O O14 0.603627 0.412418 0.509347
O O15 0.764820 0.750000 0.606519
O O16 0.127314 0.869765 0.582628
O O17 0.153405 0.250000 0.013385
#
# Coordination Sequence:
#
# PCOD8181700 Si02
#       8
#     8   8   4   4   8   8   8   8
#     4  12  24  47  70 105 147 189 236 299 360 439
#     4  11  25  46  71 102 145 191 237 297 369 436
#     4  12  22  42  68 102 134 190 250 304 352 442
#     4  12  24  50  70 108 140 174 240 308 360 436
#     4  12  26  46  76 106 144 192 237 295 371 443
#     4  10  20  38  66  99 136 183 237 289 351 424
#     4  10  22  42  67  98 141 193 239 293 366 431
#     4   9  20  37  63  99 138 183 238 294 346 420
#
# _framework density 25.202545000000001
#
# number of rings (size 3 to 8) (size 9 to 14) (size 15 to 20)
#    0.000    1.143    2.857    3.000    2.000    2.286 
#    1.286    1.429    0.000    0.000    0.000    0.000 
#    0.000    0.000    0.000    0.000    0.000    0.000 
#
# Total GULP energy -346999.279642 kJ/mol
# GULP energy per Si atom -12392.831416 kJ/mol
# Density = 2.514518 g / cm^3
# Si number density = 25.202545 Si / 1000 Ang^3
#
#
#
# Elastic Constant Matrix: (Units=GPa)
#
#
# Indices 1 2 3 4 5 6 
#
# 1 153.8151 28.0738 44.1008 0.0000 0.0000 0.0000
# 2 28.0738 122.5460 31.9568 0.0000 0.0000 0.0000
# 3 44.1008 31.9568 134.5742 0.0000 0.0000 0.0000
# 4 0.0000 0.0000 0.0000 5.1129 0.0000 0.0000
# 5 0.0000 0.0000 0.0000 0.0000 21.3594 0.0000
# 6 0.0000 0.0000 0.0000 0.0000 0.0000 27.6799
#
#
#
# Elastic Compliance Matrix: (Units=1/GPa)
#
#
# Indices 1 2 3 4 5 6 
#
# 1 0.007317 -0.001120 -0.002132 0.000000 0.000000 0.000000
# 2 -0.001120 0.008870 -0.001739 0.000000 0.000000 0.000000
# 3 -0.002132 -0.001739 0.008542 0.000000 0.000000 0.000000
# 4 0.000000 0.000000 0.000000 0.195586 0.000000 0.000000
# 5 0.000000 0.000000 0.000000 0.000000 0.046818 0.000000
# 6 0.000000 0.000000 0.000000 0.000000 0.000000 0.036127
#
#
# Mechanical properties :
#
#
# Convention : Reuss Voigt Hill
#
# Bulk Modulus (GPa) = 67.80999 68.79979 68.30489
# Shear Modulus (GPa) = 15.71541 31.28403 23.49972
#
# Velocity S-wave (km/s) = 2.49984 3.52704 3.05689
# Velocity P-wave (km/s) = 5.94110 6.62908 6.29449
#
# Compressibility (1/GPa) = 0.01474709
#
# Stress axis : x y z
#
# Youngs Moduli (GPa) = 136.66806 112.73430 117.06222
#
# Poissons Ratio (x) = 0.12630 0.24955
# Poissons Ratio (y) = 0.15311 0.20360
# Poissons Ratio (z) = 0.29135 0.19608
#
# Static dielectric constant tensor:
#      x y z
#    x 4.645290 0.000000 0.000000 
#    y 0.000000 4.688470 0.000000 
#    z 0.000000 0.000000 4.338690 
# 
# 
# High freq. dielectric constant tensor:
#      x y z
#    x 1.996560 0.000000 0.000000 
#    y 0.000000 2.028340 0.000000 
#    z 0.000000 0.000000 1.992780 
# 
# From -- ./inp_files/17308.got.cif
#   From: 2010.03.12/outbox.cif.g09.slc.cpg/sg39_9_cif.got.tgz:17308.got - 2010.04.14 02:53:20.
