data_PCOD8181791
_publ_section_title
;
Structure prediction by ZEFSAII (Michael W. Deem and Ramdas Pophale) SiO2 
 PCOD8181791
Probable space group: A B M 2
;
_chemical_formula_sum "Si O2"
_cell_formula_units_Z 60
_cell_length_a 7.728126
_cell_length_b 22.488942
_cell_length_c 18.417705
_cell_angle_alpha 90.000000
_cell_angle_beta 90.000000
_cell_angle_gamma 90.000000
_cell_volume 3200.948826
_symmetry_space_group_name_H-M "A B M 2"
_symmetry_group_IT_number 39
_symmetry_cell_setting 'orthorhombic'
loop_
_space_group_symop_operation_xyz
x,y,z
-x,-y,z
-x,1/2+y,z
x,1/2-y,z
x,1/2+y,1/2+z
-x,1/2-y,1/2+z
-x,y,1/2+z
x,-y,1/2+z
loop_
_atom_site_type_symbol
_atom_site_label
_atom_site_fract_x
_atom_site_fract_y
_atom_site_fract_z
Si Si1 0.802426 0.620811 0.411740
Si Si2 0.501139 0.817769 0.997206
Si Si3 0.500565 0.372575 0.653648
Si Si4 0.692908 0.183310 0.275475
Si Si5 0.815678 0.130776 0.417160
Si Si6 0.689331 0.183347 0.775532
Si Si7 0.500000 0.500000 0.088661
Si Si8 0.803432 0.502870 0.973067
O O1 0.648253 0.646377 0.458280
O O2 0.804071 0.643676 0.329038
O O3 0.780163 0.549667 0.414289
O O4 0.987964 0.640052 0.445188
O O5 0.448559 0.750000 0.991776
O O6 0.505967 0.837248 0.079679
O O7 0.690007 0.827091 0.962726
O O8 0.327898 0.352846 0.699167
O O9 0.671452 0.351184 0.698554
O O10 0.505105 0.443028 0.641135
O O11 0.768351 0.250000 0.261693
O O12 0.810259 0.146560 0.331525
O O13 0.501837 0.189212 0.311436
O O14 0.759498 0.062631 0.429215
O O15 0.767973 0.250000 0.765028
O O16 0.672188 0.496661 0.040027
O O17 0.000000 0.500000 0.004078
#
# Coordination Sequence:
#
# PCOD8181791 Si02
#       8
#     8   8   8   8   8   8   4   8
#     4  11  22  38  63  89 117 159 202 246 303 354
#     4  12  21  36  60  87 122 155 199 254 294 350
#     4  10  21  36  60  87 115 159 198 234 300 358
#     4   9  19  38  57  83 121 154 190 240 291 347
#     4  11  22  38  63  89 117 159 202 246 303 354
#     4   9  19  38  57  83 121 154 190 240 291 347
#     4  12  20  38  64  86 116 162 196 244 304 356
#     4  10  22  39  59  89 125 151 194 258 300 344
#
# _framework density 18.744440999999998
#
# number of rings (size 3 to 8) (size 9 to 14) (size 15 to 20)
#    0.800    0.800    4.000    1.600    0.000    3.200 
#    0.000    2.667    0.000    3.200    0.000    0.000 
#    0.000    0.000    0.000    0.000    0.000    0.000 
#
# Total GULP energy -371794.709927 kJ/mol
# GULP energy per Si atom -12393.156998 kJ/mol
# Density = 1.870178 g / cm^3
# Si number density = 18.744441 Si / 1000 Ang^3
#
#
#
# Elastic Constant Matrix: (Units=GPa)
#
#
# Indices 1 2 3 4 5 6 
#
# 1 71.7418 20.6071 29.7092 0.0000 0.0000 0.0000
# 2 20.6071 126.0161 40.7278 0.0000 0.0000 0.0000
# 3 29.7092 40.7278 106.8779 0.0000 0.0000 0.0000
# 4 0.0000 0.0000 0.0000 40.0655 0.0000 0.0000
# 5 0.0000 0.0000 0.0000 0.0000 13.3072 0.0000
# 6 0.0000 0.0000 0.0000 0.0000 0.0000 17.6898
#
#
#
# Elastic Compliance Matrix: (Units=1/GPa)
#
#
# Indices 1 2 3 4 5 6 
#
# 1 0.015948 -0.001340 -0.003922 0.000000 0.000000 0.000000
# 2 -0.001340 0.009163 -0.003119 0.000000 0.000000 0.000000
# 3 -0.003922 -0.003119 0.011635 0.000000 0.000000 0.000000
# 4 0.000000 0.000000 0.000000 0.024959 0.000000 0.000000
# 5 0.000000 0.000000 0.000000 0.000000 0.075147 0.000000
# 6 0.000000 0.000000 0.000000 0.000000 0.000000 0.056530
#
#
# Mechanical properties :
#
#
# Convention : Reuss Voigt Hill
#
# Bulk Modulus (GPa) = 50.04313 54.08046 52.06179
# Shear Modulus (GPa) = 23.06196 28.45193 25.75695
#
# Velocity S-wave (km/s) = 3.51142 3.90023 3.71092
# Velocity P-wave (km/s) = 6.57234 7.01402 6.79677
#
# Compressibility (1/GPa) = 0.01998276
#
# Stress axis : x y z
#
# Youngs Moduli (GPa) = 62.70304 109.13777 85.94472
#
# Poissons Ratio (x) = 0.14627 0.33711
# Poissons Ratio (y) = 0.08404 0.26807
# Poissons Ratio (z) = 0.24595 0.34041
#
# Static dielectric constant tensor:
#      x y z
#    x 3.335510 0.000000 0.000000 
#    y 0.000000 3.619790 0.000000 
#    z 0.000000 0.000000 3.361360 
# 
# 
# High freq. dielectric constant tensor:
#      x y z
#    x 1.714100 0.000000 0.000000 
#    y 0.000000 1.742880 0.000000 
#    z 0.000000 0.000000 1.714280 
# 
# From -- ./inp_files/11925.got.cif
#   From: 2010.03.12/outbox.cif.g09.slc.cpg/sg39_6_cif.got.tgz:11925.got - 2010.04.14 02:53:20.
