data_PCOD8181195
_publ_section_title
;
Structure prediction by ZEFSAII (Michael W. Deem and Ramdas Pophale) SiO2 
 PCOD8181195
Probable space group: A B M 2
;
_chemical_formula_sum "Si O2"
_cell_formula_units_Z 64
_cell_length_a 19.266719
_cell_length_b 8.992662
_cell_length_c 19.994398
_cell_angle_alpha 90.000000
_cell_angle_beta 90.000000
_cell_angle_gamma 90.000000
_cell_volume 3464.211239
_symmetry_space_group_name_H-M "A B M 2"
_symmetry_group_IT_number 39
_symmetry_cell_setting 'orthorhombic'
loop_
_space_group_symop_operation_xyz
x,y,z
-x,-y,z
-x,1/2+y,z
x,1/2-y,z
x,1/2+y,1/2+z
-x,1/2-y,1/2+z
-x,y,1/2+z
x,-y,1/2+z
loop_
_atom_site_type_symbol
_atom_site_label
_atom_site_fract_x
_atom_site_fract_y
_atom_site_fract_z
Si Si1 0.430474 0.923480 0.934310
Si Si2 0.214557 0.078578 0.509616
Si Si3 0.713595 0.921708 0.371400
Si Si4 0.932208 0.576871 0.562140
Si Si5 0.706422 0.926121 0.125171
Si Si6 0.429327 0.925727 0.088639
Si Si7 0.780602 0.575573 0.747369
Si Si8 0.932003 0.422601 0.214199
O O1 0.442725 0.750000 0.928396
O O2 0.364046 0.973075 0.891120
O O3 0.500000 0.000000 0.906045
O O4 0.416702 0.967878 0.011119
O O5 0.227693 0.250000 0.531958
O O6 0.234537 0.055218 0.433004
O O7 0.134256 0.033646 0.517794
O O8 0.261217 0.971906 0.554435
O O9 0.713864 0.750000 0.348127
O O10 0.739186 0.027319 0.312703
O O11 0.946113 0.750000 0.560427
O O12 0.919918 0.521257 0.638121
O O13 0.000000 0.500000 0.530540
O O14 0.698481 0.750000 0.129142
O O15 0.631403 0.002380 0.132691
O O16 0.754669 0.983534 0.184262
O O17 0.431787 0.750000 0.100283
O O18 0.500000 0.000000 0.114365
O O19 0.769178 0.750000 0.733700
O O20 0.862653 0.539847 0.756349
O O21 0.948016 0.250000 0.215161
O O22 0.000000 0.500000 0.246164
#
# Coordination Sequence:
#
# PCOD8181195 Si02
#       8
#     8   8   8   8   8   8   8   8
#     4   9  18  33  56  82 112 147 184 227 276 333
#     4  10  19  37  59  80 113 151 184 229 288 337
#     4  10  21  38  58  83 114 152 191 231 283 341
#     4   9  17  31  53  80 110 144 183 229 283 338
#     4  12  23  35  57  87 114 146 191 237 280 336
#     4  10  19  35  57  85 118 151 186 233 287 337
#     4  11  23  40  58  81 115 153 190 238 290 337
#     4   9  18  33  55  80 108 142 185 230 282 341
#
# _framework density 18.474623999999999
#
# number of rings (size 3 to 8) (size 9 to 14) (size 15 to 20)
#    0.000    2.000    2.500    1.875    0.000    3.000 
#    0.000    1.250    0.000    4.500    0.000    0.000 
#    0.000    0.000    0.000    0.000    0.000    0.000 
#
# Total GULP energy -396845.906792 kJ/mol
# GULP energy per Si atom -12401.434587 kJ/mol
# Density = 1.843257 g / cm^3
# Si number density = 18.474624 Si / 1000 Ang^3
#
#
#
# Elastic Constant Matrix: (Units=GPa)
#
#
# Indices 1 2 3 4 5 6 
#
# 1 141.4007 50.3175 22.1300 0.0000 0.0000 0.0000
# 2 50.3175 78.9519 19.9869 0.0000 0.0000 0.0000
# 3 22.1300 19.9869 36.5216 0.0000 0.0000 0.0000
# 4 0.0000 0.0000 0.0000 26.2597 0.0000 0.0000
# 5 0.0000 0.0000 0.0000 0.0000 27.3028 0.0000
# 6 0.0000 0.0000 0.0000 0.0000 0.0000 37.0154
#
#
#
# Elastic Compliance Matrix: (Units=1/GPa)
#
#
# Indices 1 2 3 4 5 6 
#
# 1 0.009387 -0.005273 -0.002802 0.000000 0.000000 0.000000
# 2 -0.005273 0.017665 -0.006472 0.000000 0.000000 0.000000
# 3 -0.002802 -0.006472 0.032621 0.000000 0.000000 0.000000
# 4 0.000000 0.000000 0.000000 0.038081 0.000000 0.000000
# 5 0.000000 0.000000 0.000000 0.000000 0.036626 0.000000
# 6 0.000000 0.000000 0.000000 0.000000 0.000000 0.027016
#
#
# Mechanical properties :
#
#
# Convention : Reuss Voigt Hill
#
# Bulk Modulus (GPa) = 32.70321 49.08255 40.89288
# Shear Modulus (GPa) = 24.91473 29.07823 26.99648
#
# Velocity S-wave (km/s) = 3.67630 3.97161 3.82681
# Velocity P-wave (km/s) = 5.98000 6.90339 6.45822
#
# Compressibility (1/GPa) = 0.03057803
#
# Stress axis : x y z
#
# Youngs Moduli (GPa) = 106.52869 56.60882 30.65504
#
# Poissons Ratio (x) = 0.29851 0.08590
# Poissons Ratio (y) = 0.56175 0.19840
# Poissons Ratio (z) = 0.29852 0.36638
#
# Static dielectric constant tensor:
#      x y z
#    x 3.696930 0.000000 0.000000 
#    y 0.000000 3.347230 0.000000 
#    z 0.000000 0.000000 3.131300 
# 
# 
# High freq. dielectric constant tensor:
#      x y z
#    x 1.735930 0.000000 0.000000 
#    y 0.000000 1.714940 0.000000 
#    z 0.000000 0.000000 1.680490 
# 
# From -- ./inp_files/13106.got.cif
#   From: 2010.03.12/outbox.cif.g09.slc.cpg/sg39_7_cif.got.tgz:13106.got - 2010.04.14 02:53:20.
