data_PCOD8181786
_publ_section_title
;
Structure prediction by ZEFSAII (Michael W. Deem and Ramdas Pophale) SiO2 
 PCOD8181786
Probable space group: A B M 2
;
_chemical_formula_sum "Si O2"
_cell_formula_units_Z 64
_cell_length_a 11.458873
_cell_length_b 17.000538
_cell_length_c 15.956398
_cell_angle_alpha 90.000000
_cell_angle_beta 90.000000
_cell_angle_gamma 90.000000
_cell_volume 3108.418119
_symmetry_space_group_name_H-M "A B M 2"
_symmetry_group_IT_number 39
_symmetry_cell_setting 'orthorhombic'
loop_
_space_group_symop_operation_xyz
x,y,z
-x,-y,z
-x,1/2+y,z
x,1/2-y,z
x,1/2+y,1/2+z
-x,1/2-y,1/2+z
-x,y,1/2+z
x,-y,1/2+z
loop_
_atom_site_type_symbol
_atom_site_label
_atom_site_fract_x
_atom_site_fract_y
_atom_site_fract_z
Si Si1 0.265746 0.342213 0.339500
Si Si2 0.066495 0.424668 0.241816
Si Si3 0.671786 0.156962 0.170358
Si Si4 0.038803 0.341903 0.965073
Si Si5 0.589700 0.342095 0.677827
Si Si6 0.863136 0.841028 0.789632
Si Si7 0.790707 0.923267 0.080195
Si Si8 0.212559 0.909713 0.006587
O O1 0.238564 0.250000 0.349453
O O2 0.149383 0.385933 0.310373
O O3 0.369192 0.356609 0.273379
O O4 0.294862 0.380364 0.429698
O O5 0.135075 0.452045 0.159832
O O6 0.000000 0.500000 0.280619
O O7 0.966087 0.359844 0.222491
O O8 0.664855 0.250000 0.175910
O O9 0.540694 0.122937 0.170744
O O10 0.742197 0.123326 0.251876
O O11 0.741260 0.134282 0.087867
O O12 0.007656 0.250000 0.957844
O O13 0.096503 0.375881 0.879233
O O14 0.137242 0.354340 0.035395
O O15 0.922334 0.389277 0.988825
O O16 0.596965 0.250000 0.655468
O O17 0.667500 0.388705 0.610704
O O18 0.843294 0.750000 0.799694
O O19 0.772260 0.996774 0.018489
#
# Coordination Sequence:
#
# PCOD8181786 Si02
#       8
#     8   8   8   8   8   8   8   8
#     4  10  21  39  64  91 119 161 210 259 312 372
#     4  11  21  35  58  87 122 162 200 248 314 378
#     4  10  21  40  65  90 120 165 213 262 311 369
#     4  11  22  37  59  92 130 164 207 260 315 379
#     4   9  21  44  68  88 117 162 219 266 311 372
#     4  10  21  36  58  90 126 159 202 258 314 372
#     4  11  24  39  59  90 126 166 208 254 316 379
#     4  12  23  38  61  94 130 163 203 259 319 384
#
# _framework density 20.589251000000001
#
# number of rings (size 3 to 8) (size 9 to 14) (size 15 to 20)
#    0.000    1.500    1.250    4.500    1.750    3.000 
#    2.250    0.000    0.000    0.000    0.000    0.000 
#    0.000    0.000    0.000    0.000    0.000    0.000 
#
# Total GULP energy -396670.422329 kJ/mol
# GULP energy per Si atom -12395.950698 kJ/mol
# Density = 2.054239 g / cm^3
# Si number density = 20.589251 Si / 1000 Ang^3
#
#
#
# Elastic Constant Matrix: (Units=GPa)
#
#
# Indices 1 2 3 4 5 6 
#
# 1 159.0343 34.4403 76.3220 0.0000 0.0000 0.0000
# 2 34.4403 65.0726 51.9241 0.0000 0.0000 0.0000
# 3 76.3220 51.9241 118.8030 0.0000 0.0000 0.0000
# 4 0.0000 0.0000 0.0000 32.1810 0.0000 0.0000
# 5 0.0000 0.0000 0.0000 0.0000 26.9840 0.0000
# 6 0.0000 0.0000 0.0000 0.0000 0.0000 16.5487
#
#
#
# Elastic Compliance Matrix: (Units=1/GPa)
#
#
# Indices 1 2 3 4 5 6 
#
# 1 0.009093 -0.000232 -0.005740 0.000000 0.000000 0.000000
# 2 -0.000232 0.023603 -0.010167 0.000000 0.000000 0.000000
# 3 -0.005740 -0.010167 0.016548 0.000000 0.000000 0.000000
# 4 0.000000 0.000000 0.000000 0.031074 0.000000 0.000000
# 5 0.000000 0.000000 0.000000 0.000000 0.037059 0.000000
# 6 0.000000 0.000000 0.000000 0.000000 0.000000 0.060428
#
#
# Mechanical properties :
#
#
# Convention : Reuss Voigt Hill
#
# Bulk Modulus (GPa) = 58.94107 74.25366 66.59736
# Shear Modulus (GPa) = 23.17627 27.15764 25.16696
#
# Velocity S-wave (km/s) = 3.35871 3.63577 3.49998
# Velocity P-wave (km/s) = 6.61290 7.33265 6.98205
#
# Compressibility (1/GPa) = 0.01696610
#
# Stress axis : x y z
#
# Youngs Moduli (GPa) = 109.97544 42.36792 60.42950
#
# Poissons Ratio (x) = 0.00984 0.34686
# Poissons Ratio (y) = 0.02555 0.61436
# Poissons Ratio (z) = 0.63126 0.43074
#
# Static dielectric constant tensor:
#      x y z
#    x 4.032770 0.000000 0.000000 
#    y 0.000000 3.641960 0.000000 
#    z 0.000000 0.000000 3.971880 
# 
# 
# High freq. dielectric constant tensor:
#      x y z
#    x 1.798980 0.000000 0.000000 
#    y 0.000000 1.802840 0.000000 
#    z 0.000000 0.000000 1.809470 
# 
# From -- ./inp_files/9433.got.cif
#   From: 2010.03.12/outbox.cif.g09.slc.cpg/sg39_5_cif.got.tgz:9433.got - 2010.04.14 02:53:20.
