data_PCOD8181272
_publ_section_title
;
Structure prediction by ZEFSAII (Michael W. Deem and Ramdas Pophale) SiO2 
 PCOD8181272
Probable space group: A B M 2
;
_chemical_formula_sum "Si O2"
_cell_formula_units_Z 64
_cell_length_a 14.321131
_cell_length_b 9.278243
_cell_length_c 23.899244
_cell_angle_alpha 90.000000
_cell_angle_beta 90.000000
_cell_angle_gamma 90.000000
_cell_volume 3175.610456
_symmetry_space_group_name_H-M "A B M 2"
_symmetry_group_IT_number 39
_symmetry_cell_setting 'orthorhombic'
loop_
_space_group_symop_operation_xyz
x,y,z
-x,-y,z
-x,1/2+y,z
x,1/2-y,z
x,1/2+y,1/2+z
-x,1/2-y,1/2+z
-x,y,1/2+z
x,-y,1/2+z
loop_
_atom_site_type_symbol
_atom_site_label
_atom_site_fract_x
_atom_site_fract_y
_atom_site_fract_z
Si Si1 0.244455 0.918178 0.072020
Si Si2 0.595042 0.916153 0.656069
Si Si3 0.892702 0.041880 0.763811
Si Si4 0.300029 0.586026 0.263811
Si Si5 0.244455 0.418178 0.955602
Si Si6 0.906101 0.091319 0.641404
Si Si7 0.595042 0.416153 0.371553
Si Si8 0.906101 0.408681 0.886218
O O1 0.217272 0.750000 0.064395
O O2 0.345858 0.933717 0.099500
O O3 0.170874 0.994761 0.112057
O O4 0.245586 1.000000 0.013811
O O5 0.571074 0.750000 0.666953
O O6 0.653692 0.983507 0.708228
O O7 0.500000 0.000000 0.647629
O O8 0.877544 0.125919 0.705817
O O9 0.877543 0.125919 0.821804
O O10 0.812961 0.918726 0.763811
O O11 0.000000 0.000000 0.763811
O O12 0.328638 0.750000 0.263811
O O13 0.346308 0.516493 0.319394
O O14 0.217272 0.250000 0.963227
O O15 0.345858 0.433718 0.928122
O O16 0.170873 0.494760 0.915565
O O17 0.916724 0.250000 0.612885
O O18 0.000000 0.000000 0.636787
O O19 0.500000 0.500000 0.379993
O O20 0.571074 0.250000 0.360669
O O21 0.916724 0.250000 0.914737
O O22 0.000000 0.500000 0.890835
#
# Coordination Sequence:
#
# PCOD8181272 Si02
#       8
#     8   8   8   8   8   8   8   8
#     4  11  24  43  65  90 122 163 210 261 314 366
#     4  10  22  40  64  92 123 162 204 254 313 370
#     4  10  21  36  61  97 131 164 204 245 303 364
#     4  10  19  38  64  91 128 167 202 250 307 373
#     4  11  24  43  65  90 122 163 210 261 314 366
#     4  11  23  40  63  94 129 166 207 251 305 368
#     4  10  22  40  64  92 123 162 204 254 313 370
#     4  11  23  40  63  94 129 166 207 251 305 368
#
# _framework density 20.153604999999999
#
# number of rings (size 3 to 8) (size 9 to 14) (size 15 to 20)
#    0.000    1.500    2.500    2.250    0.000    7.000 
#    0.000    5.000    0.000    0.000    0.000    0.000 
#    0.000    0.000    0.000    0.000    0.000    0.000 
#
# Total GULP energy -396468.895852 kJ/mol
# GULP energy per Si atom -12389.652995 kJ/mol
# Density = 2.010773 g / cm^3
# Si number density = 20.153605 Si / 1000 Ang^3
#
#
#
# Elastic Constant Matrix: (Units=GPa)
#
#
# Indices 1 2 3 4 5 6 
#
# 1 149.2115 73.9444 58.5718 0.0000 0.0000 0.0000
# 2 73.9444 142.5084 57.7016 0.0000 0.0000 0.0000
# 3 58.5718 57.7016 118.2112 0.0000 0.0000 0.0000
# 4 0.0000 0.0000 0.0000 -8.2554 0.0000 0.0000
# 5 0.0000 0.0000 0.0000 0.0000 13.3619 0.0000
# 6 0.0000 0.0000 0.0000 0.0000 0.0000 31.6046
#
#
#
# Elastic Compliance Matrix: (Units=1/GPa)
#
#
# Indices 1 2 3 4 5 6 
#
# 1 0.009785 -0.003881 -0.002954 0.000000 0.000000 0.000000
# 2 -0.003881 0.010285 -0.003097 0.000000 0.000000 0.000000
# 3 -0.002954 -0.003097 0.011435 0.000000 0.000000 0.000000
# 4 0.000000 0.000000 0.000000 -0.121133 0.000000 0.000000
# 5 0.000000 0.000000 0.000000 0.000000 0.074840 0.000000
# 6 0.000000 0.000000 0.000000 0.000000 0.000000 0.031641
#
#
# Mechanical properties :
#
#
# Convention : Reuss Voigt Hill
#
# Bulk Modulus (GPa) = 85.90862 87.81853 86.86357
# Shear Modulus (GPa) = 123.16210 21.98977 72.57594
#
# Velocity S-wave (km/s) = 7.82588 3.30678 6.00746
# Velocity P-wave (km/s) = 11.15252 7.63210 9.55582
#
# Compressibility (1/GPa) = 0.01164028
#
# Stress axis : x y z
#
# Youngs Moduli (GPa) = 102.20035 97.22839 87.45205
#
# Poissons Ratio (x) = 0.37735 0.25831
# Poissons Ratio (y) = 0.39665 0.27087
# Poissons Ratio (z) = 0.30187 0.30115
#
# Static dielectric constant tensor:
#      x y z
#    x 3.671140 0.000000 0.000000 
#    y 0.000000 3.582220 0.000000 
#    z 0.000000 0.000000 4.016060 
# 
# 
# High freq. dielectric constant tensor:
#      x y z
#    x 1.790780 0.000000 0.000000 
#    y 0.000000 1.781280 0.000000 
#    z 0.000000 0.000000 1.793380 
# 
# From -- ./inp_files/16219.got.cif
#   From: 2010.03.12/outbox.cif.g09.slc.cpg/sg39_9_cif.got.tgz:16219.got - 2010.04.14 02:53:20.
