data_PCOD8181177
_publ_section_title
;
Structure prediction by ZEFSAII (Michael W. Deem and Ramdas Pophale) SiO2 
 PCOD8181177
Probable space group: A B M 2
;
_chemical_formula_sum "Si O2"
_cell_formula_units_Z 64
_cell_length_a 9.107011
_cell_length_b 14.810455
_cell_length_c 22.885197
_cell_angle_alpha 90.000000
_cell_angle_beta 90.000000
_cell_angle_gamma 90.000000
_cell_volume 3086.731951
_symmetry_space_group_name_H-M "A B M 2"
_symmetry_group_IT_number 39
_symmetry_cell_setting 'orthorhombic'
loop_
_space_group_symop_operation_xyz
x,y,z
-x,-y,z
-x,1/2+y,z
x,1/2-y,z
x,1/2+y,1/2+z
-x,1/2-y,1/2+z
-x,y,1/2+z
x,-y,1/2+z
loop_
_atom_site_type_symbol
_atom_site_label
_atom_site_fract_x
_atom_site_fract_y
_atom_site_fract_z
Si Si1 0.829598 0.480504 0.726130
Si Si2 0.638376 0.351745 0.931305
Si Si3 0.085004 0.150244 0.131457
Si Si4 0.748722 0.350004 0.167675
Si Si5 0.828438 0.515176 0.354340
Si Si6 0.864235 0.944107 0.015579
Si Si7 0.370554 0.428693 0.556875
Si Si8 0.303858 0.645567 0.408565
O O1 0.808366 0.410356 0.672774
O O2 0.729444 0.569841 0.714958
O O3 0.788587 0.442648 0.790713
O O4 0.000000 0.500000 0.730354
O O5 0.695984 0.250000 0.920540
O O6 0.756693 0.420934 0.904121
O O7 0.478430 0.365676 0.903770
O O8 0.615493 0.366534 0.999965
O O9 0.146882 0.250000 0.140882
O O10 0.087008 0.129595 0.062660
O O11 0.916542 0.142163 0.148492
O O12 0.716566 0.250000 0.194035
O O13 0.637440 0.364726 0.113621
O O14 0.760427 0.414167 0.356054
O O15 0.000000 0.500000 0.365977
O O16 0.779298 0.016721 0.054133
O O17 0.762348 0.896356 0.967933
O O18 0.000000 0.000000 0.986655
O O19 0.500000 0.500000 0.562279
O O20 0.255817 0.750000 0.402750
#
# Coordination Sequence:
#
# PCOD8181177 Si02
#       8
#     8   8   8   8   8   8   8   8
#     4   9  19  37  59  85 117 155 200 253 307 351
#     4  11  24  42  62  86 122 165 202 243 304 371
#     4  10  19  34  59  91 123 154 194 245 299 354
#     4  10  20  36  60  89 120 157 196 240 297 360
#     4  11  23  40  63  90 118 156 208 262 307 354
#     4  12  20  37  62  89 122 156 197 242 296 355
#     4  12  21  37  61  86 121 159 193 237 299 359
#     4  11  24  41  61  88 122 162 201 245 306 369
#
# _framework density 20.733903000000002
#
# number of rings (size 3 to 8) (size 9 to 14) (size 15 to 20)
#    0.000    1.250    5.000    1.875    0.000    1.500 
#    0.000    3.750    0.000    0.000    0.000    0.000 
#    0.000    0.000    0.000    0.000    0.000    0.000 
#
# Total GULP energy -396583.332171 kJ/mol
# GULP energy per Si atom -12393.229130 kJ/mol
# Density = 2.068671 g / cm^3
# Si number density = 20.733903 Si / 1000 Ang^3
#
#
#
# Elastic Constant Matrix: (Units=GPa)
#
#
# Indices 1 2 3 4 5 6 
#
# 1 74.6337 43.1657 13.0913 0.0000 0.0000 0.0000
# 2 43.1657 136.5026 33.5096 0.0000 0.0000 0.0000
# 3 13.0913 33.5096 87.3420 0.0000 0.0000 0.0000
# 4 0.0000 0.0000 0.0000 21.7401 0.0000 0.0000
# 5 0.0000 0.0000 0.0000 0.0000 8.1088 0.0000
# 6 0.0000 0.0000 0.0000 0.0000 0.0000 20.4056
#
#
#
# Elastic Compliance Matrix: (Units=1/GPa)
#
#
# Indices 1 2 3 4 5 6 
#
# 1 0.016419 -0.005065 -0.000518 0.000000 0.000000 0.000000
# 2 -0.005065 0.009650 -0.002943 0.000000 0.000000 0.000000
# 3 -0.000518 -0.002943 0.012656 0.000000 0.000000 0.000000
# 4 0.000000 0.000000 0.000000 0.045998 0.000000 0.000000
# 5 0.000000 0.000000 0.000000 0.000000 0.123323 0.000000
# 6 0.000000 0.000000 0.000000 0.000000 0.000000 0.049006
#
#
# Mechanical properties :
#
#
# Convention : Reuss Voigt Hill
#
# Bulk Modulus (GPa) = 46.13978 53.11239 49.62608
# Shear Modulus (GPa) = 17.77282 23.96501 20.86891
#
# Velocity S-wave (km/s) = 2.93095 3.40345 3.17600
# Velocity P-wave (km/s) = 5.80995 6.41221 6.11850
#
# Compressibility (1/GPa) = 0.02167327
#
# Stress axis : x y z
#
# Youngs Moduli (GPa) = 60.90487 103.62606 79.01377
#
# Poissons Ratio (x) = 0.52487 0.04091
# Poissons Ratio (y) = 0.30849 0.23255
# Poissons Ratio (z) = 0.03153 0.30499
#
# Static dielectric constant tensor:
#      x y z
#    x 3.545920 0.000000 0.000000 
#    y 0.000000 3.997350 0.000000 
#    z 0.000000 0.000000 3.865300 
# 
# 
# High freq. dielectric constant tensor:
#      x y z
#    x 1.793840 0.000000 0.000000 
#    y 0.000000 1.816140 0.000000 
#    z 0.000000 0.000000 1.805710 
# 
# From -- ./inp_files/15722.got.cif
#   From: 2010.03.12/outbox.cif.g09.slc.cpg/sg39_8_cif.got.tgz:15722.got - 2010.04.14 02:53:20.
