data_PCOD8181524
_publ_section_title
;
Structure prediction by ZEFSAII (Michael W. Deem and Ramdas Pophale) SiO2 
 PCOD8181524
Probable space group: A B M 2
;
_chemical_formula_sum "Si O2"
_cell_formula_units_Z 48
_cell_length_a 15.412448
_cell_length_b 8.725387
_cell_length_c 19.805636
_cell_angle_alpha 90.000000
_cell_angle_beta 90.000000
_cell_angle_gamma 90.000000
_cell_volume 2663.453481
_symmetry_space_group_name_H-M "A B M 2"
_symmetry_group_IT_number 39
_symmetry_cell_setting 'orthorhombic'
loop_
_space_group_symop_operation_xyz
x,y,z
-x,-y,z
-x,1/2+y,z
x,1/2-y,z
x,1/2+y,1/2+z
-x,1/2-y,1/2+z
-x,y,1/2+z
x,-y,1/2+z
loop_
_atom_site_type_symbol
_atom_site_label
_atom_site_fract_x
_atom_site_fract_y
_atom_site_fract_z
Si Si1 0.585947 0.578972 0.403730
Si Si2 0.906930 0.431953 0.807326
Si Si3 0.229977 0.068085 0.551861
Si Si4 0.767973 0.068979 0.407558
Si Si5 0.417132 0.916844 0.063582
Si Si6 0.909032 0.569093 0.664414
O O1 0.500000 0.500000 0.372002
O O2 0.596005 0.750000 0.373367
O O3 0.671031 0.480393 0.386144
O O4 0.573567 0.590011 0.483435
O O5 0.913791 0.250000 0.806035
O O6 0.835501 0.484329 0.859963
O O7 0.878603 0.492731 0.733946
O O8 0.000000 0.500000 0.828420
O O9 0.235183 0.250000 0.536263
O O10 0.323390 0.008269 0.580193
O O11 0.159163 0.025892 0.606969
O O12 0.207706 0.979871 0.483382
O O13 0.777005 0.250000 0.399526
O O14 0.419455 0.750000 0.096397
O O15 0.500000 0.000000 0.096330
O O16 0.917601 0.750000 0.675144
O O17 0.000000 0.500000 0.640137
#
# Coordination Sequence:
#
# PCOD8181524 Si02
#       6
#     8   8   8   8   8   8
#     4   9  16  28  46  71 103 137 172 210 255 304
#     4  11  22  38  57  76 101 133 172 214 259 313
#     4   9  19  34  51  74 106 138 168 209 258 304
#     4  11  21  33  52  79 108 138 174 215 260 305
#     4   8  14  25  42  66  96 130 164 199 242 291
#     4  10  20  36  56  76 100 132 170 209 254 309
#
# _framework density 18.021715
#
# number of rings (size 3 to 8) (size 9 to 14) (size 15 to 20)
#    0.000    2.333    0.000    6.000    0.000    6.000 
#    0.000    1.667    0.000    1.000    0.000    4.667 
#    0.000    0.000    0.000    0.000    0.000    0.000 
#
# Total GULP energy -297508.740414 kJ/mol
# GULP energy per Si atom -12396.197517 kJ/mol
# Density = 1.798070 g / cm^3
# Si number density = 18.021715 Si / 1000 Ang^3
#
#
#
# Elastic Constant Matrix: (Units=GPa)
#
#
# Indices 1 2 3 4 5 6 
#
# 1 151.9674 57.5711 76.7294 0.0000 0.0000 0.0000
# 2 57.5711 117.1381 41.1385 0.0000 0.0000 0.0000
# 3 76.7294 41.1385 68.2120 0.0000 0.0000 0.0000
# 4 0.0000 0.0000 0.0000 22.5790 0.0000 0.0000
# 5 0.0000 0.0000 0.0000 0.0000 -7.6783 0.0000
# 6 0.0000 0.0000 0.0000 0.0000 0.0000 32.9578
#
#
#
# Elastic Compliance Matrix: (Units=1/GPa)
#
#
# Indices 1 2 3 4 5 6 
#
# 1 0.015558 -0.001903 -0.016353 0.000000 0.000000 0.000000
# 2 -0.001903 0.011064 -0.004531 0.000000 0.000000 0.000000
# 3 -0.016353 -0.004531 0.035788 0.000000 0.000000 0.000000
# 4 0.000000 0.000000 0.000000 0.044289 0.000000 0.000000
# 5 0.000000 0.000000 0.000000 0.000000 -0.130237 0.000000
# 6 0.000000 0.000000 0.000000 0.000000 0.000000 0.030342
#
#
# Mechanical properties :
#
#
# Convention : Reuss Voigt Hill
#
# Bulk Modulus (GPa) = 59.40236 76.46617 67.93427
# Shear Modulus (GPa) = 86.22088 20.36360 53.29224
#
# Velocity S-wave (km/s) = 6.92435 3.36512 5.44383
# Velocity P-wave (km/s) = 9.84693 7.59084 8.79155
#
# Compressibility (1/GPa) = 0.01683435
#
# Stress axis : x y z
#
# Youngs Moduli (GPa) = 64.27498 90.38425 27.94238
#
# Poissons Ratio (x) = 0.17204 0.45694
# Poissons Ratio (y) = 0.12234 0.12662
# Poissons Ratio (z) = 1.05108 0.40957
#
# Static dielectric constant tensor:
#      x y z
#    x 3.629500 0.000000 0.000000 
#    y 0.000000 3.527160 0.000000 
#    z 0.000000 0.000000 2.954690 
# 
# 
# High freq. dielectric constant tensor:
#      x y z
#    x 1.715940 0.000000 0.000000 
#    y 0.000000 1.709250 0.000000 
#    z 0.000000 0.000000 1.652390 
# 
# From -- ./inp_files/12669.got.cif
#   From: 2010.03.12/outbox.cif.g09.slc.cpg/sg39_7_cif.got.tgz:12669.got - 2010.04.14 02:53:20.
