data_PCOD8181647
_publ_section_title
;
Structure prediction by ZEFSAII (Michael W. Deem and Ramdas Pophale) SiO2 
 PCOD8181647
Probable space group: A B M 2
;
_chemical_formula_sum "Si O2"
_cell_formula_units_Z 48
_cell_length_a 9.807079
_cell_length_b 18.280678
_cell_length_c 13.351505
_cell_angle_alpha 90.000000
_cell_angle_beta 90.000000
_cell_angle_gamma 90.000000
_cell_volume 2393.658528
_symmetry_space_group_name_H-M "A B M 2"
_symmetry_group_IT_number 39
_symmetry_cell_setting 'orthorhombic'
loop_
_space_group_symop_operation_xyz
x,y,z
-x,-y,z
-x,1/2+y,z
x,1/2-y,z
x,1/2+y,1/2+z
-x,1/2-y,1/2+z
-x,y,1/2+z
x,-y,1/2+z
loop_
_atom_site_type_symbol
_atom_site_label
_atom_site_fract_x
_atom_site_fract_y
_atom_site_fract_z
Si Si1 0.276739 0.168861 0.067590
Si Si2 0.135440 0.538611 0.646000
Si Si3 0.646874 0.035577 0.023658
Si Si4 0.732692 0.834026 0.839721
Si Si5 0.856002 0.486938 0.360540
Si Si6 0.433559 0.332591 0.642395
O O1 0.221348 0.250000 0.083405
O O2 0.146875 0.119165 0.096826
O O3 0.404397 0.152072 0.140206
O O4 0.326793 0.157329 0.952339
O O5 0.275713 0.499668 0.616787
O O6 0.132329 0.539823 0.765063
O O7 0.000000 0.500000 0.602362
O O8 0.638144 0.120398 0.054857
O O9 0.500000 0.000000 0.010554
O O10 0.731416 0.018991 0.923736
O O11 0.792047 0.750000 0.826494
O O12 0.841573 0.900639 0.829372
O O13 0.617035 0.848574 0.755802
O O14 0.000000 0.500000 0.418446
O O15 0.400925 0.250000 0.611117
#
# Coordination Sequence:
#
# PCOD8181647 Si02
#       6
#     8   8   8   8   8   8
#     4  10  21  39  62  91 124 166 207 254 318 373
#     4  11  23  40  61  90 126 162 207 259 308 374
#     4  12  22  38  63  94 122 161 210 257 310 371
#     4  10  20  37  61  89 122 165 210 258 313 373
#     4  11  24  41  62  89 127 166 209 257 311 378
#     4  10  21  38  59  92 129 161 206 261 313 367
#
# _framework density 20.052986000000001
#
# number of rings (size 3 to 8) (size 9 to 14) (size 15 to 20)
#    0.000    1.333    5.000    0.500    0.000    3.333 
#    0.000    7.500    0.000    0.000    0.000    0.000 
#    0.000    0.000    0.000    0.000    0.000    0.000 
#
# Total GULP energy -297317.357552 kJ/mol
# GULP energy per Si atom -12388.223231 kJ/mol
# Density = 2.000734 g / cm^3
# Si number density = 20.052986 Si / 1000 Ang^3
#
#
#
# Elastic Constant Matrix: (Units=GPa)
#
#
# Indices 1 2 3 4 5 6 
#
# 1 141.8431 66.5352 52.5437 0.0000 0.0000 0.0000
# 2 66.5352 158.4557 59.0846 0.0000 0.0000 0.0000
# 3 52.5437 59.0846 107.6852 0.0000 0.0000 0.0000
# 4 0.0000 0.0000 0.0000 30.2213 0.0000 0.0000
# 5 0.0000 0.0000 0.0000 0.0000 18.2351 0.0000
# 6 0.0000 0.0000 0.0000 0.0000 0.0000 33.5381
#
#
#
# Elastic Compliance Matrix: (Units=1/GPa)
#
#
# Indices 1 2 3 4 5 6 
#
# 1 0.009531 -0.002851 -0.003086 0.000000 0.000000 0.000000
# 2 -0.002851 0.008787 -0.003430 0.000000 0.000000 0.000000
# 3 -0.003086 -0.003430 0.012674 0.000000 0.000000 0.000000
# 4 0.000000 0.000000 0.000000 0.033089 0.000000 0.000000
# 5 0.000000 0.000000 0.000000 0.000000 0.054839 0.000000
# 6 0.000000 0.000000 0.000000 0.000000 0.000000 0.029817
#
#
# Mechanical properties :
#
#
# Convention : Reuss Voigt Hill
#
# Bulk Modulus (GPa) = 81.58378 84.92343 83.25361
# Shear Modulus (GPa) = 29.14476 31.72029 30.43253
#
# Velocity S-wave (km/s) = 3.81647 3.98153 3.89987
# Velocity P-wave (km/s) = 7.75841 7.97360 7.86674
#
# Compressibility (1/GPa) = 0.01225734
#
# Stress axis : x y z
#
# Youngs Moduli (GPa) = 104.92502 113.80278 78.90101
#
# Poissons Ratio (x) = 0.32447 0.24348
# Poissons Ratio (y) = 0.29916 0.27064
# Poissons Ratio (z) = 0.32379 0.39036
#
# Static dielectric constant tensor:
#      x y z
#    x 3.596020 0.000000 0.000000 
#    y 0.000000 4.080950 0.000000 
#    z 0.000000 0.000000 3.690380 
# 
# 
# High freq. dielectric constant tensor:
#      x y z
#    x 1.763180 0.000000 0.000000 
#    y 0.000000 1.794190 0.000000 
#    z 0.000000 0.000000 1.788430 
# 
# From -- ./inp_files/8337.got.cif
#   From: 2010.03.12/outbox.cif.g09.slc.cpg/sg39_5_cif.got.tgz:8337.got - 2010.04.14 02:53:20.
