data_PCOD8181303
_publ_section_title
;
Structure prediction by ZEFSAII (Michael W. Deem and Ramdas Pophale) SiO2 
 PCOD8181303
Probable space group: A B M 2
;
_chemical_formula_sum "Si O2"
_cell_formula_units_Z 64
_cell_length_a 20.861894
_cell_length_b 8.941502
_cell_length_c 19.406217
_cell_angle_alpha 90.000000
_cell_angle_beta 90.000000
_cell_angle_gamma 90.000000
_cell_volume 3619.971037
_symmetry_space_group_name_H-M "A B M 2"
_symmetry_group_IT_number 39
_symmetry_cell_setting 'orthorhombic'
loop_
_space_group_symop_operation_xyz
x,y,z
-x,-y,z
-x,1/2+y,z
x,1/2-y,z
x,1/2+y,1/2+z
-x,1/2-y,1/2+z
-x,y,1/2+z
x,-y,1/2+z
loop_
_atom_site_type_symbol
_atom_site_label
_atom_site_fract_x
_atom_site_fract_y
_atom_site_fract_z
Si Si1 0.059883 0.413340 0.216410
Si Si2 0.198962 0.072030 0.226824
Si Si3 0.439732 0.923886 0.969026
Si Si4 0.558760 0.921581 0.116383
Si Si5 0.702927 0.075809 0.967633
Si Si6 0.300724 0.423094 0.113407
Si Si7 0.062319 0.417373 0.379683
Si Si8 0.805577 0.927378 0.871904
O O1 0.055865 0.250000 0.183459
O O2 0.129404 0.483714 0.198781
O O3 0.053570 0.407290 0.298248
O O4 0.000000 0.500000 0.183178
O O5 0.197553 0.250000 0.240790
O O6 0.250397 0.023962 0.170396
O O7 0.215337 0.991137 0.297995
O O8 0.454470 0.750000 0.976829
O O9 0.369045 0.949106 0.936324
O O10 0.500000 0.000000 0.927264
O O11 0.437527 0.001603 0.042610
O O12 0.540599 0.750000 0.107837
O O13 0.629183 0.942046 0.149573
O O14 0.500000 0.000000 0.158915
O O15 0.722052 0.250000 0.962287
O O16 0.751103 0.973695 0.925308
O O17 0.706923 0.027369 0.047213
O O18 0.289998 0.250000 0.091874
O O19 0.067142 0.250000 0.410774
O O20 0.126579 0.507892 0.398114
O O21 0.000000 0.500000 0.411777
O O22 0.811244 0.750000 0.867981
#
# Coordination Sequence:
#
# PCOD8181303 Si02
#       8
#     8   8   8   8   8   8   8   8
#     4   8  14  24  41  64  89 117 148 186 228 271
#     4   9  18  33  50  69  96 127 158 196 242 286
#     4   9  16  26  43  66  91 119 152 193 238 282
#     4   9  15  24  41  65  91 118 150 190 233 277
#     4  10  20  33  49  71  99 129 160 198 244 289
#     4   9  18  32  50  71  95 125 160 197 238 285
#     4   9  16  28  46  69  96 124 157 198 242 284
#     4  11  21  32  49  73  99 129 165 202 241 286
#
# _framework density 17.679698999999999
#
# number of rings (size 3 to 8) (size 9 to 14) (size 15 to 20)
#    0.000    2.750    0.000    4.125    0.000    5.500 
#    0.000    0.000    0.000    1.500    0.000    5.250 
#    0.000    0.000    0.000    0.000    0.000    0.000 
#
# Total GULP energy -396476.445499 kJ/mol
# GULP energy per Si atom -12389.888922 kJ/mol
# Density = 1.763946 g / cm^3
# Si number density = 17.679699 Si / 1000 Ang^3
#
#
#
# Elastic Constant Matrix: (Units=GPa)
#
#
# Indices 1 2 3 4 5 6 
#
# 1 159.5255 60.4001 44.1996 0.0000 0.0000 0.0000
# 2 60.4001 108.4464 25.2658 0.0000 0.0000 0.0000
# 3 44.1996 25.2658 36.5608 0.0000 0.0000 0.0000
# 4 0.0000 0.0000 0.0000 16.5538 0.0000 0.0000
# 5 0.0000 0.0000 0.0000 0.0000 23.6689 0.0000
# 6 0.0000 0.0000 0.0000 0.0000 0.0000 33.9597
#
#
#
# Elastic Compliance Matrix: (Units=1/GPa)
#
#
# Indices 1 2 3 4 5 6 
#
# 1 0.010385 -0.003408 -0.010200 0.000000 0.000000 0.000000
# 2 -0.003408 0.012109 -0.004248 0.000000 0.000000 0.000000
# 3 -0.010200 -0.004248 0.042618 0.000000 0.000000 0.000000
# 4 0.000000 0.000000 0.000000 0.060409 0.000000 0.000000
# 5 0.000000 0.000000 0.000000 0.000000 0.042250 0.000000
# 6 0.000000 0.000000 0.000000 0.000000 0.000000 0.029447
#
#
# Mechanical properties :
#
#
# Convention : Reuss Voigt Hill
#
# Bulk Modulus (GPa) = 34.01284 62.69597 48.35440
# Shear Modulus (GPa) = 20.59912 26.48097 23.54004
#
# Velocity S-wave (km/s) = 3.41710 3.87436 3.65289
# Velocity P-wave (km/s) = 5.90330 7.45341 6.72318
#
# Compressibility (1/GPa) = 0.02940066
#
# Stress axis : x y z
#
# Youngs Moduli (GPa) = 96.29454 82.58444 23.46404
#
# Poissons Ratio (x) = 0.28141 0.23933
# Poissons Ratio (y) = 0.32813 0.09968
# Poissons Ratio (z) = 0.98218 0.35085
#
# Static dielectric constant tensor:
#      x y z
#    x 4.207700 0.000000 0.000000 
#    y 0.000000 3.435350 0.000000 
#    z 0.000000 0.000000 2.642120 
# 
# 
# High freq. dielectric constant tensor:
#      x y z
#    x 1.713050 0.000000 0.000000 
#    y 0.000000 1.693930 0.000000 
#    z 0.000000 0.000000 1.607210 
# 
# From -- ./inp_files/15048.got.cif
#   From: 2010.03.12/outbox.cif.g09.slc.cpg/sg39_8_cif.got.tgz:15048.got - 2010.04.14 02:53:20.
