data_PCOD8181042
_publ_section_title
;
Structure prediction by ZEFSAII (Michael W. Deem and Ramdas Pophale) SiO2 
 PCOD8181042
Probable space group: A B M 2
;
_chemical_formula_sum "Si O2"
_cell_formula_units_Z 48
_cell_length_a 25.442077
_cell_length_b 18.651024
_cell_length_c 5.237050
_cell_angle_alpha 90.000000
_cell_angle_beta 90.000000
_cell_angle_gamma 90.000000
_cell_volume 2485.089097
_symmetry_space_group_name_H-M "A B M 2"
_symmetry_group_IT_number 39
_symmetry_cell_setting 'orthorhombic'
loop_
_space_group_symop_operation_xyz
x,y,z
-x,-y,z
-x,1/2+y,z
x,1/2-y,z
x,1/2+y,1/2+z
-x,1/2-y,1/2+z
-x,y,1/2+z
x,-y,1/2+z
loop_
_atom_site_type_symbol
_atom_site_label
_atom_site_fract_x
_atom_site_fract_y
_atom_site_fract_z
Si Si1 0.058448 0.030184 0.857110
Si Si2 0.111170 0.167332 0.756698
Si Si3 0.351531 0.164567 0.783367
Si Si4 0.174853 0.666982 0.767512
Si Si5 0.708080 0.835692 0.282550
Si Si6 0.529700 0.335497 0.279437
O O1 0.060651 0.116070 0.807836
O O2 0.087445 0.988779 0.624084
O O3 0.000000 0.000000 0.902439
O O4 0.091995 0.250000 0.742991
O O5 0.137407 0.138755 0.494987
O O6 0.151705 0.154489 0.986728
O O7 0.351779 0.250000 0.783398
O O8 0.321253 0.135666 0.534253
O O9 0.410901 0.134982 0.780010
O O10 0.322441 0.134909 0.034676
O O11 0.181505 0.750000 0.827540
O O12 0.232785 0.632138 0.780364
O O13 0.709040 0.750000 0.276154
O O14 0.529698 0.250000 0.279575
O O15 0.499862 0.364942 0.529074
#
# Coordination Sequence:
#
# PCOD8181042 Si02
#       6
#     8   8   8   8   8   8
#     4  10  21  38  56  77 105 136 166 201 245 289
#     4  10  19  33  53  76 100 129 165 202 244 293
#     4   9  15  21  30  43  63  95 131 172 231 291
#     4   9  17  28  45  69  94 118 149 194 244 293
#     4   9  15  23  34  51  75 100 129 171 231 293
#     4   9  15  21  27  36  53  82 127 180 227 271
#
# _framework density 19.315201999999999
#
# number of rings (size 3 to 8) (size 9 to 14) (size 15 to 20)
#    0.000    2.667    0.000    3.000    0.000    8.000 
#    0.000    3.333    0.000    0.000    0.000    0.000 
#    0.000    0.000    0.000    0.000    0.000    0.000 
#
# Total GULP energy -297424.064106 kJ/mol
# GULP energy per Si atom -12392.669338 kJ/mol
# Density = 1.927124 g / cm^3
# Si number density = 19.315202 Si / 1000 Ang^3
#
#
#
# Elastic Constant Matrix: (Units=GPa)
#
#
# Indices 1 2 3 4 5 6 
#
# 1 85.7085 18.0724 21.0918 0.0000 0.0000 0.0000
# 2 18.0724 34.6756 9.6500 0.0000 0.0000 0.0000
# 3 21.0918 9.6500 155.1120 0.0000 0.0000 0.0000
# 4 0.0000 0.0000 0.0000 11.0321 0.0000 0.0000
# 5 0.0000 0.0000 0.0000 0.0000 8.1451 0.0000
# 6 0.0000 0.0000 0.0000 0.0000 0.0000 3.6169
#
#
#
# Elastic Compliance Matrix: (Units=1/GPa)
#
#
# Indices 1 2 3 4 5 6 
#
# 1 0.013405 -0.006594 -0.001413 0.000000 0.000000 0.000000
# 2 -0.006594 0.032590 -0.001131 0.000000 0.000000 0.000000
# 3 -0.001413 -0.001131 0.006709 0.000000 0.000000 0.000000
# 4 0.000000 0.000000 0.000000 0.090644 0.000000 0.000000
# 5 0.000000 0.000000 0.000000 0.000000 0.122773 0.000000
# 6 0.000000 0.000000 0.000000 0.000000 0.000000 0.276476
#
#
# Mechanical properties :
#
#
# Convention : Reuss Voigt Hill
#
# Bulk Modulus (GPa) = 29.04405 41.45828 35.25117
# Shear Modulus (GPa) = 8.73592 19.67095 14.20344
#
# Velocity S-wave (km/s) = 2.12900 3.19473 2.71468
# Velocity P-wave (km/s) = 4.59489 5.92613 5.30246
#
# Compressibility (1/GPa) = 0.03443045
#
# Stress axis : x y z
#
# Youngs Moduli (GPa) = 74.59678 30.68430 149.04462
#
# Poissons Ratio (x) = 0.20232 0.21054
# Poissons Ratio (y) = 0.49186 0.16856
# Poissons Ratio (z) = 0.10538 0.03470
#
# Static dielectric constant tensor:
#      x y z
#    x 3.573770 0.000000 0.000000 
#    y 0.000000 2.843950 0.000000 
#    z 0.000000 0.000000 4.123560 
# 
# 
# High freq. dielectric constant tensor:
#      x y z
#    x 1.744390 0.000000 0.000000 
#    y 0.000000 1.667770 0.000000 
#    z 0.000000 0.000000 1.784210 
# 
# From -- ./inp_files/1033.got.cif
#   From: 2010.03.12/outbox.cif.g09.slc.cpg/sg39_1_cif.got.tgz:1033.got - 2010.04.14 02:53:20.
