data_PCOD8181388
_publ_section_title
;
Structure prediction by ZEFSAII (Michael W. Deem and Ramdas Pophale) SiO2 
 PCOD8181388
Probable space group: A B M 2
;
_chemical_formula_sum "Si O2"
_cell_formula_units_Z 56
_cell_length_a 14.590416
_cell_length_b 9.275396
_cell_length_c 20.660391
_cell_angle_alpha 90.000000
_cell_angle_beta 90.000000
_cell_angle_gamma 90.000000
_cell_volume 2796.009684
_symmetry_space_group_name_H-M "A B M 2"
_symmetry_group_IT_number 39
_symmetry_cell_setting 'orthorhombic'
loop_
_space_group_symop_operation_xyz
x,y,z
-x,-y,z
-x,1/2+y,z
x,1/2-y,z
x,1/2+y,1/2+z
-x,1/2-y,1/2+z
-x,y,1/2+z
x,-y,1/2+z
loop_
_atom_site_type_symbol
_atom_site_label
_atom_site_fract_x
_atom_site_fract_y
_atom_site_fract_z
Si Si1 0.714696 0.915061 0.485570
Si Si2 0.405752 0.580878 0.384880
Si Si3 0.907494 0.086936 0.944147
Si Si4 0.903303 0.079335 0.663888
Si Si5 0.088333 0.588211 0.804885
Si Si6 0.732296 0.583586 0.627590
Si Si7 0.593387 0.417977 0.237778
O O1 0.700251 0.750000 0.461726
O O2 0.823561 0.952604 0.490992
O O3 0.678053 0.934020 0.559229
O O4 0.667174 0.023832 0.436333
O O5 0.500000 0.500000 0.398671
O O6 0.420700 0.750000 0.396292
O O7 0.372212 0.550103 0.311164
O O8 0.940103 0.250000 0.953473
O O9 0.857923 0.067606 0.872530
O O10 0.000000 0.000000 0.959319
O O11 0.913909 0.250000 0.650504
O O12 0.866291 0.041436 0.737138
O O13 0.823881 0.012055 0.620472
O O14 0.000000 0.000000 0.650664
O O15 0.054919 0.750000 0.794406
O O16 0.000000 0.500000 0.820640
O O17 0.760189 0.750000 0.638940
O O18 0.668764 0.527507 0.686356
O O19 0.500000 0.500000 0.222882
O O20 0.573361 0.250000 0.227917
#
# Coordination Sequence:
#
# PCOD8181388 Si02
#       7
#     8   8   8   8   8   8   8
#     4  10  22  38  57  83 118 156 190 234 285 336
#     4  10  21  39  63  89 114 145 185 233 286 342
#     4   9  18  33  52  76 108 147 189 233 281 329
#     4  10  20  34  54  80 111 152 196 240 287 336
#     4   8  15  28  46  71  99 130 176 228 276 324
#     4  10  22  39  56  82 119 155 192 233 283 338
#     4   9  20  39  62  87 114 145 185 233 285 341
#
# _framework density 20.028542999999999
#
# number of rings (size 3 to 8) (size 9 to 14) (size 15 to 20)
#    0.000    2.571    0.000    0.857    2.000    4.000 
#    0.000    2.857    0.000    0.000    0.000    0.000 
#    0.000    0.000    0.000    0.000    0.000    0.000 
#
# Total GULP energy -346868.240175 kJ/mol
# GULP energy per Si atom -12388.151435 kJ/mol
# Density = 1.998296 g / cm^3
# Si number density = 20.028543 Si / 1000 Ang^3
#
#
#
# Elastic Constant Matrix: (Units=GPa)
#
#
# Indices 1 2 3 4 5 6 
#
# 1 94.3118 53.3739 52.9352 0.0000 0.0000 0.0000
# 2 53.3739 85.3633 45.9775 0.0000 0.0000 0.0000
# 3 52.9352 45.9775 101.9952 0.0000 0.0000 0.0000
# 4 0.0000 0.0000 0.0000 24.8410 0.0000 0.0000
# 5 0.0000 0.0000 0.0000 0.0000 23.0111 0.0000
# 6 0.0000 0.0000 0.0000 0.0000 0.0000 35.5226
#
#
#
# Elastic Compliance Matrix: (Units=1/GPa)
#
#
# Indices 1 2 3 4 5 6 
#
# 1 0.018739 -0.008556 -0.005869 0.000000 0.000000 0.000000
# 2 -0.008556 0.019377 -0.004294 0.000000 0.000000 0.000000
# 3 -0.005869 -0.004294 0.014786 0.000000 0.000000 0.000000
# 4 0.000000 0.000000 0.000000 0.040256 0.000000 0.000000
# 5 0.000000 0.000000 0.000000 0.000000 0.043457 0.000000
# 6 0.000000 0.000000 0.000000 0.000000 0.000000 0.028151
#
#
# Mechanical properties :
#
#
# Convention : Reuss Voigt Hill
#
# Bulk Modulus (GPa) = 64.66442 65.13816 64.90129
# Shear Modulus (GPa) = 24.11268 25.30050 24.70659
#
# Velocity S-wave (km/s) = 3.47351 3.55804 3.51603
# Velocity P-wave (km/s) = 6.96012 7.03369 6.99700
#
# Compressibility (1/GPa) = 0.01546446
#
# Stress axis : x y z
#
# Youngs Moduli (GPa) = 53.36432 51.60702 67.63100
#
# Poissons Ratio (x) = 0.44154 0.39691
# Poissons Ratio (y) = 0.45657 0.29044
# Poissons Ratio (z) = 0.31318 0.22162
#
# Static dielectric constant tensor:
#      x y z
#    x 3.267040 0.000000 0.000000 
#    y 0.000000 3.575820 0.000000 
#    z 0.000000 0.000000 3.967220 
# 
# 
# High freq. dielectric constant tensor:
#      x y z
#    x 1.754370 0.000000 0.000000 
#    y 0.000000 1.779560 0.000000 
#    z 0.000000 0.000000 1.797260 
# 
# From -- ./inp_files/14740.got.cif
#   From: 2010.03.12/outbox.cif.g09.slc.cpg/sg39_8_cif.got.tgz:14740.got - 2010.04.14 02:53:20.
