data_PCOD8181396
_publ_section_title
;
Structure prediction by ZEFSAII (Michael W. Deem and Ramdas Pophale) SiO2 
 PCOD8181396
Probable space group: A B M 2
;
_chemical_formula_sum "Si O2"
_cell_formula_units_Z 64
_cell_length_a 19.852945
_cell_length_b 8.843378
_cell_length_c 19.979210
_cell_angle_alpha 90.000000
_cell_angle_beta 90.000000
_cell_angle_gamma 90.000000
_cell_volume 3507.691901
_symmetry_space_group_name_H-M "A B M 2"
_symmetry_group_IT_number 39
_symmetry_cell_setting 'orthorhombic'
loop_
_space_group_symop_operation_xyz
x,y,z
-x,-y,z
-x,1/2+y,z
x,1/2-y,z
x,1/2+y,1/2+z
-x,1/2-y,1/2+z
-x,y,1/2+z
x,-y,1/2+z
loop_
_atom_site_type_symbol
_atom_site_label
_atom_site_fract_x
_atom_site_fract_y
_atom_site_fract_z
Si Si1 0.343163 0.423492 0.875000
Si Si2 0.680379 0.926646 0.163900
Si Si3 0.072492 0.926752 0.100552
Si Si4 0.189713 0.926596 0.342316
Si Si5 0.173426 0.070528 0.204981
Si Si6 0.297343 0.575214 0.516881
Si Si7 0.836744 0.074985 0.976731
Si Si8 0.428010 0.428248 0.267278
O O1 0.360602 0.250000 0.859193
O O2 0.268753 0.465199 0.849139
O O3 0.347114 0.456711 0.954657
O O4 0.398293 0.528225 0.839681
O O5 0.682550 0.750000 0.178615
O O6 0.753274 0.993753 0.183302
O O7 0.621748 0.996493 0.210214
O O8 0.663946 0.961244 0.086046
O O9 0.067704 0.750000 0.115656
O O10 0.118181 0.001095 0.156926
O O11 0.102039 0.958188 0.026860
O O12 0.000000 0.000000 0.104266
O O13 0.177241 0.750000 0.331798
O O14 0.158591 0.017771 0.280470
O O15 0.151403 0.979054 0.409406
O O16 0.169636 0.250000 0.199938
O O17 0.273036 0.750000 0.514523
O O18 0.231652 0.472071 0.513929
O O19 0.831830 0.250000 0.957202
O O20 0.500000 0.500000 0.255258
O O21 0.435591 0.250000 0.262733
#
# Coordination Sequence:
#
# PCOD8181396 Si02
#       8
#     8   8   8   8   8   8   8   8
#     4   9  18  32  53  80 109 142 179 227 275 331
#     4   9  18  33  56  83 111 146 185 229 281 338
#     4  11  24  40  58  84 117 155 194 237 286 344
#     4  10  20  34  56  85 116 146 185 235 286 336
#     4  11  20  35  60  87 116 151 191 237 287 342
#     4   9  17  33  56  82 110 142 182 225 280 335
#     4  10  20  34  54  83 114 144 186 235 283 335
#     4  11  22  37  55  78 110 149 190 232 284 345
#
# _framework density 18.245616999999999
#
# number of rings (size 3 to 8) (size 9 to 14) (size 15 to 20)
#    0.000    2.000    2.500    2.625    0.000    3.500 
#    0.000    2.500    0.000    3.000    0.000    0.000 
#    0.000    0.000    0.000    0.000    0.000    0.000 
#
# Total GULP energy -396841.595108 kJ/mol
# GULP energy per Si atom -12401.299847 kJ/mol
# Density = 1.820409 g / cm^3
# Si number density = 18.245617 Si / 1000 Ang^3
#
#
#
# Elastic Constant Matrix: (Units=GPa)
#
#
# Indices 1 2 3 4 5 6 
#
# 1 122.4864 50.1184 70.1947 0.0000 0.0000 0.0000
# 2 50.1184 72.8373 49.2998 0.0000 0.0000 0.0000
# 3 70.1947 49.2998 141.8225 0.0000 0.0000 0.0000
# 4 0.0000 0.0000 0.0000 29.6064 0.0000 0.0000
# 5 0.0000 0.0000 0.0000 0.0000 25.6951 0.0000
# 6 0.0000 0.0000 0.0000 0.0000 0.0000 27.0688
#
#
#
# Elastic Compliance Matrix: (Units=1/GPa)
#
#
# Indices 1 2 3 4 5 6 
#
# 1 0.013181 -0.006086 -0.004408 0.000000 0.000000 0.000000
# 2 -0.006086 0.020763 -0.004206 0.000000 0.000000 0.000000
# 3 -0.004408 -0.004206 0.010695 0.000000 0.000000 0.000000
# 4 0.000000 0.000000 0.000000 0.033776 0.000000 0.000000
# 5 0.000000 0.000000 0.000000 0.000000 0.038918 0.000000
# 6 0.000000 0.000000 0.000000 0.000000 0.000000 0.036943
#
#
# Mechanical properties :
#
#
# Convention : Reuss Voigt Hill
#
# Bulk Modulus (GPa) = 65.61792 75.15245 70.38519
# Shear Modulus (GPa) = 26.48942 27.64295 27.06619
#
# Velocity S-wave (km/s) = 3.81441 3.89658 3.85572
# Velocity P-wave (km/s) = 7.44590 7.84367 7.64737
#
# Compressibility (1/GPa) = 0.01523974
#
# Stress axis : x y z
#
# Youngs Moduli (GPa) = 75.86941 48.16206 93.50337
#
# Poissons Ratio (x) = 0.29310 0.41218
# Poissons Ratio (y) = 0.46172 0.39323
# Poissons Ratio (z) = 0.33445 0.20255
#
# Static dielectric constant tensor:
#      x y z
#    x 3.170290 0.000000 0.000000 
#    y 0.000000 3.315000 0.000000 
#    z 0.000000 0.000000 3.579540 
# 
# 
# High freq. dielectric constant tensor:
#      x y z
#    x 1.677310 0.000000 0.000000 
#    y 0.000000 1.705610 0.000000 
#    z 0.000000 0.000000 1.723400 
# 
# From -- ./inp_files/16370.got.cif
#   From: 2010.03.12/outbox.cif.g09.slc.cpg/sg39_9_cif.got.tgz:16370.got - 2010.04.14 02:53:20.
