data_PCOD8181329
_publ_section_title
;
Structure prediction by ZEFSAII (Michael W. Deem and Ramdas Pophale) SiO2 
 PCOD8181329
Probable space group: A B M 2
;
_chemical_formula_sum "Si O2"
_cell_formula_units_Z 64
_cell_length_a 20.721340
_cell_length_b 8.940229
_cell_length_c 18.435371
_cell_angle_alpha 90.000000
_cell_angle_beta 90.000000
_cell_angle_gamma 90.000000
_cell_volume 3415.217459
_symmetry_space_group_name_H-M "A B M 2"
_symmetry_group_IT_number 39
_symmetry_cell_setting 'orthorhombic'
loop_
_space_group_symop_operation_xyz
x,y,z
-x,-y,z
-x,1/2+y,z
x,1/2-y,z
x,1/2+y,1/2+z
-x,1/2-y,1/2+z
-x,y,1/2+z
x,-y,1/2+z
loop_
_atom_site_type_symbol
_atom_site_label
_atom_site_fract_x
_atom_site_fract_y
_atom_site_fract_z
Si Si1 0.809692 0.076892 0.331790
Si Si2 0.298020 0.076061 0.421465
Si Si3 0.560094 0.576712 0.073946
Si Si4 0.933954 0.073856 0.583363
Si Si5 0.065120 0.924854 0.417084
Si Si6 0.296292 0.924088 0.576688
Si Si7 0.440161 0.422545 0.418847
Si Si8 0.815831 0.923348 0.661724
O O1 0.797101 0.250000 0.351129
O O2 0.875355 0.018856 0.368895
O O3 0.815088 0.050061 0.246968
O O4 0.751459 0.977894 0.361133
O O5 0.287165 0.250000 0.440184
O O6 0.369086 0.051880 0.385129
O O7 0.288898 0.982422 0.494817
O O8 0.500000 0.500000 0.118559
O O9 0.544459 0.750000 0.063935
O O10 0.631022 0.554214 0.108815
O O11 0.562697 0.495534 0.997396
O O12 0.939579 0.250000 0.593537
O O13 0.921152 0.028529 0.500013
O O14 0.875496 0.013656 0.630288
O O15 0.000000 0.000000 0.611576
O O16 0.055038 0.750000 0.409086
O O17 0.000000 0.000000 0.387541
O O18 0.276616 0.750000 0.576289
O O19 0.250600 0.015715 0.629581
O O20 0.500000 0.500000 0.374709
O O21 0.457111 0.250000 0.425577
O O22 0.823329 0.750000 0.641519
#
# Coordination Sequence:
#
# PCOD8181329 Si02
#       8
#     8   8   8   8   8   8   8   8
#     4  10  22  38  54  76 108 142 176 217 265 315
#     4  10  20  33  53  80 106 136 177 221 263 314
#     4   9  16  26  44  71 101 132 167 211 263 315
#     4  10  20  36  59  83 108 139 174 216 265 316
#     4   9  19  36  57  80 104 132 168 209 255 307
#     4  10  20  34  53  77 106 141 178 218 267 320
#     4   9  16  26  43  71 103 132 166 210 259 310
#     4  11  23  37  54  78 108 142 181 224 267 313
#
# _framework density 18.739657000000001
#
# number of rings (size 3 to 8) (size 9 to 14) (size 15 to 20)
#    0.000    2.250    0.000    3.750    0.000    6.500 
#    0.000    1.250    0.000    0.750    0.000    0.000 
#    0.000    0.000    0.000    0.000    0.000    0.000 
#
# Total GULP energy -396678.108658 kJ/mol
# GULP energy per Si atom -12396.190896 kJ/mol
# Density = 1.869700 g / cm^3
# Si number density = 18.739657 Si / 1000 Ang^3
#
#
#
# Elastic Constant Matrix: (Units=GPa)
#
#
# Indices 1 2 3 4 5 6 
#
# 1 165.0688 63.2399 50.3375 0.0000 0.0000 0.0000
# 2 63.2399 94.1004 32.9502 0.0000 0.0000 0.0000
# 3 50.3375 32.9502 55.6615 0.0000 0.0000 0.0000
# 4 0.0000 0.0000 0.0000 17.9887 0.0000 0.0000
# 5 0.0000 0.0000 0.0000 0.0000 -1.7399 0.0000
# 6 0.0000 0.0000 0.0000 0.0000 0.0000 39.7325
#
#
#
# Elastic Compliance Matrix: (Units=1/GPa)
#
#
# Indices 1 2 3 4 5 6 
#
# 1 0.009564 -0.004288 -0.006111 0.000000 0.000000 0.000000
# 2 -0.004288 0.015328 -0.005196 0.000000 0.000000 0.000000
# 3 -0.006111 -0.005196 0.026569 0.000000 0.000000 0.000000
# 4 0.000000 0.000000 0.000000 0.055590 0.000000 0.000000
# 5 0.000000 0.000000 0.000000 0.000000 -0.574744 0.000000
# 6 0.000000 0.000000 0.000000 0.000000 0.000000 0.025168
#
#
# Mechanical properties :
#
#
# Convention : Reuss Voigt Hill
#
# Bulk Modulus (GPa) = 49.33292 67.54287 58.43790
# Shear Modulus (GPa) = -12.35859 22.41645 5.02893
#
# Velocity S-wave (km/s) = -2.57084 3.46237 1.63994
# Velocity P-wave (km/s) = 4.19169 7.21838 5.90234
#
# Compressibility (1/GPa) = 0.02027044
#
# Stress axis : x y z
#
# Youngs Moduli (GPa) = 104.55407 65.23991 37.63854
#
# Poissons Ratio (x) = 0.27974 0.23002
# Poissons Ratio (y) = 0.44831 0.19558
# Poissons Ratio (z) = 0.63896 0.33900
#
# Static dielectric constant tensor:
#      x y z
#    x 4.319860 0.000000 0.000000 
#    y 0.000000 3.567610 0.000000 
#    z 0.000000 0.000000 3.046250 
# 
# 
# High freq. dielectric constant tensor:
#      x y z
#    x 1.755010 0.000000 0.000000 
#    y 0.000000 1.741240 0.000000 
#    z 0.000000 0.000000 1.680140 
# 
# From -- ./inp_files/13135.got.cif
#   From: 2010.03.12/outbox.cif.g09.slc.cpg/sg39_7_cif.got.tgz:13135.got - 2010.04.14 02:53:20.
