data_PCOD8181979
_publ_section_title
;
Structure prediction by ZEFSAII (Michael W. Deem and Ramdas Pophale) SiO2 
 PCOD8181979
Probable space group: A B M 2
;
_chemical_formula_sum "Si O2"
_cell_formula_units_Z 48
_cell_length_a 16.758955
_cell_length_b 15.270751
_cell_length_c 9.478699
_cell_angle_alpha 90.000000
_cell_angle_beta 90.000000
_cell_angle_gamma 90.000000
_cell_volume 2425.805983
_symmetry_space_group_name_H-M "A B M 2"
_symmetry_group_IT_number 39
_symmetry_cell_setting 'orthorhombic'
loop_
_space_group_symop_operation_xyz
x,y,z
-x,-y,z
-x,1/2+y,z
x,1/2-y,z
x,1/2+y,1/2+z
-x,1/2-y,1/2+z
-x,y,1/2+z
x,-y,1/2+z
loop_
_atom_site_type_symbol
_atom_site_label
_atom_site_fract_x
_atom_site_fract_y
_atom_site_fract_z
Si Si1 0.946781 0.583946 0.943790
Si Si2 0.194178 0.483039 0.335036
Si Si3 0.696466 0.490989 0.084639
Si Si4 0.069722 0.152633 0.253576
Si Si5 0.415701 0.850590 0.530067
Si Si6 0.574647 0.649520 0.702053
O O1 0.856448 0.566490 0.891441
O O2 0.000000 0.500000 0.911888
O O3 0.989062 0.658133 0.848141
O O4 0.949546 0.605354 0.107513
O O5 0.224085 0.503657 0.178417
O O6 0.272942 0.467464 0.428737
O O7 0.140440 0.396184 0.336507
O O8 0.641128 0.412958 0.137650
O O9 0.653222 0.585049 0.083648
O O10 0.099876 0.250000 0.222107
O O11 0.387296 0.750000 0.550447
O O12 0.492455 0.871239 0.624070
O O13 0.437158 0.869726 0.367479
O O14 0.600897 0.750000 0.676562
#
# Coordination Sequence:
#
# PCOD8181979 Si02
#       6
#     8   8   8   8   8   8
#     4  10  21  41  63  85 119 160 200 244 297 366
#     4  11  24  40  62  89 122 162 199 246 307 364
#     4  12  23  41  64  91 124 164 202 249 310 365
#     4  11  23  40  63  91 119 155 205 251 298 358
#     4  10  23  42  64  90 123 163 208 252 300 362
#     4  10  23  42  63  90 122 162 208 253 300 362
#
# _framework density 19.787236
#
# number of rings (size 3 to 8) (size 9 to 14) (size 15 to 20)
#    0.000    1.333    3.333    2.500    4.667    2.667 
#    0.000    1.667    0.000    0.000    0.000    0.000 
#    0.000    0.000    0.000    0.000    0.000    0.000 
#
# Total GULP energy -297670.388438 kJ/mol
# GULP energy per Si atom -12402.932852 kJ/mol
# Density = 1.974220 g / cm^3
# Si number density = 19.787236 Si / 1000 Ang^3
#
#
#
# Elastic Constant Matrix: (Units=GPa)
#
#
# Indices 1 2 3 4 5 6 
#
# 1 100.9602 47.1064 42.0745 0.0000 0.0000 0.0000
# 2 47.1064 83.8427 29.3517 0.0000 0.0000 0.0000
# 3 42.0745 29.3517 84.2300 0.0000 0.0000 0.0000
# 4 0.0000 0.0000 0.0000 12.4023 0.0000 0.0000
# 5 0.0000 0.0000 0.0000 0.0000 48.1750 0.0000
# 6 0.0000 0.0000 0.0000 0.0000 0.0000 21.7903
#
#
#
# Elastic Compliance Matrix: (Units=1/GPa)
#
#
# Indices 1 2 3 4 5 6 
#
# 1 0.015234 -0.006714 -0.005270 0.000000 0.000000 0.000000
# 2 -0.006714 0.016543 -0.002411 0.000000 0.000000 0.000000
# 3 -0.005270 -0.002411 0.015345 0.000000 0.000000 0.000000
# 4 0.000000 0.000000 0.000000 0.080630 0.000000 0.000000
# 5 0.000000 0.000000 0.000000 0.000000 0.020758 0.000000
# 6 0.000000 0.000000 0.000000 0.000000 0.000000 0.045892
#
#
# Mechanical properties :
#
#
# Convention : Reuss Voigt Hill
#
# Bulk Modulus (GPa) = 54.54968 56.23314 55.39141
# Shear Modulus (GPa) = 21.80526 26.50688 24.15607
#
# Velocity S-wave (km/s) = 3.32322 3.66402 3.49777
# Velocity P-wave (km/s) = 6.50792 6.81033 6.66084
#
# Compressibility (1/GPa) = 0.01833191
#
# Stress axis : x y z
#
# Youngs Moduli (GPa) = 65.64356 60.44695 65.16836
#
# Poissons Ratio (x) = 0.40585 0.34343
# Poissons Ratio (y) = 0.44074 0.15713
# Poissons Ratio (z) = 0.34594 0.14574
#
# Static dielectric constant tensor:
#      x y z
#    x 3.611150 0.000000 0.000000 
#    y 0.000000 3.579350 0.000000 
#    z 0.000000 0.000000 3.689960 
# 
# 
# High freq. dielectric constant tensor:
#      x y z
#    x 1.770770 0.000000 0.000000 
#    y 0.000000 1.766090 0.000000 
#    z 0.000000 0.000000 1.788840 
# 
# From -- ./inp_files/3244.got.cif
#   From: 2010.03.12/outbox.cif.g09.slc.cpg/sg39_2_cif.got.tgz:3244.got - 2010.04.14 02:53:20.
