data_PCOD8181326
_publ_section_title
;
Structure prediction by ZEFSAII (Michael W. Deem and Ramdas Pophale) SiO2 
 PCOD8181326
Probable space group: A B M 2
;
_chemical_formula_sum "Si O2"
_cell_formula_units_Z 64
_cell_length_a 11.111489
_cell_length_b 13.962407
_cell_length_c 18.941720
_cell_angle_alpha 90.000000
_cell_angle_beta 90.000000
_cell_angle_gamma 90.000000
_cell_volume 2938.677762
_symmetry_space_group_name_H-M "A B M 2"
_symmetry_group_IT_number 39
_symmetry_cell_setting 'orthorhombic'
loop_
_space_group_symop_operation_xyz
x,y,z
-x,-y,z
-x,1/2+y,z
x,1/2-y,z
x,1/2+y,1/2+z
-x,1/2-y,1/2+z
-x,y,1/2+z
x,-y,1/2+z
loop_
_atom_site_type_symbol
_atom_site_label
_atom_site_fract_x
_atom_site_fract_y
_atom_site_fract_z
Si Si1 0.775242 0.468275 0.428270
Si Si2 0.064666 0.137767 0.651947
Si Si3 0.405498 0.861506 0.629283
Si Si4 0.543545 0.363278 0.264391
Si Si5 0.830458 0.463340 0.591388
Si Si6 0.811228 0.361467 0.296537
Si Si7 0.444314 0.645282 0.474581
Si Si8 0.346739 0.856712 0.875101
O O1 0.833951 0.455337 0.505813
O O2 0.853421 0.409814 0.370369
O O3 0.638871 0.428150 0.431830
O O4 0.765995 0.575463 0.395316
O O5 0.078301 0.250000 0.633681
O O6 0.090961 0.118295 0.735060
O O7 0.936595 0.097706 0.627457
O O8 0.162681 0.076492 0.608310
O O9 0.372942 0.750000 0.640379
O O10 0.501764 0.896060 0.686889
O O11 0.283956 0.921850 0.631251
O O12 0.466363 0.884213 0.554882
O O13 0.549728 0.250000 0.273744
O O14 0.677930 0.404016 0.277582
O O15 0.437701 0.400931 0.316311
O O16 0.801202 0.250000 0.310472
O O17 0.380951 0.750000 0.469219
O O18 0.577967 0.650084 0.446364
O O19 0.299179 0.750000 0.853295
#
# Coordination Sequence:
#
# PCOD8181326 Si02
#       8
#     8   8   8   8   8   8   8   8
#     4  11  21  35  61  89 121 164 207 258 315 372
#     4  10  23  45  68  89 120 160 207 271 323 367
#     4   9  18  33  58  89 123 164 203 249 308 371
#     4   9  18  33  54  88 131 167 201 240 298 376
#     4  10  23  42  64  93 120 156 216 264 314 378
#     4  10  21  38  64  96 126 165 211 256 315 381
#     4   9  17  31  51  82 122 163 206 246 295 369
#     4  10  20  33  52  84 131 173 203 245 301 371
#
# _framework density 21.778502
#
# number of rings (size 3 to 8) (size 9 to 14) (size 15 to 20)
#    0.000    2.250    1.250    1.125    1.750    3.000 
#    0.000    6.250    0.000    0.000    0.000    0.000 
#    0.000    0.000    0.000    0.000    0.000    0.000 
#
# Total GULP energy -396514.142884 kJ/mol
# GULP energy per Si atom -12391.066965 kJ/mol
# Density = 2.172893 g / cm^3
# Si number density = 21.778502 Si / 1000 Ang^3
#
#
#
# Elastic Constant Matrix: (Units=GPa)
#
#
# Indices 1 2 3 4 5 6 
#
# 1 43.1293 19.0074 37.7105 0.0000 0.0000 0.0000
# 2 19.0074 92.9090 37.4135 0.0000 0.0000 0.0000
# 3 37.7105 37.4135 139.0898 0.0000 0.0000 0.0000
# 4 0.0000 0.0000 0.0000 27.0843 0.0000 0.0000
# 5 0.0000 0.0000 0.0000 0.0000 31.5837 0.0000
# 6 0.0000 0.0000 0.0000 0.0000 0.0000 23.2987
#
#
#
# Elastic Compliance Matrix: (Units=1/GPa)
#
#
# Indices 1 2 3 4 5 6 
#
# 1 0.031292 -0.003348 -0.007584 0.000000 0.000000 0.000000
# 2 -0.003348 0.012429 -0.002436 0.000000 0.000000 0.000000
# 3 -0.007584 -0.002436 0.009901 0.000000 0.000000 0.000000
# 4 0.000000 0.000000 0.000000 0.036922 0.000000 0.000000
# 5 0.000000 0.000000 0.000000 0.000000 0.031662 0.000000
# 6 0.000000 0.000000 0.000000 0.000000 0.000000 0.042921
#
#
# Mechanical properties :
#
#
# Convention : Reuss Voigt Hill
#
# Bulk Modulus (GPa) = 37.19135 51.48790 44.33963
# Shear Modulus (GPa) = 24.89753 28.45979 26.67866
#
# Velocity S-wave (km/s) = 3.38482 3.61887 3.50380
# Velocity P-wave (km/s) = 5.69123 6.41518 6.06402
#
# Compressibility (1/GPa) = 0.02688797
#
# Stress axis : x y z
#
# Youngs Moduli (GPa) = 31.95675 80.45754 101.00202
#
# Poissons Ratio (x) = 0.26937 0.76595
# Poissons Ratio (y) = 0.10699 0.24599
# Poissons Ratio (z) = 0.24234 0.19596
#
# Static dielectric constant tensor:
#      x y z
#    x 3.564300 0.000000 0.000000 
#    y 0.000000 4.293000 0.000000 
#    z 0.000000 0.000000 4.093540 
# 
# 
# High freq. dielectric constant tensor:
#      x y z
#    x 1.811280 0.000000 0.000000 
#    y 0.000000 1.864850 0.000000 
#    z 0.000000 0.000000 1.868800 
# 
# From -- ./inp_files/12346.got.cif
#   From: 2010.03.12/outbox.cif.g09.slc.cpg/sg39_7_cif.got.tgz:12346.got - 2010.04.14 02:53:20.
