data_PCOD8181727
_publ_section_title
;
Structure prediction by ZEFSAII (Michael W. Deem and Ramdas Pophale) SiO2 
 PCOD8181727
Probable space group: A B M 2
;
_chemical_formula_sum "Si O2"
_cell_formula_units_Z 40
_cell_length_a 11.320626
_cell_length_b 16.042282
_cell_length_c 8.763421
_cell_angle_alpha 90.000000
_cell_angle_beta 90.000000
_cell_angle_gamma 90.000000
_cell_volume 1591.513274
_symmetry_space_group_name_H-M "A B M 2"
_symmetry_group_IT_number 39
_symmetry_cell_setting 'orthorhombic'
loop_
_space_group_symop_operation_xyz
x,y,z
-x,-y,z
-x,1/2+y,z
x,1/2-y,z
x,1/2+y,1/2+z
-x,1/2-y,1/2+z
-x,y,1/2+z
x,-y,1/2+z
loop_
_atom_site_type_symbol
_atom_site_label
_atom_site_fract_x
_atom_site_fract_y
_atom_site_fract_z
Si Si1 0.912517 0.387410 0.412040
Si Si2 0.902154 0.750000 0.476864
Si Si3 0.498749 0.250000 0.912899
Si Si4 0.271361 0.750000 0.712337
Si Si5 0.000000 0.000000 0.650036
Si Si6 0.500000 0.000000 0.849755
Si Si7 0.755058 0.250000 0.284909
Si Si8 0.599831 0.608265 0.086960
O O1 0.897011 0.459928 0.540152
O O2 0.798725 0.331344 0.377565
O O3 0.018541 0.332004 0.481966
O O4 0.942677 0.428229 0.250520
O O5 0.846609 0.750000 0.307621
O O6 0.804539 0.750000 0.611252
O O7 0.614326 0.250000 0.815539
O O8 0.386017 0.250000 0.796708
O O9 0.501199 0.330145 0.023226
O O10 0.280519 0.835450 0.610554
O O11 0.442196 0.927561 0.748947
O O12 0.606767 0.964851 0.958760
#
# Coordination Sequence:
#
# PCOD8181727 Si02
#       8
#     8   4   4   4   4   4   4   8
#     4  10  22  44  72 104 134 174 218 282 344 410
#     4  11  24  43  70 102 136 180 230 282 333 404
#     4  11  24  41  67  97 136 185 234 277 324 401
#     4  11  24  41  67  97 136 185 234 277 324 401
#     4  10  20  40  76 102 142 164 216 282 350 416
#     4  10  20  40  68  86 132 166 236 274 348 384
#     4  11  24  43  70 102 136 180 230 282 333 404
#     4  10  22  40  64  92 120 182 213 293 321 397
#
# _framework density 25.133310999999999
#
# number of rings (size 3 to 8) (size 9 to 14) (size 15 to 20)
#    0.000    1.600    4.000    0.000    2.800    3.200 
#    0.000    8.000    0.000    0.000    0.000    0.000 
#    0.000    0.000    0.000    0.000    0.000    0.000 
#
# Total GULP energy -247803.836666 kJ/mol
# GULP energy per Si atom -12390.191833 kJ/mol
# Density = 2.507611 g / cm^3
# Si number density = 25.133311 Si / 1000 Ang^3
#
#
#
# Elastic Constant Matrix: (Units=GPa)
#
#
# Indices 1 2 3 4 5 6 
#
# 1 34.0337 5.9807 8.5763 0.0000 0.0000 0.0000
# 2 5.9807 120.6757 52.0900 0.0000 0.0000 0.0000
# 3 8.5763 52.0900 154.0473 0.0000 0.0000 0.0000
# 4 0.0000 0.0000 0.0000 56.9093 0.0000 0.0000
# 5 0.0000 0.0000 0.0000 0.0000 35.3628 0.0000
# 6 0.0000 0.0000 0.0000 0.0000 0.0000 -17.2390
#
#
#
# Elastic Compliance Matrix: (Units=1/GPa)
#
#
# Indices 1 2 3 4 5 6 
#
# 1 0.029883 -0.000893 -0.001362 0.000000 0.000000 0.000000
# 2 -0.000893 0.009730 -0.003240 0.000000 0.000000 0.000000
# 3 -0.001362 -0.003240 0.007663 0.000000 0.000000 0.000000
# 4 0.000000 0.000000 0.000000 0.017572 0.000000 0.000000
# 5 0.000000 0.000000 0.000000 0.000000 0.028278 0.000000
# 6 0.000000 0.000000 0.000000 0.000000 0.000000 -0.058008
#
#
# Mechanical properties :
#
#
# Convention : Reuss Voigt Hill
#
# Bulk Modulus (GPa) = 27.55954 49.11674 38.33814
# Shear Modulus (GPa) = 85.90671 31.14726 58.52699
#
# Velocity S-wave (km/s) = 5.85274 3.52416 4.83086
# Velocity P-wave (km/s) = 7.52742 6.01203 6.81199
#
# Compressibility (1/GPa) = 0.03628507
#
# Stress axis : x y z
#
# Youngs Moduli (GPa) = 33.46414 102.77906 130.49730
#
# Poissons Ratio (x) = 0.09181 0.17769
# Poissons Ratio (y) = 0.02989 0.42285
# Poissons Ratio (z) = 0.04557 0.33303
#
# Static dielectric constant tensor:
#      x y z
#    x 3.882110 0.000000 0.000000 
#    y 0.000000 5.105220 0.000000 
#    z 0.000000 0.000000 4.990310 
# 
# 
# High freq. dielectric constant tensor:
#      x y z
#    x 1.950160 0.000000 0.000000 
#    y 0.000000 2.022820 0.000000 
#    z 0.000000 0.000000 2.043570 
# 
# From -- ./inp_files/2588.got.cif
#   From: 2010.03.12/outbox.cif.g09.slc.cpg/sg39_2_cif.got.tgz:2588.got - 2010.04.14 02:53:20.
