data_PCOD8181865
_publ_section_title
;
Structure prediction by ZEFSAII (Michael W. Deem and Ramdas Pophale) SiO2 
 PCOD8181865
Probable space group: A B M 2
;
_chemical_formula_sum "Si O2"
_cell_formula_units_Z 48
_cell_length_a 9.489617
_cell_length_b 8.505922
_cell_length_c 30.039309
_cell_angle_alpha 90.000000
_cell_angle_beta 90.000000
_cell_angle_gamma 90.000000
_cell_volume 2424.711202
_symmetry_space_group_name_H-M "A B M 2"
_symmetry_group_IT_number 39
_symmetry_cell_setting 'orthorhombic'
loop_
_space_group_symop_operation_xyz
x,y,z
-x,-y,z
-x,1/2+y,z
x,1/2-y,z
x,1/2+y,1/2+z
-x,1/2-y,1/2+z
-x,y,1/2+z
x,-y,1/2+z
loop_
_atom_site_type_symbol
_atom_site_label
_atom_site_fract_x
_atom_site_fract_y
_atom_site_fract_z
Si Si1 0.349342 0.935083 0.786300
Si Si2 0.155708 0.434972 0.862116
Si Si3 0.649276 0.065610 0.189935
Si Si4 0.653712 0.935251 0.438162
Si Si5 0.845454 0.066848 0.615727
Si Si6 0.647907 0.933396 0.033206
O O1 0.358821 0.750000 0.786185
O O2 0.500000 0.000000 0.802268
O O3 0.229228 0.989695 0.819513
O O4 0.309410 0.992911 0.737222
O O5 0.153307 0.250000 0.856024
O O6 0.234157 0.479687 0.907273
O O7 0.000000 0.500000 0.865425
O O8 0.634706 0.250000 0.195697
O O9 0.500000 0.000000 0.172410
O O10 0.770978 0.025123 0.155447
O O11 0.658539 0.750000 0.429762
O O12 0.500000 0.000000 0.426135
O O13 0.693660 0.974409 0.488932
O O14 0.848539 0.250000 0.627654
O O15 0.765385 0.034492 0.569843
O O16 0.000000 0.000000 0.609553
O O17 0.630377 0.750000 0.021870
O O18 0.500000 0.000000 0.051474
#
# Coordination Sequence:
#
# PCOD8181865 Si02
#       6
#     8   8   8   8   8   8
#     4  11  22  40  64  91 120 154 197 243 292 345
#     4  12  25  42  61  87 121 157 197 241 294 352
#     4  11  22  39  63  90 119 154 197 244 293 346
#     4  11  22  39  63  90 119 155 198 244 293 345
#     4  11  24  40  59  86 120 158 198 242 295 352
#     4  10  21  38  61  88 117 152 197 246 295 348
#
# _framework density 19.796171999999999
#
# number of rings (size 3 to 8) (size 9 to 14) (size 15 to 20)
#    0.000    1.000    0.000   10.000    0.000    5.333 
#    0.000    5.000    0.000    0.000    0.000    0.000 
#    0.000    0.000    0.000    0.000    0.000    0.000 
#
# Total GULP energy -297761.655015 kJ/mol
# GULP energy per Si atom -12406.735626 kJ/mol
# Density = 1.975111 g / cm^3
# Si number density = 19.796172 Si / 1000 Ang^3
#
#
#
# Elastic Constant Matrix: (Units=GPa)
#
#
# Indices 1 2 3 4 5 6 
#
# 1 140.1419 43.4839 74.5080 0.0000 0.0000 0.0000
# 2 43.4839 155.1586 42.4482 0.0000 0.0000 0.0000
# 3 74.5080 42.4482 97.6978 0.0000 0.0000 0.0000
# 4 0.0000 0.0000 0.0000 36.1970 0.0000 0.0000
# 5 0.0000 0.0000 0.0000 0.0000 -15.8461 0.0000
# 6 0.0000 0.0000 0.0000 0.0000 0.0000 37.1030
#
#
#
# Elastic Compliance Matrix: (Units=1/GPa)
#
#
# Indices 1 2 3 4 5 6 
#
# 1 0.012134 -0.000986 -0.008825 0.000000 0.000000 0.000000
# 2 -0.000986 0.007395 -0.002461 0.000000 0.000000 0.000000
# 3 -0.008825 -0.002461 0.018035 0.000000 0.000000 0.000000
# 4 0.000000 0.000000 0.000000 0.027627 0.000000 0.000000
# 5 0.000000 0.000000 0.000000 0.000000 -0.063107 0.000000
# 6 0.000000 0.000000 0.000000 0.000000 0.000000 0.026952
#
#
# Mechanical properties :
#
#
# Convention : Reuss Voigt Hill
#
# Bulk Modulus (GPa) = 76.80863 79.31984 78.06424
# Shear Modulus (GPa) = 86.32836 26.99467 56.66151
#
# Velocity S-wave (km/s) = 6.61085 3.69674 5.35580
# Velocity P-wave (km/s) = 9.85672 7.64045 8.81849
#
# Compressibility (1/GPa) = 0.01301937
#
# Stress axis : x y z
#
# Youngs Moduli (GPa) = 82.41620 135.23370 55.44735
#
# Poissons Ratio (x) = 0.13336 0.48932
# Poissons Ratio (y) = 0.08127 0.13644
# Poissons Ratio (z) = 0.72733 0.33278
#
# Static dielectric constant tensor:
#      x y z
#    x 3.615990 0.000000 0.000000 
#    y 0.000000 3.866460 0.000000 
#    z 0.000000 0.000000 3.700940 
# 
# 
# High freq. dielectric constant tensor:
#      x y z
#    x 1.772380 0.000000 0.000000 
#    y 0.000000 1.797240 0.000000 
#    z 0.000000 0.000000 1.784710 
# 
# From -- ./inp_files/17609.got.cif
#   From: 2010.03.12/outbox.cif.g09.slc.cpg/sg39_9_cif.got.tgz:17609.got - 2010.04.14 02:53:20.
