data_PCOD8181663
_publ_section_title
;
Structure prediction by ZEFSAII (Michael W. Deem and Ramdas Pophale) SiO2 
 PCOD8181663
Probable space group: A B M 2
;
_chemical_formula_sum "Si O2"
_cell_formula_units_Z 44
_cell_length_a 15.980437
_cell_length_b 9.259407
_cell_length_c 14.552793
_cell_angle_alpha 90.000000
_cell_angle_beta 90.000000
_cell_angle_gamma 90.000000
_cell_volume 2153.367615
_symmetry_space_group_name_H-M "A B M 2"
_symmetry_group_IT_number 39
_symmetry_cell_setting 'orthorhombic'
loop_
_space_group_symop_operation_xyz
x,y,z
-x,-y,z
-x,1/2+y,z
x,1/2-y,z
x,1/2+y,1/2+z
-x,1/2-y,1/2+z
-x,y,1/2+z
x,-y,1/2+z
loop_
_atom_site_type_symbol
_atom_site_label
_atom_site_fract_x
_atom_site_fract_y
_atom_site_fract_z
Si Si1 0.289682 0.079430 0.990060
Si Si2 0.586133 0.420959 0.857440
Si Si3 0.000000 0.500000 0.101349
Si Si4 0.871715 0.913017 0.252960
Si Si5 0.303298 0.081041 0.193832
Si Si6 0.126549 0.588538 0.955956
O O1 0.296272 0.250000 0.967277
O O2 0.342381 0.981231 0.922658
O O3 0.325425 0.039692 0.090127
O O4 0.193353 0.030655 0.987368
O O5 0.500000 0.500000 0.879040
O O6 0.574910 0.250000 0.871824
O O7 0.617181 0.463384 0.755413
O O8 0.938438 0.581961 0.170777
O O9 0.947249 0.400396 0.031587
O O10 0.846256 0.750000 0.266058
O O11 0.784266 0.995106 0.226981
O O12 0.905282 0.963720 0.353874
O O13 0.288697 0.250000 0.200808
O O14 0.165652 0.750000 0.951067
#
# Coordination Sequence:
#
# PCOD8181663 Si02
#       6
#     8   8   4   8   8   8
#     4  11  22  40  66  94 125 166 209 254 309 373
#     4  11  23  43  68  96 127 162 204 255 311 374
#     4  12  22  36  60  92 122 162 218 268 308 370
#     4  10  20  38  58  83 123 166 205 254 316 370
#     4   9  19  38  64  87 121 167 205 249 313 370
#     4  11  23  39  61  89 124 166 211 262 318 372
#
# _framework density 20.433112000000001
#
# number of rings (size 3 to 8) (size 9 to 14) (size 15 to 20)
#    0.000    1.455    3.636    2.182    0.000    1.455 
#    0.000    9.091    0.000    0.000    0.000    0.000 
#    0.000    0.000    0.000    0.000    0.000    0.000 
#
# Total GULP energy -272544.293095 kJ/mol
# GULP energy per Si atom -12388.376959 kJ/mol
# Density = 2.038661 g / cm^3
# Si number density = 20.433112 Si / 1000 Ang^3
#
#
#
# Elastic Constant Matrix: (Units=GPa)
#
#
# Indices 1 2 3 4 5 6 
#
# 1 67.7988 29.8983 23.6541 0.0000 0.0000 0.0000
# 2 29.8983 80.7286 34.7919 0.0000 0.0000 0.0000
# 3 23.6541 34.7919 126.8908 0.0000 0.0000 0.0000
# 4 0.0000 0.0000 0.0000 22.3888 0.0000 0.0000
# 5 0.0000 0.0000 0.0000 0.0000 23.3663 0.0000
# 6 0.0000 0.0000 0.0000 0.0000 0.0000 28.8205
#
#
#
# Elastic Compliance Matrix: (Units=1/GPa)
#
#
# Indices 1 2 3 4 5 6 
#
# 1 0.017957 -0.005906 -0.001728 0.000000 0.000000 0.000000
# 2 -0.005906 0.015989 -0.003283 0.000000 0.000000 0.000000
# 3 -0.001728 -0.003283 0.009103 0.000000 0.000000 0.000000
# 4 0.000000 0.000000 0.000000 0.044665 0.000000 0.000000
# 5 0.000000 0.000000 0.000000 0.000000 0.042797 0.000000
# 6 0.000000 0.000000 0.000000 0.000000 0.000000 0.034698
#
#
# Mechanical properties :
#
#
# Convention : Reuss Voigt Hill
#
# Bulk Modulus (GPa) = 47.13564 50.23407 48.68485
# Shear Modulus (GPa) = 25.75805 27.38673 26.57239
#
# Velocity S-wave (km/s) = 3.55435 3.66500 3.61010
# Velocity P-wave (km/s) = 6.32162 6.52285 6.42302
#
# Compressibility (1/GPa) = 0.02121537
#
# Stress axis : x y z
#
# Youngs Moduli (GPa) = 55.68943 62.54177 109.85207
#
# Poissons Ratio (x) = 0.36935 0.18984
# Poissons Ratio (y) = 0.32888 0.36067
# Poissons Ratio (z) = 0.09624 0.20534
#
# Static dielectric constant tensor:
#      x y z
#    x 7.052340 0.000000 0.000000 
#    y 0.000000 3.346280 0.000000 
#    z 0.000000 0.000000 4.583270 
# 
# 
# High freq. dielectric constant tensor:
#      x y z
#    x 1.792730 0.000000 0.000000 
#    y 0.000000 1.767820 0.000000 
#    z 0.000000 0.000000 1.824110 
# 
# From -- ./inp_files/10004.got.cif
#   From: 2010.03.12/outbox.cif.g09.slc.cpg/sg39_6_cif.got.tgz:10004.got - 2010.04.14 02:53:20.
