data_PCOD8181770
_publ_section_title
;
Structure prediction by ZEFSAII (Michael W. Deem and Ramdas Pophale) SiO2 
 PCOD8181770
Probable space group: A B M 2
;
_chemical_formula_sum "Si O2"
_cell_formula_units_Z 64
_cell_length_a 18.492543
_cell_length_b 9.233599
_cell_length_c 20.733131
_cell_angle_alpha 90.000000
_cell_angle_beta 90.000000
_cell_angle_gamma 90.000000
_cell_volume 3540.238648
_symmetry_space_group_name_H-M "A B M 2"
_symmetry_group_IT_number 39
_symmetry_cell_setting 'orthorhombic'
loop_
_space_group_symop_operation_xyz
x,y,z
-x,-y,z
-x,1/2+y,z
x,1/2-y,z
x,1/2+y,1/2+z
-x,1/2-y,1/2+z
-x,y,1/2+z
x,-y,1/2+z
loop_
_atom_site_type_symbol
_atom_site_label
_atom_site_fract_x
_atom_site_fract_y
_atom_site_fract_z
Si Si1 0.324875 0.917260 0.163450
Si Si2 0.180675 0.584174 0.510251
Si Si3 0.182612 0.086955 0.151549
Si Si4 0.842302 0.414305 0.789953
Si Si5 0.075643 0.077869 0.897708
Si Si6 0.327146 0.082220 0.285919
Si Si7 0.425283 0.079533 0.403617
Si Si8 0.670392 0.918641 0.521298
O O1 0.329541 0.750000 0.181263
O O2 0.360483 0.950691 0.093404
O O3 0.242089 0.963362 0.156328
O O4 0.360780 0.004031 0.222625
O O5 0.198665 0.750000 0.494916
O O6 0.144017 0.567638 0.581867
O O7 0.124659 0.525091 0.457568
O O8 0.255770 0.500545 0.505393
O O9 0.217498 0.250000 0.154887
O O10 0.131595 0.069971 0.214748
O O11 0.855920 0.250000 0.814475
O O12 0.887763 0.527110 0.831360
O O13 0.757443 0.453932 0.795124
O O14 0.064799 0.250000 0.895809
O O15 0.000000 0.000000 0.906690
O O16 0.339671 0.250000 0.274419
O O17 0.369749 0.027716 0.348511
O O18 0.439018 0.250000 0.400736
O O19 0.391643 0.031765 0.472013
O O20 0.500000 0.000000 0.392505
O O21 0.688645 0.750000 0.512686
#
# Coordination Sequence:
#
# PCOD8181770 Si02
#       8
#     8   8   8   8   8   8   8   8
#     4   9  16  27  48  77 103 125 157 203 246 288
#     4   9  18  33  54  78 100 126 164 205 243 289
#     4   8  15  30  51  74 101 129 158 197 246 294
#     4   9  17  32  55  77  98 128 162 199 245 294
#     4  11  23  36  50  71 101 134 167 204 244 289
#     4   9  18  33  53  75 100 131 163 199 247 298
#     4  10  21  36  51  70  99 134 171 207 245 291
#     4   9  18  33  53  76 101 129 162 202 248 295
#
# _framework density 18.077876
#
# number of rings (size 3 to 8) (size 9 to 14) (size 15 to 20)
#    0.000    2.750    0.000    2.250    0.000    5.500 
#    0.000    1.250    0.000    4.500    0.000    0.000 
#    0.000    0.000    0.000    0.000    0.000    0.000 
#
# Total GULP energy -396573.452826 kJ/mol
# GULP energy per Si atom -12392.920401 kJ/mol
# Density = 1.803673 g / cm^3
# Si number density = 18.077876 Si / 1000 Ang^3
#
#
#
# Elastic Constant Matrix: (Units=GPa)
#
#
# Indices 1 2 3 4 5 6 
#
# 1 51.1530 21.9146 21.3579 0.0000 0.0000 0.0000
# 2 21.9146 47.3189 28.7618 0.0000 0.0000 0.0000
# 3 21.3579 28.7618 105.4642 0.0000 0.0000 0.0000
# 4 0.0000 0.0000 0.0000 29.2378 0.0000 0.0000
# 5 0.0000 0.0000 0.0000 0.0000 6.0549 0.0000
# 6 0.0000 0.0000 0.0000 0.0000 0.0000 26.3089
#
#
#
# Elastic Compliance Matrix: (Units=1/GPa)
#
#
# Indices 1 2 3 4 5 6 
#
# 1 0.024833 -0.010122 -0.002269 0.000000 0.000000 0.000000
# 2 -0.010122 0.029458 -0.005984 0.000000 0.000000 0.000000
# 3 -0.002269 -0.005984 0.011573 0.000000 0.000000 0.000000
# 4 0.000000 0.000000 0.000000 0.034202 0.000000 0.000000
# 5 0.000000 0.000000 0.000000 0.000000 0.165154 0.000000
# 6 0.000000 0.000000 0.000000 0.000000 0.000000 0.038010
#
#
# Mechanical properties :
#
#
# Convention : Reuss Voigt Hill
#
# Bulk Modulus (GPa) = 34.34600 38.66720 36.50660
# Shear Modulus (GPa) = 14.29862 21.11379 17.70621
#
# Velocity S-wave (km/s) = 2.81543 3.42121 3.13300
# Velocity P-wave (km/s) = 5.44141 6.08621 5.77282
#
# Compressibility (1/GPa) = 0.02911547
#
# Stress axis : x y z
#
# Youngs Moduli (GPa) = 40.26954 33.94663 86.40640
#
# Poissons Ratio (x) = 0.34360 0.19602
# Poissons Ratio (y) = 0.40760 0.51705
# Poissons Ratio (z) = 0.09136 0.20313
#
# Static dielectric constant tensor:
#      x y z
#    x 2.948820 0.000000 0.000000 
#    y 0.000000 3.315920 0.000000 
#    z 0.000000 0.000000 3.915170 
# 
# 
# High freq. dielectric constant tensor:
#      x y z
#    x 1.651050 0.000000 0.000000 
#    y 0.000000 1.700270 0.000000 
#    z 0.000000 0.000000 1.727000 
# 
# From -- ./inp_files/15073.got.cif
#   From: 2010.03.12/outbox.cif.g09.slc.cpg/sg39_8_cif.got.tgz:15073.got - 2010.04.14 02:53:20.
