data_PCOD8181875
_publ_section_title
;
Structure prediction by ZEFSAII (Michael W. Deem and Ramdas Pophale) SiO2 
 PCOD8181875
Probable space group: A B M 2
;
_chemical_formula_sum "Si O2"
_cell_formula_units_Z 52
_cell_length_a 8.727672
_cell_length_b 22.989341
_cell_length_c 13.609794
_cell_angle_alpha 90.000000
_cell_angle_beta 90.000000
_cell_angle_gamma 90.000000
_cell_volume 2730.715719
_symmetry_space_group_name_H-M "A B M 2"
_symmetry_group_IT_number 39
_symmetry_cell_setting 'orthorhombic'
loop_
_space_group_symop_operation_xyz
x,y,z
-x,-y,z
-x,1/2+y,z
x,1/2-y,z
x,1/2+y,1/2+z
-x,1/2-y,1/2+z
-x,y,1/2+z
x,-y,1/2+z
loop_
_atom_site_type_symbol
_atom_site_label
_atom_site_fract_x
_atom_site_fract_y
_atom_site_fract_z
Si Si1 0.668645 0.337676 0.936970
Si Si2 0.860141 0.543700 0.028844
Si Si3 0.352960 0.532181 0.906462
Si Si4 0.012679 0.357399 0.893136
Si Si5 0.234994 0.750000 0.390023
Si Si6 0.458802 0.250000 0.285126
Si Si7 0.893535 0.555300 0.245402
Si Si8 0.483082 0.750000 0.555778
O O1 0.607426 0.403352 0.944436
O O2 0.854005 0.336352 0.944142
O O3 0.617419 0.307166 0.834591
O O4 0.588857 0.305540 0.028932
O O5 0.829787 0.569490 0.137238
O O6 0.000000 0.500000 0.024786
O O7 0.712687 0.507539 0.994217
O O8 0.896807 0.597624 0.960219
O O9 0.500000 0.500000 0.864487
O O10 0.241824 0.536921 0.815501
O O11 0.978247 0.387771 0.788201
O O12 0.126511 0.304864 0.876134
O O13 0.359034 0.750000 0.302853
O O14 0.325003 0.750000 0.493820
O O15 0.431709 0.250000 0.168741
O O16 0.000000 0.500000 0.238273
#
# Coordination Sequence:
#
# PCOD8181875 Si02
#       8
#     8   8   8   8   4   4   8   4
#     4   9  21  41  61  86 119 165 196 254 308 356
#     4  11  21  39  62  92 121 161 201 250 308 368
#     4  11  22  39  61  89 129 161 201 251 307 367
#     4  11  20  42  63  88 122 157 207 258 304 359
#     4  10  24  36  66  90 110 164 208 253 300 365
#     4  10  23  43  59  85 127 156 206 247 312 361
#     4  10  21  38  62  89 121 160 198 248 306 363
#     4  10  23  43  61  87 125 162 202 254 304 364
#
# _framework density 19.042629000000002
#
# number of rings (size 3 to 8) (size 9 to 14) (size 15 to 20)
#    0.000    1.846    4.615    0.923    4.308    4.308 
#    2.769    2.308    0.000    0.000    0.000    0.000 
#    0.000    0.000    0.000    0.000    0.000    0.000 
#
# Total GULP energy -322346.811282 kJ/mol
# GULP energy per Si atom -12397.954280 kJ/mol
# Density = 1.899929 g / cm^3
# Si number density = 19.042629 Si / 1000 Ang^3
#
#
#
# Elastic Constant Matrix: (Units=GPa)
#
#
# Indices 1 2 3 4 5 6 
#
# 1 77.7570 58.8434 22.2178 0.0000 0.0000 0.0000
# 2 58.8434 137.4662 56.4757 0.0000 0.0000 0.0000
# 3 22.2178 56.4757 134.5931 0.0000 0.0000 0.0000
# 4 0.0000 0.0000 0.0000 10.8528 0.0000 0.0000
# 5 0.0000 0.0000 0.0000 0.0000 34.1884 0.0000
# 6 0.0000 0.0000 0.0000 0.0000 0.0000 41.0574
#
#
#
# Elastic Compliance Matrix: (Units=1/GPa)
#
#
# Indices 1 2 3 4 5 6 
#
# 1 0.019035 -0.008286 0.000334 0.000000 0.000000 0.000000
# 2 -0.008286 0.012396 -0.003834 0.000000 0.000000 0.000000
# 3 0.000334 -0.003834 0.008983 0.000000 0.000000 0.000000
# 4 0.000000 0.000000 0.000000 0.092142 0.000000 0.000000
# 5 0.000000 0.000000 0.000000 0.000000 0.029250 0.000000
# 6 0.000000 0.000000 0.000000 0.000000 0.000000 0.024356
#
#
# Mechanical properties :
#
#
# Convention : Reuss Voigt Hill
#
# Bulk Modulus (GPa) = 59.36509 69.43221 64.39865
# Shear Modulus (GPa) = 23.21826 31.37167 27.29496
#
# Velocity S-wave (km/s) = 3.49560 4.06328 3.79008
# Velocity P-wave (km/s) = 6.89455 7.65207 7.28317
#
# Compressibility (1/GPa) = 0.01684492
#
# Stress axis : x y z
#
# Youngs Moduli (GPa) = 52.53427 80.66958 111.31813
#
# Poissons Ratio (x) = 0.66839 -0.03723
# Poissons Ratio (y) = 0.43528 0.42677
# Poissons Ratio (z) = -0.01757 0.30927
#
# Static dielectric constant tensor:
#      x y z
#    x 3.471970 0.000000 0.000000 
#    y 0.000000 3.374330 0.000000 
#    z 0.000000 0.000000 3.752840 
# 
# 
# High freq. dielectric constant tensor:
#      x y z
#    x 1.745140 0.000000 0.000000 
#    y 0.000000 1.753720 0.000000 
#    z 0.000000 0.000000 1.726600 
# 
# From -- ./inp_files/8577.got.cif
#   From: 2010.03.12/outbox.cif.g09.slc.cpg/sg39_5_cif.got.tgz:8577.got - 2010.04.14 02:53:20.
