data_PCOD8181394
_publ_section_title
;
Structure prediction by ZEFSAII (Michael W. Deem and Ramdas Pophale) SiO2 
 PCOD8181394
Probable space group: A B M 2
;
_chemical_formula_sum "Si O2"
_cell_formula_units_Z 56
_cell_length_a 23.565098
_cell_length_b 8.489203
_cell_length_c 14.338683
_cell_angle_alpha 90.000000
_cell_angle_beta 90.000000
_cell_angle_gamma 90.000000
_cell_volume 2868.437771
_symmetry_space_group_name_H-M "A B M 2"
_symmetry_group_IT_number 39
_symmetry_cell_setting 'orthorhombic'
loop_
_space_group_symop_operation_xyz
x,y,z
-x,-y,z
-x,1/2+y,z
x,1/2-y,z
x,1/2+y,1/2+z
-x,1/2-y,1/2+z
-x,y,1/2+z
x,-y,1/2+z
loop_
_atom_site_type_symbol
_atom_site_label
_atom_site_fract_x
_atom_site_fract_y
_atom_site_fract_z
Si Si1 0.941887 0.433719 0.940700
Si Si2 0.356442 0.935241 0.225679
Si Si3 0.260722 0.434237 0.580674
Si Si4 0.561812 0.065779 0.581446
Si Si5 0.939434 0.065447 0.239842
Si Si6 0.138031 0.068098 0.089121
Si Si7 0.343246 0.063450 0.936692
O O1 0.948218 0.250000 0.915967
O O2 0.930087 0.533803 0.848393
O O3 0.000000 0.500000 0.986820
O O4 0.890202 0.458992 0.010579
O O5 0.363819 0.750000 0.226631
O O6 0.301862 0.985879 0.165265
O O7 0.349883 0.998896 0.331018
O O8 0.413084 0.004954 0.179350
O O9 0.246597 0.250000 0.583898
O O10 0.204357 0.534341 0.593705
O O11 0.288973 0.477714 0.481732
O O12 0.557694 0.250000 0.588279
O O13 0.601071 0.013008 0.494714
O O14 0.500000 0.000000 0.562567
O O15 0.936037 0.250000 0.217698
O O16 0.889202 0.974515 0.188048
O O17 0.000000 0.000000 0.205487
O O18 0.127619 0.250000 0.065205
O O19 0.333087 0.250000 0.940140
#
# Coordination Sequence:
#
# PCOD8181394 Si02
#       7
#     8   8   8   8   8   8   8
#     4  11  22  39  60  85 114 146 185 230 283 343
#     4   9  19  37  59  80 108 144 183 224 273 325
#     4  10  21  37  56  81 110 142 183 233 280 331
#     4  10  20  34  54  81 114 145 181 224 269 320
#     4  11  22  39  60  85 115 148 186 230 282 341
#     4  12  24  39  58  82 113 151 191 235 283 334
#     4   9  19  37  58  80 108 146 184 224 274 330
#
# _framework density 19.522822000000001
#
# number of rings (size 3 to 8) (size 9 to 14) (size 15 to 20)
#    0.000    1.714    0.000    6.000    0.000    3.429 
#    0.000    5.714    0.000    0.000    0.000    0.000 
#    0.000    0.000    0.000    0.000    0.000    0.000 
#
# Total GULP energy -347329.327081 kJ/mol
# GULP energy per Si atom -12404.618824 kJ/mol
# Density = 1.947839 g / cm^3
# Si number density = 19.522822 Si / 1000 Ang^3
#
#
#
# Elastic Constant Matrix: (Units=GPa)
#
#
# Indices 1 2 3 4 5 6 
#
# 1 124.2387 28.9876 48.9538 0.0000 0.0000 0.0000
# 2 28.9876 66.8887 19.2798 0.0000 0.0000 0.0000
# 3 48.9538 19.2798 120.6784 0.0000 0.0000 0.0000
# 4 0.0000 0.0000 0.0000 29.9449 0.0000 0.0000
# 5 0.0000 0.0000 0.0000 0.0000 31.8671 0.0000
# 6 0.0000 0.0000 0.0000 0.0000 0.0000 35.1953
#
#
#
# Elastic Compliance Matrix: (Units=1/GPa)
#
#
# Indices 1 2 3 4 5 6 
#
# 1 0.010271 -0.003407 -0.003622 0.000000 0.000000 0.000000
# 2 -0.003407 0.016802 -0.001302 0.000000 0.000000 0.000000
# 3 -0.003622 -0.001302 0.009964 0.000000 0.000000 0.000000
# 4 0.000000 0.000000 0.000000 0.033395 0.000000 0.000000
# 5 0.000000 0.000000 0.000000 0.000000 0.031380 0.000000
# 6 0.000000 0.000000 0.000000 0.000000 0.000000 0.028413
#
#
# Mechanical properties :
#
#
# Convention : Reuss Voigt Hill
#
# Bulk Modulus (GPa) = 49.08208 56.24978 52.66593
# Shear Modulus (GPa) = 32.53516 33.70709 33.12113
#
# Velocity S-wave (km/s) = 4.08673 4.15968 4.12337
# Velocity P-wave (km/s) = 6.88941 7.20732 7.05016
#
# Compressibility (1/GPa) = 0.02037403
#
# Stress axis : x y z
#
# Youngs Moduli (GPa) = 97.35895 59.51624 100.36221
#
# Poissons Ratio (x) = 0.20278 0.36354
# Poissons Ratio (y) = 0.33172 0.13069
# Poissons Ratio (z) = 0.35266 0.07750
#
# Static dielectric constant tensor:
#      x y z
#    x 3.566390 0.000000 0.000000 
#    y 0.000000 3.548870 0.000000 
#    z 0.000000 0.000000 3.664360 
# 
# 
# High freq. dielectric constant tensor:
#      x y z
#    x 1.758940 0.000000 0.000000 
#    y 0.000000 1.768550 0.000000 
#    z 0.000000 0.000000 1.763800 
# 
# From -- ./inp_files/10346.got.cif
#   From: 2010.03.12/outbox.cif.g09.slc.cpg/sg39_6_cif.got.tgz:10346.got - 2010.04.14 02:53:20.
