data_PCOD8181686
_publ_section_title
;
Structure prediction by ZEFSAII (Michael W. Deem and Ramdas Pophale) SiO2 
 PCOD8181686
Probable space group: A B M 2
;
_chemical_formula_sum "Si O2"
_cell_formula_units_Z 64
_cell_length_a 15.296056
_cell_length_b 17.622125
_cell_length_c 11.685715
_cell_angle_alpha 90.000000
_cell_angle_beta 90.000000
_cell_angle_gamma 90.000000
_cell_volume 3149.872919
_symmetry_space_group_name_H-M "A B M 2"
_symmetry_group_IT_number 39
_symmetry_cell_setting 'orthorhombic'
loop_
_space_group_symop_operation_xyz
x,y,z
-x,-y,z
-x,1/2+y,z
x,1/2-y,z
x,1/2+y,1/2+z
-x,1/2-y,1/2+z
-x,y,1/2+z
x,-y,1/2+z
loop_
_atom_site_type_symbol
_atom_site_label
_atom_site_fract_x
_atom_site_fract_y
_atom_site_fract_z
Si Si1 0.757765 0.337181 0.959010
Si Si2 0.406356 0.337609 0.093070
Si Si3 0.904471 0.575936 0.055919
Si Si4 0.092252 0.592910 0.101048
Si Si5 0.325190 0.664807 0.355560
Si Si6 0.245038 0.403579 0.218412
Si Si7 0.398972 0.839596 0.115308
Si Si8 0.175321 0.561340 0.320737
O O1 0.770230 0.250000 0.994328
O O2 0.754953 0.344453 0.822757
O O3 0.841802 0.383260 0.001749
O O4 0.669043 0.370055 0.018444
O O5 0.396887 0.250000 0.138329
O O6 0.340123 0.394253 0.159381
O O7 0.503329 0.372446 0.105437
O O8 0.394115 0.339032 0.957150
O O9 0.913801 0.496880 0.120875
O O10 0.825905 0.620253 0.120797
O O11 0.994649 0.624122 0.072638
O O12 0.893790 0.549874 0.923290
O O13 0.131021 0.616341 0.224901
O O14 0.290425 0.750000 0.337397
O O15 0.366534 0.633723 0.238719
O O16 0.245828 0.611050 0.387985
O O17 0.223756 0.486789 0.270015
O O18 0.406103 0.750000 0.102964
#
# Coordination Sequence:
#
# PCOD8181686 Si02
#       8
#     8   8   8   8   8   8   8   8
#     4  11  22  39  60  89 125 158 199 252 302 357
#     4  10  21  38  62  90 119 158 204 248 300 365
#     4  10  22  39  61  88 116 155 205 249 296 364
#     4  10  22  37  63  87 111 157 205 243 299 358
#     4  10  20  38  63  85 117 159 203 251 297 353
#     4  11  23  38  62  89 122 160 196 249 304 359
#     4   9  20  37  62  89 116 159 208 248 298 360
#     4  11  21  39  64  86 121 154 202 249 298 362
#
# _framework density 20.318279
#
# number of rings (size 3 to 8) (size 9 to 14) (size 15 to 20)
#    0.000    1.750    3.750    0.375    3.500    1.000 
#    0.000    2.500    0.000    0.000    0.000    0.000 
#    0.000    0.000    0.000    0.000    0.000    0.000 
#
# Total GULP energy -396519.261854 kJ/mol
# GULP energy per Si atom -12391.226933 kJ/mol
# Density = 2.027203 g / cm^3
# Si number density = 20.318279 Si / 1000 Ang^3
#
#
#
# Elastic Constant Matrix: (Units=GPa)
#
#
# Indices 1 2 3 4 5 6 
#
# 1 162.0317 31.8089 45.0488 0.0000 0.0000 0.0000
# 2 31.8089 36.0175 15.3200 0.0000 0.0000 0.0000
# 3 45.0488 15.3200 115.3438 0.0000 0.0000 0.0000
# 4 0.0000 0.0000 0.0000 25.8234 0.0000 0.0000
# 5 0.0000 0.0000 0.0000 0.0000 24.7809 0.0000
# 6 0.0000 0.0000 0.0000 0.0000 0.0000 23.1466
#
#
#
# Elastic Compliance Matrix: (Units=1/GPa)
#
#
# Indices 1 2 3 4 5 6 
#
# 1 0.008012 -0.006089 -0.002320 0.000000 0.000000 0.000000
# 2 -0.006089 0.034054 -0.002145 0.000000 0.000000 0.000000
# 3 -0.002320 -0.002145 0.009861 0.000000 0.000000 0.000000
# 4 0.000000 0.000000 0.000000 0.038725 0.000000 0.000000
# 5 0.000000 0.000000 0.000000 0.000000 0.040354 0.000000
# 6 0.000000 0.000000 0.000000 0.000000 0.000000 0.043203
#
#
# Mechanical properties :
#
#
# Convention : Reuss Voigt Hill
#
# Bulk Modulus (GPa) = 32.44816 55.30537 43.87677
# Shear Modulus (GPa) = 24.32029 29.49789 26.90909
#
# Velocity S-wave (km/s) = 3.46347 3.81437 3.64315
# Velocity P-wave (km/s) = 5.65675 6.83212 6.27203
#
# Compressibility (1/GPa) = 0.03081839
#
# Stress axis : x y z
#
# Youngs Moduli (GPa) = 124.81104 29.36505 101.41039
#
# Poissons Ratio (x) = 0.17880 0.23532
# Poissons Ratio (y) = 0.75996 0.21752
# Poissons Ratio (z) = 0.28962 0.06299
#
# Static dielectric constant tensor:
#      x y z
#    x 3.992500 0.000000 0.000000 
#    y 0.000000 3.274290 0.000000 
#    z 0.000000 0.000000 3.741670 
# 
# 
# High freq. dielectric constant tensor:
#      x y z
#    x 1.800890 0.000000 0.000000 
#    y 0.000000 1.750740 0.000000 
#    z 0.000000 0.000000 1.809870 
# 
# From -- ./inp_files/6651.got.cif
#   From: 2010.03.12/outbox.cif.g09.slc.cpg/sg39_4_cif.got.tgz:6651.got - 2010.04.14 02:53:20.
