data_PCOD8181107
_publ_section_title
;
Structure prediction by ZEFSAII (Michael W. Deem and Ramdas Pophale) SiO2 
 PCOD8181107
Probable space group: A B M 2
;
_chemical_formula_sum "Si O2"
_cell_formula_units_Z 64
_cell_length_a 23.424308
_cell_length_b 9.268380
_cell_length_c 15.445353
_cell_angle_alpha 90.000000
_cell_angle_beta 90.000000
_cell_angle_gamma 90.000000
_cell_volume 3353.269352
_symmetry_space_group_name_H-M "A B M 2"
_symmetry_group_IT_number 39
_symmetry_cell_setting 'orthorhombic'
loop_
_space_group_symop_operation_xyz
x,y,z
-x,-y,z
-x,1/2+y,z
x,1/2-y,z
x,1/2+y,1/2+z
-x,1/2-y,1/2+z
-x,y,1/2+z
x,-y,1/2+z
loop_
_atom_site_type_symbol
_atom_site_label
_atom_site_fract_x
_atom_site_fract_y
_atom_site_fract_z
Si Si1 0.763245 0.413209 0.947500
Si Si2 0.122931 0.915104 0.039146
Si Si3 0.367565 0.917870 0.287140
Si Si4 0.762771 0.418530 0.277396
Si Si5 0.863231 0.080450 0.703386
Si Si6 0.366139 0.083659 0.460920
Si Si7 0.058643 0.081433 0.365679
Si Si8 0.559607 0.420874 0.122988
O O1 0.768180 0.250000 0.908972
O O2 0.777628 0.527090 0.873271
O O3 0.700220 0.441087 0.985411
O O4 0.809219 0.433131 0.023201
O O5 0.107994 0.750000 0.062035
O O6 0.104957 0.016764 0.118894
O O7 0.088143 0.966634 0.955003
O O8 0.374494 0.750000 0.307140
O O9 0.303200 0.952633 0.256831
O O10 0.409137 0.969508 0.210907
O O11 0.384371 0.999776 0.374673
O O12 0.776810 0.250000 0.270355
O O13 0.801464 0.504634 0.209320
O O14 0.855006 0.250000 0.692455
O O15 0.899812 0.039395 0.787304
O O16 0.378959 0.250000 0.442523
O O17 0.402771 0.026991 0.541614
O O18 0.045787 0.250000 0.365288
O O19 0.000000 0.000000 0.352579
O O20 0.500000 0.500000 0.117498
O O21 0.550545 0.250000 0.121299
#
# Coordination Sequence:
#
# PCOD8181107 Si02
#       8
#     8   8   8   8   8   8   8   8
#     4   9  17  34  59  83 117 152 184 231 290 348
#     4  10  21  38  60  87 117 153 192 233 287 343
#     4   9  20  37  57  82 114 148 188 236 285 338
#     4  10  19  33  58  87 117 151 190 235 289 347
#     4  11  23  39  58  87 121 154 193 239 287 340
#     4   9  19  35  58  83 110 148 188 228 283 342
#     4  10  23  43  63  83 116 156 195 238 285 336
#     4  10  22  39  57  80 111 151 193 233 280 338
#
# _framework density 19.085851999999999
#
# number of rings (size 3 to 8) (size 9 to 14) (size 15 to 20)
#    0.000    2.250    1.250    0.750    1.750    4.500 
#    0.000    5.000    0.000    0.000    0.000    0.000 
#    0.000    0.000    0.000    0.000    0.000    0.000 
#
# Total GULP energy -396865.079819 kJ/mol
# GULP energy per Si atom -12402.033744 kJ/mol
# Density = 1.904241 g / cm^3
# Si number density = 19.085852 Si / 1000 Ang^3
#
#
#
# Elastic Constant Matrix: (Units=GPa)
#
#
# Indices 1 2 3 4 5 6 
#
# 1 85.9348 40.3759 38.9287 0.0000 0.0000 0.0000
# 2 40.3759 65.4912 49.8765 0.0000 0.0000 0.0000
# 3 38.9287 49.8765 111.5280 0.0000 0.0000 0.0000
# 4 0.0000 0.0000 0.0000 35.7116 0.0000 0.0000
# 5 0.0000 0.0000 0.0000 0.0000 20.0613 0.0000
# 6 0.0000 0.0000 0.0000 0.0000 0.0000 32.9061
#
#
#
# Elastic Compliance Matrix: (Units=1/GPa)
#
#
# Indices 1 2 3 4 5 6 
#
# 1 0.016630 -0.008844 -0.001850 0.000000 0.000000 0.000000
# 2 -0.008844 0.027859 -0.009372 0.000000 0.000000 0.000000
# 3 -0.001850 -0.009372 0.013803 0.000000 0.000000 0.000000
# 4 0.000000 0.000000 0.000000 0.028002 0.000000 0.000000
# 5 0.000000 0.000000 0.000000 0.000000 0.049847 0.000000
# 6 0.000000 0.000000 0.000000 0.000000 0.000000 0.030390
#
#
# Mechanical properties :
#
#
# Convention : Reuss Voigt Hill
#
# Bulk Modulus (GPa) = 55.06206 57.92403 56.49305
# Shear Modulus (GPa) = 23.50564 26.65399 25.07982
#
# Velocity S-wave (km/s) = 3.51319 3.74107 3.62892
# Velocity P-wave (km/s) = 6.73565 7.00542 6.87186
#
# Compressibility (1/GPa) = 0.01816133
#
# Stress axis : x y z
#
# Youngs Moduli (GPa) = 60.13296 35.89517 72.44737
#
# Poissons Ratio (x) = 0.31745 0.13400
# Poissons Ratio (y) = 0.53181 0.67897
# Poissons Ratio (z) = 0.11122 0.33640
#
# Static dielectric constant tensor:
#      x y z
#    x 3.485670 0.000000 0.000000 
#    y 0.000000 3.436800 0.000000 
#    z 0.000000 0.000000 3.477110 
# 
# 
# High freq. dielectric constant tensor:
#      x y z
#    x 1.739950 0.000000 0.000000 
#    y 0.000000 1.736920 0.000000 
#    z 0.000000 0.000000 1.744200 
# 
# From -- ./inp_files/10581.got.cif
#   From: 2010.03.12/outbox.cif.g09.slc.cpg/sg39_6_cif.got.tgz:10581.got - 2010.04.14 02:53:20.
