data_PCOD8181918
_publ_section_title
;
Structure prediction by ZEFSAII (Michael W. Deem and Ramdas Pophale) SiO2 
 PCOD8181918
Probable space group: A B M 2
;
_chemical_formula_sum "Si O2"
_cell_formula_units_Z 64
_cell_length_a 12.061288
_cell_length_b 17.231695
_cell_length_c 14.392493
_cell_angle_alpha 90.000000
_cell_angle_beta 90.000000
_cell_angle_gamma 90.000000
_cell_volume 2991.284452
_symmetry_space_group_name_H-M "A B M 2"
_symmetry_group_IT_number 39
_symmetry_cell_setting 'orthorhombic'
loop_
_space_group_symop_operation_xyz
x,y,z
-x,-y,z
-x,1/2+y,z
x,1/2-y,z
x,1/2+y,1/2+z
-x,1/2-y,1/2+z
-x,y,1/2+z
x,-y,1/2+z
loop_
_atom_site_type_symbol
_atom_site_label
_atom_site_fract_x
_atom_site_fract_y
_atom_site_fract_z
Si Si1 0.976514 0.838594 0.626940
Si Si2 0.144888 0.841473 0.311908
Si Si3 0.591031 0.837624 0.447769
Si Si4 0.627980 0.661339 0.050892
Si Si5 0.215687 0.575405 0.038612
Si Si6 0.852474 0.086755 0.500428
Si Si7 0.573827 0.108949 0.746971
Si Si8 0.332207 0.053876 0.727796
O O1 0.010535 0.750000 0.612102
O O2 0.950239 0.856563 0.734972
O O3 0.866894 0.855833 0.567198
O O4 0.079220 0.890301 0.592709
O O5 0.176377 0.750000 0.314310
O O6 0.094932 0.870927 0.409999
O O7 0.254405 0.892825 0.292349
O O8 0.614981 0.750000 0.480735
O O9 0.485083 0.870347 0.503997
O O10 0.696532 0.890693 0.467206
O O11 0.570334 0.838087 0.337865
O O12 0.647329 0.750000 0.021938
O O13 0.725256 0.611303 0.007187
O O14 0.630312 0.654380 0.162249
O O15 0.145076 0.506514 0.990393
O O16 0.276981 0.540124 0.128066
O O17 0.448581 0.096044 0.713465
O O18 0.642312 0.030526 0.771493
#
# Coordination Sequence:
#
# PCOD8181918 Si02
#       8
#     8   8   8   8   8   8   8   8
#     4  10  23  44  67  93 125 166 214 269 324 384
#     4  10  22  41  68  95 122 170 220 263 317 384
#     4  11  24  40  63  96 132 174 220 263 320 387
#     4  11  23  38  62  94 133 174 211 265 322 380
#     4  11  22  42  67  92 128 170 214 268 323 382
#     4  12  23  42  67  97 132 164 218 267 325 392
#     4  11  21  39  59  93 132 170 210 267 322 378
#     4  10  21  39  62  90 128 170 215 263 318 381
#
# _framework density 21.395492000000001
#
# number of rings (size 3 to 8) (size 9 to 14) (size 15 to 20)
#    0.000    1.250    2.500    3.750    0.000    4.000 
#    2.250    2.500    0.000    0.000    0.000    0.000 
#    0.000    0.000    0.000    0.000    0.000    0.000 
#
# Total GULP energy -396905.606892 kJ/mol
# GULP energy per Si atom -12403.300215 kJ/mol
# Density = 2.134679 g / cm^3
# Si number density = 21.395492 Si / 1000 Ang^3
#
#
#
# Elastic Constant Matrix: (Units=GPa)
#
#
# Indices 1 2 3 4 5 6 
#
# 1 79.4119 33.8707 31.7481 0.0000 0.0000 0.0000
# 2 33.8707 83.8955 30.5751 0.0000 0.0000 0.0000
# 3 31.7481 30.5751 121.4202 0.0000 0.0000 0.0000
# 4 0.0000 0.0000 0.0000 33.1096 0.0000 0.0000
# 5 0.0000 0.0000 0.0000 0.0000 30.3808 0.0000
# 6 0.0000 0.0000 0.0000 0.0000 0.0000 30.7021
#
#
#
# Elastic Compliance Matrix: (Units=1/GPa)
#
#
# Indices 1 2 3 4 5 6 
#
# 1 0.016045 -0.005449 -0.002823 0.000000 0.000000 0.000000
# 2 -0.005449 0.014974 -0.002346 0.000000 0.000000 0.000000
# 3 -0.002823 -0.002346 0.009565 0.000000 0.000000 0.000000
# 4 0.000000 0.000000 0.000000 0.030203 0.000000 0.000000
# 5 0.000000 0.000000 0.000000 0.000000 0.032915 0.000000
# 6 0.000000 0.000000 0.000000 0.000000 0.000000 0.032571
#
#
# Mechanical properties :
#
#
# Convention : Reuss Voigt Hill
#
# Bulk Modulus (GPa) = 51.68465 53.01282 52.34873
# Shear Modulus (GPa) = 30.49526 31.40743 30.95134
#
# Velocity S-wave (km/s) = 3.77943 3.83554 3.80758
# Velocity P-wave (km/s) = 6.57683 6.66682 6.62198
#
# Compressibility (1/GPa) = 0.01934810
#
# Stress axis : x y z
#
# Youngs Moduli (GPa) = 62.32309 66.78034 104.54974
#
# Poissons Ratio (x) = 0.36389 0.29518
# Poissons Ratio (y) = 0.33960 0.24527
# Poissons Ratio (z) = 0.17596 0.15667
#
# Static dielectric constant tensor:
#      x y z
#    x 3.729160 0.000000 0.000000 
#    y 0.000000 3.815190 0.000000 
#    z 0.000000 0.000000 3.856200 
# 
# 
# High freq. dielectric constant tensor:
#      x y z
#    x 1.831770 0.000000 0.000000 
#    y 0.000000 1.844060 0.000000 
#    z 0.000000 0.000000 1.840240 
# 
# From -- ./inp_files/9462.got.cif
#   From: 2010.03.12/outbox.cif.g09.slc.cpg/sg39_5_cif.got.tgz:9462.got - 2010.04.14 02:53:20.
