data_PCOD8181494
_publ_section_title
;
Structure prediction by ZEFSAII (Michael W. Deem and Ramdas Pophale) SiO2 
 PCOD8181494
Probable space group: A B M 2
;
_chemical_formula_sum "Si O2"
_cell_formula_units_Z 64
_cell_length_a 23.909476
_cell_length_b 8.576362
_cell_length_c 15.282589
_cell_angle_alpha 90.000000
_cell_angle_beta 90.000000
_cell_angle_gamma 90.000000
_cell_volume 3133.791482
_symmetry_space_group_name_H-M "A B M 2"
_symmetry_group_IT_number 39
_symmetry_cell_setting 'orthorhombic'
loop_
_space_group_symop_operation_xyz
x,y,z
-x,-y,z
-x,1/2+y,z
x,1/2-y,z
x,1/2+y,1/2+z
-x,1/2-y,1/2+z
-x,y,1/2+z
x,-y,1/2+z
loop_
_atom_site_type_symbol
_atom_site_label
_atom_site_fract_x
_atom_site_fract_y
_atom_site_fract_z
Si Si1 0.135824 0.566200 0.228710
Si Si2 0.559103 0.433634 0.324809
Si Si3 0.556257 0.431106 0.635983
Si Si4 0.736138 0.432033 0.220245
Si Si5 0.673682 0.571477 0.057564
Si Si6 0.941106 0.934153 0.572644
Si Si7 0.940770 0.566199 0.375615
Si Si8 0.671967 0.069309 0.879817
O O1 0.129685 0.750000 0.238782
O O2 0.199854 0.513350 0.224533
O O3 0.106307 0.506351 0.139623
O O4 0.108838 0.489119 0.313723
O O5 0.500000 0.500000 0.358245
O O6 0.562217 0.250000 0.341831
O O7 0.568300 0.470124 0.222946
O O8 0.607451 0.518333 0.379024
O O9 0.500000 0.500000 0.591148
O O10 0.548137 0.250000 0.661695
O O11 0.607395 0.454393 0.570326
O O12 0.730709 0.250000 0.199225
O O13 0.706373 0.528538 0.144753
O O14 0.707366 0.467773 0.312245
O O15 0.686262 0.750000 0.034316
O O16 0.694706 0.464819 0.977408
O O17 0.944765 0.750000 0.573576
O O18 0.927724 0.994153 0.474339
O O19 0.000000 0.000000 0.606018
O O20 0.944647 0.750000 0.373035
O O21 0.000000 0.500000 0.342323
O O22 0.678805 0.250000 0.856318
#
# Coordination Sequence:
#
# PCOD8181494 Si02
#       8
#     8   8   8   8   8   8   8   8
#     4  10  22  39  60  87 119 155 199 248 297 355
#     4  11  21  36  61  90 123 157 197 245 304 368
#     4  10  20  35  59  89 122 155 193 241 300 365
#     4  11  24  43  64  88 121 161 205 257 312 363
#     4  11  24  42  64  90 121 158 204 253 306 369
#     4   9  19  36  57  85 121 156 192 236 288 347
#     4  10  20  35  58  88 123 160 198 241 293 350
#     4  12  25  42  64  89 120 160 207 255 307 365
#
# _framework density 20.422546000000001
#
# number of rings (size 3 to 8) (size 9 to 14) (size 15 to 20)
#    0.000    1.500    1.250    4.875    0.000    6.000 
#    0.000    2.500    0.000    0.000    0.000    0.000 
#    0.000    0.000    0.000    0.000    0.000    0.000 
#
# Total GULP energy -396937.173660 kJ/mol
# GULP energy per Si atom -12404.286677 kJ/mol
# Density = 2.037606 g / cm^3
# Si number density = 20.422546 Si / 1000 Ang^3
#
#
#
# Elastic Constant Matrix: (Units=GPa)
#
#
# Indices 1 2 3 4 5 6 
#
# 1 127.4948 31.3867 53.4663 0.0000 0.0000 0.0000
# 2 31.3867 57.9144 16.0859 0.0000 0.0000 0.0000
# 3 53.4663 16.0859 104.1544 0.0000 0.0000 0.0000
# 4 0.0000 0.0000 0.0000 24.5446 0.0000 0.0000
# 5 0.0000 0.0000 0.0000 0.0000 1.9597 0.0000
# 6 0.0000 0.0000 0.0000 0.0000 0.0000 29.9480
#
#
#
# Elastic Compliance Matrix: (Units=1/GPa)
#
#
# Indices 1 2 3 4 5 6 
#
# 1 0.011062 -0.004616 -0.004966 0.000000 0.000000 0.000000
# 2 -0.004616 0.019967 -0.000714 0.000000 0.000000 0.000000
# 3 -0.004966 -0.000714 0.012261 0.000000 0.000000 0.000000
# 4 0.000000 0.000000 0.000000 0.040742 0.000000 0.000000
# 5 0.000000 0.000000 0.000000 0.000000 0.510276 0.000000
# 6 0.000000 0.000000 0.000000 0.000000 0.000000 0.033391
#
#
# Mechanical properties :
#
#
# Convention : Reuss Voigt Hill
#
# Bulk Modulus (GPa) = 44.05707 54.60460 49.33083
# Shear Modulus (GPa) = 7.62362 23.86545 15.74454
#
# Velocity S-wave (km/s) = 1.93418 3.42216 2.77959
# Velocity P-wave (km/s) = 5.15826 6.51233 5.87444
#
# Compressibility (1/GPa) = 0.02269783
#
# Stress axis : x y z
#
# Youngs Moduli (GPa) = 90.39759 50.08305 81.56251
#
# Poissons Ratio (x) = 0.23118 0.40502
# Poissons Ratio (y) = 0.41727 0.05825
# Poissons Ratio (z) = 0.44889 0.03577
#
# Static dielectric constant tensor:
#      x y z
#    x 3.858010 0.000000 0.000000 
#    y 0.000000 3.696640 0.000000 
#    z 0.000000 0.000000 3.732820 
# 
# 
# High freq. dielectric constant tensor:
#      x y z
#    x 1.795520 0.000000 0.000000 
#    y 0.000000 1.802390 0.000000 
#    z 0.000000 0.000000 1.802010 
# 
# From -- ./inp_files/10697.got.cif
#   From: 2010.03.12/outbox.cif.g09.slc.cpg/sg39_6_cif.got.tgz:10697.got - 2010.04.14 02:53:20.
