data_PCOD8181812
_publ_section_title
;
Structure prediction by ZEFSAII (Michael W. Deem and Ramdas Pophale) SiO2 
 PCOD8181812
Probable space group: A B M 2
;
_chemical_formula_sum "Si O2"
_cell_formula_units_Z 56
_cell_length_a 19.393294
_cell_length_b 8.626839
_cell_length_c 15.884165
_cell_angle_alpha 90.000000
_cell_angle_beta 90.000000
_cell_angle_gamma 90.000000
_cell_volume 2657.465678
_symmetry_space_group_name_H-M "A B M 2"
_symmetry_group_IT_number 39
_symmetry_cell_setting 'orthorhombic'
loop_
_space_group_symop_operation_xyz
x,y,z
-x,-y,z
-x,1/2+y,z
x,1/2-y,z
x,1/2+y,1/2+z
-x,1/2-y,1/2+z
-x,y,1/2+z
x,-y,1/2+z
loop_
_atom_site_type_symbol
_atom_site_label
_atom_site_fract_x
_atom_site_fract_y
_atom_site_fract_z
Si Si1 0.212349 0.571268 0.973790
Si Si2 0.657292 0.070727 0.207462
Si Si3 0.336228 0.431077 0.895062
Si Si4 0.928167 0.067510 0.207527
Si Si5 0.575489 0.931969 0.053645
Si Si6 0.930775 0.568890 0.389567
Si Si7 0.789969 0.930204 0.146331
O O1 0.222201 0.750000 0.998969
O O2 0.264218 0.525438 0.898900
O O3 0.133457 0.538772 0.949682
O O4 0.233760 0.460971 0.050863
O O5 0.650201 0.250000 0.183643
O O6 0.630249 0.038359 0.302798
O O7 0.614510 0.974204 0.139626
O O8 0.737449 0.020568 0.207014
O O9 0.320013 0.250000 0.906041
O O10 0.386241 0.493392 0.969311
O O11 0.927613 0.250000 0.194638
O O12 0.917799 0.024415 0.304376
O O13 0.866773 0.994446 0.154275
O O14 0.000000 0.000000 0.172448
O O15 0.569426 0.750000 0.049012
O O16 0.500000 0.000000 0.056133
O O17 0.940090 0.750000 0.368371
O O18 0.000000 0.500000 0.433131
O O19 0.787177 0.750000 0.168552
#
# Coordination Sequence:
#
# PCOD8181812 Si02
#       7
#     8   8   8   8   8   8   8
#     4  11  23  38  60  89 122 162 212 264 318 378
#     4  11  23  42  68  99 132 171 216 266 320 379
#     4  10  23  42  66  96 131 169 213 262 319 382
#     4  11  22  38  59  84 117 159 208 263 321 382
#     4  11  24  44  68  98 134 173 212 261 317 377
#     4  10  21  37  57  84 117 157 206 259 318 382
#     4  12  24  39  60  88 124 165 211 265 320 379
#
# _framework density 21.072709
#
# number of rings (size 3 to 8) (size 9 to 14) (size 15 to 20)
#    0.000    1.143    1.429    6.000    0.000    7.429 
#    0.000    2.857    0.000    0.000    0.000    0.000 
#    0.000    0.000    0.000    0.000    0.000    0.000 
#
# Total GULP energy -347286.959769 kJ/mol
# GULP energy per Si atom -12403.105706 kJ/mol
# Density = 2.102475 g / cm^3
# Si number density = 21.072709 Si / 1000 Ang^3
#
#
#
# Elastic Constant Matrix: (Units=GPa)
#
#
# Indices 1 2 3 4 5 6 
#
# 1 117.5334 22.5020 45.0651 0.0000 0.0000 0.0000
# 2 22.5020 60.7884 21.6951 0.0000 0.0000 0.0000
# 3 45.0651 21.6951 109.9774 0.0000 0.0000 0.0000
# 4 0.0000 0.0000 0.0000 31.7104 0.0000 0.0000
# 5 0.0000 0.0000 0.0000 0.0000 24.3115 0.0000
# 6 0.0000 0.0000 0.0000 0.0000 0.0000 36.2963
#
#
#
# Elastic Compliance Matrix: (Units=1/GPa)
#
#
# Indices 1 2 3 4 5 6 
#
# 1 0.010440 -0.002515 -0.003782 0.000000 0.000000 0.000000
# 2 -0.002515 0.018302 -0.002580 0.000000 0.000000 0.000000
# 3 -0.003782 -0.002580 0.011151 0.000000 0.000000 0.000000
# 4 0.000000 0.000000 0.000000 0.031535 0.000000 0.000000
# 5 0.000000 0.000000 0.000000 0.000000 0.041133 0.000000
# 6 0.000000 0.000000 0.000000 0.000000 0.000000 0.027551
#
#
# Mechanical properties :
#
#
# Convention : Reuss Voigt Hill
#
# Bulk Modulus (GPa) = 45.16665 51.86929 48.51797
# Shear Modulus (GPa) = 30.25801 31.73277 30.99539
#
# Velocity S-wave (km/s) = 3.79342 3.88476 3.83936
# Velocity P-wave (km/s) = 6.37706 6.69251 6.53669
#
# Compressibility (1/GPa) = 0.02214023
#
# Stress axis : x y z
#
# Youngs Moduli (GPa) = 95.78827 54.63832 89.67514
#
# Poissons Ratio (x) = 0.13740 0.33913
# Poissons Ratio (y) = 0.24088 0.23136
# Poissons Ratio (z) = 0.36225 0.14097
#
# Static dielectric constant tensor:
#      x y z
#    x 4.012880 0.000000 0.000000 
#    y 0.000000 3.807810 0.000000 
#    z 0.000000 0.000000 3.790600 
# 
# 
# High freq. dielectric constant tensor:
#      x y z
#    x 1.828700 0.000000 0.000000 
#    y 0.000000 1.833490 0.000000 
#    z 0.000000 0.000000 1.826540 
# 
# From -- ./inp_files/10326.got.cif
#   From: 2010.03.12/outbox.cif.g09.slc.cpg/sg39_6_cif.got.tgz:10326.got - 2010.04.14 02:53:20.
