data_PCOD8181167
_publ_section_title
;
Structure prediction by ZEFSAII (Michael W. Deem and Ramdas Pophale) SiO2 
 PCOD8181167
Probable space group: A B M 2
;
_chemical_formula_sum "Si O2"
_cell_formula_units_Z 64
_cell_length_a 12.414409
_cell_length_b 13.952911
_cell_length_c 18.229944
_cell_angle_alpha 90.000000
_cell_angle_beta 90.000000
_cell_angle_gamma 90.000000
_cell_volume 3157.738833
_symmetry_space_group_name_H-M "A B M 2"
_symmetry_group_IT_number 39
_symmetry_cell_setting 'orthorhombic'
loop_
_space_group_symop_operation_xyz
x,y,z
-x,-y,z
-x,1/2+y,z
x,1/2-y,z
x,1/2+y,1/2+z
-x,1/2-y,1/2+z
-x,y,1/2+z
x,-y,1/2+z
loop_
_atom_site_type_symbol
_atom_site_label
_atom_site_fract_x
_atom_site_fract_y
_atom_site_fract_z
Si Si1 0.375809 0.477898 0.880400
Si Si2 0.058758 0.860194 0.712931
Si Si3 0.834701 0.355839 0.155464
Si Si4 0.402208 0.638160 0.673944
Si Si5 0.381443 0.142588 0.742248
Si Si6 0.693148 0.364801 0.519569
Si Si7 0.750560 0.361569 0.809489
Si Si8 0.114025 0.027093 0.068319
O O1 0.500000 0.500000 0.869830
O O2 0.341552 0.410879 0.813982
O O3 0.298056 0.572562 0.875349
O O4 0.367954 0.418802 0.955052
O O5 0.086380 0.750000 0.695586
O O6 0.124014 0.886074 0.788476
O O7 0.102699 0.920640 0.645765
O O8 0.929469 0.879887 0.716137
O O9 0.859090 0.250000 0.124386
O O10 0.718466 0.360009 0.189210
O O11 0.831017 0.425208 0.085525
O O12 0.417134 0.750000 0.663215
O O13 0.517253 0.594078 0.699709
O O14 0.362013 0.599045 0.595277
O O15 0.315264 0.613029 0.735741
O O16 0.413855 0.250000 0.765599
O O17 0.691771 0.250000 0.509085
O O18 0.815744 0.404711 0.516079
O O19 0.736551 0.250000 0.832527
O O20 0.000000 0.000000 0.030510
#
# Coordination Sequence:
#
# PCOD8181167 Si02
#       8
#     8   8   8   8   8   8   8   8
#     4  12  25  39  57  87 121 164 198 247 315 377
#     4   9  16  31  58  90 117 148 200 258 303 347
#     4   9  19  32  53  89 126 156 194 253 309 351
#     4   9  18  35  63  88 111 148 198 249 293 348
#     4  10  20  36  57  85 122 160 198 247 305 365
#     4  11  24  42  62  91 124 160 207 256 308 370
#     4  10  19  36  62  89 115 154 206 253 298 360
#     4  10  19  34  58  86 117 157 201 251 306 363
#
# _framework density 20.267669000000001
#
# number of rings (size 3 to 8) (size 9 to 14) (size 15 to 20)
#    0.000    2.000    2.500    1.500    0.000    2.000 
#    0.000    1.875    0.000    1.500    0.000    0.000 
#    0.000    0.000    0.000    0.000    0.000    0.000 
#
# Total GULP energy -396525.944350 kJ/mol
# GULP energy per Si atom -12391.435761 kJ/mol
# Density = 2.022154 g / cm^3
# Si number density = 20.267669 Si / 1000 Ang^3
#
#
#
# Elastic Constant Matrix: (Units=GPa)
#
#
# Indices 1 2 3 4 5 6 
#
# 1 79.9944 24.9529 2.8505 0.0000 0.0000 0.0000
# 2 24.9529 79.1468 29.3771 0.0000 0.0000 0.0000
# 3 2.8505 29.3771 51.9470 0.0000 0.0000 0.0000
# 4 0.0000 0.0000 0.0000 27.1190 0.0000 0.0000
# 5 0.0000 0.0000 0.0000 0.0000 9.7949 0.0000
# 6 0.0000 0.0000 0.0000 0.0000 0.0000 25.8862
#
#
#
# Elastic Compliance Matrix: (Units=1/GPa)
#
#
# Indices 1 2 3 4 5 6 
#
# 1 0.014060 -0.005248 0.002196 0.000000 0.000000 0.000000
# 2 -0.005248 0.017950 -0.009863 0.000000 0.000000 0.000000
# 3 0.002196 -0.009863 0.024708 0.000000 0.000000 0.000000
# 4 0.000000 0.000000 0.000000 0.036874 0.000000 0.000000
# 5 0.000000 0.000000 0.000000 0.000000 0.102094 0.000000
# 6 0.000000 0.000000 0.000000 0.000000 0.000000 0.038631
#
#
# Mechanical properties :
#
#
# Convention : Reuss Voigt Hill
#
# Bulk Modulus (GPa) = 32.37513 36.16102 34.26808
# Shear Modulus (GPa) = 18.48827 22.82056 20.65441
#
# Velocity S-wave (km/s) = 3.02355 3.35917 3.19577
# Velocity P-wave (km/s) = 5.31014 5.73810 5.52827
#
# Compressibility (1/GPa) = 0.03088790
#
# Stress axis : x y z
#
# Youngs Moduli (GPa) = 71.12592 55.70973 40.47321
#
# Poissons Ratio (x) = 0.29235 -0.08889
# Poissons Ratio (y) = 0.37325 0.39920
# Poissons Ratio (z) = -0.15621 0.54948
#
# Static dielectric constant tensor:
#      x y z
#    x 4.066630 0.000000 0.000000 
#    y 0.000000 4.096360 0.000000 
#    z 0.000000 0.000000 3.269630 
# 
# 
# High freq. dielectric constant tensor:
#      x y z
#    x 1.804130 0.000000 0.000000 
#    y 0.000000 1.810570 0.000000 
#    z 0.000000 0.000000 1.736000 
# 
# From -- ./inp_files/12363.got.cif
#   From: 2010.03.12/outbox.cif.g09.slc.cpg/sg39_7_cif.got.tgz:12363.got - 2010.04.14 02:53:20.
