data_PCOD8181921
_publ_section_title
;
Structure prediction by ZEFSAII (Michael W. Deem and Ramdas Pophale) SiO2 
 PCOD8181921
Probable space group: A B M 2
;
_chemical_formula_sum "Si O2"
_cell_formula_units_Z 56
_cell_length_a 9.043244
_cell_length_b 21.027368
_cell_length_c 15.328449
_cell_angle_alpha 90.000000
_cell_angle_beta 90.000000
_cell_angle_gamma 90.000000
_cell_volume 2914.790716
_symmetry_space_group_name_H-M "A B M 2"
_symmetry_group_IT_number 39
_symmetry_cell_setting 'orthorhombic'
loop_
_space_group_symop_operation_xyz
x,y,z
-x,-y,z
-x,1/2+y,z
x,1/2-y,z
x,1/2+y,1/2+z
-x,1/2-y,1/2+z
-x,y,1/2+z
x,-y,1/2+z
loop_
_atom_site_type_symbol
_atom_site_label
_atom_site_fract_x
_atom_site_fract_y
_atom_site_fract_z
Si Si1 0.654954 0.618251 0.312290
Si Si2 0.832621 0.622434 0.472370
Si Si3 0.342603 0.322054 0.806658
Si Si4 0.332819 0.506558 0.927307
Si Si5 0.144279 0.676342 0.154158
Si Si6 0.811134 0.826363 0.147712
Si Si7 0.180715 0.125390 0.958492
O O1 0.754124 0.653693 0.386957
O O2 0.485272 0.636044 0.326184
O O3 0.667068 0.541808 0.331274
O O4 0.706442 0.638740 0.216798
O O5 0.762639 0.552557 0.491294
O O6 0.797815 0.665006 0.556477
O O7 0.005864 0.617871 0.454520
O O8 0.392120 0.250000 0.786334
O O9 0.256090 0.353795 0.724497
O O10 0.233544 0.321575 0.889878
O O11 0.500000 0.500000 0.962786
O O12 0.254019 0.439361 0.925028
O O13 0.138393 0.750000 0.174092
O O14 0.978076 0.650004 0.166251
O O15 0.793360 0.750000 0.151631
O O16 0.762736 0.852349 0.053205
#
# Coordination Sequence:
#
# PCOD8181921 Si02
#       7
#     8   8   8   8   8   8   8
#     4  10  22  38  58  88 123 161 199 241 300 361
#     4   9  21  38  63  88 116 162 196 254 300 351
#     4  11  22  36  59  89 123 160 197 249 301 360
#     4  10  21  41  58  85 121 158 200 245 294 358
#     4   9  20  38  60  90 122 154 200 250 305 360
#     4  10  21  39  62  92 123 156 202 255 304 359
#     4  11  20  40  64  87 121 152 210 248 300 359
#
# _framework density 19.212356
#
# number of rings (size 3 to 8) (size 9 to 14) (size 15 to 20)
#    0.857    1.143    1.429    2.143    0.000    4.000 
#    2.571    2.143    3.143    0.000    0.000    0.000 
#    0.000    0.000    0.000    0.000    0.000    0.000 
#
# Total GULP energy -347006.098268 kJ/mol
# GULP energy per Si atom -12393.074938 kJ/mol
# Density = 1.916863 g / cm^3
# Si number density = 19.212356 Si / 1000 Ang^3
#
#
#
# Elastic Constant Matrix: (Units=GPa)
#
#
# Indices 1 2 3 4 5 6 
#
# 1 118.6280 28.3437 68.2522 0.0000 0.0000 0.0000
# 2 28.3437 66.6666 29.1598 0.0000 0.0000 0.0000
# 3 68.2522 29.1598 134.4358 0.0000 0.0000 0.0000
# 4 0.0000 0.0000 0.0000 29.5749 0.0000 0.0000
# 5 0.0000 0.0000 0.0000 0.0000 26.1951 0.0000
# 6 0.0000 0.0000 0.0000 0.0000 0.0000 26.4827
#
#
#
# Elastic Compliance Matrix: (Units=1/GPa)
#
#
# Indices 1 2 3 4 5 6 
#
# 1 0.012355 -0.002772 -0.005671 0.000000 0.000000 0.000000
# 2 -0.002772 0.017194 -0.002322 0.000000 0.000000 0.000000
# 3 -0.005671 -0.002322 0.010821 0.000000 0.000000 0.000000
# 4 0.000000 0.000000 0.000000 0.033812 0.000000 0.000000
# 5 0.000000 0.000000 0.000000 0.000000 0.038175 0.000000
# 6 0.000000 0.000000 0.000000 0.000000 0.000000 0.037760
#
#
# Mechanical properties :
#
#
# Convention : Reuss Voigt Hill
#
# Bulk Modulus (GPa) = 53.07962 63.47132 58.27547
# Shear Modulus (GPa) = 28.10097 29.38219 28.74158
#
# Velocity S-wave (km/s) = 3.82861 3.91492 3.87201
# Velocity P-wave (km/s) = 6.87257 7.31737 7.09845
#
# Compressibility (1/GPa) = 0.01883962
#
# Stress axis : x y z
#
# Youngs Moduli (GPa) = 80.93880 58.15878 92.40921
#
# Poissons Ratio (x) = 0.16123 0.52408
# Poissons Ratio (y) = 0.22438 0.21458
# Poissons Ratio (z) = 0.45902 0.13505
#
# Static dielectric constant tensor:
#      x y z
#    x 3.658670 0.000000 0.000000 
#    y 0.000000 3.312270 0.000000 
#    z 0.000000 0.000000 3.497200 
# 
# 
# High freq. dielectric constant tensor:
#      x y z
#    x 1.760040 0.000000 0.000000 
#    y 0.000000 1.732330 0.000000 
#    z 0.000000 0.000000 1.740830 
# 
# From -- ./inp_files/8614.got.cif
#   From: 2010.03.12/outbox.cif.g09.slc.cpg/sg39_5_cif.got.tgz:8614.got - 2010.04.14 02:53:20.
