data_PCOD8181716
_publ_section_title
;
Structure prediction by ZEFSAII (Michael W. Deem and Ramdas Pophale) SiO2 
 PCOD8181716
Probable space group: A B M 2
;
_chemical_formula_sum "Si O2"
_cell_formula_units_Z 48
_cell_length_a 8.685079
_cell_length_b 10.069427
_cell_length_c 27.483157
_cell_angle_alpha 90.000000
_cell_angle_beta 90.000000
_cell_angle_gamma 90.000000
_cell_volume 2403.505663
_symmetry_space_group_name_H-M "A B M 2"
_symmetry_group_IT_number 39
_symmetry_cell_setting 'orthorhombic'
loop_
_space_group_symop_operation_xyz
x,y,z
-x,-y,z
-x,1/2+y,z
x,1/2-y,z
x,1/2+y,1/2+z
-x,1/2-y,1/2+z
-x,y,1/2+z
x,-y,1/2+z
loop_
_atom_site_type_symbol
_atom_site_label
_atom_site_fract_x
_atom_site_fract_y
_atom_site_fract_z
Si Si1 0.829870 0.250000 0.569860
Si Si2 0.318869 0.516348 0.628850
Si Si3 0.135045 0.900942 0.828219
Si Si4 0.321177 0.983506 0.917742
Si Si5 0.289899 0.750000 0.465883
Si Si6 0.809584 0.750000 0.590354
Si Si7 0.348277 0.750000 0.986412
Si Si8 0.138846 0.902147 0.718036
O O1 0.745203 0.380524 0.589486
O O2 0.822021 0.250000 0.511821
O O3 0.008211 0.250000 0.583402
O O4 0.500000 0.500000 0.621672
O O5 0.234562 0.377309 0.621720
O O6 0.283243 0.568510 0.683152
O O7 0.076178 0.750000 0.833573
O O8 0.194188 0.927102 0.773333
O O9 0.271137 0.930458 0.865343
O O10 0.000000 0.000000 0.842324
O O11 0.246907 0.123528 0.932769
O O12 0.500000 0.000000 0.912526
O O13 0.279685 0.878989 0.959861
O O14 0.466097 0.750000 0.484774
O O15 0.711234 0.750000 0.541062
O O16 0.083341 0.750000 0.710597
O O17 0.000000 0.000000 0.704073
#
# Coordination Sequence:
#
# PCOD8181716 Si02
#       8
#     4   8   8   8   4   4   4   8
#     4  12  24  44  63  94 127 164 213 258 310 374
#     4  12  25  42  65  94 127 165 208 258 314 374
#     4  10  22  40  63  91 125 164 206 256 310 368
#     4  10  21  38  62  89 122 165 206 252 310 366
#     4  10  22  36  61  90 125 162 207 258 308 372
#     4  12  26  40  67  94 125 166 209 260 314 372
#     4  10  20  40  59  88 123 166 209 254 312 364
#     4  10  22  42  66  92 124 164 209 260 315 373
#
# _framework density 19.970827
#
# number of rings (size 3 to 8) (size 9 to 14) (size 15 to 20)
#    0.000    1.333    1.667    4.000    2.333    3.333 
#    0.000    0.000    0.000    0.000    0.000    0.000 
#    0.000    0.000    0.000    0.000    0.000    0.000 
#
# Total GULP energy -297677.925020 kJ/mol
# GULP energy per Si atom -12403.246876 kJ/mol
# Density = 1.992537 g / cm^3
# Si number density = 19.970827 Si / 1000 Ang^3
#
#
#
# Elastic Constant Matrix: (Units=GPa)
#
#
# Indices 1 2 3 4 5 6 
#
# 1 83.0125 36.1547 27.9804 0.0000 0.0000 0.0000
# 2 36.1547 154.7273 38.5730 0.0000 0.0000 0.0000
# 3 27.9804 38.5730 101.2511 0.0000 0.0000 0.0000
# 4 0.0000 0.0000 0.0000 30.3310 0.0000 0.0000
# 5 0.0000 0.0000 0.0000 0.0000 31.5685 0.0000
# 6 0.0000 0.0000 0.0000 0.0000 0.0000 28.3938
#
#
#
# Elastic Compliance Matrix: (Units=1/GPa)
#
#
# Indices 1 2 3 4 5 6 
#
# 1 0.014157 -0.002577 -0.002930 0.000000 0.000000 0.000000
# 2 -0.002577 0.007610 -0.002187 0.000000 0.000000 0.000000
# 3 -0.002930 -0.002187 0.011519 0.000000 0.000000 0.000000
# 4 0.000000 0.000000 0.000000 0.032970 0.000000 0.000000
# 5 0.000000 0.000000 0.000000 0.000000 0.031677 0.000000
# 6 0.000000 0.000000 0.000000 0.000000 0.000000 0.035219
#
#
# Mechanical properties :
#
#
# Convention : Reuss Voigt Hill
#
# Bulk Modulus (GPa) = 55.87516 60.48967 58.18241
# Shear Modulus (GPa) = 32.36094 33.81084 33.08589
#
# Velocity S-wave (km/s) = 4.02980 4.11909 4.07469
# Velocity P-wave (km/s) = 7.04922 7.27855 7.16480
#
# Compressibility (1/GPa) = 0.01789704
#
# Stress axis : x y z
#
# Youngs Moduli (GPa) = 70.63834 131.39793 86.81025
#
# Poissons Ratio (x) = 0.33867 0.25437
# Poissons Ratio (y) = 0.18207 0.18986
# Poissons Ratio (z) = 0.20699 0.28737
#
# Static dielectric constant tensor:
#      x y z
#    x 3.406520 0.000000 0.000000 
#    y 0.000000 4.317110 0.000000 
#    z 0.000000 0.000000 3.707960 
# 
# 
# High freq. dielectric constant tensor:
#      x y z
#    x 1.759860 0.000000 0.000000 
#    y 0.000000 1.804360 0.000000 
#    z 0.000000 0.000000 1.790980 
# 
# From -- ./inp_files/17683.got.cif
#   From: 2010.03.12/outbox.cif.g09.slc.cpg/sg39_9_cif.got.tgz:17683.got - 2010.04.14 02:53:20.
