data_PCOD8181379
_publ_section_title
;
Structure prediction by ZEFSAII (Michael W. Deem and Ramdas Pophale) SiO2 
 PCOD8181379
Probable space group: A B M 2
;
_chemical_formula_sum "Si O2"
_cell_formula_units_Z 56
_cell_length_a 15.218754
_cell_length_b 8.950411
_cell_length_c 20.096763
_cell_angle_alpha 90.000000
_cell_angle_beta 90.000000
_cell_angle_gamma 90.000000
_cell_volume 2737.462549
_symmetry_space_group_name_H-M "A B M 2"
_symmetry_group_IT_number 39
_symmetry_cell_setting 'orthorhombic'
loop_
_space_group_symop_operation_xyz
x,y,z
-x,-y,z
-x,1/2+y,z
x,1/2-y,z
x,1/2+y,1/2+z
-x,1/2-y,1/2+z
-x,y,1/2+z
x,-y,1/2+z
loop_
_atom_site_type_symbol
_atom_site_label
_atom_site_fract_x
_atom_site_fract_y
_atom_site_fract_z
Si Si1 0.274966 0.575119 0.107360
Si Si2 0.853349 0.419205 0.300843
Si Si3 0.679186 0.426900 0.841241
Si Si4 0.588269 0.574063 0.722167
Si Si5 0.277736 0.572140 0.473889
Si Si6 0.915579 0.416652 0.443241
Si Si7 0.912867 0.423950 0.157709
O O1 0.278958 0.750000 0.090846
O O2 0.332586 0.537011 0.171808
O O3 0.175151 0.520617 0.120619
O O4 0.313892 0.483494 0.044829
O O5 0.814377 0.250000 0.292119
O O6 0.774348 0.533353 0.312121
O O7 0.919308 0.423327 0.363022
O O8 0.905865 0.467419 0.235416
O O9 0.666907 0.250000 0.844612
O O10 0.606304 0.498435 0.793390
O O11 0.666433 0.496576 0.914866
O O12 0.500000 0.500000 0.692769
O O13 0.575444 0.750000 0.731168
O O14 0.284446 0.750000 0.466360
O O15 0.176636 0.514805 0.468095
O O16 0.923119 0.250000 0.470262
O O17 0.000000 0.500000 0.473250
O O18 0.924439 0.250000 0.147558
O O19 0.000000 0.500000 0.127382
#
# Coordination Sequence:
#
# PCOD8181379 Si02
#       7
#     8   8   8   8   8   8   8
#     4  10  22  41  62  86 124 166 203 251 306 364
#     4   9  17  33  52  76 115 157 197 249 310 355
#     4  11  21  36  62  93 120 153 200 247 301 364
#     4  11  23  43  69  97 128 158 196 247 306 366
#     4  10  22  39  59  83 118 161 204 253 307 361
#     4   9  18  30  48  74 108 151 200 252 303 355
#     4  10  20  34  53  81 119 164 207 253 305 357
#
# _framework density 20.456901999999999
#
# number of rings (size 3 to 8) (size 9 to 14) (size 15 to 20)
#    0.000    2.000    1.429    3.429    0.000    5.714 
#    0.000    3.571    0.000    1.714    0.000    0.000 
#    0.000    0.000    0.000    0.000    0.000    0.000 
#
# Total GULP energy -347207.425832 kJ/mol
# GULP energy per Si atom -12400.265208 kJ/mol
# Density = 2.041034 g / cm^3
# Si number density = 20.456902 Si / 1000 Ang^3
#
#
#
# Elastic Constant Matrix: (Units=GPa)
#
#
# Indices 1 2 3 4 5 6 
#
# 1 82.5238 39.1128 27.5984 0.0000 0.0000 0.0000
# 2 39.1128 98.4004 49.9879 0.0000 0.0000 0.0000
# 3 27.5984 49.9879 114.0287 0.0000 0.0000 0.0000
# 4 0.0000 0.0000 0.0000 30.4075 0.0000 0.0000
# 5 0.0000 0.0000 0.0000 0.0000 8.3404 0.0000
# 6 0.0000 0.0000 0.0000 0.0000 0.0000 33.0603
#
#
#
# Elastic Compliance Matrix: (Units=1/GPa)
#
#
# Indices 1 2 3 4 5 6 
#
# 1 0.015082 -0.005327 -0.001315 0.000000 0.000000 0.000000
# 2 -0.005327 0.014956 -0.005267 0.000000 0.000000 0.000000
# 3 -0.001315 -0.005267 0.011397 0.000000 0.000000 0.000000
# 4 0.000000 0.000000 0.000000 0.032887 0.000000 0.000000
# 5 0.000000 0.000000 0.000000 0.000000 0.119898 0.000000
# 6 0.000000 0.000000 0.000000 0.000000 0.000000 0.030248
#
#
# Mechanical properties :
#
#
# Convention : Reuss Voigt Hill
#
# Bulk Modulus (GPa) = 56.76406 58.70568 57.73487
# Shear Modulus (GPa) = 19.67283 26.24523 22.95903
#
# Velocity S-wave (km/s) = 3.10445 3.58572 3.35373
# Velocity P-wave (km/s) = 6.37640 6.77515 6.57880
#
# Compressibility (1/GPa) = 0.01761678
#
# Stress axis : x y z
#
# Youngs Moduli (GPa) = 66.30304 66.86480 87.74272
#
# Poissons Ratio (x) = 0.35618 0.11540
# Poissons Ratio (y) = 0.35319 0.46214
# Poissons Ratio (z) = 0.08720 0.35217
#
# Static dielectric constant tensor:
#      x y z
#    x 3.529230 0.000000 0.000000 
#    y 0.000000 3.553880 0.000000 
#    z 0.000000 0.000000 3.737810 
# 
# 
# High freq. dielectric constant tensor:
#      x y z
#    x 1.777440 0.000000 0.000000 
#    y 0.000000 1.792930 0.000000 
#    z 0.000000 0.000000 1.803680 
# 
# From -- ./inp_files/14767.got.cif
#   From: 2010.03.12/outbox.cif.g09.slc.cpg/sg39_8_cif.got.tgz:14767.got - 2010.04.14 02:53:20.
