data_PCOD8181825
_publ_section_title
;
Structure prediction by ZEFSAII (Michael W. Deem and Ramdas Pophale) SiO2 
 PCOD8181825
Probable space group: A B M 2
;
_chemical_formula_sum "Si O2"
_cell_formula_units_Z 48
_cell_length_a 4.929864
_cell_length_b 16.819481
_cell_length_c 27.142925
_cell_angle_alpha 90.000000
_cell_angle_beta 90.000000
_cell_angle_gamma 90.000000
_cell_volume 2250.630375
_symmetry_space_group_name_H-M "A B M 2"
_symmetry_group_IT_number 39
_symmetry_cell_setting 'orthorhombic'
loop_
_space_group_symop_operation_xyz
x,y,z
-x,-y,z
-x,1/2+y,z
x,1/2-y,z
x,1/2+y,1/2+z
-x,1/2-y,1/2+z
-x,y,1/2+z
x,-y,1/2+z
loop_
_atom_site_type_symbol
_atom_site_label
_atom_site_fract_x
_atom_site_fract_y
_atom_site_fract_z
Si Si1 0.255491 0.054337 0.818810
Si Si2 0.909026 0.338010 0.123426
Si Si3 0.088598 0.659135 0.407355
Si Si4 0.398048 0.661082 0.558824
Si Si5 0.570691 0.590419 0.460107
Si Si6 0.747707 0.947775 0.711262
O O1 0.163982 0.126506 0.853532
O O2 0.345686 0.088536 0.764607
O O3 0.500000 0.000000 0.841197
O O4 0.000000 0.000000 0.813702
O O5 0.020287 0.250000 0.136373
O O6 0.612205 0.332779 0.101921
O O7 0.872040 0.384786 0.173806
O O8 0.123752 0.375579 0.083849
O O9 0.991426 0.750000 0.402583
O O10 0.365192 0.653732 0.437321
O O11 0.867892 0.608687 0.438387
O O12 0.337750 0.750000 0.537249
O O13 0.534298 0.603157 0.518578
O O14 0.500000 0.500000 0.446376
O O15 0.500000 0.000000 0.688323
O O16 0.000000 0.000000 0.725642
#
# Coordination Sequence:
#
# PCOD8181825 Si02
#       6
#     8   8   8   8   8   8
#     4  10  21  39  61  86 120 158 198 247 303 360
#     4  10  21  37  59  84 116 154 193 241 297 352
#     4  12  24  40  63  90 120 158 201 252 309 372
#     4  10  21  38  58  84 117 154 194 243 298 354
#     4  12  25  41  62  89 120 158 203 253 309 373
#     4  10  21  37  59  87 119 156 196 244 297 353
#
# _framework density 21.327359999999999
#
# number of rings (size 3 to 8) (size 9 to 14) (size 15 to 20)
#    0.000    1.333    0.000    6.500    0.000    4.000 
#    0.000    0.000    0.000   10.000    0.000    0.000 
#    0.000    0.000    0.000    0.000    0.000    0.000 
#
# Total GULP energy -297398.775212 kJ/mol
# GULP energy per Si atom -12391.615634 kJ/mol
# Density = 2.127882 g / cm^3
# Si number density = 21.327360 Si / 1000 Ang^3
#
#
#
# Elastic Constant Matrix: (Units=GPa)
#
#
# Indices 1 2 3 4 5 6 
#
# 1 101.8984 12.4067 25.5248 0.0000 0.0000 0.0000
# 2 12.4067 89.5951 49.5549 0.0000 0.0000 0.0000
# 3 25.5248 49.5549 124.1361 0.0000 0.0000 0.0000
# 4 0.0000 0.0000 0.0000 38.9659 0.0000 0.0000
# 5 0.0000 0.0000 0.0000 0.0000 37.0162 0.0000
# 6 0.0000 0.0000 0.0000 0.0000 0.0000 29.8011
#
#
#
# Elastic Compliance Matrix: (Units=1/GPa)
#
#
# Indices 1 2 3 4 5 6 
#
# 1 0.010354 -0.000329 -0.001998 0.000000 0.000000 0.000000
# 2 -0.000329 0.014334 -0.005655 0.000000 0.000000 0.000000
# 3 -0.001998 -0.005655 0.010724 0.000000 0.000000 0.000000
# 4 0.000000 0.000000 0.000000 0.025663 0.000000 0.000000
# 5 0.000000 0.000000 0.000000 0.000000 0.027015 0.000000
# 6 0.000000 0.000000 0.000000 0.000000 0.000000 0.033556
#
#
# Mechanical properties :
#
#
# Convention : Reuss Voigt Hill
#
# Bulk Modulus (GPa) = 51.41419 54.51136 52.96278
# Shear Modulus (GPa) = 34.69991 36.36620 35.53305
#
# Velocity S-wave (km/s) = 4.03800 4.13382 4.08619
# Velocity P-wave (km/s) = 6.77496 6.95697 6.86657
#
# Compressibility (1/GPa) = 0.01944988
#
# Stress axis : x y z
#
# Youngs Moduli (GPa) = 96.57954 69.76206 93.25072
#
# Poissons Ratio (x) = 0.02294 0.18629
# Poissons Ratio (y) = 0.03176 0.52730
# Poissons Ratio (z) = 0.19294 0.39448
#
# Static dielectric constant tensor:
#      x y z
#    x 3.955440 0.000000 0.000000 
#    y 0.000000 3.692840 0.000000 
#    z 0.000000 0.000000 4.182440 
# 
# 
# High freq. dielectric constant tensor:
#      x y z
#    x 1.855260 0.000000 0.000000 
#    y 0.000000 1.809080 0.000000 
#    z 0.000000 0.000000 1.846240 
# 
# From -- ./inp_files/16500.got.cif
#   From: 2010.03.12/outbox.cif.g09.slc.cpg/sg39_9_cif.got.tgz:16500.got - 2010.04.14 02:53:20.
