data_PCOD8181296
_publ_section_title
;
Structure prediction by ZEFSAII (Michael W. Deem and Ramdas Pophale) SiO2 
 PCOD8181296
Probable space group: A B M 2
;
_chemical_formula_sum "Si O2"
_cell_formula_units_Z 36
_cell_length_a 11.438743
_cell_length_b 9.074383
_cell_length_c 17.834795
_cell_angle_alpha 90.000000
_cell_angle_beta 90.000000
_cell_angle_gamma 90.000000
_cell_volume 1851.243428
_symmetry_space_group_name_H-M "A B M 2"
_symmetry_group_IT_number 39
_symmetry_cell_setting 'orthorhombic'
loop_
_space_group_symop_operation_xyz
x,y,z
-x,-y,z
-x,1/2+y,z
x,1/2-y,z
x,1/2+y,1/2+z
-x,1/2-y,1/2+z
-x,y,1/2+z
x,-y,1/2+z
loop_
_atom_site_type_symbol
_atom_site_label
_atom_site_fract_x
_atom_site_fract_y
_atom_site_fract_z
Si Si1 0.379379 0.920749 0.878860
Si Si2 0.786338 0.082935 0.266653
Si Si3 0.000000 0.000000 0.364244
Si Si4 0.826630 0.909406 0.486082
Si Si5 0.880060 0.424245 0.631093
O O1 0.398134 0.750000 0.856711
O O2 0.302007 0.935071 0.953599
O O3 0.500000 0.000000 0.897488
O O4 0.316616 0.006084 0.812059
O O5 0.750191 0.250000 0.248803
O O6 0.787727 0.990802 0.189369
O O7 0.910092 0.088115 0.311133
O O8 0.920859 0.899585 0.418601
O O9 0.833698 0.750000 0.527018
O O10 0.850067 0.038906 0.544984
O O11 0.888625 0.250000 0.640360
O O12 0.000000 0.500000 0.654090
#
# Coordination Sequence:
#
# PCOD8181296 Si02
#       5
#     8   8   4   8   8
#     4  10  22  41  64  89 118 153 200 248 295 348
#     4  11  22  37  60  87 120 157 197 244 296 350
#     4  10  20  32  58  86 120 150 196 236 294 354
#     4  10  21  37  58  86 119 153 195 242 292 351
#     4  12  24  37  56  85 123 160 196 238 294 358
#
# _framework density 19.446389
#
# number of rings (size 3 to 8) (size 9 to 14) (size 15 to 20)
#    0.000    1.333    2.222    4.000    0.000    6.222 
#    0.000    1.111    0.000    2.667    0.000    0.000 
#    0.000    0.000    0.000    0.000    0.000    0.000 
#
# Total GULP energy -223155.882911 kJ/mol
# GULP energy per Si atom -12397.549051 kJ/mol
# Density = 1.940213 g / cm^3
# Si number density = 19.446389 Si / 1000 Ang^3
#
#
#
# Elastic Constant Matrix: (Units=GPa)
#
#
# Indices 1 2 3 4 5 6 
#
# 1 91.7535 32.4377 12.1118 0.0000 0.0000 0.0000
# 2 32.4377 172.8076 39.5262 0.0000 0.0000 0.0000
# 3 12.1118 39.5262 83.5437 0.0000 0.0000 0.0000
# 4 0.0000 0.0000 0.0000 28.4564 0.0000 0.0000
# 5 0.0000 0.0000 0.0000 0.0000 11.2449 0.0000
# 6 0.0000 0.0000 0.0000 0.0000 0.0000 26.0043
#
#
#
# Elastic Compliance Matrix: (Units=1/GPa)
#
#
# Indices 1 2 3 4 5 6 
#
# 1 0.011714 -0.002030 -0.000738 0.000000 0.000000 0.000000
# 2 -0.002030 0.006841 -0.002942 0.000000 0.000000 0.000000
# 3 -0.000738 -0.002942 0.013469 0.000000 0.000000 0.000000
# 4 0.000000 0.000000 0.000000 0.035141 0.000000 0.000000
# 5 0.000000 0.000000 0.000000 0.000000 0.088929 0.000000
# 6 0.000000 0.000000 0.000000 0.000000 0.000000 0.038455
#
#
# Mechanical properties :
#
#
# Convention : Reuss Voigt Hill
#
# Bulk Modulus (GPa) = 48.53583 57.36183 52.94883
# Shear Modulus (GPa) = 23.49216 30.74307 27.11761
#
# Velocity S-wave (km/s) = 3.47947 3.98038 3.73833
# Velocity P-wave (km/s) = 6.41523 7.11942 6.77648
#
# Compressibility (1/GPa) = 0.02060334
#
# Stress axis : x y z
#
# Youngs Moduli (GPa) = 85.36912 146.18138 74.24585
#
# Poissons Ratio (x) = 0.29676 0.05478
# Poissons Ratio (y) = 0.17330 0.21845
# Poissons Ratio (z) = 0.06298 0.43010
#
# Static dielectric constant tensor:
#      x y z
#    x 4.360710 0.000000 0.000000 
#    y 0.000000 3.534450 0.000000 
#    z 0.000000 0.000000 3.493280 
# 
# 
# High freq. dielectric constant tensor:
#      x y z
#    x 1.739650 0.000000 0.000000 
#    y 0.000000 1.768890 0.000000 
#    z 0.000000 0.000000 1.756890 
# 
# From -- ./inp_files/12054.got.cif
#   From: 2010.03.12/outbox.cif.g09.slc.cpg/sg39_7_cif.got.tgz:12054.got - 2010.04.14 02:53:20.
