data_PCOD8181314
_publ_section_title
;
Structure prediction by ZEFSAII (Michael W. Deem and Ramdas Pophale) SiO2 
 PCOD8181314
Probable space group: A B M 2
;
_chemical_formula_sum "Si O2"
_cell_formula_units_Z 64
_cell_length_a 20.756733
_cell_length_b 8.886982
_cell_length_c 18.733935
_cell_angle_alpha 90.000000
_cell_angle_beta 90.000000
_cell_angle_gamma 90.000000
_cell_volume 3455.749935
_symmetry_space_group_name_H-M "A B M 2"
_symmetry_group_IT_number 39
_symmetry_cell_setting 'orthorhombic'
loop_
_space_group_symop_operation_xyz
x,y,z
-x,-y,z
-x,1/2+y,z
x,1/2-y,z
x,1/2+y,1/2+z
-x,1/2-y,1/2+z
-x,y,1/2+z
x,-y,1/2+z
loop_
_atom_site_type_symbol
_atom_site_label
_atom_site_fract_x
_atom_site_fract_y
_atom_site_fract_z
Si Si1 0.435849 0.079966 0.731180
Si Si2 0.305805 0.922346 0.729895
Si Si3 0.939328 0.914304 0.478683
Si Si4 0.200762 0.070611 0.468772
Si Si5 0.436307 0.419731 0.561208
Si Si6 0.804172 0.428446 0.317566
Si Si7 0.062725 0.581990 0.809739
Si Si8 0.692689 0.921616 0.060724
O O1 0.432457 0.250000 0.760903
O O2 0.438122 0.081562 0.646184
O O3 0.500000 0.000000 0.761548
O O4 0.373701 0.987785 0.757995
O O5 0.299647 0.750000 0.755703
O O6 0.301964 0.933803 0.645149
O O7 0.248472 0.022867 0.760051
O O8 0.942154 0.750000 0.513111
O O9 0.869620 0.987485 0.495895
O O10 0.946457 0.906721 0.393998
O O11 0.000000 0.000000 0.513140
O O12 0.199592 0.250000 0.458171
O O13 0.217423 0.995813 0.393338
O O14 0.251547 0.022987 0.527732
O O15 0.500000 0.500000 0.530585
O O16 0.432689 0.250000 0.531382
O O17 0.375167 0.513242 0.533351
O O18 0.807672 0.250000 0.323116
O O19 0.873160 0.489226 0.290996
O O20 0.068531 0.750000 0.777251
O O21 0.000000 0.500000 0.776208
O O22 0.698981 0.750000 0.034556
#
# Coordination Sequence:
#
# PCOD8181314 Si02
#       8
#     8   8   8   8   8   8   8   8
#     4   9  16  27  45  70  97 126 162 203 246 290
#     4  10  20  34  51  73 102 133 166 207 252 296
#     4   8  15  26  43  67  93 122 156 196 239 283
#     4  10  20  34  51  73 102 133 165 204 250 297
#     4   9  16  27  45  69  97 127 161 203 246 288
#     4  11  21  33  51  75 102 133 169 207 249 297
#     4   9  16  28  46  70  98 127 162 204 249 292
#     4  10  20  33  51  75 101 131 167 206 249 297
#
# _framework density 18.519859
#
# number of rings (size 3 to 8) (size 9 to 14) (size 15 to 20)
#    0.000    2.500    0.000    4.125    0.000    8.000 
#    0.000    0.000    0.000    1.500    0.000    7.000 
#    0.000    0.000    0.000    0.000    0.000    0.000 
#
# Total GULP energy -396734.868565 kJ/mol
# GULP energy per Si atom -12397.964643 kJ/mol
# Density = 1.847771 g / cm^3
# Si number density = 18.519859 Si / 1000 Ang^3
#
#
#
# Elastic Constant Matrix: (Units=GPa)
#
#
# Indices 1 2 3 4 5 6 
#
# 1 162.3920 67.5719 27.3491 0.0000 0.0000 0.0000
# 2 67.5719 143.0916 21.4562 0.0000 0.0000 0.0000
# 3 27.3491 21.4562 15.7190 0.0000 0.0000 0.0000
# 4 0.0000 0.0000 0.0000 19.7816 0.0000 0.0000
# 5 0.0000 0.0000 0.0000 0.0000 19.5665 0.0000
# 6 0.0000 0.0000 0.0000 0.0000 0.0000 40.3809
#
#
#
# Elastic Compliance Matrix: (Units=1/GPa)
#
#
# Indices 1 2 3 4 5 6 
#
# 1 0.009366 -0.002489 -0.012898 0.000000 0.000000 0.000000
# 2 -0.002489 0.009448 -0.008567 0.000000 0.000000 0.000000
# 3 -0.012898 -0.008567 0.097752 0.000000 0.000000 0.000000
# 4 0.000000 0.000000 0.000000 0.050552 0.000000 0.000000
# 5 0.000000 0.000000 0.000000 0.000000 0.051108 0.000000
# 6 0.000000 0.000000 0.000000 0.000000 0.000000 0.024764
#
#
# Mechanical properties :
#
#
# Convention : Reuss Voigt Hill
#
# Bulk Modulus (GPa) = 14.56478 61.55078 38.05778
# Shear Modulus (GPa) = 15.93454 29.60082 22.76768
#
# Velocity S-wave (km/s) = 2.93644 4.00225 3.51003
# Velocity P-wave (km/s) = 4.40209 7.39354 6.08453
#
# Compressibility (1/GPa) = 0.06865879
#
# Stress axis : x y z
#
# Youngs Moduli (GPa) = 106.77234 105.83856 10.22997
#
# Poissons Ratio (x) = 0.26340 0.13195
# Poissons Ratio (y) = 0.26573 0.08764
# Poissons Ratio (z) = 1.37716 0.90670
#
# Static dielectric constant tensor:
#      x y z
#    x 3.695100 0.000000 0.000000 
#    y 0.000000 3.680930 0.000000 
#    z 0.000000 0.000000 2.761410 
# 
# 
# High freq. dielectric constant tensor:
#      x y z
#    x 1.739390 0.000000 0.000000 
#    y 0.000000 1.735970 0.000000 
#    z 0.000000 0.000000 1.647670 
# 
# From -- ./inp_files/13171.got.cif
#   From: 2010.03.12/outbox.cif.g09.slc.cpg/sg39_7_cif.got.tgz:13171.got - 2010.04.14 02:53:20.
