data_PCOD8181211
_publ_section_title
;
Structure prediction by ZEFSAII (Michael W. Deem and Ramdas Pophale) SiO2 
 PCOD8181211
Probable space group: A B M 2
;
_chemical_formula_sum "Si O2"
_cell_formula_units_Z 48
_cell_length_a 9.875547
_cell_length_b 17.631884
_cell_length_c 13.833186
_cell_angle_alpha 90.000000
_cell_angle_beta 90.000000
_cell_angle_gamma 90.000000
_cell_volume 2408.696584
_symmetry_space_group_name_H-M "A B M 2"
_symmetry_group_IT_number 39
_symmetry_cell_setting 'orthorhombic'
loop_
_space_group_symop_operation_xyz
x,y,z
-x,-y,z
-x,1/2+y,z
x,1/2-y,z
x,1/2+y,1/2+z
-x,1/2-y,1/2+z
-x,y,1/2+z
x,-y,1/2+z
loop_
_atom_site_type_symbol
_atom_site_label
_atom_site_fract_x
_atom_site_fract_y
_atom_site_fract_z
Si Si1 0.662384 0.661769 0.708160
Si Si2 0.769805 0.162914 0.525288
Si Si3 0.442059 0.918029 0.818284
Si Si4 0.480734 0.084319 0.536341
Si Si5 0.184674 0.161794 0.240528
Si Si6 0.092690 0.840014 0.332188
O O1 0.669738 0.750000 0.688098
O O2 0.551174 0.645426 0.790247
O O3 0.625336 0.624135 0.606745
O O4 0.804663 0.630294 0.749343
O O5 0.738312 0.250000 0.502067
O O6 0.625890 0.123082 0.533070
O O7 0.849862 0.154249 0.626499
O O8 0.861672 0.128569 0.437988
O O9 0.304848 0.896517 0.763294
O O10 0.500000 0.000000 0.785671
O O11 0.411733 0.915762 0.931635
O O12 0.500000 0.000000 0.575978
O O13 0.222326 0.250000 0.264299
O O14 0.057414 0.132951 0.303722
O O15 0.095917 0.750000 0.333747
#
# Coordination Sequence:
#
# PCOD8181211 Si02
#       6
#     8   8   8   8   8   8
#     4  11  21  36  61  89 116 154 204 251 300 354
#     4  10  19  35  60  87 119 158 201 251 310 360
#     4  11  23  38  59  86 121 158 201 249 299 356
#     4  11  23  37  59  86 125 158 203 250 302 359
#     4  10  21  37  61  91 119 159 204 249 303 361
#     4   9  20  37  58  88 125 155 197 256 305 353
#
# _framework density 19.927790999999999
#
# number of rings (size 3 to 8) (size 9 to 14) (size 15 to 20)
#    0.000    1.667    3.333    1.500    0.000    3.333 
#    0.000    4.167    0.000    2.000    0.000    0.000 
#    0.000    0.000    0.000    0.000    0.000    0.000 
#
# Total GULP energy -297550.664975 kJ/mol
# GULP energy per Si atom -12397.944374 kJ/mol
# Density = 1.988243 g / cm^3
# Si number density = 19.927791 Si / 1000 Ang^3
#
#
#
# Elastic Constant Matrix: (Units=GPa)
#
#
# Indices 1 2 3 4 5 6 
#
# 1 130.9943 45.6770 51.5564 0.0000 0.0000 0.0000
# 2 45.6770 67.6970 52.0004 0.0000 0.0000 0.0000
# 3 51.5564 52.0004 124.9751 0.0000 0.0000 0.0000
# 4 0.0000 0.0000 0.0000 24.9703 0.0000 0.0000
# 5 0.0000 0.0000 0.0000 0.0000 29.7906 0.0000
# 6 0.0000 0.0000 0.0000 0.0000 0.0000 14.2609
#
#
#
# Elastic Compliance Matrix: (Units=1/GPa)
#
#
# Indices 1 2 3 4 5 6 
#
# 1 0.010311 -0.005423 -0.001997 0.000000 0.000000 0.000000
# 2 -0.005423 0.024563 -0.007983 0.000000 0.000000 0.000000
# 3 -0.001997 -0.007983 0.012147 0.000000 0.000000 0.000000
# 4 0.000000 0.000000 0.000000 0.040048 0.000000 0.000000
# 5 0.000000 0.000000 0.000000 0.000000 0.033568 0.000000
# 6 0.000000 0.000000 0.000000 0.000000 0.000000 0.070122
#
#
# Mechanical properties :
#
#
# Convention : Reuss Voigt Hill
#
# Bulk Modulus (GPa) = 61.67348 69.12600 65.39974
# Shear Modulus (GPa) = 22.02940 25.43319 23.73130
#
# Velocity S-wave (km/s) = 3.32845 3.57636 3.45463
# Velocity P-wave (km/s) = 6.76662 7.19843 6.98586
#
# Compressibility (1/GPa) = 0.01621442
#
# Stress axis : x y z
#
# Youngs Moduli (GPa) = 96.98448 40.71191 82.32383
#
# Poissons Ratio (x) = 0.22078 0.16442
# Poissons Ratio (y) = 0.52594 0.65720
# Poissons Ratio (z) = 0.19370 0.32501
#
# Static dielectric constant tensor:
#      x y z
#    x 3.672060 0.000000 0.000000 
#    y 0.000000 3.525580 0.000000 
#    z 0.000000 0.000000 4.016600 
# 
# 
# High freq. dielectric constant tensor:
#      x y z
#    x 1.765290 0.000000 0.000000 
#    y 0.000000 1.759380 0.000000 
#    z 0.000000 0.000000 1.796260 
# 
# From -- ./inp_files/8313.got.cif
#   From: 2010.03.12/outbox.cif.g09.slc.cpg/sg39_5_cif.got.tgz:8313.got - 2010.04.14 02:53:20.
