data_PCOD8181274
_publ_section_title
;
Structure prediction by ZEFSAII (Michael W. Deem and Ramdas Pophale) SiO2 
 PCOD8181274
Probable space group: A B M 2
;
_chemical_formula_sum "Si O2"
_cell_formula_units_Z 64
_cell_length_a 18.868441
_cell_length_b 16.045375
_cell_length_c 9.456717
_cell_angle_alpha 90.000000
_cell_angle_beta 90.000000
_cell_angle_gamma 90.000000
_cell_volume 2863.032529
_symmetry_space_group_name_H-M "A B M 2"
_symmetry_group_IT_number 39
_symmetry_cell_setting 'orthorhombic'
loop_
_space_group_symop_operation_xyz
x,y,z
-x,-y,z
-x,1/2+y,z
x,1/2-y,z
x,1/2+y,1/2+z
-x,1/2-y,1/2+z
-x,y,1/2+z
x,-y,1/2+z
loop_
_atom_site_type_symbol
_atom_site_label
_atom_site_fract_x
_atom_site_fract_y
_atom_site_fract_z
Si Si1 0.431215 0.154115 0.757270
Si Si2 0.712985 0.344781 0.636010
Si Si3 0.046314 0.151585 0.767925
Si Si4 0.560106 0.654976 0.080201
Si Si5 0.765414 0.923589 0.393154
Si Si6 0.184996 0.656590 0.402703
Si Si7 0.084745 0.849024 0.953627
Si Si8 0.282015 0.920120 0.205931
O O1 0.413144 0.250000 0.714016
O O2 0.494507 0.114218 0.663975
O O3 0.363685 0.095162 0.739703
O O4 0.458324 0.149396 0.916544
O O5 0.705683 0.250000 0.582672
O O6 0.636180 0.389100 0.613766
O O7 0.735188 0.346926 0.799980
O O8 0.772694 0.388234 0.533279
O O9 0.055532 0.250000 0.776245
O O10 0.110386 0.112016 0.862896
O O11 0.052109 0.124067 0.604816
O O12 0.971202 0.124831 0.832480
O O13 0.565506 0.750000 0.134016
O O14 0.847397 0.905900 0.423876
O O15 0.723386 0.932060 0.538679
O O16 0.751347 0.002401 0.291962
O O17 0.168269 0.750000 0.450825
O O18 0.234892 0.657315 0.262105
O O19 0.102295 0.750000 0.948416
#
# Coordination Sequence:
#
# PCOD8181274 Si02
#       8
#     8   8   8   8   8   8   8   8
#     4  10  21  39  68  99 131 168 211 267 330 392
#     4  10  21  38  65  96 127 165 216 271 329 387
#     4   9  19  35  62  98 132 161 204 265 325 387
#     4   9  19  36  61  98 131 159 203 262 322 388
#     4  12  27  43  63  88 128 175 223 276 321 384
#     4  10  19  38  67  95 125 166 214 266 328 385
#     4  10  21  40  66  99 130 163 213 268 329 393
#     4  12  25  43  64  87 128 174 221 274 323 380
#
# _framework density 22.353921
#
# number of rings (size 3 to 8) (size 9 to 14) (size 15 to 20)
#    0.000    1.750    2.500    1.500    3.500    1.500 
#    0.000    1.250    0.000    0.000    0.000    0.000 
#    0.000    0.000    0.000    0.000    0.000    0.000 
#
# Total GULP energy -396614.200577 kJ/mol
# GULP energy per Si atom -12394.193768 kJ/mol
# Density = 2.230304 g / cm^3
# Si number density = 22.353921 Si / 1000 Ang^3
#
#
#
# Elastic Constant Matrix: (Units=GPa)
#
#
# Indices 1 2 3 4 5 6 
#
# 1 156.8700 22.2322 68.2155 0.0000 0.0000 0.0000
# 2 22.2322 29.8801 24.4346 0.0000 0.0000 0.0000
# 3 68.2155 24.4346 157.9041 0.0000 0.0000 0.0000
# 4 0.0000 0.0000 0.0000 19.5013 0.0000 0.0000
# 5 0.0000 0.0000 0.0000 0.0000 51.2034 0.0000
# 6 0.0000 0.0000 0.0000 0.0000 0.0000 22.4466
#
#
#
# Elastic Compliance Matrix: (Units=1/GPa)
#
#
# Indices 1 2 3 4 5 6 
#
# 1 0.008185 -0.003662 -0.002969 0.000000 0.000000 0.000000
# 2 -0.003662 0.039954 -0.004601 0.000000 0.000000 0.000000
# 3 -0.002969 -0.004601 0.008328 0.000000 0.000000 0.000000
# 4 0.000000 0.000000 0.000000 0.051279 0.000000 0.000000
# 5 0.000000 0.000000 0.000000 0.000000 0.019530 0.000000
# 6 0.000000 0.000000 0.000000 0.000000 0.000000 0.044550
#
#
# Mechanical properties :
#
#
# Convention : Reuss Voigt Hill
#
# Bulk Modulus (GPa) = 29.40928 63.82432 46.61680
# Shear Modulus (GPa) = 24.31634 33.94838 29.13236
#
# Velocity S-wave (km/s) = 3.30174 3.90125 3.61395
# Velocity P-wave (km/s) = 5.26499 6.99333 6.18978
#
# Compressibility (1/GPa) = 0.03400288
#
# Stress axis : x y z
#
# Youngs Moduli (GPa) = 122.17666 25.02885 120.08228
#
# Poissons Ratio (x) = 0.09165 0.35656
# Poissons Ratio (y) = 0.44739 0.55246
# Poissons Ratio (z) = 0.36278 0.11515
#
# Static dielectric constant tensor:
#      x y z
#    x 4.297940 0.000000 0.000000 
#    y 0.000000 3.732090 0.000000 
#    z 0.000000 0.000000 4.261650 
# 
# 
# High freq. dielectric constant tensor:
#      x y z
#    x 1.891870 0.000000 0.000000 
#    y 0.000000 1.842000 0.000000 
#    z 0.000000 0.000000 1.889210 
# 
# From -- ./inp_files/3861.got.cif
#   From: 2010.03.12/outbox.cif.g09.slc.cpg/sg39_2_cif.got.tgz:3861.got - 2010.04.14 02:53:20.
