data_PCOD8181707
_publ_section_title
;
Structure prediction by ZEFSAII (Michael W. Deem and Ramdas Pophale) SiO2 
 PCOD8181707
Probable space group: A B M 2
;
_chemical_formula_sum "Si O2"
_cell_formula_units_Z 56
_cell_length_a 12.074373
_cell_length_b 21.140591
_cell_length_c 11.275857
_cell_angle_alpha 90.000000
_cell_angle_beta 90.000000
_cell_angle_gamma 90.000000
_cell_volume 2878.268280
_symmetry_space_group_name_H-M "A B M 2"
_symmetry_group_IT_number 39
_symmetry_cell_setting 'orthorhombic'
loop_
_space_group_symop_operation_xyz
x,y,z
-x,-y,z
-x,1/2+y,z
x,1/2-y,z
x,1/2+y,1/2+z
-x,1/2-y,1/2+z
-x,y,1/2+z
x,-y,1/2+z
loop_
_atom_site_type_symbol
_atom_site_label
_atom_site_fract_x
_atom_site_fract_y
_atom_site_fract_z
Si Si1 0.407308 0.084398 0.531290
Si Si2 0.208701 0.927918 0.351037
Si Si3 0.976785 0.613896 0.329907
Si Si4 0.726822 0.177240 0.176754
Si Si5 0.964828 0.321363 0.082199
Si Si6 0.733350 0.435814 0.810301
Si Si7 0.651924 0.556209 0.067522
O O1 0.376488 0.144083 0.612665
O O2 0.350754 0.092802 0.404630
O O3 0.539411 0.085059 0.513950
O O4 0.363343 0.018995 0.587429
O O5 0.247174 0.861251 0.296172
O O6 0.242175 0.927354 0.488117
O O7 0.076651 0.937007 0.332822
O O8 0.271725 0.988169 0.296357
O O9 0.999386 0.653670 0.451391
O O10 0.858146 0.582144 0.342193
O O11 0.980636 0.648179 0.201119
O O12 0.697959 0.250000 0.208335
O O13 0.832135 0.173067 0.089778
O O14 0.006358 0.250000 0.086350
O O15 0.684669 0.408861 0.688654
#
# Coordination Sequence:
#
# PCOD8181707 Si02
#       7
#     8   8   8   8   8   8   8
#     4  10  21  37  60  89 113 159 201 251 309 361
#     4  10  22  37  57  91 121 161 197 245 315 365
#     4  11  21  36  60  88 125 165 202 253 310 362
#     4  10  20  39  61  82 119 164 206 243 294 366
#     4  10  21  37  58  85 122 167 212 249 294 368
#     4  11  21  37  59  92 124 153 201 260 312 364
#     4  10  22  36  63  87 123 151 201 260 306 370
#
# _framework density 19.456143999999998
#
# number of rings (size 3 to 8) (size 9 to 14) (size 15 to 20)
#    0.000    1.714    2.857    1.714    2.000    1.714 
#    0.000    3.571    0.000    2.571    0.000    0.000 
#    0.000    0.000    0.000    0.000    0.000    0.000 
#
# Total GULP energy -346954.667852 kJ/mol
# GULP energy per Si atom -12391.238138 kJ/mol
# Density = 1.941186 g / cm^3
# Si number density = 19.456144 Si / 1000 Ang^3
#
#
#
# Elastic Constant Matrix: (Units=GPa)
#
#
# Indices 1 2 3 4 5 6 
#
# 1 97.1773 23.3233 50.1622 0.0000 0.0000 0.0000
# 2 23.3233 81.1192 25.1345 0.0000 0.0000 0.0000
# 3 50.1622 25.1345 129.4913 0.0000 0.0000 0.0000
# 4 0.0000 0.0000 0.0000 24.5221 0.0000 0.0000
# 5 0.0000 0.0000 0.0000 0.0000 27.4007 0.0000
# 6 0.0000 0.0000 0.0000 0.0000 0.0000 20.4783
#
#
#
# Elastic Compliance Matrix: (Units=1/GPa)
#
#
# Indices 1 2 3 4 5 6 
#
# 1 0.013276 -0.002366 -0.004684 0.000000 0.000000 0.000000
# 2 -0.002366 0.013538 -0.001711 0.000000 0.000000 0.000000
# 3 -0.004684 -0.001711 0.009869 0.000000 0.000000 0.000000
# 4 0.000000 0.000000 0.000000 0.040780 0.000000 0.000000
# 5 0.000000 0.000000 0.000000 0.000000 0.036495 0.000000
# 6 0.000000 0.000000 0.000000 0.000000 0.000000 0.048832
#
#
# Mechanical properties :
#
#
# Convention : Reuss Voigt Hill
#
# Bulk Modulus (GPa) = 52.18806 56.11420 54.15113
# Shear Modulus (GPa) = 26.78113 28.42475 27.60294
#
# Velocity S-wave (km/s) = 3.71413 3.82640 3.77068
# Velocity P-wave (km/s) = 6.72865 6.95887 6.84472
#
# Compressibility (1/GPa) = 0.01916147
#
# Stress axis : x y z
#
# Youngs Moduli (GPa) = 75.32427 73.86611 101.32725
#
# Poissons Ratio (x) = 0.17476 0.47458
# Poissons Ratio (y) = 0.17821 0.17340
# Poissons Ratio (z) = 0.35279 0.12640
#
# Static dielectric constant tensor:
#      x y z
#    x 3.508080 0.000000 0.000000 
#    y 0.000000 3.398830 0.000000 
#    z 0.000000 0.000000 3.605640 
# 
# 
# High freq. dielectric constant tensor:
#      x y z
#    x 1.757090 0.000000 0.000000 
#    y 0.000000 1.731340 0.000000 
#    z 0.000000 0.000000 1.768290 
# 
# From -- ./inp_files/5953.got.cif
#   From: 2010.03.12/outbox.cif.g09.slc.cpg/sg39_3_cif.got.tgz:5953.got - 2010.04.14 02:53:20.
