data_PCOD8181075
_publ_section_title
;
Structure prediction by ZEFSAII (Michael W. Deem and Ramdas Pophale) SiO2 
 PCOD8181075
Probable space group: A B M 2
;
_chemical_formula_sum "Si O2"
_cell_formula_units_Z 64
_cell_length_a 19.162263
_cell_length_b 8.844699
_cell_length_c 20.231039
_cell_angle_alpha 90.000000
_cell_angle_beta 90.000000
_cell_angle_gamma 90.000000
_cell_volume 3428.846485
_symmetry_space_group_name_H-M "A B M 2"
_symmetry_group_IT_number 39
_symmetry_cell_setting 'orthorhombic'
loop_
_space_group_symop_operation_xyz
x,y,z
-x,-y,z
-x,1/2+y,z
x,1/2-y,z
x,1/2+y,1/2+z
-x,1/2-y,1/2+z
-x,y,1/2+z
x,-y,1/2+z
loop_
_atom_site_type_symbol
_atom_site_label
_atom_site_fract_x
_atom_site_fract_y
_atom_site_fract_z
Si Si1 0.429524 0.926605 0.896110
Si Si2 0.281770 0.074174 0.449337
Si Si3 0.928997 0.928260 0.274867
Si Si4 0.203555 0.574586 0.329984
Si Si5 0.569353 0.074484 0.255724
Si Si6 0.780721 0.926486 0.075935
Si Si7 0.285813 0.422688 0.698090
Si Si8 0.929466 0.072973 0.624902
O O1 0.442493 0.750000 0.887278
O O2 0.364502 0.959900 0.944475
O O3 0.500000 0.000000 0.926360
O O4 0.412021 0.995937 0.824862
O O5 0.266531 0.250000 0.436545
O O6 0.240073 0.975782 0.396917
O O7 0.256402 0.028639 0.521714
O O8 0.934622 0.750000 0.278450
O O9 0.915755 0.985602 0.199663
O O10 0.867617 0.983064 0.322100
O O11 0.000000 0.000000 0.302424
O O12 0.185238 0.750000 0.335093
O O13 0.254276 0.538874 0.269317
O O14 0.556464 0.250000 0.270320
O O15 0.631230 0.051288 0.203229
O O16 0.500000 0.000000 0.224495
O O17 0.771356 0.750000 0.059727
O O18 0.862795 0.970309 0.080154
O O19 0.744942 0.960453 0.145902
O O20 0.268698 0.250000 0.677278
O O21 0.941427 0.250000 0.625879
O O22 0.000000 0.000000 0.595139
#
# Coordination Sequence:
#
# PCOD8181075 Si02
#       8
#     8   8   8   8   8   8   8   8
#     4  10  20  34  56  83 112 146 188 234 284 341
#     4  11  24  40  58  84 117 154 193 238 288 344
#     4  10  19  34  55  85 119 150 190 238 289 342
#     4  11  21  36  59  86 115 150 190 236 287 338
#     4  10  19  33  54  84 116 148 187 234 286 339
#     4  11  23  39  59  85 116 151 193 238 286 342
#     4  10  21  36  57  84 115 148 187 233 284 339
#     4   9  19  34  55  83 112 145 185 229 278 336
#
# _framework density 18.665168999999999
#
# number of rings (size 3 to 8) (size 9 to 14) (size 15 to 20)
#    0.000    1.750    2.500    3.000    0.000    4.500 
#    0.000    1.250    0.000    1.500    0.000    0.000 
#    0.000    0.000    0.000    0.000    0.000    0.000 
#
# Total GULP energy -396880.322684 kJ/mol
# GULP energy per Si atom -12402.510084 kJ/mol
# Density = 1.862269 g / cm^3
# Si number density = 18.665169 Si / 1000 Ang^3
#
#
#
# Elastic Constant Matrix: (Units=GPa)
#
#
# Indices 1 2 3 4 5 6 
#
# 1 137.0689 50.8129 30.6359 0.0000 0.0000 0.0000
# 2 50.8129 81.6489 20.1377 0.0000 0.0000 0.0000
# 3 30.6359 20.1377 50.0030 0.0000 0.0000 0.0000
# 4 0.0000 0.0000 0.0000 29.5625 0.0000 0.0000
# 5 0.0000 0.0000 0.0000 0.0000 28.3009 0.0000
# 6 0.0000 0.0000 0.0000 0.0000 0.0000 35.1486
#
#
#
# Elastic Compliance Matrix: (Units=1/GPa)
#
#
# Indices 1 2 3 4 5 6 
#
# 1 0.010187 -0.005329 -0.004095 0.000000 0.000000 0.000000
# 2 -0.005329 0.016387 -0.003334 0.000000 0.000000 0.000000
# 3 -0.004095 -0.003334 0.023850 0.000000 0.000000 0.000000
# 4 0.000000 0.000000 0.000000 0.033827 0.000000 0.000000
# 5 0.000000 0.000000 0.000000 0.000000 0.035335 0.000000
# 6 0.000000 0.000000 0.000000 0.000000 0.000000 0.028451
#
#
# Mechanical properties :
#
#
# Convention : Reuss Voigt Hill
#
# Bulk Modulus (GPa) = 40.14974 52.43265 46.29120
# Shear Modulus (GPa) = 27.49453 29.74466 28.61959
#
# Velocity S-wave (km/s) = 3.84218 3.99631 3.92001
# Velocity P-wave (km/s) = 6.42187 7.03180 6.73374
#
# Compressibility (1/GPa) = 0.02490676
#
# Stress axis : x y z
#
# Youngs Moduli (GPa) = 98.16906 61.02546 41.92815
#
# Poissons Ratio (x) = 0.32523 0.17168
# Poissons Ratio (y) = 0.52319 0.13979
# Poissons Ratio (z) = 0.40198 0.20347
#
# Static dielectric constant tensor:
#      x y z
#    x 3.704710 0.000000 0.000000 
#    y 0.000000 3.454280 0.000000 
#    z 0.000000 0.000000 3.100330 
# 
# 
# High freq. dielectric constant tensor:
#      x y z
#    x 1.741450 0.000000 0.000000 
#    y 0.000000 1.735960 0.000000 
#    z 0.000000 0.000000 1.689080 
# 
# From -- ./inp_files/13107.got.cif
#   From: 2010.03.12/outbox.cif.g09.slc.cpg/sg39_7_cif.got.tgz:13107.got - 2010.04.14 02:53:20.
