data_PCOD8181753
_publ_section_title
;
Structure prediction by ZEFSAII (Michael W. Deem and Ramdas Pophale) SiO2 
 PCOD8181753
Probable space group: A B M 2
;
_chemical_formula_sum "Si O2"
_cell_formula_units_Z 28
_cell_length_a 18.069698
_cell_length_b 14.151679
_cell_length_c 5.125355
_cell_angle_alpha 90.000000
_cell_angle_beta 90.000000
_cell_angle_gamma 90.000000
_cell_volume 1310.638179
_symmetry_space_group_name_H-M "A B M 2"
_symmetry_group_IT_number 39
_symmetry_cell_setting 'orthorhombic'
loop_
_space_group_symop_operation_xyz
x,y,z
-x,-y,z
-x,1/2+y,z
x,1/2-y,z
x,1/2+y,1/2+z
-x,1/2-y,1/2+z
-x,y,1/2+z
x,-y,1/2+z
loop_
_atom_site_type_symbol
_atom_site_label
_atom_site_fract_x
_atom_site_fract_y
_atom_site_fract_z
Si Si1 0.547975 0.250000 0.528000
Si Si2 0.644353 0.436279 0.546821
Si Si3 0.810689 0.941714 0.097760
Si Si4 0.037860 0.141289 0.003698
O O1 0.519115 0.250000 0.232464
O O2 0.594971 0.343993 0.576010
O O3 0.627095 0.490349 0.278342
O O4 0.729029 0.399010 0.554376
O O5 0.873648 0.865965 0.031229
O O6 0.820284 0.970597 0.399405
O O7 0.015548 0.250000 0.990841
O O8 0.993465 0.091962 0.242075
#
# Coordination Sequence:
#
# PCOD8181753 Si02
#       4
#     4   8   8   8
#     4  12  26  42  68 100 122 164 208 238 314 380
#     4  10  23  43  64  93 129 162 204 256 303 362
#     4  10  21  37  58  83 111 153 198 238 295 348
#     4  10  21  35  52  80 114 151 193 241 294 341
#
# _framework density 21.363638000000002
#
# number of rings (size 3 to 8) (size 9 to 14) (size 15 to 20)
#    0.000    1.714    0.000    3.429    2.000    6.857 
#    0.000    0.000    0.000    0.000    0.000    0.000 
#    0.000    0.000    0.000    0.000    0.000    0.000 
#
# Total GULP energy -173587.955861 kJ/mol
# GULP energy per Si atom -12399.139704 kJ/mol
# Density = 2.131501 g / cm^3
# Si number density = 21.363638 Si / 1000 Ang^3
#
#
#
# Elastic Constant Matrix: (Units=GPa)
#
#
# Indices 1 2 3 4 5 6 
#
# 1 109.1200 42.8538 28.2345 0.0000 0.0000 0.0000
# 2 42.8538 64.2669 15.4183 0.0000 0.0000 0.0000
# 3 28.2345 15.4183 130.5126 0.0000 0.0000 0.0000
# 4 0.0000 0.0000 0.0000 13.4311 0.0000 0.0000
# 5 0.0000 0.0000 0.0000 0.0000 34.4951 0.0000
# 6 0.0000 0.0000 0.0000 0.0000 0.0000 40.9206
#
#
#
# Elastic Compliance Matrix: (Units=1/GPa)
#
#
# Indices 1 2 3 4 5 6 
#
# 1 0.012820 -0.008113 -0.001815 0.000000 0.000000 0.000000
# 2 -0.008113 0.021148 -0.000743 0.000000 0.000000 0.000000
# 3 -0.001815 -0.000743 0.008143 0.000000 0.000000 0.000000
# 4 0.000000 0.000000 0.000000 0.074454 0.000000 0.000000
# 5 0.000000 0.000000 0.000000 0.000000 0.028990 0.000000
# 6 0.000000 0.000000 0.000000 0.000000 0.000000 0.024438
#
#
# Mechanical properties :
#
#
# Convention : Reuss Voigt Hill
#
# Bulk Modulus (GPa) = 48.15036 52.99030 50.57033
# Shear Modulus (GPa) = 25.21975 32.26222 28.74098
#
# Velocity S-wave (km/s) = 3.43957 3.89028 3.67184
# Velocity P-wave (km/s) = 6.19367 6.71095 6.45749
#
# Compressibility (1/GPa) = 0.02076828
#
# Stress axis : x y z
#
# Youngs Moduli (GPa) = 78.00302 47.28510 122.81178
#
# Poissons Ratio (x) = 0.38363 0.22290
# Poissons Ratio (y) = 0.63284 0.09128
# Poissons Ratio (z) = 0.14157 0.03514
#
# Static dielectric constant tensor:
#      x y z
#    x 3.961950 0.000000 0.000000 
#    y 0.000000 3.405230 0.000000 
#    z 0.000000 0.000000 4.365930 
# 
# 
# High freq. dielectric constant tensor:
#      x y z
#    x 1.847520 0.000000 0.000000 
#    y 0.000000 1.814680 0.000000 
#    z 0.000000 0.000000 1.863500 
# 
# From -- ./inp_files/684.got.cif
#   From: 2010.03.12/outbox.cif.g09.slc.cpg/sg39_1_cif.got.tgz:684.got - 2010.04.14 02:53:20.
