data_PCOD8181266
_publ_section_title
;
Structure prediction by ZEFSAII (Michael W. Deem and Ramdas Pophale) SiO2 
 PCOD8181266
Probable space group: A B M 2
;
_chemical_formula_sum "Si O2"
_cell_formula_units_Z 64
_cell_length_a 15.474033
_cell_length_b 8.791887
_cell_length_c 23.892302
_cell_angle_alpha 90.000000
_cell_angle_beta 90.000000
_cell_angle_gamma 90.000000
_cell_volume 3250.450913
_symmetry_space_group_name_H-M "A B M 2"
_symmetry_group_IT_number 39
_symmetry_cell_setting 'orthorhombic'
loop_
_space_group_symop_operation_xyz
x,y,z
-x,-y,z
-x,1/2+y,z
x,1/2-y,z
x,1/2+y,1/2+z
-x,1/2-y,1/2+z
-x,y,1/2+z
x,-y,1/2+z
loop_
_atom_site_type_symbol
_atom_site_label
_atom_site_fract_x
_atom_site_fract_y
_atom_site_fract_z
Si Si1 0.589578 0.071779 0.375000
Si Si2 0.248711 0.069867 0.568152
Si Si3 0.664152 0.072158 0.256825
Si Si4 0.911536 0.430785 0.142559
Si Si5 0.911748 0.069681 0.370489
Si Si6 0.849578 0.429953 0.756382
Si Si7 0.589559 0.071970 0.138286
Si Si8 0.249042 0.429327 0.946830
O O1 0.581390 0.250000 0.381940
O O2 0.608150 0.027392 0.310787
O O3 0.666863 0.009649 0.413825
O O4 0.500000 0.000000 0.395195
O O5 0.251217 0.250000 0.566458
O O6 0.165060 0.013541 0.602029
O O7 0.333656 0.006201 0.599676
O O8 0.244852 0.007339 0.506272
O O9 0.691197 0.250000 0.257558
O O10 0.607764 0.030486 0.202778
O O11 0.749331 0.971843 0.256388
O O12 0.916858 0.250000 0.145551
O O13 0.896880 0.496063 0.203967
O O14 0.000000 0.500000 0.117922
O O15 0.918454 0.250000 0.363944
O O16 0.835162 0.022622 0.412143
O O17 0.895784 0.995369 0.310678
O O18 0.000000 0.000000 0.395587
O O19 0.861020 0.250000 0.754379
O O20 0.581885 0.250000 0.129977
O O21 0.500000 0.000000 0.118435
O O22 0.253519 0.250000 0.954893
#
# Coordination Sequence:
#
# PCOD8181266 Si02
#       8
#     8   8   8   8   8   8   8   8
#     4  10  21  38  61  89 120 159 197 243 300 355
#     4  10  23  42  63  85 118 160 202 250 302 350
#     4  10  19  38  62  85 124 161 194 241 302 363
#     4  11  23  42  64  89 123 160 198 244 300 359
#     4  11  23  42  64  89 123 160 198 244 300 359
#     4  12  23  36  61  95 124 157 199 243 296 357
#     4  10  21  38  61  89 120 159 197 243 300 355
#     4  10  23  42  63  85 118 160 202 250 302 350
#
# _framework density 19.689575000000001
#
# number of rings (size 3 to 8) (size 9 to 14) (size 15 to 20)
#    0.000    1.500    2.500    2.625    0.000    5.000 
#    0.000    5.000    0.000    0.000    0.000    0.000 
#    0.000    0.000    0.000    0.000    0.000    0.000 
#
# Total GULP energy -396941.831887 kJ/mol
# GULP energy per Si atom -12404.432246 kJ/mol
# Density = 1.964476 g / cm^3
# Si number density = 19.689575 Si / 1000 Ang^3
#
#
#
# Elastic Constant Matrix: (Units=GPa)
#
#
# Indices 1 2 3 4 5 6 
#
# 1 184.6420 41.7117 57.4065 0.0000 0.0000 0.0000
# 2 41.7117 51.3844 20.3144 0.0000 0.0000 0.0000
# 3 57.4065 20.3144 103.1061 0.0000 0.0000 0.0000
# 4 0.0000 0.0000 0.0000 30.7788 0.0000 0.0000
# 5 0.0000 0.0000 0.0000 0.0000 13.1172 0.0000
# 6 0.0000 0.0000 0.0000 0.0000 0.0000 38.4813
#
#
#
# Elastic Compliance Matrix: (Units=1/GPa)
#
#
# Indices 1 2 3 4 5 6 
#
# 1 0.007509 -0.004818 -0.003232 0.000000 0.000000 0.000000
# 2 -0.004818 0.024196 -0.002085 0.000000 0.000000 0.000000
# 3 -0.003232 -0.002085 0.011909 0.000000 0.000000 0.000000
# 4 0.000000 0.000000 0.000000 0.032490 0.000000 0.000000
# 5 0.000000 0.000000 0.000000 0.000000 0.076236 0.000000
# 6 0.000000 0.000000 0.000000 0.000000 0.000000 0.025987
#
#
# Mechanical properties :
#
#
# Convention : Reuss Voigt Hill
#
# Bulk Modulus (GPa) = 42.83465 64.22195 53.52830
# Shear Modulus (GPa) = 24.22757 31.12214 27.67485
#
# Velocity S-wave (km/s) = 3.51162 3.98004 3.75315
# Velocity P-wave (km/s) = 6.18419 7.33546 6.78429
#
# Compressibility (1/GPa) = 0.02334558
#
# Stress axis : x y z
#
# Youngs Moduli (GPa) = 133.17364 41.32853 83.97199
#
# Poissons Ratio (x) = 0.19912 0.27136
# Poissons Ratio (y) = 0.64162 0.17506
# Poissons Ratio (z) = 0.43036 0.08616
#
# Static dielectric constant tensor:
#      x y z
#    x 4.031930 0.000000 0.000000 
#    y 0.000000 3.466870 0.000000 
#    z 0.000000 0.000000 3.731670 
# 
# 
# High freq. dielectric constant tensor:
#      x y z
#    x 1.785920 0.000000 0.000000 
#    y 0.000000 1.760040 0.000000 
#    z 0.000000 0.000000 1.767310 
# 
# From -- ./inp_files/16186.got.cif
#   From: 2010.03.12/outbox.cif.g09.slc.cpg/sg39_9_cif.got.tgz:16186.got - 2010.04.14 02:53:20.
