data_PCOD8181295
_publ_section_title
;
Structure prediction by ZEFSAII (Michael W. Deem and Ramdas Pophale) SiO2 
 PCOD8181295
Probable space group: A B M 2
;
_chemical_formula_sum "Si O2"
_cell_formula_units_Z 48
_cell_length_a 12.713248
_cell_length_b 19.898917
_cell_length_c 9.572344
_cell_angle_alpha 90.000000
_cell_angle_beta 90.000000
_cell_angle_gamma 90.000000
_cell_volume 2421.610310
_symmetry_space_group_name_H-M "A B M 2"
_symmetry_group_IT_number 39
_symmetry_cell_setting 'orthorhombic'
loop_
_space_group_symop_operation_xyz
x,y,z
-x,-y,z
-x,1/2+y,z
x,1/2-y,z
x,1/2+y,1/2+z
-x,1/2-y,1/2+z
-x,y,1/2+z
x,-y,1/2+z
loop_
_atom_site_type_symbol
_atom_site_label
_atom_site_fract_x
_atom_site_fract_y
_atom_site_fract_z
Si Si1 0.000000 0.000000 0.000000
Si Si2 0.591915 0.379650 0.551699
Si Si3 0.691191 0.424828 0.291336
Si Si4 0.137230 0.957169 0.754647
Si Si5 0.737520 0.823142 0.264678
Si Si6 0.500000 0.000000 0.199087
Si Si7 0.634619 0.324794 0.056637
O O1 0.938467 0.048812 0.890713
O O2 0.080021 0.036565 0.104981
O O3 0.685131 0.382015 0.434747
O O4 0.631893 0.331111 0.674152
O O5 0.577485 0.455488 0.605299
O O6 0.478873 0.351147 0.505185
O O7 0.784056 0.479741 0.281597
O O8 0.575516 0.457591 0.298144
O O9 0.695550 0.373834 0.162486
O O10 0.188279 0.885324 0.733217
O O11 0.788955 0.750000 0.229041
O O12 0.709875 0.823836 0.425751
O O13 0.624157 0.250000 0.121545
#
# Coordination Sequence:
#
# PCOD8181295 Si02
#       7
#     4   8   8   8   8   4   8
#     4  10  24  42  68  88 112 142 196 264 328 356
#     4  11  21  32  54  86 124 165 205 237 279 340
#     4  11  22  35  62  88 121 158 203 246 288 351
#     4  11  22  42  64  91 114 150 198 258 309 366
#     4  11  23  39  59  84 121 163 199 243 303 362
#     4  10  20  32  52  92 124 156 196 234 282 344
#     4  10  22  37  53  82 129 173 202 232 281 348
#
# _framework density 19.82152
#
# number of rings (size 3 to 8) (size 9 to 14) (size 15 to 20)
#    0.000    1.333    1.667    5.000    4.667    2.667 
#    0.000    0.833    0.000    4.000    0.000    0.000 
#    0.000    0.000    0.000    0.000    0.000    0.000 
#
# Total GULP energy -297394.327660 kJ/mol
# GULP energy per Si atom -12391.430319 kJ/mol
# Density = 1.977641 g / cm^3
# Si number density = 19.821520 Si / 1000 Ang^3
#
#
#
# Elastic Constant Matrix: (Units=GPa)
#
#
# Indices 1 2 3 4 5 6 
#
# 1 68.4470 38.8648 26.5146 0.0000 0.0000 0.0000
# 2 38.8648 136.6785 35.8689 0.0000 0.0000 0.0000
# 3 26.5146 35.8689 104.3154 0.0000 0.0000 0.0000
# 4 0.0000 0.0000 0.0000 14.5353 0.0000 0.0000
# 5 0.0000 0.0000 0.0000 0.0000 33.3640 0.0000
# 6 0.0000 0.0000 0.0000 0.0000 0.0000 12.3706
#
#
#
# Elastic Compliance Matrix: (Units=1/GPa)
#
#
# Indices 1 2 3 4 5 6 
#
# 1 0.018318 -0.004382 -0.003149 0.000000 0.000000 0.000000
# 2 -0.004382 0.009091 -0.002012 0.000000 0.000000 0.000000
# 3 -0.003149 -0.002012 0.011079 0.000000 0.000000 0.000000
# 4 0.000000 0.000000 0.000000 0.068798 0.000000 0.000000
# 5 0.000000 0.000000 0.000000 0.000000 0.029972 0.000000
# 6 0.000000 0.000000 0.000000 0.000000 0.000000 0.080837
#
#
# Mechanical properties :
#
#
# Convention : Reuss Voigt Hill
#
# Bulk Modulus (GPa) = 51.54538 56.88193 54.21366
# Shear Modulus (GPa) = 20.52140 25.93348 23.22744
#
# Velocity S-wave (km/s) = 3.22111 3.62104 3.42691
# Velocity P-wave (km/s) = 6.31627 6.80014 6.56267
#
# Compressibility (1/GPa) = 0.01940038
#
# Stress axis : x y z
#
# Youngs Moduli (GPa) = 54.59084 110.00429 90.26449
#
# Poissons Ratio (x) = 0.48208 0.28426
# Poissons Ratio (y) = 0.23924 0.18160
# Poissons Ratio (z) = 0.17192 0.22132
#
# Static dielectric constant tensor:
#      x y z
#    x 3.502460 0.000000 0.000000 
#    y 0.000000 4.038520 0.000000 
#    z 0.000000 0.000000 3.736400 
# 
# 
# High freq. dielectric constant tensor:
#      x y z
#    x 1.749830 0.000000 0.000000 
#    y 0.000000 1.770110 0.000000 
#    z 0.000000 0.000000 1.790940 
# 
# From -- ./inp_files/3325.got.cif
#   From: 2010.03.12/outbox.cif.g09.slc.cpg/sg39_2_cif.got.tgz:3325.got - 2010.04.14 02:53:20.
