data_PCOD8181412
_publ_section_title
;
Structure prediction by ZEFSAII (Michael W. Deem and Ramdas Pophale) SiO2 
 PCOD8181412
Probable space group: A B M 2
;
_chemical_formula_sum "Si O2"
_cell_formula_units_Z 64
_cell_length_a 19.633882
_cell_length_b 8.745667
_cell_length_c 19.808874
_cell_angle_alpha 90.000000
_cell_angle_beta 90.000000
_cell_angle_gamma 90.000000
_cell_volume 3401.409366
_symmetry_space_group_name_H-M "A B M 2"
_symmetry_group_IT_number 39
_symmetry_cell_setting 'orthorhombic'
loop_
_space_group_symop_operation_xyz
x,y,z
-x,-y,z
-x,1/2+y,z
x,1/2-y,z
x,1/2+y,1/2+z
-x,1/2-y,1/2+z
-x,y,1/2+z
x,-y,1/2+z
loop_
_atom_site_type_symbol
_atom_site_label
_atom_site_fract_x
_atom_site_fract_y
_atom_site_fract_z
Si Si1 0.179820 0.924333 0.526250
Si Si2 0.323378 0.429111 0.855234
Si Si3 0.429269 0.429199 0.253816
Si Si4 0.073648 0.428545 0.915062
Si Si5 0.818699 0.928260 0.319945
Si Si6 0.645188 0.072141 0.138650
Si Si7 0.682565 0.072273 0.991012
Si Si8 0.216549 0.076146 0.172055
O O1 0.203584 0.750000 0.512161
O O2 0.110510 0.960374 0.486652
O O3 0.168530 0.951237 0.606555
O O4 0.237612 0.036751 0.498876
O O5 0.330830 0.250000 0.843825
O O6 0.367766 0.515020 0.800065
O O7 0.245196 0.479544 0.849175
O O8 0.349621 0.475059 0.929901
O O9 0.500000 0.500000 0.279085
O O10 0.435564 0.250000 0.258799
O O11 0.413801 0.479026 0.176819
O O12 0.068390 0.250000 0.898990
O O13 0.113168 0.509109 0.853923
O O14 0.000000 0.500000 0.921136
O O15 0.808767 0.750000 0.336601
O O16 0.826394 0.957084 0.239554
O O17 0.631228 0.250000 0.149556
O O18 0.718695 0.034607 0.170236
O O19 0.643141 0.026962 0.059681
O O20 0.674203 0.250000 0.974504
O O21 0.244561 0.250000 0.172634
#
# Coordination Sequence:
#
# PCOD8181412 Si02
#       8
#     8   8   8   8   8   8   8   8
#     4   9  18  34  55  81 112 148 190 235 289 345
#     4  12  23  37  59  88 121 157 199 246 295 350
#     4  12  25  42  62  86 119 159 199 244 298 357
#     4  11  23  38  57  81 114 156 197 245 298 362
#     4  11  21  35  58  87 118 153 194 243 294 350
#     4  10  20  35  57  87 119 151 191 239 287 346
#     4  10  20  34  57  88 119 150 192 242 291 340
#     4   9  18  33  56  84 114 148 188 236 288 342
#
# _framework density 18.815731
#
# number of rings (size 3 to 8) (size 9 to 14) (size 15 to 20)
#    0.000    1.500    2.500    3.750    0.000    2.500 
#    0.000    1.250    0.000    4.500    0.000    0.000 
#    0.000    0.000    0.000    0.000    0.000    0.000 
#
# Total GULP energy -396882.525265 kJ/mol
# GULP energy per Si atom -12402.578915 kJ/mol
# Density = 1.877291 g / cm^3
# Si number density = 18.815731 Si / 1000 Ang^3
#
#
#
# Elastic Constant Matrix: (Units=GPa)
#
#
# Indices 1 2 3 4 5 6 
#
# 1 60.9077 27.4058 25.5774 0.0000 0.0000 0.0000
# 2 27.4058 110.0729 43.5877 0.0000 0.0000 0.0000
# 3 25.5774 43.5877 117.3402 0.0000 0.0000 0.0000
# 4 0.0000 0.0000 0.0000 28.8705 0.0000 0.0000
# 5 0.0000 0.0000 0.0000 0.0000 -35.2392 0.0000
# 6 0.0000 0.0000 0.0000 0.0000 0.0000 31.8314
#
#
#
# Elastic Compliance Matrix: (Units=1/GPa)
#
#
# Indices 1 2 3 4 5 6 
#
# 1 0.019261 -0.003673 -0.002834 0.000000 0.000000 0.000000
# 2 -0.003673 0.011352 -0.003416 0.000000 0.000000 0.000000
# 3 -0.002834 -0.003416 0.010409 0.000000 0.000000 0.000000
# 4 0.000000 0.000000 0.000000 0.034637 0.000000 0.000000
# 5 0.000000 0.000000 0.000000 0.000000 -0.028377 0.000000
# 6 0.000000 0.000000 0.000000 0.000000 0.000000 0.031415
#
#
# Mechanical properties :
#
#
# Convention : Reuss Voigt Hill
#
# Bulk Modulus (GPa) = 47.22491 53.49583 50.36037
# Shear Modulus (GPa) = 47.34686 17.87587 32.61137
#
# Velocity S-wave (km/s) = 5.02176 3.08563 4.16768
# Velocity P-wave (km/s) = 7.66663 6.41779 7.06984
#
# Compressibility (1/GPa) = 0.02117527
#
# Stress axis : x y z
#
# Youngs Moduli (GPa) = 51.91772 88.08802 96.07087
#
# Poissons Ratio (x) = 0.32358 0.27226
# Poissons Ratio (y) = 0.19072 0.32820
# Poissons Ratio (z) = 0.14713 0.30093
#
# Static dielectric constant tensor:
#      x y z
#    x 3.282400 0.000000 0.000000 
#    y 0.000000 3.548550 0.000000 
#    z 0.000000 0.000000 3.854750 
# 
# 
# High freq. dielectric constant tensor:
#      x y z
#    x 1.693240 0.000000 0.000000 
#    y 0.000000 1.743140 0.000000 
#    z 0.000000 0.000000 1.749790 
# 
# From -- ./inp_files/15049.got.cif
#   From: 2010.03.12/outbox.cif.g09.slc.cpg/sg39_8_cif.got.tgz:15049.got - 2010.04.14 02:53:20.
