data_PCOD8181187
_publ_section_title
;
Structure prediction by ZEFSAII (Michael W. Deem and Ramdas Pophale) SiO2 
 PCOD8181187
Probable space group: A B M 2
;
_chemical_formula_sum "Si O2"
_cell_formula_units_Z 56
_cell_length_a 14.490524
_cell_length_b 8.833487
_cell_length_c 25.280848
_cell_angle_alpha 90.000000
_cell_angle_beta 90.000000
_cell_angle_gamma 90.000000
_cell_volume 3235.995450
_symmetry_space_group_name_H-M "A B M 2"
_symmetry_group_IT_number 39
_symmetry_cell_setting 'orthorhombic'
loop_
_space_group_symop_operation_xyz
x,y,z
-x,-y,z
-x,1/2+y,z
x,1/2-y,z
x,1/2+y,1/2+z
-x,1/2-y,1/2+z
-x,y,1/2+z
x,-y,1/2+z
loop_
_atom_site_type_symbol
_atom_site_label
_atom_site_fract_x
_atom_site_fract_y
_atom_site_fract_z
Si Si1 0.907896 0.572597 0.680560
Si Si2 0.290457 0.429677 0.718053
Si Si3 0.593544 0.425569 0.927928
Si Si4 0.402719 0.570064 0.808358
Si Si5 0.091218 0.926811 0.060670
Si Si6 0.710928 0.072681 0.026485
Si Si7 0.600599 0.929687 0.120791
O O1 0.921642 0.750000 0.681527
O O2 0.817076 0.525110 0.712962
O O3 0.895028 0.513237 0.620535
O O4 0.000000 0.500000 0.706192
O O5 0.304585 0.250000 0.715013
O O6 0.322288 0.495497 0.774022
O O7 0.348916 0.505664 0.671923
O O8 0.500000 0.500000 0.949033
O O9 0.572881 0.250000 0.927475
O O10 0.618867 0.479049 0.868740
O O11 0.676104 0.467127 0.967670
O O12 0.500000 0.500000 0.789915
O O13 0.404982 0.750000 0.800345
O O14 0.075659 0.750000 0.060320
O O15 0.181406 0.972482 0.027289
O O16 0.000000 0.000000 0.034655
O O17 0.697352 0.250000 0.040648
O O18 0.656246 0.973315 0.068484
O O19 0.593159 0.750000 0.125500
O O20 0.500000 0.000000 0.116804
#
# Coordination Sequence:
#
# PCOD8181187 Si02
#       7
#     8   8   8   8   8   8   8
#     4   9  18  32  51  74 101 132 166 207 252 301
#     4  11  21  36  54  75 103 136 170 210 258 305
#     4   9  19  34  54  75 101 135 173 213 254 300
#     4  10  20  35  53  77 102 134 176 216 256 301
#     4   9  17  31  50  73 102 133 167 208 251 300
#     4  10  19  35  54  75 104 137 170 210 256 303
#     4  12  24  35  49  73 105 139 169 206 252 306
#
# _framework density 17.305340000000001
#
# number of rings (size 3 to 8) (size 9 to 14) (size 15 to 20)
#    0.000    2.000    1.429    3.000    0.000    4.000 
#    0.000    0.000    0.000    0.857    0.000    4.000 
#    0.000    0.000    0.000    0.000    0.000    0.000 
#
# Total GULP energy -347218.550130 kJ/mol
# GULP energy per Si atom -12400.662505 kJ/mol
# Density = 1.726595 g / cm^3
# Si number density = 17.305340 Si / 1000 Ang^3
#
#
#
# Elastic Constant Matrix: (Units=GPa)
#
#
# Indices 1 2 3 4 5 6 
#
# 1 168.2367 53.7434 70.1507 0.0000 0.0000 0.0000
# 2 53.7434 67.6619 35.2385 0.0000 0.0000 0.0000
# 3 70.1507 35.2385 89.9020 0.0000 0.0000 0.0000
# 4 0.0000 0.0000 0.0000 20.7519 0.0000 0.0000
# 5 0.0000 0.0000 0.0000 0.0000 20.2447 0.0000
# 6 0.0000 0.0000 0.0000 0.0000 0.0000 31.3851
#
#
#
# Elastic Compliance Matrix: (Units=1/GPa)
#
#
# Indices 1 2 3 4 5 6 
#
# 1 0.009930 -0.004840 -0.005851 0.000000 0.000000 0.000000
# 2 -0.004840 0.020929 -0.004427 0.000000 0.000000 0.000000
# 3 -0.005851 -0.004427 0.017424 0.000000 0.000000 0.000000
# 4 0.000000 0.000000 0.000000 0.048188 0.000000 0.000000
# 5 0.000000 0.000000 0.000000 0.000000 0.049396 0.000000
# 6 0.000000 0.000000 0.000000 0.000000 0.000000 0.031862
#
#
# Mechanical properties :
#
#
# Convention : Reuss Voigt Hill
#
# Bulk Modulus (GPa) = 55.41055 71.56287 63.48671
# Shear Modulus (GPa) = 23.36649 25.58755 24.47702
#
# Velocity S-wave (km/s) = 3.67856 3.84942 3.76496
# Velocity P-wave (km/s) = 7.08034 7.82306 7.46095
#
# Compressibility (1/GPa) = 0.01804711
#
# Stress axis : x y z
#
# Youngs Moduli (GPa) = 100.70518 47.77999 57.39144
#
# Poissons Ratio (x) = 0.23125 0.33581
# Poissons Ratio (y) = 0.48741 0.25407
# Poissons Ratio (z) = 0.58925 0.21152
#
# Static dielectric constant tensor:
#      x y z
#    x 3.415830 0.000000 0.000000 
#    y 0.000000 3.257140 0.000000 
#    z 0.000000 0.000000 3.309720 
# 
# 
# High freq. dielectric constant tensor:
#      x y z
#    x 1.673290 0.000000 0.000000 
#    y 0.000000 1.672430 0.000000 
#    z 0.000000 0.000000 1.649000 
# 
# From -- ./inp_files/14803.got.cif
#   From: 2010.03.12/outbox.cif.g09.slc.cpg/sg39_8_cif.got.tgz:14803.got - 2010.04.14 02:53:20.
