data_PCOD8181978
_publ_section_title
;
Structure prediction by ZEFSAII (Michael W. Deem and Ramdas Pophale) SiO2 
 PCOD8181978
Probable space group: A B M 2
;
_chemical_formula_sum "Si O2"
_cell_formula_units_Z 64
_cell_length_a 12.068077
_cell_length_b 18.870082
_cell_length_c 14.494262
_cell_angle_alpha 90.000000
_cell_angle_beta 90.000000
_cell_angle_gamma 90.000000
_cell_volume 3300.714548
_symmetry_space_group_name_H-M "A B M 2"
_symmetry_group_IT_number 39
_symmetry_cell_setting 'orthorhombic'
loop_
_space_group_symop_operation_xyz
x,y,z
-x,-y,z
-x,1/2+y,z
x,1/2-y,z
x,1/2+y,1/2+z
-x,1/2-y,1/2+z
-x,y,1/2+z
x,-y,1/2+z
loop_
_atom_site_type_symbol
_atom_site_label
_atom_site_fract_x
_atom_site_fract_y
_atom_site_fract_z
Si Si1 0.353938 0.103387 0.364290
Si Si2 0.964827 0.921202 0.804495
Si Si3 0.893590 0.669463 0.639815
Si Si4 0.280169 0.551546 0.362259
Si Si5 0.429426 0.827770 0.674438
Si Si6 0.331521 0.826567 0.234136
Si Si7 0.549887 0.571904 0.008270
Si Si8 0.129838 0.166957 0.430126
O O1 0.385204 0.143125 0.270891
O O2 0.460319 0.099958 0.432644
O O3 0.257919 0.146338 0.416789
O O4 0.305806 0.028027 0.328426
O O5 0.962680 0.881628 0.706408
O O6 0.848002 0.925191 0.858482
O O7 0.052734 0.880310 0.866015
O O8 0.000000 0.000000 0.781372
O O9 0.932076 0.750000 0.658084
O O10 0.765083 0.658201 0.661908
O O11 0.909691 0.648846 0.533543
O O12 0.348218 0.608927 0.303689
O O13 0.330762 0.555001 0.463916
O O14 0.375586 0.750000 0.659013
O O15 0.560641 0.820953 0.673059
O O16 0.406919 0.875878 0.586535
O O17 0.311008 0.750000 0.285198
O O18 0.500000 0.500000 0.052835
O O19 0.113985 0.250000 0.408279
#
# Coordination Sequence:
#
# PCOD8181978 Si02
#       8
#     8   8   8   8   8   8   8   8
#     4  11  22  41  63  92 127 164 202 256 311 370
#     4  11  22  42  64  91 120 161 206 262 305 361
#     4   9  20  39  64  91 118 160 207 246 303 368
#     4  10  21  41  61  86 123 162 208 251 306 364
#     4  11  23  37  60  93 126 163 203 253 312 369
#     4   9  18  34  60  89 120 161 203 247 297 364
#     4  10  23  38  61  93 124 166 203 252 310 371
#     4  11  23  42  66  92 125 163 204 255 309 368
#
# _framework density 19.389741999999998
#
# number of rings (size 3 to 8) (size 9 to 14) (size 15 to 20)
#    0.000    1.750    2.500    1.500    1.750    3.500 
#    4.500    0.000    0.000    0.000    0.000    0.000 
#    0.000    0.000    0.000    0.000    0.000    0.000 
#
# Total GULP energy -396588.248627 kJ/mol
# GULP energy per Si atom -12393.382770 kJ/mol
# Density = 1.934561 g / cm^3
# Si number density = 19.389742 Si / 1000 Ang^3
#
#
#
# Elastic Constant Matrix: (Units=GPa)
#
#
# Indices 1 2 3 4 5 6 
#
# 1 70.2668 24.5147 32.6137 0.0000 0.0000 0.0000
# 2 24.5147 142.5961 74.8634 0.0000 0.0000 0.0000
# 3 32.6137 74.8634 113.8712 0.0000 0.0000 0.0000
# 4 0.0000 0.0000 0.0000 34.0964 0.0000 0.0000
# 5 0.0000 0.0000 0.0000 0.0000 22.8481 0.0000
# 6 0.0000 0.0000 0.0000 0.0000 0.0000 24.8061
#
#
#
# Elastic Compliance Matrix: (Units=1/GPa)
#
#
# Indices 1 2 3 4 5 6 
#
# 1 0.016441 -0.000541 -0.004353 0.000000 0.000000 0.000000
# 2 -0.000541 0.010727 -0.006897 0.000000 0.000000 0.000000
# 3 -0.004353 -0.006897 0.014563 0.000000 0.000000 0.000000
# 4 0.000000 0.000000 0.000000 0.029329 0.000000 0.000000
# 5 0.000000 0.000000 0.000000 0.000000 0.043767 0.000000
# 6 0.000000 0.000000 0.000000 0.000000 0.000000 0.040313
#
#
# Mechanical properties :
#
#
# Convention : Reuss Voigt Hill
#
# Bulk Modulus (GPa) = 55.10279 65.63530 60.36905
# Shear Modulus (GPa) = 27.06040 29.33291 28.19666
#
# Velocity S-wave (km/s) = 3.73983 3.89370 3.81754
# Velocity P-wave (km/s) = 6.86503 7.35789 7.11573
#
# Compressibility (1/GPa) = 0.01814790
#
# Stress axis : x y z
#
# Youngs Moduli (GPa) = 60.82475 93.22290 68.66623
#
# Poissons Ratio (x) = 0.05044 0.29891
# Poissons Ratio (y) = 0.03291 0.47362
# Poissons Ratio (z) = 0.26477 0.64299
#
# Static dielectric constant tensor:
#      x y z
#    x 3.513600 0.000000 0.000000 
#    y 0.000000 3.955620 0.000000 
#    z 0.000000 0.000000 3.371830 
# 
# 
# High freq. dielectric constant tensor:
#      x y z
#    x 1.750620 0.000000 0.000000 
#    y 0.000000 1.774590 0.000000 
#    z 0.000000 0.000000 1.742420 
# 
# From -- ./inp_files/9423.got.cif
#   From: 2010.03.12/outbox.cif.g09.slc.cpg/sg39_5_cif.got.tgz:9423.got - 2010.04.14 02:53:20.
