data_PCOD8181591
_publ_section_title
;
Structure prediction by ZEFSAII (Michael W. Deem and Ramdas Pophale) SiO2 
 PCOD8181591
Probable space group: A B M 2
;
_chemical_formula_sum "Si O2"
_cell_formula_units_Z 56
_cell_length_a 19.935237
_cell_length_b 14.700702
_cell_length_c 9.009993
_cell_angle_alpha 90.000000
_cell_angle_beta 90.000000
_cell_angle_gamma 90.000000
_cell_volume 2640.486374
_symmetry_space_group_name_H-M "A B M 2"
_symmetry_group_IT_number 39
_symmetry_cell_setting 'orthorhombic'
loop_
_space_group_symop_operation_xyz
x,y,z
-x,-y,z
-x,1/2+y,z
x,1/2-y,z
x,1/2+y,1/2+z
-x,1/2-y,1/2+z
-x,y,1/2+z
x,-y,1/2+z
loop_
_atom_site_type_symbol
_atom_site_label
_atom_site_fract_x
_atom_site_fract_y
_atom_site_fract_z
Si Si1 0.473301 0.097703 0.715330
Si Si2 0.745795 0.988479 0.110090
Si Si3 0.162013 0.466591 0.358457
Si Si4 0.045436 0.353570 0.478724
Si Si5 0.345152 0.462827 0.862419
Si Si6 0.409145 0.151689 0.413282
Si Si7 0.912750 0.354830 0.310649
O O1 0.415545 0.087717 0.842398
O O2 0.444087 0.147292 0.573384
O O3 0.533414 0.152860 0.787881
O O4 0.500000 0.000000 0.662128
O O5 0.797179 0.930877 0.213357
O O6 0.700617 0.052238 0.216882
O O7 0.790708 0.050621 0.000755
O O8 0.695140 0.927011 0.008526
O O9 0.093108 0.413146 0.373618
O O10 0.148065 0.575437 0.340477
O O11 0.064009 0.250000 0.443189
O O12 0.054501 0.376600 0.651097
O O13 0.968798 0.373814 0.435720
O O14 0.356082 0.571487 0.887002
O O15 0.372512 0.250000 0.402818
O O16 0.887037 0.250000 0.318327
#
# Coordination Sequence:
#
# PCOD8181591 Si02
#       7
#     8   8   8   8   8   8   8
#     4  10  20  36  62  84 110 152 187 228 284 346
#     4  10  22  37  61  83 112 154 204 228 275 332
#     4  11  21  39  62  89 113 157 194 248 279 346
#     4  10  22  39  61  88 119 152 189 242 299 350
#     4  10  20  40  61  83 109 157 194 231 271 355
#     4  11  22  36  58  91 118 141 181 243 294 332
#     4  10  22  39  60  88 120 151 190 240 298 350
#
# _framework density 21.208214999999999
#
# number of rings (size 3 to 8) (size 9 to 14) (size 15 to 20)
#    0.000    1.714    2.857    2.143    4.000    1.143 
#    0.000    4.286    0.000    1.714    0.000    0.000 
#    0.000    0.000    0.000    0.000    0.000    0.000 
#
# Total GULP energy -347079.652596 kJ/mol
# GULP energy per Si atom -12395.701878 kJ/mol
# Density = 2.115994 g / cm^3
# Si number density = 21.208215 Si / 1000 Ang^3
#
#
#
# Elastic Constant Matrix: (Units=GPa)
#
#
# Indices 1 2 3 4 5 6 
#
# 1 75.7200 24.1240 25.6058 0.0000 0.0000 0.0000
# 2 24.1240 80.2454 17.4485 0.0000 0.0000 0.0000
# 3 25.6058 17.4485 110.2942 0.0000 0.0000 0.0000
# 4 0.0000 0.0000 0.0000 13.4708 0.0000 0.0000
# 5 0.0000 0.0000 0.0000 0.0000 40.0351 0.0000
# 6 0.0000 0.0000 0.0000 0.0000 0.0000 10.6049
#
#
#
# Elastic Compliance Matrix: (Units=1/GPa)
#
#
# Indices 1 2 3 4 5 6 
#
# 1 0.015486 -0.004012 -0.002961 0.000000 0.000000 0.000000
# 2 -0.004012 0.013945 -0.001275 0.000000 0.000000 0.000000
# 3 -0.002961 -0.001275 0.009956 0.000000 0.000000 0.000000
# 4 0.000000 0.000000 0.000000 0.074234 0.000000 0.000000
# 5 0.000000 0.000000 0.000000 0.000000 0.024978 0.000000
# 6 0.000000 0.000000 0.000000 0.000000 0.000000 0.094296
#
#
# Mechanical properties :
#
#
# Convention : Reuss Voigt Hill
#
# Bulk Modulus (GPa) = 43.68248 44.51290 44.09769
# Shear Modulus (GPa) = 19.45377 26.09425 22.77401
#
# Velocity S-wave (km/s) = 3.03194 3.51149 3.28049
# Velocity P-wave (km/s) = 5.73573 6.12167 5.93184
#
# Compressibility (1/GPa) = 0.02289247
#
# Stress axis : x y z
#
# Youngs Moduli (GPa) = 64.57527 71.71037 100.44566
#
# Poissons Ratio (x) = 0.28768 0.29737
# Poissons Ratio (y) = 0.25906 0.12804
# Poissons Ratio (z) = 0.19118 0.09141
#
# Static dielectric constant tensor:
#      x y z
#    x 3.901910 0.000000 0.000000 
#    y 0.000000 3.542720 0.000000 
#    z 0.000000 0.000000 4.046570 
# 
# 
# High freq. dielectric constant tensor:
#      x y z
#    x 1.836880 0.000000 0.000000 
#    y 0.000000 1.782460 0.000000 
#    z 0.000000 0.000000 1.851550 
# 
# From -- ./inp_files/3958.got.cif
#   From: 2010.03.12/outbox.cif.g09.slc.cpg/sg39_2_cif.got.tgz:3958.got - 2010.04.14 02:53:20.
