data_PCOD8181924
_publ_section_title
;
Structure prediction by ZEFSAII (Michael W. Deem and Ramdas Pophale) SiO2 
 PCOD8181924
Probable space group: A B M 2
;
_chemical_formula_sum "Si O2"
_cell_formula_units_Z 48
_cell_length_a 4.904999
_cell_length_b 16.651624
_cell_length_c 27.302170
_cell_angle_alpha 90.000000
_cell_angle_beta 90.000000
_cell_angle_gamma 90.000000
_cell_volume 2229.937472
_symmetry_space_group_name_H-M "A B M 2"
_symmetry_group_IT_number 39
_symmetry_cell_setting 'orthorhombic'
loop_
_space_group_symop_operation_xyz
x,y,z
-x,-y,z
-x,1/2+y,z
x,1/2-y,z
x,1/2+y,1/2+z
-x,1/2-y,1/2+z
-x,y,1/2+z
x,-y,1/2+z
loop_
_atom_site_type_symbol
_atom_site_label
_atom_site_fract_x
_atom_site_fract_y
_atom_site_fract_z
Si Si1 0.412023 0.658941 0.905940
Si Si2 0.068040 0.088839 0.241738
Si Si3 0.931960 0.911160 0.855676
Si Si4 0.245676 0.554602 0.995161
Si Si5 0.587977 0.341059 0.191473
Si Si6 0.754324 0.554602 0.602252
O O1 0.515254 0.750000 0.910961
O O2 0.623758 0.608176 0.872535
O O3 0.349824 0.624755 0.959706
O O4 0.123523 0.656271 0.878929
O O5 0.376242 0.108176 0.224878
O O6 0.999999 0.092364 0.298707
O O7 0.876476 0.156271 0.218484
O O8 0.000000 0.000000 0.221639
O O9 0.000000 0.000000 0.875774
O O10 0.500000 0.500000 0.004480
O O11 0.000000 0.500000 0.972782
O O12 0.154543 0.589967 0.048707
O O13 0.484746 0.250000 0.186452
O O14 0.650176 0.375245 0.137708
O O15 0.500000 0.500000 0.592933
O O16 0.000000 0.500000 0.624632
#
# Coordination Sequence:
#
# PCOD8181924 Si02
#       6
#     8   8   8   8   8   8
#     4  12  24  38  61  92 125 158 197 256 320 372
#     4  11  24  42  63  86 117 162 211 254 303 373
#     4  11  24  42  63  86 117 162 211 254 303 373
#     4  10  21  39  63  88 118 160 206 249 297 363
#     4  12  24  38  61  92 125 158 197 256 320 372
#     4  10  21  39  63  88 118 160 206 249 297 363
#
# _framework density 21.525266999999999
#
# number of rings (size 3 to 8) (size 9 to 14) (size 15 to 20)
#    0.000    1.000    0.000    8.000    0.000    7.333 
#    0.000    0.000    0.000   10.000    0.000    0.000 
#    0.000    0.000    0.000    0.000    0.000    0.000 
#
# Total GULP energy -297422.954663 kJ/mol
# GULP energy per Si atom -12392.623111 kJ/mol
# Density = 2.147627 g / cm^3
# Si number density = 21.525267 Si / 1000 Ang^3
#
#
#
# Elastic Constant Matrix: (Units=GPa)
#
#
# Indices 1 2 3 4 5 6 
#
# 1 100.6534 18.9052 28.9636 0.0000 0.0000 0.0000
# 2 18.9052 122.3881 48.9328 0.0000 0.0000 0.0000
# 3 28.9636 48.9328 135.8176 0.0000 0.0000 0.0000
# 4 0.0000 0.0000 0.0000 11.4350 0.0000 0.0000
# 5 0.0000 0.0000 0.0000 0.0000 34.5315 0.0000
# 6 0.0000 0.0000 0.0000 0.0000 0.0000 32.7683
#
#
#
# Elastic Compliance Matrix: (Units=1/GPa)
#
#
# Indices 1 2 3 4 5 6 
#
# 1 0.010662 -0.000862 -0.001963 0.000000 0.000000 0.000000
# 2 -0.000862 0.009615 -0.003280 0.000000 0.000000 0.000000
# 3 -0.001963 -0.003280 0.008963 0.000000 0.000000 0.000000
# 4 0.000000 0.000000 0.000000 0.087451 0.000000 0.000000
# 5 0.000000 0.000000 0.000000 0.000000 0.028959 0.000000
# 6 0.000000 0.000000 0.000000 0.000000 0.000000 0.030517
#
#
# Mechanical properties :
#
#
# Convention : Reuss Voigt Hill
#
# Bulk Modulus (GPa) = 58.72170 61.38471 60.05320
# Shear Modulus (GPa) = 25.76578 33.21745 29.49161
#
# Velocity S-wave (km/s) = 3.46352 3.93260 3.70549
# Velocity P-wave (km/s) = 6.58288 7.01426 6.80199
#
# Compressibility (1/GPa) = 0.01702948
#
# Stress axis : x y z
#
# Youngs Moduli (GPa) = 93.79196 103.99911 111.56542
#
# Poissons Ratio (x) = 0.08965 0.21901
# Poissons Ratio (y) = 0.08085 0.36599
# Poissons Ratio (z) = 0.18412 0.34116
#
# Static dielectric constant tensor:
#      x y z
#    x 4.081770 0.000000 0.000000 
#    y 0.000000 3.623190 0.000000 
#    z 0.000000 0.000000 4.393620 
# 
# 
# High freq. dielectric constant tensor:
#      x y z
#    x 1.860120 0.000000 0.000000 
#    y 0.000000 1.819550 0.000000 
#    z 0.000000 0.000000 1.865710 
# 
# From -- ./inp_files/16499.got.cif
#   From: 2010.03.12/outbox.cif.g09.slc.cpg/sg39_9_cif.got.tgz:16499.got - 2010.04.14 02:53:20.
