data_PCOD8181231
_publ_section_title
;
Structure prediction by ZEFSAII (Michael W. Deem and Ramdas Pophale) SiO2 
 PCOD8181231
Probable space group: A B M 2
;
_chemical_formula_sum "Si O2"
_cell_formula_units_Z 48
_cell_length_a 18.912378
_cell_length_b 9.017017
_cell_length_c 15.049035
_cell_angle_alpha 90.000000
_cell_angle_beta 90.000000
_cell_angle_gamma 90.000000
_cell_volume 2566.360606
_symmetry_space_group_name_H-M "A B M 2"
_symmetry_group_IT_number 39
_symmetry_cell_setting 'orthorhombic'
loop_
_space_group_symop_operation_xyz
x,y,z
-x,-y,z
-x,1/2+y,z
x,1/2-y,z
x,1/2+y,1/2+z
-x,1/2-y,1/2+z
-x,y,1/2+z
x,-y,1/2+z
loop_
_atom_site_type_symbol
_atom_site_label
_atom_site_fract_x
_atom_site_fract_y
_atom_site_fract_z
Si Si1 0.331764 0.425407 0.205440
Si Si2 0.180781 0.574647 0.768003
Si Si3 0.834337 0.574742 0.467762
Si Si4 0.425609 0.424329 0.367932
Si Si5 0.677131 0.924058 0.524168
Si Si6 0.925043 0.926377 0.114146
O O1 0.326702 0.250000 0.194979
O O2 0.257126 0.490621 0.240690
O O3 0.393447 0.471807 0.273216
O O4 0.351272 0.495334 0.111419
O O5 0.187338 0.750000 0.770698
O O6 0.158906 0.519497 0.865968
O O7 0.123383 0.521601 0.696479
O O8 0.847962 0.750000 0.476668
O O9 0.757508 0.530018 0.504188
O O10 0.892966 0.485992 0.522393
O O11 0.500000 0.500000 0.383708
O O12 0.436571 0.250000 0.372978
O O13 0.371320 0.478219 0.443211
O O14 0.670712 0.750000 0.538469
O O15 0.932213 0.750000 0.108876
O O16 0.000000 0.000000 0.130942
#
# Coordination Sequence:
#
# PCOD8181231 Si02
#       6
#     8   8   8   8   8   8
#     4  10  19  36  60  84 111 148 190 233 280 333
#     4   9  18  35  60  84 110 146 187 229 278 333
#     4  10  19  36  61  86 112 146 188 234 281 334
#     4  10  22  39  58  82 117 154 188 232 288 340
#     4  10  20  35  58  86 114 147 188 234 283 335
#     4  11  23  39  58  84 117 150 186 231 284 337
#
# _framework density 18.703529
#
# number of rings (size 3 to 8) (size 9 to 14) (size 15 to 20)
#    0.000    2.000    3.333    0.500    0.000    2.667 
#    0.000    7.500    0.000    0.000    0.000    0.000 
#    0.000    0.000    0.000    0.000    0.000    0.000 
#
# Total GULP energy -297661.377366 kJ/mol
# GULP energy per Si atom -12402.557390 kJ/mol
# Density = 1.866096 g / cm^3
# Si number density = 18.703529 Si / 1000 Ang^3
#
#
#
# Elastic Constant Matrix: (Units=GPa)
#
#
# Indices 1 2 3 4 5 6 
#
# 1 92.5139 29.4923 22.3983 0.0000 0.0000 0.0000
# 2 29.4923 33.5281 29.4282 0.0000 0.0000 0.0000
# 3 22.3983 29.4282 125.8913 0.0000 0.0000 0.0000
# 4 0.0000 0.0000 0.0000 30.4172 0.0000 0.0000
# 5 0.0000 0.0000 0.0000 0.0000 29.2042 0.0000
# 6 0.0000 0.0000 0.0000 0.0000 0.0000 30.3212
#
#
#
# Elastic Compliance Matrix: (Units=1/GPa)
#
#
# Indices 1 2 3 4 5 6 
#
# 1 0.015049 -0.013698 0.000525 0.000000 0.000000 0.000000
# 2 -0.013698 0.049993 -0.009249 0.000000 0.000000 0.000000
# 3 0.000525 -0.009249 0.010012 0.000000 0.000000 0.000000
# 4 0.000000 0.000000 0.000000 0.032876 0.000000 0.000000
# 5 0.000000 0.000000 0.000000 0.000000 0.034242 0.000000
# 6 0.000000 0.000000 0.000000 0.000000 0.000000 0.032980
#
#
# Mechanical properties :
#
#
# Convention : Reuss Voigt Hill
#
# Bulk Modulus (GPa) = 33.10278 46.06342 39.58310
# Shear Modulus (GPa) = 21.73282 29.36282 25.54782
#
# Velocity S-wave (km/s) = 3.41246 3.96650 3.69987
# Velocity P-wave (km/s) = 5.76746 6.75716 6.28183
#
# Compressibility (1/GPa) = 0.03020894
#
# Stress axis : x y z
#
# Youngs Moduli (GPa) = 66.45005 20.00280 99.87885
#
# Poissons Ratio (x) = 0.27400 -0.05239
# Poissons Ratio (y) = 0.91022 0.92380
# Poissons Ratio (z) = -0.03486 0.18501
#
# Static dielectric constant tensor:
#      x y z
#    x 3.438010 0.000000 0.000000 
#    y 0.000000 3.148090 0.000000 
#    z 0.000000 0.000000 3.641380 
# 
# 
# High freq. dielectric constant tensor:
#      x y z
#    x 1.727700 0.000000 0.000000 
#    y 0.000000 1.702210 0.000000 
#    z 0.000000 0.000000 1.742830 
# 
# From -- ./inp_files/6787.got.cif
#   From: 2010.03.12/outbox.cif.g09.slc.cpg/sg39_4_cif.got.tgz:6787.got - 2010.04.14 02:53:20.
