data_PCOD8181720
_publ_section_title
;
Structure prediction by ZEFSAII (Michael W. Deem and Ramdas Pophale) SiO2 
 PCOD8181720
Probable space group: A B M 2
;
_chemical_formula_sum "Si O2"
_cell_formula_units_Z 64
_cell_length_a 12.174534
_cell_length_b 14.290996
_cell_length_c 17.834182
_cell_angle_alpha 90.000000
_cell_angle_beta 90.000000
_cell_angle_gamma 90.000000
_cell_volume 3102.901854
_symmetry_space_group_name_H-M "A B M 2"
_symmetry_group_IT_number 39
_symmetry_cell_setting 'orthorhombic'
loop_
_space_group_symop_operation_xyz
x,y,z
-x,-y,z
-x,1/2+y,z
x,1/2-y,z
x,1/2+y,1/2+z
-x,1/2-y,1/2+z
-x,y,1/2+z
x,-y,1/2+z
loop_
_atom_site_type_symbol
_atom_site_label
_atom_site_fract_x
_atom_site_fract_y
_atom_site_fract_z
Si Si1 0.025982 0.861050 0.938250
Si Si2 0.193423 0.150605 0.689560
Si Si3 0.597676 0.851225 0.781923
Si Si4 0.179533 0.448237 0.158988
Si Si5 0.978839 0.146038 0.768362
Si Si6 0.354462 0.140685 0.268980
Si Si7 0.834189 0.027036 0.493978
Si Si8 0.626760 0.494945 0.898838
O O1 0.035288 0.750000 0.957771
O O2 0.059911 0.880619 0.851792
O O3 0.900576 0.897636 0.944204
O O4 0.102916 0.925652 0.991712
O O5 0.166916 0.250000 0.647296
O O6 0.318726 0.154675 0.714193
O O7 0.110902 0.141479 0.760966
O O8 0.181161 0.059231 0.639826
O O9 0.583858 0.750000 0.821461
O O10 0.480408 0.880520 0.746955
O O11 0.645994 0.921636 0.841511
O O12 0.072368 0.423070 0.206876
O O13 0.284345 0.411820 0.205247
O O14 0.171721 0.416033 0.073222
O O15 0.934783 0.250000 0.750088
O O16 0.322667 0.250000 0.270022
O O17 0.340226 0.099740 0.353499
O O18 0.709414 0.009406 0.467500
O O19 0.500000 0.500000 0.927671
#
# Coordination Sequence:
#
# PCOD8181720 Si02
#       8
#     8   8   8   8   8   8   8   8
#     4  10  24  44  65  88 121 164 212 260 305 365
#     4  10  21  35  58  89 119 155 196 251 307 354
#     4   9  18  36  63  94 117 149 206 258 304 349
#     4  12  24  38  58  91 127 160 200 252 308 370
#     4  10  22  39  65  92 117 157 206 255 304 357
#     4  10  21  38  65  93 120 159 210 260 300 352
#     4  11  26  40  59  95 128 167 204 244 318 386
#     4  10  20  40  64  92 124 164 205 259 305 364
#
# _framework density 20.625851999999998
#
# number of rings (size 3 to 8) (size 9 to 14) (size 15 to 20)
#    0.000    1.750    1.250    2.250    7.000    4.500 
#    2.250    0.000    0.000    0.000    0.000    0.000 
#    0.000    0.000    0.000    0.000    0.000    0.000 
#
# Total GULP energy -396421.613020 kJ/mol
# GULP energy per Si atom -12388.175407 kJ/mol
# Density = 2.057891 g / cm^3
# Si number density = 20.625852 Si / 1000 Ang^3
#
#
#
# Elastic Constant Matrix: (Units=GPa)
#
#
# Indices 1 2 3 4 5 6 
#
# 1 120.5551 23.9355 45.0585 0.0000 0.0000 0.0000
# 2 23.9355 124.3219 32.0258 0.0000 0.0000 0.0000
# 3 45.0585 32.0258 96.2606 0.0000 0.0000 0.0000
# 4 0.0000 0.0000 0.0000 17.0724 0.0000 0.0000
# 5 0.0000 0.0000 0.0000 0.0000 7.3244 0.0000
# 6 0.0000 0.0000 0.0000 0.0000 0.0000 21.5707
#
#
#
# Elastic Compliance Matrix: (Units=1/GPa)
#
#
# Indices 1 2 3 4 5 6 
#
# 1 0.010126 -0.000797 -0.004475 0.000000 0.000000 0.000000
# 2 -0.000797 0.008860 -0.002575 0.000000 0.000000 0.000000
# 3 -0.004475 -0.002575 0.013340 0.000000 0.000000 0.000000
# 4 0.000000 0.000000 0.000000 0.058574 0.000000 0.000000
# 5 0.000000 0.000000 0.000000 0.000000 0.136530 0.000000
# 6 0.000000 0.000000 0.000000 0.000000 0.000000 0.046359
#
#
# Mechanical properties :
#
#
# Convention : Reuss Voigt Hill
#
# Bulk Modulus (GPa) = 60.12116 60.35302 60.23709
# Shear Modulus (GPa) = 16.94771 25.20137 21.07454
#
# Velocity S-wave (km/s) = 2.86959 3.49927 3.19996
# Velocity P-wave (km/s) = 6.33965 6.75654 6.55141
#
# Compressibility (1/GPa) = 0.01663308
#
# Stress axis : x y z
#
# Youngs Moduli (GPa) = 98.75986 112.86252 74.96465
#
# Poissons Ratio (x) = 0.08993 0.33543
# Poissons Ratio (y) = 0.07869 0.19302
# Poissons Ratio (z) = 0.44191 0.29061
#
# Static dielectric constant tensor:
#      x y z
#    x 3.833980 0.000000 0.000000 
#    y 0.000000 4.218160 0.000000 
#    z 0.000000 0.000000 3.279220 
# 
# 
# High freq. dielectric constant tensor:
#      x y z
#    x 1.818780 0.000000 0.000000 
#    y 0.000000 1.826770 0.000000 
#    z 0.000000 0.000000 1.762590 
# 
# From -- ./inp_files/12349.got.cif
#   From: 2010.03.12/outbox.cif.g09.slc.cpg/sg39_7_cif.got.tgz:12349.got - 2010.04.14 02:53:20.
