data_PCOD8181473
_publ_section_title
;
Structure prediction by ZEFSAII (Michael W. Deem and Ramdas Pophale) SiO2 
 PCOD8181473
Probable space group: A B M 2
;
_chemical_formula_sum "Si O2"
_cell_formula_units_Z 60
_cell_length_a 16.969304
_cell_length_b 9.456396
_cell_length_c 18.960237
_cell_angle_alpha 90.000000
_cell_angle_beta 90.000000
_cell_angle_gamma 90.000000
_cell_volume 3042.520004
_symmetry_space_group_name_H-M "A B M 2"
_symmetry_group_IT_number 39
_symmetry_cell_setting 'orthorhombic'
loop_
_space_group_symop_operation_xyz
x,y,z
-x,-y,z
-x,1/2+y,z
x,1/2-y,z
x,1/2+y,1/2+z
-x,1/2-y,1/2+z
-x,y,1/2+z
x,-y,1/2+z
loop_
_atom_site_type_symbol
_atom_site_label
_atom_site_fract_x
_atom_site_fract_y
_atom_site_fract_z
Si Si1 0.288952 0.413225 0.026430
Si Si2 0.070516 0.910056 0.348643
Si Si3 0.119510 0.410215 0.998569
Si Si4 0.707059 0.414337 0.683261
Si Si5 0.422579 0.914660 0.264368
Si Si6 0.000000 0.000000 0.613639
Si Si7 0.855835 0.093933 0.204057
Si Si8 0.424968 0.587421 0.429780
O O1 0.278992 0.250000 0.007503
O O2 0.325479 0.430732 0.104132
O O3 0.201861 0.485102 0.022021
O O4 0.349563 0.479341 0.969998
O O5 0.041824 0.750000 0.360167
O O6 0.094399 0.980727 0.423985
O O7 0.137522 0.918146 0.288965
O O8 0.000000 0.000000 0.316412
O O9 0.138340 0.250000 0.979706
O O10 0.054438 0.409780 0.060344
O O11 0.705786 0.250000 0.707799
O O12 0.654239 0.512666 0.732220
O O13 0.797057 0.469324 0.681812
O O14 0.429657 0.750000 0.241392
O O15 0.410880 0.928989 0.347268
O O16 0.500000 0.000000 0.239073
O O17 0.059661 0.085842 0.663938
O O18 0.821351 0.250000 0.186178
O O19 0.500000 0.500000 0.455381
O O20 0.439026 0.750000 0.451145
#
# Coordination Sequence:
#
# PCOD8181473 Si02
#       8
#     8   8   8   8   8   4   8   8
#     4   9  19  36  58  84 112 150 196 237 287 347
#     4  10  21  37  57  80 109 146 194 244 293 351
#     4  10  20  35  57  82 111 151 195 240 291 350
#     4  11  23  39  60  86 120 157 196 242 295 353
#     4  10  21  39  64  91 122 156 196 241 290 351
#     4  12  20  36  62  80 120 156 198 244 298 356
#     4  11  24  38  57  86 117 153 197 248 301 352
#     4   9  19  37  63  88 116 152 192 235 286 345
#
# _framework density 19.720495
#
# number of rings (size 3 to 8) (size 9 to 14) (size 15 to 20)
#    0.000    1.867    2.667    1.200    1.867    2.133 
#    0.000    2.667    0.000    0.000    0.000    0.000 
#    0.000    0.000    0.000    0.000    0.000    0.000 
#
# Total GULP energy -371788.201371 kJ/mol
# GULP energy per Si atom -12392.940046 kJ/mol
# Density = 1.967561 g / cm^3
# Si number density = 19.720495 Si / 1000 Ang^3
#
#
#
# Elastic Constant Matrix: (Units=GPa)
#
#
# Indices 1 2 3 4 5 6 
#
# 1 130.9924 46.1721 42.8707 0.0000 0.0000 0.0000
# 2 46.1721 92.0152 30.4358 0.0000 0.0000 0.0000
# 3 42.8707 30.4358 88.5026 0.0000 0.0000 0.0000
# 4 0.0000 0.0000 0.0000 19.5742 0.0000 0.0000
# 5 0.0000 0.0000 0.0000 0.0000 34.2012 0.0000
# 6 0.0000 0.0000 0.0000 0.0000 0.0000 33.2286
#
#
#
# Elastic Compliance Matrix: (Units=1/GPa)
#
#
# Indices 1 2 3 4 5 6 
#
# 1 0.010192 -0.003928 -0.003586 0.000000 0.000000 0.000000
# 2 -0.003928 0.013777 -0.002835 0.000000 0.000000 0.000000
# 3 -0.003586 -0.002835 0.014011 0.000000 0.000000 0.000000
# 4 0.000000 0.000000 0.000000 0.051088 0.000000 0.000000
# 5 0.000000 0.000000 0.000000 0.000000 0.029239 0.000000
# 6 0.000000 0.000000 0.000000 0.000000 0.000000 0.030095
#
#
# Mechanical properties :
#
#
# Convention : Reuss Voigt Hill
#
# Bulk Modulus (GPa) = 57.86572 61.16305 59.51439
# Shear Modulus (GPa) = 28.59426 30.20291 29.39859
#
# Velocity S-wave (km/s) = 3.81199 3.91775 3.86523
# Velocity P-wave (km/s) = 6.98438 7.17964 7.08269
#
# Compressibility (1/GPa) = 0.01728139
#
# Stress axis : x y z
#
# Youngs Moduli (GPa) = 98.11298 72.58696 71.37134
#
# Poissons Ratio (x) = 0.28513 0.25596
# Poissons Ratio (y) = 0.38540 0.20233
# Poissons Ratio (z) = 0.35186 0.20578
#
# Static dielectric constant tensor:
#      x y z
#    x 3.716450 0.000000 0.000000 
#    y 0.000000 3.393400 0.000000 
#    z 0.000000 0.000000 3.672320 
# 
# 
# High freq. dielectric constant tensor:
#      x y z
#    x 1.767570 0.000000 0.000000 
#    y 0.000000 1.744090 0.000000 
#    z 0.000000 0.000000 1.780090 
# 
# From -- ./inp_files/12938.got.cif
#   From: 2010.03.12/outbox.cif.g09.slc.cpg/sg39_7_cif.got.tgz:12938.got - 2010.04.14 02:53:20.
