data_PCOD8181474
_publ_section_title
;
Structure prediction by ZEFSAII (Michael W. Deem and Ramdas Pophale) SiO2 
 PCOD8181474
Probable space group: A B M 2
;
_chemical_formula_sum "Si O2"
_cell_formula_units_Z 48
_cell_length_a 18.623843
_cell_length_b 9.151285
_cell_length_c 15.073785
_cell_angle_alpha 90.000000
_cell_angle_beta 90.000000
_cell_angle_gamma 90.000000
_cell_volume 2569.056758
_symmetry_space_group_name_H-M "A B M 2"
_symmetry_group_IT_number 39
_symmetry_cell_setting 'orthorhombic'
loop_
_space_group_symop_operation_xyz
x,y,z
-x,-y,z
-x,1/2+y,z
x,1/2-y,z
x,1/2+y,1/2+z
-x,1/2-y,1/2+z
-x,y,1/2+z
x,-y,1/2+z
loop_
_atom_site_type_symbol
_atom_site_label
_atom_site_fract_x
_atom_site_fract_y
_atom_site_fract_z
Si Si1 0.574335 0.922142 0.184710
Si Si2 0.683226 0.581158 0.339007
Si Si3 0.823789 0.420652 0.044351
Si Si4 0.925441 0.579598 0.702905
Si Si5 0.659443 0.082644 0.039234
Si Si6 0.827787 0.578408 0.865272
O O1 0.562005 0.750000 0.178767
O O2 0.627242 0.966255 0.264259
O O3 0.500000 0.000000 0.205397
O O4 0.606212 0.977090 0.091710
O O5 0.705913 0.750000 0.330322
O O6 0.647608 0.552901 0.434933
O O7 0.754182 0.485609 0.326360
O O8 0.832963 0.250000 0.023347
O O9 0.870852 0.473791 0.126877
O O10 0.741034 0.456057 0.065952
O O11 0.850071 0.508361 0.958465
O O12 0.939769 0.750000 0.693273
O O13 0.891716 0.540825 0.797780
O O14 0.000000 0.500000 0.690299
O O15 0.641373 0.250000 0.063516
O O16 0.817019 0.750000 0.876951
#
# Coordination Sequence:
#
# PCOD8181474 Si02
#       6
#     8   8   8   8   8   8
#     4  11  23  37  54  79 110 143 178 216 262 315
#     4   9  20  38  58  80 107 140 177 218 265 315
#     4   9  19  37  58  79 106 140 177 219 267 316
#     4  10  22  37  53  77 110 146 180 217 265 318
#     4   9  18  36  59  80 105 137 174 219 267 314
#     4  10  20  35  57  83 107 136 178 223 266 314
#
# _framework density 18.683900000000001
#
# number of rings (size 3 to 8) (size 9 to 14) (size 15 to 20)
#    0.000    2.333    0.000    3.000    0.000    8.667 
#    0.000    5.000    0.000    0.000    0.000    0.000 
#    0.000    0.000    0.000    0.000    0.000    0.000 
#
# Total GULP energy -297689.166490 kJ/mol
# GULP energy per Si atom -12403.715270 kJ/mol
# Density = 1.864137 g / cm^3
# Si number density = 18.683900 Si / 1000 Ang^3
#
#
#
# Elastic Constant Matrix: (Units=GPa)
#
#
# Indices 1 2 3 4 5 6 
#
# 1 60.7245 29.4320 25.9181 0.0000 0.0000 0.0000
# 2 29.4320 61.3400 32.4198 0.0000 0.0000 0.0000
# 3 25.9181 32.4198 74.3818 0.0000 0.0000 0.0000
# 4 0.0000 0.0000 0.0000 31.4701 0.0000 0.0000
# 5 0.0000 0.0000 0.0000 0.0000 17.2165 0.0000
# 6 0.0000 0.0000 0.0000 0.0000 0.0000 37.0515
#
#
#
# Elastic Compliance Matrix: (Units=1/GPa)
#
#
# Indices 1 2 3 4 5 6 
#
# 1 0.022358 -0.008589 -0.004047 0.000000 0.000000 0.000000
# 2 -0.008589 0.024481 -0.007678 0.000000 0.000000 0.000000
# 3 -0.004047 -0.007678 0.018201 0.000000 0.000000 0.000000
# 4 0.000000 0.000000 0.000000 0.031776 0.000000 0.000000
# 5 0.000000 0.000000 0.000000 0.000000 0.058084 0.000000
# 6 0.000000 0.000000 0.000000 0.000000 0.000000 0.026989
#
#
# Mechanical properties :
#
#
# Convention : Reuss Voigt Hill
#
# Bulk Modulus (GPa) = 40.96164 41.33180 41.14672
# Shear Modulus (GPa) = 21.67747 24.39272 23.03510
#
# Velocity S-wave (km/s) = 3.40990 3.61716 3.51506
# Velocity P-wave (km/s) = 6.12163 6.29402 6.20842
#
# Compressibility (1/GPa) = 0.02441308
#
# Stress axis : x y z
#
# Youngs Moduli (GPa) = 44.72680 40.84728 54.94295
#
# Poissons Ratio (x) = 0.35083 0.22236
# Poissons Ratio (y) = 0.38415 0.42183
# Poissons Ratio (z) = 0.18101 0.31361
#
# Static dielectric constant tensor:
#      x y z
#    x 3.343030 0.000000 0.000000 
#    y 0.000000 3.381590 0.000000 
#    z 0.000000 0.000000 3.539130 
# 
# 
# High freq. dielectric constant tensor:
#      x y z
#    x 1.719600 0.000000 0.000000 
#    y 0.000000 1.725370 0.000000 
#    z 0.000000 0.000000 1.736840 
# 
# From -- ./inp_files/10033.got.cif
#   From: 2010.03.12/outbox.cif.g09.slc.cpg/sg39_6_cif.got.tgz:10033.got - 2010.04.14 02:53:20.
