data_PCOD8181734
_publ_section_title
;
Structure prediction by ZEFSAII (Michael W. Deem and Ramdas Pophale) SiO2 
 PCOD8181734
Probable space group: A B M 2
;
_chemical_formula_sum "Si O2"
_cell_formula_units_Z 40
_cell_length_a 8.508903
_cell_length_b 10.048951
_cell_length_c 22.189069
_cell_angle_alpha 90.000000
_cell_angle_beta 90.000000
_cell_angle_gamma 90.000000
_cell_volume 1897.288534
_symmetry_space_group_name_H-M "A B M 2"
_symmetry_group_IT_number 39
_symmetry_cell_setting 'orthorhombic'
loop_
_space_group_symop_operation_xyz
x,y,z
-x,-y,z
-x,1/2+y,z
x,1/2-y,z
x,1/2+y,1/2+z
-x,1/2-y,1/2+z
-x,y,1/2+z
x,-y,1/2+z
loop_
_atom_site_type_symbol
_atom_site_label
_atom_site_fract_x
_atom_site_fract_y
_atom_site_fract_z
Si Si1 0.171258 0.250000 0.192480
Si Si2 0.683986 0.980873 0.266640
Si Si3 0.143257 0.098109 0.382698
Si Si4 0.283445 0.250000 0.065227
Si Si5 0.809266 0.250000 0.220195
Si Si6 0.680673 0.516616 0.502111
Si Si7 0.355360 0.750000 0.091268
O O1 0.260527 0.118288 0.214308
O O2 0.162090 0.250000 0.120183
O O3 0.995005 0.250000 0.215113
O O4 0.725487 0.920866 0.331582
O O5 0.500000 0.000000 0.260939
O O6 0.766592 0.122064 0.259097
O O7 0.082318 0.250000 0.381331
O O8 0.220672 0.068827 0.446508
O O9 0.000000 0.000000 0.369803
O O10 0.456322 0.250000 0.094747
O O11 0.250131 0.376195 0.023171
O O12 0.717312 0.250000 0.157280
O O13 0.500000 0.500000 0.482345
O O14 0.701507 0.618655 0.556941
#
# Coordination Sequence:
#
# PCOD8181734 Si02
#       7
#     4   8   8   4   4   8   4
#     4  12  24  45  66 105 140 175 223 279 343 400
#     4  12  26  46  71  98 133 181 230 275 333 410
#     4  12  27  46  69  98 137 177 224 284 345 405
#     4  10  22  37  68  99 136 175 229 273 327 404
#     4  12  26  41  72 101 140 177 219 285 343 398
#     4  10  22  42  68  97 133 178 227 276 329 400
#     4  10  20  41  64  99 134 183 225 271 327 400
#
# _framework density 21.082719000000001
#
# number of rings (size 3 to 8) (size 9 to 14) (size 15 to 20)
#    0.000    0.800    2.000    5.400    2.800    3.200 
#    0.000    0.000    0.000    0.000    0.000    0.000 
#    0.000    0.000    0.000    0.000    0.000    0.000 
#
# Total GULP energy -248156.928166 kJ/mol
# GULP energy per Si atom -12407.846408 kJ/mol
# Density = 2.103473 g / cm^3
# Si number density = 21.082719 Si / 1000 Ang^3
#
#
#
# Elastic Constant Matrix: (Units=GPa)
#
#
# Indices 1 2 3 4 5 6 
#
# 1 108.4916 40.3427 20.2278 0.0000 0.0000 0.0000
# 2 40.3427 185.9376 38.2622 0.0000 0.0000 0.0000
# 3 20.2278 38.2622 90.8620 0.0000 0.0000 0.0000
# 4 0.0000 0.0000 0.0000 26.2054 0.0000 0.0000
# 5 0.0000 0.0000 0.0000 0.0000 13.0931 0.0000
# 6 0.0000 0.0000 0.0000 0.0000 0.0000 34.4507
#
#
#
# Elastic Compliance Matrix: (Units=1/GPa)
#
#
# Indices 1 2 3 4 5 6 
#
# 1 0.010202 -0.001912 -0.001466 0.000000 0.000000 0.000000
# 2 -0.001912 0.006247 -0.002205 0.000000 0.000000 0.000000
# 3 -0.001466 -0.002205 0.012261 0.000000 0.000000 0.000000
# 4 0.000000 0.000000 0.000000 0.038160 0.000000 0.000000
# 5 0.000000 0.000000 0.000000 0.000000 0.076376 0.000000
# 6 0.000000 0.000000 0.000000 0.000000 0.000000 0.029027
#
#
# Mechanical properties :
#
#
# Convention : Reuss Voigt Hill
#
# Bulk Modulus (GPa) = 57.00148 64.77297 60.88722
# Shear Modulus (GPa) = 26.41518 33.84706 30.13112
#
# Velocity S-wave (km/s) = 3.54352 4.01114 3.78456
# Velocity P-wave (km/s) = 6.62101 7.22788 6.93109
#
# Compressibility (1/GPa) = 0.01754340
#
# Stress axis : x y z
#
# Youngs Moduli (GPa) = 98.02461 160.08559 81.56238
#
# Poissons Ratio (x) = 0.30604 0.11957
# Poissons Ratio (y) = 0.18740 0.17984
# Poissons Ratio (z) = 0.14371 0.35297
#
# Static dielectric constant tensor:
#      x y z
#    x 3.946890 0.000000 0.000000 
#    y 0.000000 4.130210 0.000000 
#    z 0.000000 0.000000 3.769030 
# 
# 
# High freq. dielectric constant tensor:
#      x y z
#    x 1.824090 0.000000 0.000000 
#    y 0.000000 1.850450 0.000000 
#    z 0.000000 0.000000 1.835830 
# 
# From -- ./inp_files/13903.got.cif
#   From: 2010.03.12/outbox.cif.g09.slc.cpg/sg39_7_cif.got.tgz:13903.got - 2010.04.14 02:53:20.
