data_PCOD8181485
_publ_section_title
;
Structure prediction by ZEFSAII (Michael W. Deem and Ramdas Pophale) SiO2 
 PCOD8181485
Probable space group: A B M 2
;
_chemical_formula_sum "Si O2"
_cell_formula_units_Z 56
_cell_length_a 23.860474
_cell_length_b 23.688151
_cell_length_c 5.062949
_cell_angle_alpha 90.000000
_cell_angle_beta 90.000000
_cell_angle_gamma 90.000000
_cell_volume 2861.631992
_symmetry_space_group_name_H-M "A B M 2"
_symmetry_group_IT_number 39
_symmetry_cell_setting 'orthorhombic'
loop_
_space_group_symop_operation_xyz
x,y,z
-x,-y,z
-x,1/2+y,z
x,1/2-y,z
x,1/2+y,1/2+z
-x,1/2-y,1/2+z
-x,y,1/2+z
x,-y,1/2+z
loop_
_atom_site_type_symbol
_atom_site_label
_atom_site_fract_x
_atom_site_fract_y
_atom_site_fract_z
Si Si1 0.339958 0.315110 0.296110
Si Si2 0.722563 0.537903 0.672131
Si Si3 0.625266 0.622482 0.767888
Si Si4 0.157955 0.315105 0.006231
Si Si5 0.561674 0.524718 0.920715
Si Si6 0.032987 0.682795 0.407722
Si Si7 0.220651 0.645989 0.002558
O O1 0.350305 0.250000 0.234648
O O2 0.384190 0.334625 0.523999
O O3 0.278572 0.325342 0.412999
O O4 0.348041 0.347700 0.021987
O O5 0.726760 0.486477 0.466999
O O6 0.665045 0.572803 0.660254
O O7 0.772415 0.581560 0.600956
O O8 0.566396 0.591205 0.845642
O O9 0.155937 0.250000 0.098442
O O10 0.096511 0.338908 0.935352
O O11 0.179489 0.352168 0.251977
O O12 0.197191 0.318954 0.749765
O O13 0.500000 0.500000 0.989167
O O14 0.592626 0.485904 0.699904
O O15 0.033111 0.750000 0.407529
O O16 0.006051 0.658934 0.140676
#
# Coordination Sequence:
#
# PCOD8181485 Si02
#       7
#     8   8   8   8   8   8   8
#     4  11  22  36  53  78 113 151 186 219 252 308
#     4  11  21  35  52  73 106 140 170 216 269 317
#     4  11  21  35  56  82 109 144 182 218 267 324
#     4  11  20  32  51  74 107 145 178 219 262 314
#     4  10  20  35  57  87 113 135 169 225 281 323
#     4   9  17  29  45  68  99 135 173 215 268 320
#     4  11  22  34  50  76 105 142 185 216 257 321
#
# _framework density 19.569254999999998
#
# number of rings (size 3 to 8) (size 9 to 14) (size 15 to 20)
#    0.000    1.429    0.000    8.571    0.000    2.286 
#    0.000    0.000    0.000    0.000    0.000   40.000 
#    0.000   40.000    0.000    0.000    0.000    0.000 
#
# Total GULP energy -347031.481034 kJ/mol
# GULP energy per Si atom -12393.981466 kJ/mol
# Density = 1.952471 g / cm^3
# Si number density = 19.569255 Si / 1000 Ang^3
#
#
#
# Elastic Constant Matrix: (Units=GPa)
#
#
# Indices 1 2 3 4 5 6 
#
# 1 57.4754 29.5552 8.9798 0.0000 0.0000 0.0000
# 2 29.5552 74.8279 16.8592 0.0000 0.0000 0.0000
# 3 8.9798 16.8592 116.2974 0.0000 0.0000 0.0000
# 4 0.0000 0.0000 0.0000 41.7784 0.0000 0.0000
# 5 0.0000 0.0000 0.0000 0.0000 2.5387 0.0000
# 6 0.0000 0.0000 0.0000 0.0000 0.0000 20.9575
#
#
#
# Elastic Compliance Matrix: (Units=1/GPa)
#
#
# Indices 1 2 3 4 5 6 
#
# 1 0.021856 -0.008531 -0.000451 0.000000 0.000000 0.000000
# 2 -0.008531 0.017145 -0.001827 0.000000 0.000000 0.000000
# 3 -0.000451 -0.001827 0.008898 0.000000 0.000000 0.000000
# 4 0.000000 0.000000 0.000000 0.023936 0.000000 0.000000
# 5 0.000000 0.000000 0.000000 0.000000 0.393904 0.000000
# 6 0.000000 0.000000 0.000000 0.000000 0.000000 0.047716
#
#
# Mechanical properties :
#
#
# Convention : Reuss Voigt Hill
#
# Bulk Modulus (GPa) = 38.04870 39.93216 38.99043
# Shear Modulus (GPa) = 9.19399 25.93534 17.56467
#
# Velocity S-wave (km/s) = 2.16988 3.64443 2.99919
# Velocity P-wave (km/s) = 5.07574 6.17730 5.65341
#
# Compressibility (1/GPa) = 0.02628211
#
# Stress axis : x y z
#
# Youngs Moduli (GPa) = 45.75395 58.32560 112.38133
#
# Poissons Ratio (x) = 0.49758 0.05067
# Poissons Ratio (y) = 0.39033 0.20529
# Poissons Ratio (z) = 0.02063 0.10655
#
# Static dielectric constant tensor:
#      x y z
#    x 3.741290 0.000000 0.000000 
#    y 0.000000 3.574560 0.000000 
#    z 0.000000 0.000000 4.039520 
# 
# 
# High freq. dielectric constant tensor:
#      x y z
#    x 1.736580 0.000000 0.000000 
#    y 0.000000 1.731440 0.000000 
#    z 0.000000 0.000000 1.797950 
# 
# From -- ./inp_files/1279.got.cif
#   From: 2010.03.12/outbox.cif.g09.slc.cpg/sg39_1_cif.got.tgz:1279.got - 2010.04.14 02:53:20.
