data_PCOD8181112
_publ_section_title
;
Structure prediction by ZEFSAII (Michael W. Deem and Ramdas Pophale) SiO2 
 PCOD8181112
Probable space group: A B M 2
;
_chemical_formula_sum "Si O2"
_cell_formula_units_Z 64
_cell_length_a 14.246924
_cell_length_b 8.692445
_cell_length_c 31.184105
_cell_angle_alpha 90.000000
_cell_angle_beta 90.000000
_cell_angle_gamma 90.000000
_cell_volume 3861.858376
_symmetry_space_group_name_H-M "A B M 2"
_symmetry_group_IT_number 39
_symmetry_cell_setting 'orthorhombic'
loop_
_space_group_symop_operation_xyz
x,y,z
-x,-y,z
-x,1/2+y,z
x,1/2-y,z
x,1/2+y,1/2+z
-x,1/2-y,1/2+z
-x,y,1/2+z
x,-y,1/2+z
loop_
_atom_site_type_symbol
_atom_site_label
_atom_site_fract_x
_atom_site_fract_y
_atom_site_fract_z
Si Si1 0.289755 0.070865 0.078860
Si Si2 0.602031 0.928069 0.502695
Si Si3 0.098780 0.067442 0.711304
Si Si4 0.095961 0.069668 0.118737
Si Si5 0.398305 0.929631 0.908278
Si Si6 0.281350 0.932633 0.744931
Si Si7 0.602488 0.432099 0.662463
Si Si8 0.604497 0.932147 0.822931
O O1 0.309649 0.250000 0.073771
O O2 0.179324 0.037605 0.085298
O O3 0.347424 0.005848 0.119523
O O4 0.321594 0.988657 0.035815
O O5 0.586275 0.750000 0.510460
O O6 0.646846 0.958666 0.455253
O O7 0.500000 0.000000 0.510165
O O8 0.095541 0.250000 0.712361
O O9 0.121244 0.010558 0.663412
O O10 0.177933 0.004842 0.743309
O O11 0.000000 0.000000 0.727428
O O12 0.083636 0.250000 0.127922
O O13 0.000000 0.000000 0.099249
O O14 0.403377 0.750000 0.896831
O O15 0.500000 0.000000 0.912697
O O16 0.348591 0.018547 0.868753
O O17 0.274235 0.750000 0.747229
O O18 0.338728 0.988691 0.703339
O O19 0.331513 0.996693 0.786590
O O20 0.500000 0.500000 0.665813
O O21 0.596496 0.250000 0.661905
O O22 0.600686 0.750000 0.818383
O O23 0.500000 0.000000 0.819152
#
# Coordination Sequence:
#
# PCOD8181112 Si02
#       8
#     8   8   8   8   8   8   8   8
#     4  10  20  34  49  69  98 132 167 203 246 294
#     4  10  20  32  49  73 100 131 169 206 247 296
#     4  11  21  34  53  75  98 128 166 209 254 299
#     4  10  19  34  52  72  97 127 165 209 254 297
#     4   9  17  31  49  70  96 128 164 206 251 293
#     4  11  21  36  52  70 100 134 169 209 250 294
#     4  10  21  34  46  64  95 133 169 201 235 284
#     4  11  21  33  50  75 102 133 171 207 249 299
#
# _framework density 16.572330999999998
#
# number of rings (size 3 to 8) (size 9 to 14) (size 15 to 20)
#    0.000    1.750    1.250    6.000    0.000    6.000 
#    0.000    0.000    0.000    0.000    0.000    0.875 
#    0.000    4.000    0.000    0.000    0.000    0.000 
#
# Total GULP energy -396748.246176 kJ/mol
# GULP energy per Si atom -12398.382693 kJ/mol
# Density = 1.653461 g / cm^3
# Si number density = 16.572331 Si / 1000 Ang^3
#
#
#
# Elastic Constant Matrix: (Units=GPa)
#
#
# Indices 1 2 3 4 5 6 
#
# 1 105.6739 49.2370 62.8635 0.0000 0.0000 0.0000
# 2 49.2370 99.6724 47.4480 0.0000 0.0000 0.0000
# 3 62.8635 47.4480 122.9397 0.0000 0.0000 0.0000
# 4 0.0000 0.0000 0.0000 24.5716 0.0000 0.0000
# 5 0.0000 0.0000 0.0000 0.0000 -10.8264 0.0000
# 6 0.0000 0.0000 0.0000 0.0000 0.0000 28.5583
#
#
#
# Elastic Compliance Matrix: (Units=1/GPa)
#
#
# Indices 1 2 3 4 5 6 
#
# 1 0.015183 -0.004661 -0.005965 0.000000 0.000000 0.000000
# 2 -0.004661 0.013722 -0.002913 0.000000 0.000000 0.000000
# 3 -0.005965 -0.002913 0.012308 0.000000 0.000000 0.000000
# 4 0.000000 0.000000 0.000000 0.040697 0.000000 0.000000
# 5 0.000000 0.000000 0.000000 0.000000 -0.092367 0.000000
# 6 0.000000 0.000000 0.000000 0.000000 0.000000 0.035016
#
#
# Mechanical properties :
#
#
# Convention : Reuss Voigt Hill
#
# Bulk Modulus (GPa) = 70.73853 71.93144 71.33499
# Shear Modulus (GPa) = 88.73381 19.70986 54.22184
#
# Velocity S-wave (km/s) = 7.32527 3.45240 5.72620
# Velocity P-wave (km/s) = 10.69222 7.70654 9.31972
#
# Compressibility (1/GPa) = 0.01413657
#
# Stress axis : x y z
#
# Youngs Moduli (GPa) = 65.86286 72.87698 81.24647
#
# Poissons Ratio (x) = 0.33966 0.48462
# Poissons Ratio (y) = 0.30697 0.23664
# Poissons Ratio (z) = 0.39286 0.21226
#
# Static dielectric constant tensor:
#      x y z
#    x 19.117450 0.000000 0.000000 
#    y 0.000000 3.250470 0.000000 
#    z 0.000000 0.000000 3.534550 
# 
# 
# High freq. dielectric constant tensor:
#      x y z
#    x 1.617960 0.000000 0.000000 
#    y 0.000000 1.654230 0.000000 
#    z 0.000000 0.000000 1.632170 
# 
# From -- ./inp_files/18005.got.cif
#   From: 2010.03.12/outbox.cif.g09.slc.cpg/sg39_10_cif.got.tgz:18005.got - 2010.04.14 02:53:20.
