data_PCOD8181831
_publ_section_title
;
Structure prediction by ZEFSAII (Michael W. Deem and Ramdas Pophale) SiO2 
 PCOD8181831
Probable space group: A B M 2
;
_chemical_formula_sum "Si O2"
_cell_formula_units_Z 56
_cell_length_a 13.486452
_cell_length_b 9.625867
_cell_length_c 20.186527
_cell_angle_alpha 90.000000
_cell_angle_beta 90.000000
_cell_angle_gamma 90.000000
_cell_volume 2620.590575
_symmetry_space_group_name_H-M "A B M 2"
_symmetry_group_IT_number 39
_symmetry_cell_setting 'orthorhombic'
loop_
_space_group_symop_operation_xyz
x,y,z
-x,-y,z
-x,1/2+y,z
x,1/2-y,z
x,1/2+y,1/2+z
-x,1/2-y,1/2+z
-x,y,1/2+z
x,-y,1/2+z
loop_
_atom_site_type_symbol
_atom_site_label
_atom_site_fract_x
_atom_site_fract_y
_atom_site_fract_z
Si Si1 0.786659 0.900522 0.247130
Si Si2 0.409924 0.092245 0.173555
Si Si3 0.401376 0.587615 0.932724
Si Si4 0.090251 0.897768 0.469986
Si Si5 0.692830 0.598579 0.572202
Si Si6 0.751756 0.085884 0.362241
Si Si7 0.115146 0.969968 0.611451
O O1 0.808232 0.750000 0.280492
O O2 0.670933 0.911684 0.230813
O O3 0.810238 0.026540 0.297480
O O4 0.849787 0.902213 0.179661
O O5 0.442843 0.250000 0.157242
O O6 0.500000 0.000000 0.200480
O O7 0.367514 0.024573 0.106654
O O8 0.500000 0.500000 0.949783
O O9 0.424690 0.750000 0.914266
O O10 0.347808 0.505805 0.872191
O O11 0.325928 0.582290 0.994365
O O12 0.052680 0.750000 0.442732
O O13 0.181621 0.946360 0.425833
O O14 0.124649 0.874484 0.546120
O O15 0.000000 0.000000 0.463261
O O16 0.653807 0.750000 0.595694
O O17 0.810195 0.596265 0.592199
O O18 0.728475 0.250000 0.353014
O O19 0.000000 0.000000 0.622358
#
# Coordination Sequence:
#
# PCOD8181831 Si02
#       7
#     8   8   8   8   8   8   8
#     4  10  23  41  61  89 126 170 211 260 319 381
#     4  10  21  37  60  88 122 163 209 259 317 377
#     4  11  23  40  63  94 128 168 213 262 318 382
#     4  10  22  40  65  95 125 164 211 261 317 375
#     4  10  21  37  61  94 130 167 209 259 316 374
#     4  11  24  43  64  90 126 169 212 266 320 379
#     4  10  21  40  66  98 131 165 214 265 316 374
#
# _framework density 21.369228
#
# number of rings (size 3 to 8) (size 9 to 14) (size 15 to 20)
#    0.000    1.714    1.429    2.143    0.000   10.857 
#    0.000    2.857    0.000    0.000    0.000    0.000 
#    0.000    0.000    0.000    0.000    0.000    0.000 
#
# Total GULP energy -346885.706766 kJ/mol
# GULP energy per Si atom -12388.775242 kJ/mol
# Density = 2.132059 g / cm^3
# Si number density = 21.369228 Si / 1000 Ang^3
#
#
#
# Elastic Constant Matrix: (Units=GPa)
#
#
# Indices 1 2 3 4 5 6 
#
# 1 110.5668 54.1688 40.8564 0.0000 0.0000 0.0000
# 2 54.1688 172.5567 56.6088 0.0000 0.0000 0.0000
# 3 40.8564 56.6088 86.4238 0.0000 0.0000 0.0000
# 4 0.0000 0.0000 0.0000 22.6917 0.0000 0.0000
# 5 0.0000 0.0000 0.0000 0.0000 13.1160 0.0000
# 6 0.0000 0.0000 0.0000 0.0000 0.0000 21.5342
#
#
#
# Elastic Compliance Matrix: (Units=1/GPa)
#
#
# Indices 1 2 3 4 5 6 
#
# 1 0.011668 -0.002360 -0.003970 0.000000 0.000000 0.000000
# 2 -0.002360 0.007859 -0.004032 0.000000 0.000000 0.000000
# 3 -0.003970 -0.004032 0.016088 0.000000 0.000000 0.000000
# 4 0.000000 0.000000 0.000000 0.044069 0.000000 0.000000
# 5 0.000000 0.000000 0.000000 0.000000 0.076243 0.000000
# 6 0.000000 0.000000 0.000000 0.000000 0.000000 0.046438
#
#
# Mechanical properties :
#
#
# Convention : Reuss Voigt Hill
#
# Bulk Modulus (GPa) = 67.15424 74.75724 70.95574
# Shear Modulus (GPa) = 21.92486 25.99594 23.96040
#
# Velocity S-wave (km/s) = 3.20660 3.49164 3.35215
# Velocity P-wave (km/s) = 6.72336 7.16344 6.94689
#
# Compressibility (1/GPa) = 0.01489109
#
# Stress axis : x y z
#
# Youngs Moduli (GPa) = 85.70764 127.24542 62.15650
#
# Poissons Ratio (x) = 0.30035 0.24674
# Poissons Ratio (y) = 0.20230 0.25060
# Poissons Ratio (z) = 0.34023 0.51303
#
# Static dielectric constant tensor:
#      x y z
#    x 3.868400 0.000000 0.000000 
#    y 0.000000 4.011020 0.000000 
#    z 0.000000 0.000000 3.739490 
# 
# 
# High freq. dielectric constant tensor:
#      x y z
#    x 1.832610 0.000000 0.000000 
#    y 0.000000 1.846760 0.000000 
#    z 0.000000 0.000000 1.830750 
# 
# From -- ./inp_files/14789.got.cif
#   From: 2010.03.12/outbox.cif.g09.slc.cpg/sg39_8_cif.got.tgz:14789.got - 2010.04.14 02:53:20.
