data_PCOD8181709
_publ_section_title
;
Structure prediction by ZEFSAII (Michael W. Deem and Ramdas Pophale) SiO2 
 PCOD8181709
Probable space group: A B M 2
;
_chemical_formula_sum "Si O2"
_cell_formula_units_Z 56
_cell_length_a 5.076076
_cell_length_b 16.568964
_cell_length_c 31.336417
_cell_angle_alpha 90.000000
_cell_angle_beta 90.000000
_cell_angle_gamma 90.000000
_cell_volume 2635.559395
_symmetry_space_group_name_H-M "A B M 2"
_symmetry_group_IT_number 39
_symmetry_cell_setting 'orthorhombic'
loop_
_space_group_symop_operation_xyz
x,y,z
-x,-y,z
-x,1/2+y,z
x,1/2-y,z
x,1/2+y,1/2+z
-x,1/2-y,1/2+z
-x,y,1/2+z
x,-y,1/2+z
loop_
_atom_site_type_symbol
_atom_site_label
_atom_site_fract_x
_atom_site_fract_y
_atom_site_fract_z
Si Si1 0.195709 0.657140 0.065530
Si Si2 0.207134 0.845530 0.348626
Si Si3 0.247828 0.947061 0.983424
Si Si4 0.298188 0.342820 0.120457
Si Si5 0.586618 0.090355 0.710453
Si Si6 0.704934 0.845770 0.400602
Si Si7 0.095853 0.656639 0.254420
O O1 0.151609 0.750000 0.052342
O O2 0.483966 0.642647 0.084430
O O3 0.981620 0.631481 0.100858
O O4 0.154558 0.603510 0.024077
O O5 0.210834 0.750000 0.345636
O O6 0.478294 0.877186 0.368706
O O7 0.168935 0.879414 0.300916
O O8 0.975651 0.874863 0.379591
O O9 0.333135 0.886599 0.946152
O O10 0.500000 0.000000 0.995827
O O11 0.000000 0.000000 0.968334
O O12 0.294713 0.250000 0.135892
O O13 0.352961 0.398994 0.160680
O O14 0.348444 0.149083 0.723782
O O15 0.848560 0.107124 0.737246
O O16 0.500000 0.000000 0.719987
O O17 0.690935 0.750000 0.407405
O O18 0.012052 0.750000 0.256760
#
# Coordination Sequence:
#
# PCOD8181709 Si02
#       7
#     8   8   8   8   8   8   8
#     4  10  22  41  64  88 115 153 201 248 294 349
#     4   9  19  36  63  91 113 151 207 255 292 342
#     4  12  25  40  59  89 125 157 193 237 298 363
#     4  10  21  39  64  90 116 154 204 249 294 353
#     4  12  25  40  60  93 131 164 201 251 314 370
#     4  10  20  39  63  87 117 155 201 248 294 348
#     4  11  22  41  66  90 121 164 213 258 303 361
#
# _framework density 21.247862999999999
#
# number of rings (size 3 to 8) (size 9 to 14) (size 15 to 20)
#    0.000    1.429    0.000    5.571    0.000    5.143 
#    0.000   12.857    0.000    0.000    0.000    0.000 
#    0.000    0.000    0.000    0.000    0.000    0.000 
#
# Total GULP energy -347382.416033 kJ/mol
# GULP energy per Si atom -12406.514858 kJ/mol
# Density = 2.119950 g / cm^3
# Si number density = 21.247863 Si / 1000 Ang^3
#
#
#
# Elastic Constant Matrix: (Units=GPa)
#
#
# Indices 1 2 3 4 5 6 
#
# 1 122.6661 30.7046 28.1127 0.0000 0.0000 0.0000
# 2 30.7046 58.5724 51.8501 0.0000 0.0000 0.0000
# 3 28.1127 51.8501 118.6341 0.0000 0.0000 0.0000
# 4 0.0000 0.0000 0.0000 -2.5637 0.0000 0.0000
# 5 0.0000 0.0000 0.0000 0.0000 36.0520 0.0000
# 6 0.0000 0.0000 0.0000 0.0000 0.0000 29.1454
#
#
#
# Elastic Compliance Matrix: (Units=1/GPa)
#
#
# Indices 1 2 3 4 5 6 
#
# 1 0.009385 -0.004813 -0.000120 0.000000 0.000000 0.000000
# 2 -0.004813 0.030315 -0.012109 0.000000 0.000000 0.000000
# 3 -0.000120 -0.012109 0.013750 0.000000 0.000000 0.000000
# 4 0.000000 0.000000 0.000000 -0.390068 0.000000 0.000000
# 5 0.000000 0.000000 0.000000 0.000000 0.027738 0.000000
# 6 0.000000 0.000000 0.000000 0.000000 0.000000 0.034311
#
#
# Mechanical properties :
#
#
# Convention : Reuss Voigt Hill
#
# Bulk Modulus (GPa) = 51.63891 57.91194 54.77543
# Shear Modulus (GPa) = -21.36478 25.14043 1.88782
#
# Velocity S-wave (km/s) = -3.17441 3.44350 0.94361
# Velocity P-wave (km/s) = 3.30455 6.56695 5.19831
#
# Compressibility (1/GPa) = 0.01936524
#
# Stress axis : x y z
#
# Youngs Moduli (GPa) = 106.55837 32.98673 72.72660
#
# Poissons Ratio (x) = 0.15877 0.00875
# Poissons Ratio (y) = 0.51287 0.88065
# Poissons Ratio (z) = 0.01281 0.39944
#
# Static dielectric constant tensor:
#      x y z
#    x 4.050370 0.000000 0.000000 
#    y 0.000000 3.869190 0.000000 
#    z 0.000000 0.000000 3.842050 
# 
# 
# High freq. dielectric constant tensor:
#      x y z
#    x 1.851770 0.000000 0.000000 
#    y 0.000000 1.817700 0.000000 
#    z 0.000000 0.000000 1.841710 
# 
# From -- ./inp_files/17261.got.cif
#   From: 2010.03.12/outbox.cif.g09.slc.cpg/sg39_9_cif.got.tgz:17261.got - 2010.04.14 02:53:20.
