data_PCOD8181256
_publ_section_title
;
Structure prediction by ZEFSAII (Michael W. Deem and Ramdas Pophale) SiO2 
 PCOD8181256
Probable space group: A B M 2
;
_chemical_formula_sum "Si O2"
_cell_formula_units_Z 64
_cell_length_a 13.900605
_cell_length_b 19.114764
_cell_length_c 12.316621
_cell_angle_alpha 90.000000
_cell_angle_beta 90.000000
_cell_angle_gamma 90.000000
_cell_volume 3272.609756
_symmetry_space_group_name_H-M "A B M 2"
_symmetry_group_IT_number 39
_symmetry_cell_setting 'orthorhombic'
loop_
_space_group_symop_operation_xyz
x,y,z
-x,-y,z
-x,1/2+y,z
x,1/2-y,z
x,1/2+y,1/2+z
-x,1/2-y,1/2+z
-x,y,1/2+z
x,-y,1/2+z
loop_
_atom_site_type_symbol
_atom_site_label
_atom_site_fract_x
_atom_site_fract_y
_atom_site_fract_z
Si Si1 0.691265 0.412561 0.022200
Si Si2 0.871108 0.830997 0.579465
Si Si3 0.369712 0.059307 0.285210
Si Si4 0.881037 0.826491 0.825698
Si Si5 0.578719 0.904746 0.738190
Si Si6 0.250924 0.067004 0.084116
Si Si7 0.040783 0.077830 0.995018
Si Si8 0.324882 0.826455 0.425271
O O1 0.779776 0.358860 0.013085
O O2 0.617099 0.389924 0.116530
O O3 0.731689 0.488917 0.044307
O O4 0.639229 0.410238 0.906007
O O5 0.887505 0.750000 0.551165
O O6 0.849129 0.845395 0.704952
O O7 0.966990 0.873411 0.556887
O O8 0.463607 0.092998 0.229828
O O9 0.276112 0.076884 0.211617
O O10 0.379132 0.975783 0.289008
O O11 0.933761 0.750000 0.829100
O O12 0.785717 0.821742 0.894667
O O13 0.946213 0.888588 0.875084
O O14 0.610256 0.844558 0.821077
O O15 0.138595 0.082024 0.065027
O O16 0.327117 0.116517 0.020925
O O17 0.000000 0.000000 0.981176
O O18 0.359423 0.750000 0.467267
#
# Coordination Sequence:
#
# PCOD8181256 Si02
#       8
#     8   8   8   8   8   8   8   8
#     4  11  21  39  64  93 128 160 206 262 309 370
#     4  11  23  40  61  90 125 164 206 254 317 376
#     4  10  23  37  64  94 129 162 200 264 317 369
#     4   9  20  38  59  84 117 163 210 252 304 366
#     4  10  21  36  62  96 122 160 209 253 309 374
#     4  10  22  40  60  92 128 162 212 254 316 370
#     4  11  22  37  60  93 123 163 211 262 309 366
#     4  10  19  37  63  85 119 165 209 255 300 371
#
# _framework density 19.556258
#
# number of rings (size 3 to 8) (size 9 to 14) (size 15 to 20)
#    0.000    1.750    3.750    0.375    1.750    3.000 
#    0.000    1.875    0.000    0.000    0.000    0.000 
#    0.000    0.000    0.000    0.000    0.000    0.000 
#
# Total GULP energy -396734.102109 kJ/mol
# GULP energy per Si atom -12397.940691 kJ/mol
# Density = 1.951175 g / cm^3
# Si number density = 19.556258 Si / 1000 Ang^3
#
#
#
# Elastic Constant Matrix: (Units=GPa)
#
#
# Indices 1 2 3 4 5 6 
#
# 1 95.6139 35.4210 35.3160 0.0000 0.0000 0.0000
# 2 35.4210 114.8146 31.0951 0.0000 0.0000 0.0000
# 3 35.3160 31.0951 95.9529 0.0000 0.0000 0.0000
# 4 0.0000 0.0000 0.0000 24.4279 0.0000 0.0000
# 5 0.0000 0.0000 0.0000 0.0000 27.7639 0.0000
# 6 0.0000 0.0000 0.0000 0.0000 0.0000 15.2023
#
#
#
# Elastic Compliance Matrix: (Units=1/GPa)
#
#
# Indices 1 2 3 4 5 6 
#
# 1 0.012966 -0.002968 -0.003810 0.000000 0.000000 0.000000
# 2 -0.002968 0.010227 -0.002222 0.000000 0.000000 0.000000
# 3 -0.003810 -0.002222 0.012544 0.000000 0.000000 0.000000
# 4 0.000000 0.000000 0.000000 0.040937 0.000000 0.000000
# 5 0.000000 0.000000 0.000000 0.000000 0.036018 0.000000
# 6 0.000000 0.000000 0.000000 0.000000 0.000000 0.065780
#
#
# Mechanical properties :
#
#
# Convention : Reuss Voigt Hill
#
# Bulk Modulus (GPa) = 56.38046 56.67174 56.52610
# Shear Modulus (GPa) = 24.70552 27.11543 25.91047
#
# Velocity S-wave (km/s) = 3.55816 3.72766 3.64389
# Velocity P-wave (km/s) = 6.76558 6.89703 6.83162
#
# Compressibility (1/GPa) = 0.01773664
#
# Stress axis : x y z
#
# Youngs Moduli (GPa) = 77.12708 97.77946 79.71821
#
# Poissons Ratio (x) = 0.29021 0.30374
# Poissons Ratio (y) = 0.22892 0.17712
# Poissons Ratio (z) = 0.29387 0.21725
#
# Static dielectric constant tensor:
#      x y z
#    x 3.486590 0.000000 0.000000 
#    y 0.000000 3.828880 0.000000 
#    z 0.000000 0.000000 3.540020 
# 
# 
# High freq. dielectric constant tensor:
#      x y z
#    x 1.755500 0.000000 0.000000 
#    y 0.000000 1.761050 0.000000 
#    z 0.000000 0.000000 1.757410 
# 
# From -- ./inp_files/6660.got.cif
#   From: 2010.03.12/outbox.cif.g09.slc.cpg/sg39_4_cif.got.tgz:6660.got - 2010.04.14 02:53:20.
