data_PCOD8181150
_publ_section_title
;
Structure prediction by ZEFSAII (Michael W. Deem and Ramdas Pophale) SiO2 
 PCOD8181150
Probable space group: A B M 2
;
_chemical_formula_sum "Si O2"
_cell_formula_units_Z 64
_cell_length_a 9.003639
_cell_length_b 13.263302
_cell_length_c 27.081458
_cell_angle_alpha 90.000000
_cell_angle_beta 90.000000
_cell_angle_gamma 90.000000
_cell_volume 3234.013095
_symmetry_space_group_name_H-M "A B M 2"
_symmetry_group_IT_number 39
_symmetry_cell_setting 'orthorhombic'
loop_
_space_group_symop_operation_xyz
x,y,z
-x,-y,z
-x,1/2+y,z
x,1/2-y,z
x,1/2+y,1/2+z
-x,1/2-y,1/2+z
-x,y,1/2+z
x,-y,1/2+z
loop_
_atom_site_type_symbol
_atom_site_label
_atom_site_fract_x
_atom_site_fract_y
_atom_site_fract_z
Si Si1 0.181520 0.860434 0.097090
Si Si2 0.349327 0.867794 0.275954
Si Si3 0.343026 0.531047 0.171819
Si Si4 0.582571 0.134475 0.862299
Si Si5 0.320508 0.366075 0.936077
Si Si6 0.168342 0.471953 0.024050
Si Si7 0.831972 0.532971 0.853210
Si Si8 0.144559 0.365518 0.122469
O O1 0.174349 0.750000 0.074797
O O2 0.300810 0.870170 0.140604
O O3 0.029821 0.891262 0.125042
O O4 0.228250 0.928123 0.050731
O O5 0.332645 0.750000 0.262247
O O6 0.363223 0.938042 0.228370
O O7 0.489465 0.885197 0.312239
O O8 0.201663 0.908909 0.302422
O O9 0.500000 0.500000 0.150087
O O10 0.228876 0.438683 0.161014
O O11 0.636446 0.250000 0.864368
O O12 0.479026 0.109748 0.910008
O O13 0.725669 0.063550 0.862614
O O14 0.313286 0.250000 0.953452
O O15 0.191073 0.385123 0.896249
O O16 0.282143 0.441359 0.980978
O O17 0.180309 0.383153 0.064601
O O18 0.000000 0.500000 0.005667
O O19 0.000000 0.500000 0.852053
O O20 0.180903 0.250000 0.136882
#
# Coordination Sequence:
#
# PCOD8181150 Si02
#       8
#     8   8   8   8   8   8   8   8
#     4   9  19  37  58  80 112 152 189 230 281 333
#     4  10  21  39  59  79 108 149 189 228 279 333
#     4  11  21  34  55  82 113 146 185 232 278 331
#     4   9  20  39  60  81 111 148 185 226 276 334
#     4  10  19  34  57  82 111 151 189 224 273 330
#     4   9  17  32  56  85 112 145 190 236 279 325
#     4  11  22  37  59  86 115 142 180 230 280 332
#     4   9  19  36  57  81 113 151 189 230 278 330
#
# _framework density 19.789653000000001
#
# number of rings (size 3 to 8) (size 9 to 14) (size 15 to 20)
#    0.000    2.250    0.000    5.625    0.000    3.500 
#    0.000    6.250    0.000    7.500    0.000    0.000 
#    0.000    0.000    0.000    0.000    0.000    0.000 
#
# Total GULP energy -396492.108444 kJ/mol
# GULP energy per Si atom -12390.378389 kJ/mol
# Density = 1.974461 g / cm^3
# Si number density = 19.789653 Si / 1000 Ang^3
#
#
#
# Elastic Constant Matrix: (Units=GPa)
#
#
# Indices 1 2 3 4 5 6 
#
# 1 115.1160 55.0062 51.7940 0.0000 0.0000 0.0000
# 2 55.0062 130.3355 48.6217 0.0000 0.0000 0.0000
# 3 51.7940 48.6217 106.6479 0.0000 0.0000 0.0000
# 4 0.0000 0.0000 0.0000 30.4051 0.0000 0.0000
# 5 0.0000 0.0000 0.0000 0.0000 16.2144 0.0000
# 6 0.0000 0.0000 0.0000 0.0000 0.0000 22.4679
#
#
#
# Elastic Compliance Matrix: (Units=1/GPa)
#
#
# Indices 1 2 3 4 5 6 
#
# 1 0.012368 -0.003590 -0.004370 0.000000 0.000000 0.000000
# 2 -0.003590 0.010287 -0.002946 0.000000 0.000000 0.000000
# 3 -0.004370 -0.002946 0.012842 0.000000 0.000000 0.000000
# 4 0.000000 0.000000 0.000000 0.032889 0.000000 0.000000
# 5 0.000000 0.000000 0.000000 0.000000 0.061674 0.000000
# 6 0.000000 0.000000 0.000000 0.000000 0.000000 0.044508
#
#
# Mechanical properties :
#
#
# Convention : Reuss Voigt Hill
#
# Bulk Modulus (GPa) = 73.07358 73.66036 73.36697
# Shear Modulus (GPa) = 24.88276 26.92932 25.90604
#
# Velocity S-wave (km/s) = 3.54978 3.69287 3.62203
# Velocity P-wave (km/s) = 7.33529 7.44886 7.39230
#
# Compressibility (1/GPa) = 0.01368484
#
# Stress axis : x y z
#
# Youngs Moduli (GPa) = 80.85120 97.21374 77.86713
#
# Poissons Ratio (x) = 0.34896 0.34030
# Poissons Ratio (y) = 0.29022 0.22943
# Poissons Ratio (z) = 0.35334 0.28644
#
# Static dielectric constant tensor:
#      x y z
#    x 3.564640 0.000000 0.000000 
#    y 0.000000 3.853040 0.000000 
#    z 0.000000 0.000000 3.471710 
# 
# 
# High freq. dielectric constant tensor:
#      x y z
#    x 1.754430 0.000000 0.000000 
#    y 0.000000 1.788940 0.000000 
#    z 0.000000 0.000000 1.761310 
# 
# From -- ./inp_files/15725.got.cif
#   From: 2010.03.12/outbox.cif.g09.slc.cpg/sg39_8_cif.got.tgz:15725.got - 2010.04.14 02:53:20.
