data_PCOD8181165
_publ_section_title
;
Structure prediction by ZEFSAII (Michael W. Deem and Ramdas Pophale) SiO2 
 PCOD8181165
Probable space group: A B M 2
;
_chemical_formula_sum "Si O2"
_cell_formula_units_Z 64
_cell_length_a 21.775113
_cell_length_b 8.777155
_cell_length_c 16.416161
_cell_angle_alpha 90.000000
_cell_angle_beta 90.000000
_cell_angle_gamma 90.000000
_cell_volume 3137.514835
_symmetry_space_group_name_H-M "A B M 2"
_symmetry_group_IT_number 39
_symmetry_cell_setting 'orthorhombic'
loop_
_space_group_symop_operation_xyz
x,y,z
-x,-y,z
-x,1/2+y,z
x,1/2-y,z
x,1/2+y,1/2+z
-x,1/2-y,1/2+z
-x,y,1/2+z
x,-y,1/2+z
loop_
_atom_site_type_symbol
_atom_site_label
_atom_site_fract_x
_atom_site_fract_y
_atom_site_fract_z
Si Si1 0.225083 0.074499 0.993840
Si Si2 0.846258 0.585736 0.618985
Si Si3 0.640583 0.068668 0.999850
Si Si4 0.824614 0.427125 0.846756
Si Si5 0.565916 0.070247 0.837729
Si Si6 0.260828 0.915726 0.237014
Si Si7 0.065725 0.927389 0.251191
Si Si8 0.626487 0.069566 0.666810
O O1 0.229421 0.250000 0.967056
O O2 0.179317 0.971828 0.940394
O O3 0.186112 0.057508 0.076401
O O4 0.292564 0.005107 0.001365
O O5 0.848702 0.750000 0.571026
O O6 0.804647 0.614796 0.697647
O O7 0.912837 0.544271 0.656975
O O8 0.645999 0.250000 0.006668
O O9 0.603843 0.007451 0.081145
O O10 0.607872 0.019603 0.914911
O O11 0.824970 0.250000 0.829302
O O12 0.757662 0.492673 0.817873
O O13 0.887124 0.495319 0.812982
O O14 0.560369 0.250000 0.836271
O O15 0.590845 0.013981 0.749066
O O16 0.500000 0.000000 0.853115
O O17 0.291765 0.750000 0.256150
O O18 0.303659 0.017455 0.179187
O O19 0.061930 0.750000 0.271841
O O20 0.000000 0.000000 0.264779
O O21 0.622082 0.250000 0.656091
#
# Coordination Sequence:
#
# PCOD8181165 Si02
#       8
#     8   8   8   8   8   8   8   8
#     4  12  23  36  58  90 123 155 198 249 308 372
#     4   9  19  35  56  83 118 153 189 237 297 357
#     4  11  23  41  64  93 128 167 207 259 321 380
#     4  11  22  36  57  83 118 159 198 247 304 362
#     4  10  25  45  64  87 121 164 212 261 314 375
#     4  10  19  34  57  86 118 151 191 240 297 360
#     4  10  21  39  61  85 115 154 203 249 299 361
#     4  11  22  38  62  93 123 161 206 254 312 379
#
# _framework density 20.398309999999999
#
# number of rings (size 3 to 8) (size 9 to 14) (size 15 to 20)
#    0.000    1.500    1.250    5.250    0.000    6.000 
#    0.000    3.125    0.000    1.500    0.000    0.000 
#    0.000    0.000    0.000    0.000    0.000    0.000 
#
# Total GULP energy -396424.157178 kJ/mol
# GULP energy per Si atom -12388.254912 kJ/mol
# Density = 2.035188 g / cm^3
# Si number density = 20.398310 Si / 1000 Ang^3
#
#
#
# Elastic Constant Matrix: (Units=GPa)
#
#
# Indices 1 2 3 4 5 6 
#
# 1 78.4634 29.1001 49.4005 0.0000 0.0000 0.0000
# 2 29.1001 92.7254 37.7720 0.0000 0.0000 0.0000
# 3 49.4005 37.7720 113.8216 0.0000 0.0000 0.0000
# 4 0.0000 0.0000 0.0000 29.1031 0.0000 0.0000
# 5 0.0000 0.0000 0.0000 0.0000 24.1995 0.0000
# 6 0.0000 0.0000 0.0000 0.0000 0.0000 29.6546
#
#
#
# Elastic Compliance Matrix: (Units=1/GPa)
#
#
# Indices 1 2 3 4 5 6 
#
# 1 0.018179 -0.002880 -0.006934 0.000000 0.000000 0.000000
# 2 -0.002880 0.012927 -0.003040 0.000000 0.000000 0.000000
# 3 -0.006934 -0.003040 0.012804 0.000000 0.000000 0.000000
# 4 0.000000 0.000000 0.000000 0.034361 0.000000 0.000000
# 5 0.000000 0.000000 0.000000 0.000000 0.041323 0.000000
# 6 0.000000 0.000000 0.000000 0.000000 0.000000 0.033722
#
#
# Mechanical properties :
#
#
# Convention : Reuss Voigt Hill
#
# Bulk Modulus (GPa) = 54.94147 57.50617 56.22382
# Shear Modulus (GPa) = 27.01393 27.84062 27.42728
#
# Velocity S-wave (km/s) = 3.64307 3.69839 3.67084
# Velocity P-wave (km/s) = 6.68496 6.81838 6.75200
#
# Compressibility (1/GPa) = 0.01820119
#
# Stress axis : x y z
#
# Youngs Moduli (GPa) = 55.00944 77.35931 78.10161
#
# Poissons Ratio (x) = 0.22283 0.54155
# Poissons Ratio (y) = 0.15845 0.23740
# Poissons Ratio (z) = 0.38143 0.23514
#
# Static dielectric constant tensor:
#      x y z
#    x 3.506150 0.000000 0.000000 
#    y 0.000000 3.866960 0.000000 
#    z 0.000000 0.000000 4.045520 
# 
# 
# High freq. dielectric constant tensor:
#      x y z
#    x 1.776570 0.000000 0.000000 
#    y 0.000000 1.806630 0.000000 
#    z 0.000000 0.000000 1.804200 
# 
# From -- ./inp_files/13222.got.cif
#   From: 2010.03.12/outbox.cif.g09.slc.cpg/sg39_7_cif.got.tgz:13222.got - 2010.04.14 02:53:20.
