data_PCOD8181287
_publ_section_title
;
Structure prediction by ZEFSAII (Michael W. Deem and Ramdas Pophale) SiO2 
 PCOD8181287
Probable space group: A B M 2
;
_chemical_formula_sum "Si O2"
_cell_formula_units_Z 56
_cell_length_a 19.842548
_cell_length_b 9.253600
_cell_length_c 15.510555
_cell_angle_alpha 90.000000
_cell_angle_beta 90.000000
_cell_angle_gamma 90.000000
_cell_volume 2847.970590
_symmetry_space_group_name_H-M "A B M 2"
_symmetry_group_IT_number 39
_symmetry_cell_setting 'orthorhombic'
loop_
_space_group_symop_operation_xyz
x,y,z
-x,-y,z
-x,1/2+y,z
x,1/2-y,z
x,1/2+y,1/2+z
-x,1/2-y,1/2+z
-x,y,1/2+z
x,-y,1/2+z
loop_
_atom_site_type_symbol
_atom_site_label
_atom_site_fract_x
_atom_site_fract_y
_atom_site_fract_z
Si Si1 0.060851 0.408552 0.718920
Si Si2 0.939885 0.090666 0.019939
Si Si3 0.429083 0.077641 0.608989
Si Si4 0.197534 0.910482 0.961240
Si Si5 0.188118 0.909004 0.759348
Si Si6 0.657618 0.920978 0.446137
Si Si7 0.658197 0.420248 0.751207
O O1 0.062940 0.250000 0.762563
O O2 0.043217 0.392001 0.619400
O O3 0.134246 0.478703 0.724463
O O4 0.000000 0.500000 0.763100
O O5 0.938023 0.250000 0.976144
O O6 0.867069 0.011194 0.005236
O O7 0.000000 0.000000 0.975259
O O8 0.436653 0.250000 0.618088
O O9 0.398363 0.034407 0.515684
O O10 0.500000 0.000000 0.615462
O O11 0.383731 0.018361 0.686157
O O12 0.201478 0.750000 0.001922
O O13 0.183221 0.903474 0.860944
O O14 0.269923 0.989335 0.976116
O O15 0.171731 0.750000 0.721433
O O16 0.263604 0.954722 0.732013
O O17 0.668845 0.750000 0.441911
O O18 0.638261 0.970230 0.349014
O O19 0.642441 0.250000 0.737916
#
# Coordination Sequence:
#
# PCOD8181287 Si02
#       7
#     8   8   8   8   8   8   8
#     4  10  20  32  48  71 102 139 179 224 269 320
#     4   9  18  31  48  69  97 133 173 217 260 310
#     4  11  23  38  60  88 116 148 187 228 272 332
#     4   8  15  31  53  75  98 132 175 214 262 319
#     4   9  18  33  54  77 104 137 173 218 270 323
#     4   8  17  35  59  83 111 148 187 226 274 333
#     4   9  19  38  60  85 117 151 186 228 279 334
#
# _framework density 19.663125000000001
#
# number of rings (size 3 to 8) (size 9 to 14) (size 15 to 20)
#    0.000    2.857    0.000    2.571    2.000    2.286 
#    0.000    5.000    0.000    2.571    0.000    0.000 
#    0.000    0.000    0.000    0.000    0.000    0.000 
#
# Total GULP energy -346927.053212 kJ/mol
# GULP energy per Si atom -12390.251900 kJ/mol
# Density = 1.961837 g / cm^3
# Si number density = 19.663125 Si / 1000 Ang^3
#
#
#
# Elastic Constant Matrix: (Units=GPa)
#
#
# Indices 1 2 3 4 5 6 
#
# 1 143.3078 72.1324 51.6544 0.0000 0.0000 0.0000
# 2 72.1324 95.7358 37.4899 0.0000 0.0000 0.0000
# 3 51.6544 37.4899 63.3937 0.0000 0.0000 0.0000
# 4 0.0000 0.0000 0.0000 17.1456 0.0000 0.0000
# 5 0.0000 0.0000 0.0000 0.0000 9.8022 0.0000
# 6 0.0000 0.0000 0.0000 0.0000 0.0000 29.6354
#
#
#
# Elastic Compliance Matrix: (Units=1/GPa)
#
#
# Indices 1 2 3 4 5 6 
#
# 1 0.012868 -0.007274 -0.006183 0.000000 0.000000 0.000000
# 2 -0.007274 0.017705 -0.004544 0.000000 0.000000 0.000000
# 3 -0.006183 -0.004544 0.023500 0.000000 0.000000 0.000000
# 4 0.000000 0.000000 0.000000 0.058324 0.000000 0.000000
# 5 0.000000 0.000000 0.000000 0.000000 0.102018 0.000000
# 6 0.000000 0.000000 0.000000 0.000000 0.000000 0.033743
#
#
# Mechanical properties :
#
#
# Convention : Reuss Voigt Hill
#
# Bulk Modulus (GPa) = 55.33693 69.44339 62.39016
# Shear Modulus (GPa) = 17.23041 20.72734 18.97888
#
# Velocity S-wave (km/s) = 2.96341 3.25025 3.11014
# Velocity P-wave (km/s) = 6.31765 7.03411 6.68548
#
# Compressibility (1/GPa) = 0.01807111
#
# Stress axis : x y z
#
# Youngs Moduli (GPa) = 77.71167 56.48011 42.55363
#
# Poissons Ratio (x) = 0.41084 0.26313
# Poissons Ratio (y) = 0.56528 0.19334
# Poissons Ratio (z) = 0.48052 0.25662
#
# Static dielectric constant tensor:
#      x y z
#    x 3.850280 0.000000 0.000000 
#    y 0.000000 3.653640 0.000000 
#    z 0.000000 0.000000 3.429540 
# 
# 
# High freq. dielectric constant tensor:
#      x y z
#    x 1.778350 0.000000 0.000000 
#    y 0.000000 1.734330 0.000000 
#    z 0.000000 0.000000 1.752950 
# 
# From -- ./inp_files/10363.got.cif
#   From: 2010.03.12/outbox.cif.g09.slc.cpg/sg39_6_cif.got.tgz:10363.got - 2010.04.14 02:53:20.
