data_PCOD8181160
_publ_section_title
;
Structure prediction by ZEFSAII (Michael W. Deem and Ramdas Pophale) SiO2 
 PCOD8181160
Probable space group: A B M 2
;
_chemical_formula_sum "Si O2"
_cell_formula_units_Z 60
_cell_length_a 15.460752
_cell_length_b 8.832882
_cell_length_c 22.453193
_cell_angle_alpha 90.000000
_cell_angle_beta 90.000000
_cell_angle_gamma 90.000000
_cell_volume 3066.275352
_symmetry_space_group_name_H-M "A B M 2"
_symmetry_group_IT_number 39
_symmetry_cell_setting 'orthorhombic'
loop_
_space_group_symop_operation_xyz
x,y,z
-x,-y,z
-x,1/2+y,z
x,1/2-y,z
x,1/2+y,1/2+z
-x,1/2-y,1/2+z
-x,y,1/2+z
x,-y,1/2+z
loop_
_atom_site_type_symbol
_atom_site_label
_atom_site_fract_x
_atom_site_fract_y
_atom_site_fract_z
Si Si1 0.914719 0.071526 0.171140
Si Si2 0.408178 0.071181 0.045123
Si Si3 0.262707 0.568865 0.357458
Si Si4 0.156565 0.582535 0.466649
Si Si5 0.119998 0.581196 0.790255
Si Si6 0.590346 0.430224 0.919217
Si Si7 0.000000 0.000000 0.894177
Si Si8 0.221681 0.927630 0.589976
O O1 0.919876 0.250000 0.165654
O O2 0.922813 0.022349 0.239975
O O3 0.823699 0.013547 0.144554
O O4 0.000000 0.000000 0.138671
O O5 0.423033 0.250000 0.036963
O O6 0.325727 0.038694 0.088444
O O7 0.500000 0.000000 0.068256
O O8 0.379735 0.998885 0.982446
O O9 0.265802 0.750000 0.351841
O O10 0.215494 0.505504 0.416828
O O11 0.211796 0.499489 0.302033
O O12 0.355343 0.491383 0.362960
O O13 0.193319 0.750000 0.476148
O O14 0.171588 0.505730 0.531096
O O15 0.059036 0.593816 0.440602
O O16 0.135646 0.750000 0.765706
O O17 0.060942 0.596012 0.849835
O O18 0.500000 0.500000 0.902741
O O19 0.589388 0.250000 0.922724
O O20 0.205343 0.750000 0.598668
#
# Coordination Sequence:
#
# PCOD8181160 Si02
#       8
#     8   8   8   8   8   8   4   8
#     4  12  26  43  62  84 113 154 200 247 293 344
#     4  10  19  34  57  84 116 154 193 239 293 353
#     4  10  19  35  56  82 115 151 188 234 288 342
#     4   9  18  33  52  77 113 150 183 225 282 339
#     4  11  22  38  60  85 113 148 197 244 288 340
#     4  11  20  31  51  81 118 156 194 234 284 347
#     4  10  20  32  56  84 112 152 190 240 278 334
#     4  10  21  39  59  83 119 157 192 239 294 348
#
# _framework density 19.567713999999999
#
# number of rings (size 3 to 8) (size 9 to 14) (size 15 to 20)
#    0.000    1.600    2.000    4.800    0.933    2.133 
#    0.000    0.667    0.000    0.800    0.000    3.733 
#    0.000    0.000    0.000    0.000    0.000    0.000 
#
# Total GULP energy -371653.305870 kJ/mol
# GULP energy per Si atom -12388.443529 kJ/mol
# Density = 1.952318 g / cm^3
# Si number density = 19.567714 Si / 1000 Ang^3
#
#
#
# Elastic Constant Matrix: (Units=GPa)
#
#
# Indices 1 2 3 4 5 6 
#
# 1 125.3582 55.8192 37.6375 0.0000 0.0000 0.0000
# 2 55.8192 135.7619 21.3990 0.0000 0.0000 0.0000
# 3 37.6375 21.3990 54.6311 0.0000 0.0000 0.0000
# 4 0.0000 0.0000 0.0000 24.8328 0.0000 0.0000
# 5 0.0000 0.0000 0.0000 0.0000 29.9024 0.0000
# 6 0.0000 0.0000 0.0000 0.0000 0.0000 30.3374
#
#
#
# Elastic Compliance Matrix: (Units=1/GPa)
#
#
# Indices 1 2 3 4 5 6 
#
# 1 0.011603 -0.003742 -0.006528 0.000000 0.000000 0.000000
# 2 -0.003742 0.009057 -0.000970 0.000000 0.000000 0.000000
# 3 -0.006528 -0.000970 0.023182 0.000000 0.000000 0.000000
# 4 0.000000 0.000000 0.000000 0.040269 0.000000 0.000000
# 5 0.000000 0.000000 0.000000 0.000000 0.033442 0.000000
# 6 0.000000 0.000000 0.000000 0.000000 0.000000 0.032963
#
#
# Mechanical properties :
#
#
# Convention : Reuss Voigt Hill
#
# Bulk Modulus (GPa) = 46.81053 60.60697 53.70875
# Shear Modulus (GPa) = 27.75963 30.40752 29.08358
#
# Velocity S-wave (km/s) = 3.77058 3.94631 3.85944
# Velocity P-wave (km/s) = 6.55214 7.19755 6.88241
#
# Compressibility (1/GPa) = 0.02136271
#
# Stress axis : x y z
#
# Youngs Moduli (GPa) = 86.18212 110.41000 43.13668
#
# Poissons Ratio (x) = 0.41313 0.28161
# Poissons Ratio (y) = 0.32247 0.04184
# Poissons Ratio (z) = 0.56263 0.10708
#
# Static dielectric constant tensor:
#      x y z
#    x 3.819050 0.000000 0.000000 
#    y 0.000000 3.408090 0.000000 
#    z 0.000000 0.000000 3.373710 
# 
# 
# High freq. dielectric constant tensor:
#      x y z
#    x 1.773930 0.000000 0.000000 
#    y 0.000000 1.757650 0.000000 
#    z 0.000000 0.000000 1.728940 
# 
# From -- ./inp_files/16100.got.cif
#   From: 2010.03.12/outbox.cif.g09.slc.cpg/sg39_9_cif.got.tgz:16100.got - 2010.04.14 02:53:20.
