data_PCOD8181800
_publ_section_title
;
Structure prediction by ZEFSAII (Michael W. Deem and Ramdas Pophale) SiO2 
 PCOD8181800
Probable space group: A B M 2
;
_chemical_formula_sum "Si O2"
_cell_formula_units_Z 48
_cell_length_a 14.742521
_cell_length_b 17.789630
_cell_length_c 9.731374
_cell_angle_alpha 90.000000
_cell_angle_beta 90.000000
_cell_angle_gamma 90.000000
_cell_volume 2552.189011
_symmetry_space_group_name_H-M "A B M 2"
_symmetry_group_IT_number 39
_symmetry_cell_setting 'orthorhombic'
loop_
_space_group_symop_operation_xyz
x,y,z
-x,-y,z
-x,1/2+y,z
x,1/2-y,z
x,1/2+y,1/2+z
-x,1/2-y,1/2+z
-x,y,1/2+z
x,-y,1/2+z
loop_
_atom_site_type_symbol
_atom_site_label
_atom_site_fract_x
_atom_site_fract_y
_atom_site_fract_z
Si Si1 0.077818 0.837328 0.821160
Si Si2 0.260108 0.081976 0.325726
Si Si3 0.235520 0.557308 0.134745
Si Si4 0.440436 0.337009 0.372686
Si Si5 0.398481 0.662957 0.182017
Si Si6 0.965827 0.915095 0.595659
O O1 0.062625 0.750000 0.851724
O O2 0.185182 0.852792 0.813072
O O3 0.031164 0.860273 0.679259
O O4 0.031685 0.887034 0.939487
O O5 0.253157 0.042381 0.474011
O O6 0.358166 0.118244 0.304164
O O7 0.245106 0.021986 0.207548
O O8 0.305926 0.616940 0.197158
O O9 0.135167 0.590249 0.158615
O O10 0.424562 0.250000 0.339175
O O11 0.533483 0.364376 0.301571
O O12 0.446508 0.352009 0.535410
O O13 0.372389 0.750000 0.198222
O O14 0.000000 0.000000 0.600802
#
# Coordination Sequence:
#
# PCOD8181800 Si02
#       6
#     8   8   8   8   8   8
#     4  11  23  38  60  88 116 151 197 244 291 348
#     4  10  21  37  56  81 113 148 189 233 290 348
#     4  10  22  36  58  81 112 151 187 233 290 346
#     4   9  18  35  57  79 109 146 185 235 286 337
#     4   9  19  36  57  82 110 147 191 233 285 344
#     4  11  22  39  61  84 118 156 193 241 295 349
#
# _framework density 18.807383999999999
#
# number of rings (size 3 to 8) (size 9 to 14) (size 15 to 20)
#    0.000    2.000    1.667    1.500    2.333    6.667 
#    0.000    3.333    0.000    5.000    0.000    0.000 
#    0.000    0.000    0.000    0.000    0.000    0.000 
#
# Total GULP energy -297693.168302 kJ/mol
# GULP energy per Si atom -12403.882013 kJ/mol
# Density = 1.876458 g / cm^3
# Si number density = 18.807384 Si / 1000 Ang^3
#
#
#
# Elastic Constant Matrix: (Units=GPa)
#
#
# Indices 1 2 3 4 5 6 
#
# 1 98.3589 39.4291 33.1427 0.0000 0.0000 0.0000
# 2 39.4291 78.5037 29.5040 0.0000 0.0000 0.0000
# 3 33.1427 29.5040 51.5114 0.0000 0.0000 0.0000
# 4 0.0000 0.0000 0.0000 27.4697 0.0000 0.0000
# 5 0.0000 0.0000 0.0000 0.0000 32.0134 0.0000
# 6 0.0000 0.0000 0.0000 0.0000 0.0000 35.4693
#
#
#
# Elastic Compliance Matrix: (Units=1/GPa)
#
#
# Indices 1 2 3 4 5 6 
#
# 1 0.014235 -0.004725 -0.006453 0.000000 0.000000 0.000000
# 2 -0.004725 0.017801 -0.007156 0.000000 0.000000 0.000000
# 3 -0.006453 -0.007156 0.027664 0.000000 0.000000 0.000000
# 4 0.000000 0.000000 0.000000 0.036404 0.000000 0.000000
# 5 0.000000 0.000000 0.000000 0.000000 0.031237 0.000000
# 6 0.000000 0.000000 0.000000 0.000000 0.000000 0.028193
#
#
# Mechanical properties :
#
#
# Convention : Reuss Voigt Hill
#
# Bulk Modulus (GPa) = 43.41621 48.05840 45.73730
# Shear Modulus (GPa) = 25.01534 27.41036 26.21285
#
# Velocity S-wave (km/s) = 3.65098 3.82177 3.73735
# Velocity P-wave (km/s) = 6.39591 6.71438 6.55708
#
# Compressibility (1/GPa) = 0.02303287
#
# Stress axis : x y z
#
# Youngs Moduli (GPa) = 70.24891 56.17807 36.14855
#
# Poissons Ratio (x) = 0.26541 0.23326
# Poissons Ratio (y) = 0.33189 0.25867
# Poissons Ratio (z) = 0.45331 0.40200
#
# Static dielectric constant tensor:
#      x y z
#    x 3.609120 0.000000 0.000000 
#    y 0.000000 3.321680 0.000000 
#    z 0.000000 0.000000 3.464940 
# 
# 
# High freq. dielectric constant tensor:
#      x y z
#    x 1.739820 0.000000 0.000000 
#    y 0.000000 1.726290 0.000000 
#    z 0.000000 0.000000 1.730510 
# 
# From -- ./inp_files/3211.got.cif
#   From: 2010.03.12/outbox.cif.g09.slc.cpg/sg39_2_cif.got.tgz:3211.got - 2010.04.14 02:53:20.
