data_PCOD8181377
_publ_section_title
;
Structure prediction by ZEFSAII (Michael W. Deem and Ramdas Pophale) SiO2 
 PCOD8181377
Probable space group: A B M 2
;
_chemical_formula_sum "Si O2"
_cell_formula_units_Z 64
_cell_length_a 16.319338
_cell_length_b 8.886735
_cell_length_c 22.912267
_cell_angle_alpha 90.000000
_cell_angle_beta 90.000000
_cell_angle_gamma 90.000000
_cell_volume 3322.866006
_symmetry_space_group_name_H-M "A B M 2"
_symmetry_group_IT_number 39
_symmetry_cell_setting 'orthorhombic'
loop_
_space_group_symop_operation_xyz
x,y,z
-x,-y,z
-x,1/2+y,z
x,1/2-y,z
x,1/2+y,1/2+z
-x,1/2-y,1/2+z
-x,y,1/2+z
x,-y,1/2+z
loop_
_atom_site_type_symbol
_atom_site_label
_atom_site_fract_x
_atom_site_fract_y
_atom_site_fract_z
Si Si1 0.423587 0.917004 0.892310
Si Si2 0.412656 0.928521 0.634032
Si Si3 0.257933 0.572871 0.839383
Si Si4 0.751137 0.427868 0.705291
Si Si5 0.222406 0.416088 0.946765
Si Si6 0.637723 0.079352 0.015279
Si Si7 0.076469 0.416963 0.031541
Si Si8 0.087888 0.929142 0.150543
O O1 0.426977 0.750000 0.867687
O O2 0.342533 0.991466 0.866397
O O3 0.500000 0.000000 0.864376
O O4 0.427831 0.923328 0.962690
O O5 0.423326 0.750000 0.636369
O O6 0.334049 0.978959 0.673611
O O7 0.500000 0.000000 0.655170
O O8 0.394444 0.977010 0.567815
O O9 0.246535 0.750000 0.847071
O O10 0.253644 0.524293 0.772759
O O11 0.196526 0.488693 0.883876
O O12 0.762618 0.250000 0.696503
O O13 0.832951 0.510997 0.684922
O O14 0.262127 0.250000 0.938649
O O15 0.278202 0.519540 0.988076
O O16 0.138874 0.399637 0.980167
O O17 0.650669 0.250000 0.038019
O O18 0.054312 0.250000 0.056311
O O19 0.106517 0.521336 0.084610
O O20 0.000000 0.500000 0.002344
O O21 0.083456 0.750000 0.157403
O O22 0.000000 0.000000 0.171641
#
# Coordination Sequence:
#
# PCOD8181377 Si02
#       8
#     8   8   8   8   8   8   8   8
#     4   9  18  31  49  74 100 131 172 218 268 319
#     4  11  23  37  55  81 115 152 190 234 284 337
#     4   9  20  38  56  74 102 142 185 226 270 324
#     4  10  22  41  60  79 110 152 194 238 285 331
#     4  10  20  34  54  81 110 139 176 224 276 329
#     4  10  20  34  53  77 107 143 183 225 276 336
#     4  10  20  34  54  82 114 143 172 211 264 327
#     4  11  22  37  61  90 117 146 184 230 280 337
#
# _framework density 19.260482
#
# number of rings (size 3 to 8) (size 9 to 14) (size 15 to 20)
#    0.000    2.000    0.000    5.250    0.000   10.500 
#    0.000    0.625    0.000    1.500    0.000    0.000 
#    0.000    0.000    0.000    0.000    0.000    0.000 
#
# Total GULP energy -396486.788690 kJ/mol
# GULP energy per Si atom -12390.212147 kJ/mol
# Density = 1.921664 g / cm^3
# Si number density = 19.260482 Si / 1000 Ang^3
#
#
#
# Elastic Constant Matrix: (Units=GPa)
#
#
# Indices 1 2 3 4 5 6 
#
# 1 107.2904 53.8772 57.5792 0.0000 0.0000 0.0000
# 2 53.8772 97.8285 42.3430 0.0000 0.0000 0.0000
# 3 57.5792 42.3430 90.8598 0.0000 0.0000 0.0000
# 4 0.0000 0.0000 0.0000 21.8362 0.0000 0.0000
# 5 0.0000 0.0000 0.0000 0.0000 14.1991 0.0000
# 6 0.0000 0.0000 0.0000 0.0000 0.0000 33.0253
#
#
#
# Elastic Compliance Matrix: (Units=1/GPa)
#
#
# Indices 1 2 3 4 5 6 
#
# 1 0.016277 -0.005637 -0.007688 0.000000 0.000000 0.000000
# 2 -0.005637 0.014757 -0.003305 0.000000 0.000000 0.000000
# 3 -0.007688 -0.003305 0.017418 0.000000 0.000000 0.000000
# 4 0.000000 0.000000 0.000000 0.045795 0.000000 0.000000
# 5 0.000000 0.000000 0.000000 0.000000 0.070427 0.000000
# 6 0.000000 0.000000 0.000000 0.000000 0.000000 0.030280
#
#
# Mechanical properties :
#
#
# Convention : Reuss Voigt Hill
#
# Bulk Modulus (GPa) = 65.82217 67.06415 66.44316
# Shear Modulus (GPa) = 21.43368 23.29077 22.36223
#
# Velocity S-wave (km/s) = 3.33953 3.48120 3.41110
# Velocity P-wave (km/s) = 7.00849 7.14517 7.07716
#
# Compressibility (1/GPa) = 0.01519245
#
# Stress axis : x y z
#
# Youngs Moduli (GPa) = 61.43659 67.76578 57.41097
#
# Poissons Ratio (x) = 0.38197 0.44138
# Poissons Ratio (y) = 0.34629 0.18974
# Poissons Ratio (z) = 0.47233 0.22397
#
# Static dielectric constant tensor:
#      x y z
#    x 3.668530 0.000000 0.000000 
#    y 0.000000 3.819990 0.000000 
#    z 0.000000 0.000000 3.482560 
# 
# 
# High freq. dielectric constant tensor:
#      x y z
#    x 1.747580 0.000000 0.000000 
#    y 0.000000 1.759180 0.000000 
#    z 0.000000 0.000000 1.736150 
# 
# From -- ./inp_files/16371.got.cif
#   From: 2010.03.12/outbox.cif.g09.slc.cpg/sg39_9_cif.got.tgz:16371.got - 2010.04.14 02:53:20.
