data_PCOD8181193
_publ_section_title
;
Structure prediction by ZEFSAII (Michael W. Deem and Ramdas Pophale) SiO2 
 PCOD8181193
Probable space group: A B M 2
;
_chemical_formula_sum "Si O2"
_cell_formula_units_Z 56
_cell_length_a 19.571702
_cell_length_b 8.988460
_cell_length_c 15.713990
_cell_angle_alpha 90.000000
_cell_angle_beta 90.000000
_cell_angle_gamma 90.000000
_cell_volume 2764.396644
_symmetry_space_group_name_H-M "A B M 2"
_symmetry_group_IT_number 39
_symmetry_cell_setting 'orthorhombic'
loop_
_space_group_symop_operation_xyz
x,y,z
-x,-y,z
-x,1/2+y,z
x,1/2-y,z
x,1/2+y,1/2+z
-x,1/2-y,1/2+z
-x,y,1/2+z
x,-y,1/2+z
loop_
_atom_site_type_symbol
_atom_site_label
_atom_site_fract_x
_atom_site_fract_y
_atom_site_fract_z
Si Si1 0.212262 0.917942 0.950810
Si Si2 0.659441 0.075323 0.210970
Si Si3 0.343347 0.424410 0.901372
Si Si4 0.932447 0.923151 0.194105
Si Si5 0.573530 0.072522 0.051135
Si Si6 0.932973 0.577218 0.390954
Si Si7 0.799104 0.082795 0.144703
O O1 0.218685 0.750000 0.912833
O O2 0.135434 0.979343 0.937480
O O3 0.264051 0.028937 0.904155
O O4 0.230453 0.915330 0.049682
O O5 0.665426 0.250000 0.195946
O O6 0.630618 0.039174 0.305164
O O7 0.609639 0.011888 0.137512
O O8 0.737178 0.013831 0.200964
O O9 0.350954 0.250000 0.922121
O O10 0.386049 0.521518 0.967370
O O11 0.939787 0.750000 0.178079
O O12 0.925174 0.965643 0.292592
O O13 0.865131 0.979817 0.147296
O O14 0.000000 0.000000 0.155279
O O15 0.567416 0.250000 0.049535
O O16 0.500000 0.000000 0.047915
O O17 0.943517 0.750000 0.405870
O O18 0.000000 0.500000 0.430808
O O19 0.819386 0.250000 0.173700
#
# Coordination Sequence:
#
# PCOD8181193 Si02
#       7
#     8   8   8   8   8   8   8
#     4  10  20  36  57  82 116 156 195 243 302 358
#     4   9  20  39  63  89 123 162 200 242 297 355
#     4  11  22  38  63  95 124 158 204 248 292 352
#     4  10  20  34  51  75 107 145 192 246 298 354
#     4  11  23  44  67  92 127 163 197 241 295 353
#     4   9  19  34  52  75 106 146 194 245 299 356
#     4  10  19  35  57  80 111 153 193 240 298 353
#
# _framework density 20.257584999999999
#
# number of rings (size 3 to 8) (size 9 to 14) (size 15 to 20)
#    0.000    2.000    1.429    2.143    0.000    2.857 
#    0.000    6.429    0.000    0.000    0.000    0.000 
#    0.000    0.000    0.000    0.000    0.000    0.000 
#
# Total GULP energy -347196.584816 kJ/mol
# GULP energy per Si atom -12399.878029 kJ/mol
# Density = 2.021148 g / cm^3
# Si number density = 20.257585 Si / 1000 Ang^3
#
#
#
# Elastic Constant Matrix: (Units=GPa)
#
#
# Indices 1 2 3 4 5 6 
#
# 1 133.1775 38.5633 49.9823 0.0000 0.0000 0.0000
# 2 38.5633 69.0475 35.4881 0.0000 0.0000 0.0000
# 3 49.9823 35.4881 100.2148 0.0000 0.0000 0.0000
# 4 0.0000 0.0000 0.0000 23.5037 0.0000 0.0000
# 5 0.0000 0.0000 0.0000 0.0000 24.9092 0.0000
# 6 0.0000 0.0000 0.0000 0.0000 0.0000 37.6014
#
#
#
# Elastic Compliance Matrix: (Units=1/GPa)
#
#
# Indices 1 2 3 4 5 6 
#
# 1 0.009946 -0.003674 -0.003660 0.000000 0.000000 0.000000
# 2 -0.003674 0.019062 -0.004918 0.000000 0.000000 0.000000
# 3 -0.003660 -0.004918 0.013545 0.000000 0.000000 0.000000
# 4 0.000000 0.000000 0.000000 0.042547 0.000000 0.000000
# 5 0.000000 0.000000 0.000000 0.000000 0.040146 0.000000
# 6 0.000000 0.000000 0.000000 0.000000 0.000000 0.026595
#
#
# Mechanical properties :
#
#
# Convention : Reuss Voigt Hill
#
# Bulk Modulus (GPa) = 55.39950 61.16745 58.28347
# Shear Modulus (GPa) = 27.41813 29.09658 28.25735
#
# Velocity S-wave (km/s) = 3.68295 3.79401 3.73889
# Velocity P-wave (km/s) = 6.74481 7.03228 6.89004
#
# Compressibility (1/GPa) = 0.01805071
#
# Stress axis : x y z
#
# Youngs Moduli (GPa) = 100.54183 52.45929 73.82611
#
# Poissons Ratio (x) = 0.19274 0.27017
# Poissons Ratio (y) = 0.36939 0.36307
# Poissons Ratio (z) = 0.36794 0.25799
#
# Static dielectric constant tensor:
#      x y z
#    x 3.775990 0.000000 0.000000 
#    y 0.000000 3.498550 0.000000 
#    z 0.000000 0.000000 3.686050 
# 
# 
# High freq. dielectric constant tensor:
#      x y z
#    x 1.796710 0.000000 0.000000 
#    y 0.000000 1.773630 0.000000 
#    z 0.000000 0.000000 1.791100 
# 
# From -- ./inp_files/10329.got.cif
#   From: 2010.03.12/outbox.cif.g09.slc.cpg/sg39_6_cif.got.tgz:10329.got - 2010.04.14 02:53:20.
