data_PCOD8181626
_publ_section_title
;
Structure prediction by ZEFSAII (Michael W. Deem and Ramdas Pophale) SiO2 
 PCOD8181626
Probable space group: A B M 2
;
_chemical_formula_sum "Si O2"
_cell_formula_units_Z 48
_cell_length_a 15.052362
_cell_length_b 16.148503
_cell_length_c 9.031592
_cell_angle_alpha 90.000000
_cell_angle_beta 90.000000
_cell_angle_gamma 90.000000
_cell_volume 2195.337182
_symmetry_space_group_name_H-M "A B M 2"
_symmetry_group_IT_number 39
_symmetry_cell_setting 'orthorhombic'
loop_
_space_group_symop_operation_xyz
x,y,z
-x,-y,z
-x,1/2+y,z
x,1/2-y,z
x,1/2+y,1/2+z
-x,1/2-y,1/2+z
-x,y,1/2+z
x,-y,1/2+z
loop_
_atom_site_type_symbol
_atom_site_label
_atom_site_fract_x
_atom_site_fract_y
_atom_site_fract_z
Si Si1 0.217614 0.652252 0.837500
Si Si2 0.948640 0.085328 0.992442
Si Si3 0.407287 0.085770 0.362745
Si Si4 0.086192 0.656451 0.299560
Si Si5 0.766244 0.844276 0.007349
Si Si6 0.580603 0.910109 0.013843
O O1 0.195798 0.750000 0.854153
O O2 0.318428 0.638182 0.893641
O O3 0.210488 0.618778 0.668680
O O4 0.151396 0.593612 0.929513
O O5 0.942904 0.097013 0.167401
O O6 0.000000 0.000000 0.956133
O O7 0.006605 0.158158 0.918697
O O8 0.429471 0.077847 0.189335
O O9 0.490802 0.129643 0.445420
O O10 0.396717 0.996261 0.435459
O O11 0.103590 0.750000 0.242059
O O12 0.173723 0.615722 0.377579
O O13 0.796157 0.750000 0.011855
O O14 0.662029 0.850257 0.973686
#
# Coordination Sequence:
#
# PCOD8181626 Si02
#       6
#     8   8   8   8   8   8
#     4  10  22  43  66  92 126 168 213 263 321 385
#     4  12  26  42  63  93 125 160 211 267 319 381
#     4  10  21  36  61  89 125 170 207 259 314 371
#     4  11  23  42  65  89 123 167 207 258 321 383
#     4   9  21  40  65  91 124 166 209 258 315 376
#     4  10  20  37  59  91 129 165 210 260 311 368
#
# _framework density 21.864522999999998
#
# number of rings (size 3 to 8) (size 9 to 14) (size 15 to 20)
#    0.000    1.667    0.000    5.000    2.333    4.667 
#    0.000    0.833    0.000    0.000    0.000    0.000 
#    0.000    0.000    0.000    0.000    0.000    0.000 
#
# Total GULP energy -297517.510167 kJ/mol
# GULP energy per Si atom -12396.562924 kJ/mol
# Density = 2.181476 g / cm^3
# Si number density = 21.864523 Si / 1000 Ang^3
#
#
#
# Elastic Constant Matrix: (Units=GPa)
#
#
# Indices 1 2 3 4 5 6 
#
# 1 167.5582 37.0679 82.5602 0.0000 0.0000 0.0000
# 2 37.0679 57.8182 31.6545 0.0000 0.0000 0.0000
# 3 82.5602 31.6545 138.3648 0.0000 0.0000 0.0000
# 4 0.0000 0.0000 0.0000 16.1797 0.0000 0.0000
# 5 0.0000 0.0000 0.0000 0.0000 47.2478 0.0000
# 6 0.0000 0.0000 0.0000 0.0000 0.0000 39.5950
#
#
#
# Elastic Compliance Matrix: (Units=1/GPa)
#
#
# Indices 1 2 3 4 5 6 
#
# 1 0.008948 -0.003216 -0.004603 0.000000 0.000000 0.000000
# 2 -0.003216 0.020928 -0.002869 0.000000 0.000000 0.000000
# 3 -0.004603 -0.002869 0.010630 0.000000 0.000000 0.000000
# 4 0.000000 0.000000 0.000000 0.061806 0.000000 0.000000
# 5 0.000000 0.000000 0.000000 0.000000 0.021165 0.000000
# 6 0.000000 0.000000 0.000000 0.000000 0.000000 0.025256
#
#
# Mechanical properties :
#
#
# Convention : Reuss Voigt Hill
#
# Bulk Modulus (GPa) = 52.27474 74.03403 63.15439
# Shear Modulus (GPa) = 28.33094 34.76841 31.54967
#
# Velocity S-wave (km/s) = 3.60356 3.99203 3.80275
# Velocity P-wave (km/s) = 6.42453 7.42847 6.94467
#
# Compressibility (1/GPa) = 0.01912970
#
# Stress axis : x y z
#
# Youngs Moduli (GPa) = 111.76074 47.78241 94.07169
#
# Poissons Ratio (x) = 0.15368 0.43302
# Poissons Ratio (y) = 0.35946 0.26987
# Poissons Ratio (z) = 0.51445 0.13707
#
# Static dielectric constant tensor:
#      x y z
#    x 4.318790 0.000000 0.000000 
#    y 0.000000 3.545740 0.000000 
#    z 0.000000 0.000000 4.018090 
# 
# 
# High freq. dielectric constant tensor:
#      x y z
#    x 1.877960 0.000000 0.000000 
#    y 0.000000 1.834530 0.000000 
#    z 0.000000 0.000000 1.866840 
# 
# From -- ./inp_files/3260.got.cif
#   From: 2010.03.12/outbox.cif.g09.slc.cpg/sg39_2_cif.got.tgz:3260.got - 2010.04.14 02:53:20.
