data_PCOD8181255
_publ_section_title
;
Structure prediction by ZEFSAII (Michael W. Deem and Ramdas Pophale) SiO2 
 PCOD8181255
Probable space group: A B M 2
;
_chemical_formula_sum "Si O2"
_cell_formula_units_Z 48
_cell_length_a 4.972433
_cell_length_b 16.103069
_cell_length_c 26.246845
_cell_angle_alpha 90.000000
_cell_angle_beta 90.000000
_cell_angle_gamma 90.000000
_cell_volume 2101.622457
_symmetry_space_group_name_H-M "A B M 2"
_symmetry_group_IT_number 39
_symmetry_cell_setting 'orthorhombic'
loop_
_space_group_symop_operation_xyz
x,y,z
-x,-y,z
-x,1/2+y,z
x,1/2-y,z
x,1/2+y,1/2+z
-x,1/2-y,1/2+z
-x,y,1/2+z
x,-y,1/2+z
loop_
_atom_site_type_symbol
_atom_site_label
_atom_site_fract_x
_atom_site_fract_y
_atom_site_fract_z
Si Si1 0.634838 0.344645 0.427090
Si Si2 0.379955 0.345451 0.586468
Si Si3 0.884874 0.091205 0.873841
Si Si4 0.797348 0.151398 0.763670
Si Si5 0.883027 0.091651 0.531070
Si Si6 0.709184 0.348078 0.199360
O O1 0.551016 0.250000 0.437893
O O2 0.129423 0.349219 0.547581
O O3 0.863290 0.346948 0.383190
O O4 0.774233 0.385238 0.475802
O O5 0.477025 0.250000 0.589831
O O6 0.291092 0.381395 0.641497
O O7 0.633240 0.400536 0.569462
O O8 0.776113 0.104761 0.817219
O O9 0.635644 0.105890 0.912273
O O10 0.000000 0.000000 0.882989
O O11 0.805083 0.250000 0.773541
O O12 0.046284 0.115966 0.731863
O O13 0.551235 0.122989 0.729352
O O14 0.000000 0.000000 0.531468
O O15 0.736492 0.250000 0.196880
#
# Coordination Sequence:
#
# PCOD8181255 Si02
#       6
#     8   8   8   8   8   8
#     4  12  25  45  70  96 125 172 226 272 321 393
#     4  11  22  42  69  99 131 174 225 271 318 387
#     4  12  26  43  65  98 135 171 213 274 339 391
#     4  10  19  37  62  92 127 171 220 267 316 382
#     4  12  26  44  66  98 136 172 212 272 338 392
#     4   9  19  35  62  93 126 168 220 270 314 369
#
# _framework density 22.839499
#
# number of rings (size 3 to 8) (size 9 to 14) (size 15 to 20)
#    0.000    1.000    0.000    7.500    0.000    5.333 
#    0.000    5.000    0.000    0.000    0.000    0.000 
#    0.000    0.000    0.000    0.000    0.000    0.000 
#
# Total GULP energy -297672.333589 kJ/mol
# GULP energy per Si atom -12403.013900 kJ/mol
# Density = 2.278752 g / cm^3
# Si number density = 22.839499 Si / 1000 Ang^3
#
#
#
# Elastic Constant Matrix: (Units=GPa)
#
#
# Indices 1 2 3 4 5 6 
#
# 1 186.6087 52.9088 67.8379 0.0000 0.0000 0.0000
# 2 52.9088 84.4081 57.8745 0.0000 0.0000 0.0000
# 3 67.8379 57.8745 139.9236 0.0000 0.0000 0.0000
# 4 0.0000 0.0000 0.0000 25.5234 0.0000 0.0000
# 5 0.0000 0.0000 0.0000 0.0000 50.0492 0.0000
# 6 0.0000 0.0000 0.0000 0.0000 0.0000 75.1517
#
#
#
# Elastic Compliance Matrix: (Units=1/GPa)
#
#
# Indices 1 2 3 4 5 6 
#
# 1 0.006968 -0.002864 -0.002194 0.000000 0.000000 0.000000
# 2 -0.002864 0.017714 -0.005938 0.000000 0.000000 0.000000
# 3 -0.002194 -0.005938 0.010667 0.000000 0.000000 0.000000
# 4 0.000000 0.000000 0.000000 0.039180 0.000000 0.000000
# 5 0.000000 0.000000 0.000000 0.000000 0.019980 0.000000
# 6 0.000000 0.000000 0.000000 0.000000 0.000000 0.013306
#
#
# Mechanical properties :
#
#
# Convention : Reuss Voigt Hill
#
# Bulk Modulus (GPa) = 74.86761 85.35365 80.11063
# Shear Modulus (GPa) = 37.24136 45.63279 41.43707
#
# Velocity S-wave (km/s) = 4.04241 4.47472 4.26405
# Velocity P-wave (km/s) = 7.39183 8.00935 7.70678
#
# Compressibility (1/GPa) = 0.01335691
#
# Stress axis : x y z
#
# Youngs Moduli (GPa) = 143.50739 56.45315 93.75033
#
# Poissons Ratio (x) = 0.16166 0.20568
# Poissons Ratio (y) = 0.41095 0.55672
# Poissons Ratio (z) = 0.31485 0.33524
#
# Static dielectric constant tensor:
#      x y z
#    x 4.447480 0.000000 0.000000 
#    y 0.000000 3.709350 0.000000 
#    z 0.000000 0.000000 4.291530 
# 
# 
# High freq. dielectric constant tensor:
#      x y z
#    x 1.922740 0.000000 0.000000 
#    y 0.000000 1.880640 0.000000 
#    z 0.000000 0.000000 1.915170 
# 
# From -- ./inp_files/13497.got.cif
#   From: 2010.03.12/outbox.cif.g09.slc.cpg/sg39_7_cif.got.tgz:13497.got - 2010.04.14 02:53:20.
