data_PCOD8181808
_publ_section_title
;
Structure prediction by ZEFSAII (Michael W. Deem and Ramdas Pophale) SiO2 
 PCOD8181808
Probable space group: A B M 2
;
_chemical_formula_sum "Si O2"
_cell_formula_units_Z 60
_cell_length_a 24.453469
_cell_length_b 24.176495
_cell_length_c 5.047877
_cell_angle_alpha 90.000000
_cell_angle_beta 90.000000
_cell_angle_gamma 90.000000
_cell_volume 2984.300698
_symmetry_space_group_name_H-M "A B M 2"
_symmetry_group_IT_number 39
_symmetry_cell_setting 'orthorhombic'
loop_
_space_group_symop_operation_xyz
x,y,z
-x,-y,z
-x,1/2+y,z
x,1/2-y,z
x,1/2+y,1/2+z
-x,1/2-y,1/2+z
-x,y,1/2+z
x,-y,1/2+z
loop_
_atom_site_type_symbol
_atom_site_label
_atom_site_fract_x
_atom_site_fract_y
_atom_site_fract_z
Si Si1 0.350259 0.638350 0.372150
Si Si2 0.463969 0.813539 0.345985
Si Si3 0.153384 0.037092 0.843379
Si Si4 0.277456 0.964802 0.285194
Si Si5 0.964182 0.750000 0.742489
Si Si6 0.121798 0.845353 0.249436
Si Si7 0.698090 0.813678 0.369165
Si Si8 0.816854 0.186206 0.751462
O O1 0.414182 0.643777 0.300145
O O2 0.326751 0.577105 0.340520
O O3 0.345025 0.656817 0.676742
O O4 0.316164 0.677785 0.175460
O O5 0.442669 0.750000 0.324142
O O6 0.489615 0.825220 0.631246
O O7 0.216123 0.059683 0.825579
O O8 0.112426 0.089677 0.815567
O O9 0.141599 0.990673 0.624851
O O10 0.284464 0.016416 0.482396
O O11 0.930901 0.693308 0.792981
O O12 0.984897 0.750000 0.441488
O O13 0.168610 0.822370 0.445161
O O14 0.140053 0.843540 0.943753
O O15 0.697596 0.750000 0.295980
O O16 0.757381 0.839732 0.306098
O O17 0.817673 0.250000 0.831357
#
# Coordination Sequence:
#
# PCOD8181808 Si02
#       8
#     8   8   8   8   4   8   8   8
#     4  12  22  37  57  81 115 158 198 240 306 353
#     4  10  21  37  57  79 107 148 201 252 299 360
#     4  10  21  37  60  91 121 160 205 242 293 368
#     4  10  21  37  57  84 117 154 197 240 289 359
#     4  12  26  44  66  94 124 164 218 262 308 352
#     4  12  22  40  64  86 126 164 205 253 303 354
#     4  11  22  32  52  86 124 151 182 230 291 377
#     4  11  20  34  54  88 122 159 194 230 300 375
#
# _framework density 20.105211000000001
#
# number of rings (size 3 to 8) (size 9 to 14) (size 15 to 20)
#    0.000    1.067    1.333    6.800    0.000    5.333 
#    0.000    0.000    0.000    4.800    0.000    0.000 
#    0.000    0.000    0.000    0.000    0.000    0.000 
#
# Total GULP energy -372065.348018 kJ/mol
# GULP energy per Si atom -12402.178267 kJ/mol
# Density = 2.005945 g / cm^3
# Si number density = 20.105211 Si / 1000 Ang^3
#
#
#
# Elastic Constant Matrix: (Units=GPa)
#
#
# Indices 1 2 3 4 5 6 
#
# 1 73.0991 37.2703 4.0300 0.0000 0.0000 0.0000
# 2 37.2703 92.7832 7.2287 0.0000 0.0000 0.0000
# 3 4.0300 7.2287 75.6808 0.0000 0.0000 0.0000
# 4 0.0000 0.0000 0.0000 25.4799 0.0000 0.0000
# 5 0.0000 0.0000 0.0000 0.0000 27.9976 0.0000
# 6 0.0000 0.0000 0.0000 0.0000 0.0000 29.0479
#
#
#
# Elastic Compliance Matrix: (Units=1/GPa)
#
#
# Indices 1 2 3 4 5 6 
#
# 1 0.017208 -0.006892 -0.000258 0.000000 0.000000 0.000000
# 2 -0.006892 0.013619 -0.000934 0.000000 0.000000 0.000000
# 3 -0.000258 -0.000934 0.013316 0.000000 0.000000 0.000000
# 4 0.000000 0.000000 0.000000 0.039247 0.000000 0.000000
# 5 0.000000 0.000000 0.000000 0.000000 0.035717 0.000000
# 6 0.000000 0.000000 0.000000 0.000000 0.000000 0.034426
#
#
# Mechanical properties :
#
#
# Convention : Reuss Voigt Hill
#
# Bulk Modulus (GPa) = 35.74561 37.62459 36.68510
# Shear Modulus (GPa) = 27.92867 29.37402 28.65135
#
# Velocity S-wave (km/s) = 3.73114 3.82647 3.77911
# Velocity P-wave (km/s) = 6.03156 6.18684 6.10969
#
# Compressibility (1/GPa) = 0.02797547
#
# Stress axis : x y z
#
# Youngs Moduli (GPa) = 58.11095 73.42578 75.09581
#
# Poissons Ratio (x) = 0.50608 0.01938
# Poissons Ratio (y) = 0.40052 0.07013
# Poissons Ratio (z) = 0.01499 0.06857
#
# Static dielectric constant tensor:
#      x y z
#    x 3.429150 0.000000 0.000000 
#    y 0.000000 3.511040 0.000000 
#    z 0.000000 0.000000 3.765120 
# 
# 
# High freq. dielectric constant tensor:
#      x y z
#    x 1.754100 0.000000 0.000000 
#    y 0.000000 1.771440 0.000000 
#    z 0.000000 0.000000 1.808450 
# 
# From -- ./inp_files/1124.got.cif
#   From: 2010.03.12/outbox.cif.g09.slc.cpg/sg39_1_cif.got.tgz:1124.got - 2010.04.14 02:53:20.
