data_PCOD8181085
_publ_section_title
;
Structure prediction by ZEFSAII (Michael W. Deem and Ramdas Pophale) SiO2 
 PCOD8181085
Probable space group: A B M 2
;
_chemical_formula_sum "Si O2"
_cell_formula_units_Z 64
_cell_length_a 14.518862
_cell_length_b 9.025210
_cell_length_c 24.767264
_cell_angle_alpha 90.000000
_cell_angle_beta 90.000000
_cell_angle_gamma 90.000000
_cell_volume 3245.397720
_symmetry_space_group_name_H-M "A B M 2"
_symmetry_group_IT_number 39
_symmetry_cell_setting 'orthorhombic'
loop_
_space_group_symop_operation_xyz
x,y,z
-x,-y,z
-x,1/2+y,z
x,1/2-y,z
x,1/2+y,1/2+z
-x,1/2-y,1/2+z
-x,y,1/2+z
x,-y,1/2+z
loop_
_atom_site_type_symbol
_atom_site_label
_atom_site_fract_x
_atom_site_fract_y
_atom_site_fract_z
Si Si1 0.411283 0.418451 0.315840
Si Si2 0.767210 0.921986 0.044797
Si Si3 0.408493 0.926379 0.085244
Si Si4 0.361978 0.078408 0.195178
Si Si5 0.899600 0.925541 0.946655
Si Si6 0.170981 0.923320 0.734221
Si Si7 0.085368 0.081583 0.128858
Si Si8 0.792431 0.425623 0.849946
O O1 0.500000 0.500000 0.341507
O O2 0.421304 0.250000 0.332942
O O3 0.417562 0.436710 0.251077
O O4 0.314329 0.475011 0.341479
O O5 0.739762 0.750000 0.039047
O O6 0.818060 0.956510 0.101210
O O7 0.675511 0.020515 0.046943
O O8 0.837499 0.970350 0.997905
O O9 0.414744 0.750000 0.083594
O O10 0.500000 0.000000 0.059852
O O11 0.403523 0.979996 0.147352
O O12 0.359160 0.250000 0.175426
O O13 0.262443 0.007855 0.208099
O O14 0.914186 0.750000 0.942687
O O15 0.841480 0.981832 0.895990
O O16 0.000000 0.000000 0.950211
O O17 0.193349 0.750000 0.737473
O O18 0.088525 0.959399 0.692814
O O19 0.152172 0.974867 0.795367
O O20 0.061725 0.250000 0.119016
O O21 0.000000 0.000000 0.101208
O O22 0.800692 0.250000 0.861490
#
# Coordination Sequence:
#
# PCOD8181085 Si02
#       8
#     8   8   8   8   8   8   8   8
#     4   9  18  31  53  83 117 159 199 238 285 340
#     4  10  22  42  63  82 112 151 193 241 291 341
#     4  12  24  36  56  86 119 155 195 237 286 343
#     4   9  16  32  54  78 115 158 198 236 280 336
#     4  11  24  42  66  91 113 147 192 242 296 348
#     4   8  15  31  55  79 112 156 191 229 287 340
#     4  10  19  33  55  81 112 148 184 231 287 346
#     4   9  19  37  59  84 115 153 197 241 288 342
#
# _framework density 19.720234000000001
#
# number of rings (size 3 to 8) (size 9 to 14) (size 15 to 20)
#    0.000    2.250    1.250    3.750    0.000    4.000 
#    0.000    4.375    0.000    1.500    0.000    0.000 
#    0.000    0.000    0.000    0.000    0.000    0.000 
#
# Total GULP energy -396508.308377 kJ/mol
# GULP energy per Si atom -12390.884637 kJ/mol
# Density = 1.967535 g / cm^3
# Si number density = 19.720234 Si / 1000 Ang^3
#
#
#
# Elastic Constant Matrix: (Units=GPa)
#
#
# Indices 1 2 3 4 5 6 
#
# 1 133.8673 69.1378 50.9675 0.0000 0.0000 0.0000
# 2 69.1378 90.7525 45.9178 0.0000 0.0000 0.0000
# 3 50.9675 45.9178 101.4282 0.0000 0.0000 0.0000
# 4 0.0000 0.0000 0.0000 25.7141 0.0000 0.0000
# 5 0.0000 0.0000 0.0000 0.0000 34.9201 0.0000
# 6 0.0000 0.0000 0.0000 0.0000 0.0000 36.2558
#
#
#
# Elastic Compliance Matrix: (Units=1/GPa)
#
#
# Indices 1 2 3 4 5 6 
#
# 1 0.012832 -0.008449 -0.002623 0.000000 0.000000 0.000000
# 2 -0.008449 0.019855 -0.004743 0.000000 0.000000 0.000000
# 3 -0.002623 -0.004743 0.013325 0.000000 0.000000 0.000000
# 4 0.000000 0.000000 0.000000 0.038889 0.000000 0.000000
# 5 0.000000 0.000000 0.000000 0.000000 0.028637 0.000000
# 6 0.000000 0.000000 0.000000 0.000000 0.000000 0.027582
#
#
# Mechanical properties :
#
#
# Convention : Reuss Voigt Hill
#
# Bulk Modulus (GPa) = 69.53278 73.12159 71.32719
# Shear Modulus (GPa) = 28.16186 30.04632 29.10409
#
# Velocity S-wave (km/s) = 3.78308 3.90760 3.84585
# Velocity P-wave (km/s) = 7.37688 7.58414 7.48123
#
# Compressibility (1/GPa) = 0.01438171
#
# Stress axis : x y z
#
# Youngs Moduli (GPa) = 77.92800 50.36414 75.04798
#
# Poissons Ratio (x) = 0.42551 0.19688
# Poissons Ratio (y) = 0.65839 0.35598
# Poissons Ratio (z) = 0.20444 0.23889
#
# Static dielectric constant tensor:
#      x y z
#    x 3.645540 0.000000 0.000000 
#    y 0.000000 3.330490 0.000000 
#    z 0.000000 0.000000 3.574250 
# 
# 
# High freq. dielectric constant tensor:
#      x y z
#    x 1.777530 0.000000 0.000000 
#    y 0.000000 1.746150 0.000000 
#    z 0.000000 0.000000 1.756220 
# 
# From -- ./inp_files/16235.got.cif
#   From: 2010.03.12/outbox.cif.g09.slc.cpg/sg39_9_cif.got.tgz:16235.got - 2010.04.14 02:53:20.
