data_PCOD8181074
_publ_section_title
;
Structure prediction by ZEFSAII (Michael W. Deem and Ramdas Pophale) SiO2 
 PCOD8181074
Probable space group: A B M 2
;
_chemical_formula_sum "Si O2"
_cell_formula_units_Z 48
_cell_length_a 9.197408
_cell_length_b 15.393578
_cell_length_c 15.470764
_cell_angle_alpha 90.000000
_cell_angle_beta 90.000000
_cell_angle_gamma 90.000000
_cell_volume 2190.366508
_symmetry_space_group_name_H-M "A B M 2"
_symmetry_group_IT_number 39
_symmetry_cell_setting 'orthorhombic'
loop_
_space_group_symop_operation_xyz
x,y,z
-x,-y,z
-x,1/2+y,z
x,1/2-y,z
x,1/2+y,1/2+z
-x,1/2-y,1/2+z
-x,y,1/2+z
x,-y,1/2+z
loop_
_atom_site_type_symbol
_atom_site_label
_atom_site_fract_x
_atom_site_fract_y
_atom_site_fract_z
Si Si1 0.182369 0.845795 0.893480
Si Si2 0.844151 0.148512 0.079663
Si Si3 0.648876 0.853117 0.233290
Si Si4 0.893103 0.583897 0.890768
Si Si5 0.827253 0.351825 0.570451
Si Si6 0.315283 0.146757 0.747942
O O1 0.250195 0.750000 0.897529
O O2 0.263445 0.895120 0.814788
O O3 0.008240 0.837696 0.877270
O O4 0.201925 0.894592 0.986847
O O5 0.821386 0.250000 0.065818
O O6 0.742804 0.114237 0.155545
O O7 0.010505 0.129821 0.105727
O O8 0.671047 0.750000 0.231566
O O9 0.714686 0.888149 0.142603
O O10 0.483108 0.880111 0.247098
O O11 0.768464 0.589851 0.818825
O O12 0.000000 0.500000 0.884563
O O13 0.808881 0.593594 0.982146
O O14 0.800701 0.250000 0.551341
O O15 0.293035 0.250000 0.763000
#
# Coordination Sequence:
#
# PCOD8181074 Si02
#       6
#     8   8   8   8   8   8
#     4   9  17  34  56  78 104 141 185 235 287 341
#     4   8  15  28  51  77 103 133 172 220 275 331
#     4   9  18  31  55  85 110 138 181 234 293 348
#     4  11  22  35  53  78 110 152 195 232 274 338
#     4   9  17  33  55  80 107 141 185 238 288 338
#     4  10  19  33  54  84 113 141 181 237 293 342
#
# _framework density 21.914141000000001
#
# number of rings (size 3 to 8) (size 9 to 14) (size 15 to 20)
#    0.000    2.667    0.000    3.500    0.000    4.000 
#    0.000   13.333    0.000    0.000    0.000    0.000 
#    0.000    0.000    0.000    0.000    0.000    0.000 
#
# Total GULP energy -297318.015253 kJ/mol
# GULP energy per Si atom -12388.250636 kJ/mol
# Density = 2.186426 g / cm^3
# Si number density = 21.914141 Si / 1000 Ang^3
#
#
#
# Elastic Constant Matrix: (Units=GPa)
#
#
# Indices 1 2 3 4 5 6 
#
# 1 143.9359 17.1261 124.5783 0.0000 0.0000 0.0000
# 2 17.1261 47.5565 26.3197 0.0000 0.0000 0.0000
# 3 124.5783 26.3197 219.5079 0.0000 0.0000 0.0000
# 4 0.0000 0.0000 0.0000 -2.9507 0.0000 0.0000
# 5 0.0000 0.0000 0.0000 0.0000 22.6979 0.0000
# 6 0.0000 0.0000 0.0000 0.0000 0.0000 17.8956
#
#
#
# Elastic Compliance Matrix: (Units=1/GPa)
#
#
# Indices 1 2 3 4 5 6 
#
# 1 0.013675 -0.000674 -0.007680 0.000000 0.000000 0.000000
# 2 -0.000674 0.022555 -0.002322 0.000000 0.000000 0.000000
# 3 -0.007680 -0.002322 0.009193 0.000000 0.000000 0.000000
# 4 0.000000 0.000000 0.000000 -0.338899 0.000000 0.000000
# 5 0.000000 0.000000 0.000000 0.000000 0.044057 0.000000
# 6 0.000000 0.000000 0.000000 0.000000 0.000000 0.055880
#
#
# Mechanical properties :
#
#
# Convention : Reuss Voigt Hill
#
# Bulk Modulus (GPa) = 41.54401 83.00538 62.27469
# Shear Modulus (GPa) = -30.45753 23.72695 -3.36529
#
# Velocity S-wave (km/s) = -3.73212 3.29405 -1.24057
# Velocity P-wave (km/s) = 0.65354 7.24068 5.14075
#
# Compressibility (1/GPa) = 0.02407086
#
# Stress axis : x y z
#
# Youngs Moduli (GPa) = 73.12545 44.33524 108.77992
#
# Poissons Ratio (x) = 0.02989 0.83546
# Poissons Ratio (y) = 0.04930 0.25257
# Poissons Ratio (z) = 0.56162 0.10294
#
# Static dielectric constant tensor:
#      x y z
#    x 3.863120 0.000000 0.000000 
#    y 0.000000 3.585410 0.000000 
#    z 0.000000 0.000000 4.429090 
# 
# 
# High freq. dielectric constant tensor:
#      x y z
#    x 1.841640 0.000000 0.000000 
#    y 0.000000 1.828040 0.000000 
#    z 0.000000 0.000000 1.876940 
# 
# From -- ./inp_files/8326.got.cif
#   From: 2010.03.12/outbox.cif.g09.slc.cpg/sg39_5_cif.got.tgz:8326.got - 2010.04.14 02:53:20.
