data_PCOD8181868
_publ_section_title
;
Structure prediction by ZEFSAII (Michael W. Deem and Ramdas Pophale) SiO2 
 PCOD8181868
Probable space group: A B M 2
;
_chemical_formula_sum "Si O2"
_cell_formula_units_Z 64
_cell_length_a 23.831227
_cell_length_b 8.708168
_cell_length_c 15.395449
_cell_angle_alpha 90.000000
_cell_angle_beta 90.000000
_cell_angle_gamma 90.000000
_cell_volume 3194.961004
_symmetry_space_group_name_H-M "A B M 2"
_symmetry_group_IT_number 39
_symmetry_cell_setting 'orthorhombic'
loop_
_space_group_symop_operation_xyz
x,y,z
-x,-y,z
-x,1/2+y,z
x,1/2-y,z
x,1/2+y,1/2+z
-x,1/2-y,1/2+z
-x,y,1/2+z
x,-y,1/2+z
loop_
_atom_site_type_symbol
_atom_site_label
_atom_site_fract_x
_atom_site_fract_y
_atom_site_fract_z
Si Si1 0.750565 0.571005 0.442050
Si Si2 0.438929 0.432985 0.300455
Si Si3 0.876909 0.071784 0.708814
Si Si4 0.939439 0.068431 0.537475
Si Si5 0.637396 0.428506 0.645897
Si Si6 0.139590 0.069954 0.882216
Si Si7 0.632556 0.932214 0.950109
Si Si8 0.238409 0.926463 0.622520
O O1 0.739740 0.750000 0.427964
O O2 0.800872 0.516709 0.380139
O O3 0.693827 0.482079 0.416470
O O4 0.768964 0.536165 0.540317
O O5 0.500000 0.500000 0.286031
O O6 0.440462 0.250000 0.301337
O O7 0.401242 0.501136 0.221149
O O8 0.415101 0.490734 0.391998
O O9 0.888449 0.250000 0.727336
O O10 0.915242 0.011951 0.629742
O O11 0.811533 0.041659 0.688639
O O12 0.892797 0.973187 0.793432
O O13 0.943447 0.250000 0.534961
O O14 0.897922 0.010141 0.462149
O O15 0.000000 0.000000 0.520513
O O16 0.624582 0.250000 0.643995
O O17 0.623985 0.493129 0.549299
O O18 0.702494 0.460912 0.669923
O O19 0.150145 0.250000 0.888962
O O20 0.627446 0.750000 0.944485
O O21 0.236836 0.750000 0.588504
#
# Coordination Sequence:
#
# PCOD8181868 Si02
#       8
#     8   8   8   8   8   8   8   8
#     4  11  21  35  59  91 124 160 201 247 301 367
#     4  11  23  40  60  87 119 159 205 249 297 361
#     4  10  21  38  61  90 122 158 198 246 307 362
#     4  10  23  43  64  85 120 163 204 251 304 359
#     4   8  18  36  60  85 115 155 195 238 295 353
#     4  11  23  40  60  89 123 160 203 251 303 360
#     4  10  21  40  62  88 120 159 199 250 306 358
#     4   9  17  36  61  85 121 159 193 245 308 361
#
# _framework density 20.031544
#
# number of rings (size 3 to 8) (size 9 to 14) (size 15 to 20)
#    0.000    2.000    1.250    3.000    1.750    3.000 
#    0.000   10.000    0.000    0.000    0.000    0.000 
#    0.000    0.000    0.000    0.000    0.000    0.000 
#
# Total GULP energy -396840.919334 kJ/mol
# GULP energy per Si atom -12401.278729 kJ/mol
# Density = 1.998595 g / cm^3
# Si number density = 20.031544 Si / 1000 Ang^3
#
#
#
# Elastic Constant Matrix: (Units=GPa)
#
#
# Indices 1 2 3 4 5 6 
#
# 1 102.1716 26.6225 34.5713 0.0000 0.0000 0.0000
# 2 26.6225 60.7625 26.3878 0.0000 0.0000 0.0000
# 3 34.5713 26.3878 91.2794 0.0000 0.0000 0.0000
# 4 0.0000 0.0000 0.0000 29.0414 0.0000 0.0000
# 5 0.0000 0.0000 0.0000 0.0000 26.0182 0.0000
# 6 0.0000 0.0000 0.0000 0.0000 0.0000 31.8235
#
#
#
# Elastic Compliance Matrix: (Units=1/GPa)
#
#
# Indices 1 2 3 4 5 6 
#
# 1 0.011923 -0.003731 -0.003437 0.000000 0.000000 0.000000
# 2 -0.003731 0.019988 -0.004365 0.000000 0.000000 0.000000
# 3 -0.003437 -0.004365 0.013519 0.000000 0.000000 0.000000
# 4 0.000000 0.000000 0.000000 0.034434 0.000000 0.000000
# 5 0.000000 0.000000 0.000000 0.000000 0.038435 0.000000
# 6 0.000000 0.000000 0.000000 0.000000 0.000000 0.031423
#
#
# Mechanical properties :
#
#
# Convention : Reuss Voigt Hill
#
# Bulk Modulus (GPa) = 44.71661 47.70852 46.21256
# Shear Modulus (GPa) = 27.74045 28.48540 28.11293
#
# Velocity S-wave (km/s) = 3.72538 3.77507 3.75031
# Velocity P-wave (km/s) = 6.39345 6.54751 6.47094
#
# Compressibility (1/GPa) = 0.02236306
#
# Stress axis : x y z
#
# Youngs Moduli (GPa) = 83.87422 50.03005 73.96997
#
# Poissons Ratio (x) = 0.18667 0.25423
# Poissons Ratio (y) = 0.31295 0.32289
# Poissons Ratio (z) = 0.28827 0.21839
#
# Static dielectric constant tensor:
#      x y z
#    x 3.794740 0.000000 0.000000 
#    y 0.000000 3.422230 0.000000 
#    z 0.000000 0.000000 3.791260 
# 
# 
# High freq. dielectric constant tensor:
#      x y z
#    x 1.780840 0.000000 0.000000 
#    y 0.000000 1.764860 0.000000 
#    z 0.000000 0.000000 1.787170 
# 
# From -- ./inp_files/10587.got.cif
#   From: 2010.03.12/outbox.cif.g09.slc.cpg/sg39_6_cif.got.tgz:10587.got - 2010.04.14 02:53:20.
