data_PCOD8181851
_publ_section_title
;
Structure prediction by ZEFSAII (Michael W. Deem and Ramdas Pophale) SiO2 
 PCOD8181851
Probable space group: A B M 2
;
_chemical_formula_sum "Si O2"
_cell_formula_units_Z 48
_cell_length_a 17.935968
_cell_length_b 9.768071
_cell_length_c 13.490452
_cell_angle_alpha 90.000000
_cell_angle_beta 90.000000
_cell_angle_gamma 90.000000
_cell_volume 2363.524612
_symmetry_space_group_name_H-M "A B M 2"
_symmetry_group_IT_number 39
_symmetry_cell_setting 'orthorhombic'
loop_
_space_group_symop_operation_xyz
x,y,z
-x,-y,z
-x,1/2+y,z
x,1/2-y,z
x,1/2+y,1/2+z
-x,1/2-y,1/2+z
-x,y,1/2+z
x,-y,1/2+z
loop_
_atom_site_type_symbol
_atom_site_label
_atom_site_fract_x
_atom_site_fract_y
_atom_site_fract_z
Si Si1 0.303689 0.905796 0.752250
Si Si2 0.066837 0.595329 0.040970
Si Si3 0.812086 0.487659 0.400801
Si Si4 0.424295 0.916437 0.906659
Si Si5 0.680826 0.906805 0.034391
Si Si6 0.936997 0.100213 0.264868
O O1 0.314330 0.750000 0.728885
O O2 0.377768 0.956497 0.808591
O O3 0.297076 0.969549 0.642272
O O4 0.230815 0.922688 0.819402
O O5 0.037563 0.750000 0.034032
O O6 0.140457 0.582475 0.974413
O O7 0.000000 0.500000 0.001634
O O8 0.087800 0.554511 0.154187
O O9 0.753751 0.400748 0.464801
O O10 0.866811 0.391146 0.338174
O O11 0.433860 0.750000 0.919990
O O12 0.500000 0.000000 0.895925
O O13 0.380147 0.982854 0.998634
O O14 0.649160 0.750000 0.036121
O O15 0.973603 0.250000 0.260694
O O16 0.000000 0.000000 0.307747
#
# Coordination Sequence:
#
# PCOD8181851 Si02
#       6
#     8   8   8   8   8   8
#     4   9  20  37  57  84 117 149 183 223 275 332
#     4  10  22  38  56  78 109 146 189 238 289 341
#     4  11  20  34  58  84 110 145 187 234 282 334
#     4  10  21  39  62  88 117 150 186 225 269 323
#     4  10  21  38  59  86 117 149 185 228 275 329
#     4  10  22  38  54  78 109 145 188 236 287 339
#
# _framework density 20.308653
#
# number of rings (size 3 to 8) (size 9 to 14) (size 15 to 20)
#    0.000    2.000    0.000    3.000    0.000    5.333 
#    0.000   10.000    0.000    0.000    0.000    0.000 
#    0.000    0.000    0.000    0.000    0.000    0.000 
#
# Total GULP energy -297414.888538 kJ/mol
# GULP energy per Si atom -12392.287022 kJ/mol
# Density = 2.026243 g / cm^3
# Si number density = 20.308653 Si / 1000 Ang^3
#
#
#
# Elastic Constant Matrix: (Units=GPa)
#
#
# Indices 1 2 3 4 5 6 
#
# 1 126.6998 54.3561 61.4624 0.0000 0.0000 0.0000
# 2 54.3561 82.3522 30.5860 0.0000 0.0000 0.0000
# 3 61.4624 30.5860 135.8143 0.0000 0.0000 0.0000
# 4 0.0000 0.0000 0.0000 17.6762 0.0000 0.0000
# 5 0.0000 0.0000 0.0000 0.0000 20.0315 0.0000
# 6 0.0000 0.0000 0.0000 0.0000 0.0000 30.3849
#
#
#
# Elastic Compliance Matrix: (Units=1/GPa)
#
#
# Indices 1 2 3 4 5 6 
#
# 1 0.012964 -0.006960 -0.004300 0.000000 0.000000 0.000000
# 2 -0.006960 0.016988 -0.000676 0.000000 0.000000 0.000000
# 3 -0.004300 -0.000676 0.009461 0.000000 0.000000 0.000000
# 4 0.000000 0.000000 0.000000 0.056573 0.000000 0.000000
# 5 0.000000 0.000000 0.000000 0.000000 0.049921 0.000000
# 6 0.000000 0.000000 0.000000 0.000000 0.000000 0.032911
#
#
# Mechanical properties :
#
#
# Convention : Reuss Voigt Hill
#
# Bulk Modulus (GPa) = 64.34168 70.85280 67.59724
# Shear Modulus (GPa) = 24.05335 26.84931 25.45133
#
# Velocity S-wave (km/s) = 3.44523 3.63996 3.54393
# Velocity P-wave (km/s) = 6.89760 7.25462 7.07836
#
# Compressibility (1/GPa) = 0.01554203
#
# Stress axis : x y z
#
# Youngs Moduli (GPa) = 77.13407 58.86475 105.69739
#
# Poissons Ratio (x) = 0.40971 0.45445
# Poissons Ratio (y) = 0.53687 0.07145
# Poissons Ratio (z) = 0.33164 0.03979
#
# Static dielectric constant tensor:
#      x y z
#    x 3.601900 0.000000 0.000000 
#    y 0.000000 3.539000 0.000000 
#    z 0.000000 0.000000 4.673670 
# 
# 
# High freq. dielectric constant tensor:
#      x y z
#    x 1.783050 0.000000 0.000000 
#    y 0.000000 1.783160 0.000000 
#    z 0.000000 0.000000 1.814580 
# 
# From -- ./inp_files/9745.got.cif
#   From: 2010.03.12/outbox.cif.g09.slc.cpg/sg39_5_cif.got.tgz:9745.got - 2010.04.14 02:53:20.
