data_PCOD8181550
_publ_section_title
;
Structure prediction by ZEFSAII (Michael W. Deem and Ramdas Pophale) SiO2 
 PCOD8181550
Probable space group: A B M 2
;
_chemical_formula_sum "Si O2"
_cell_formula_units_Z 64
_cell_length_a 14.017077
_cell_length_b 8.789281
_cell_length_c 25.559780
_cell_angle_alpha 90.000000
_cell_angle_beta 90.000000
_cell_angle_gamma 90.000000
_cell_volume 3148.965626
_symmetry_space_group_name_H-M "A B M 2"
_symmetry_group_IT_number 39
_symmetry_cell_setting 'orthorhombic'
loop_
_space_group_symop_operation_xyz
x,y,z
-x,-y,z
-x,1/2+y,z
x,1/2-y,z
x,1/2+y,1/2+z
-x,1/2-y,1/2+z
-x,y,1/2+z
x,-y,1/2+z
loop_
_atom_site_type_symbol
_atom_site_label
_atom_site_fract_x
_atom_site_fract_y
_atom_site_fract_z
Si Si1 0.285962 0.072856 0.720780
Si Si2 0.601113 0.572965 0.314298
Si Si3 0.104146 0.427865 0.955773
Si Si4 0.896153 0.430378 0.683586
Si Si5 0.901439 0.075936 0.569377
Si Si6 0.397847 0.427926 0.616116
Si Si7 0.281989 0.926656 0.917749
Si Si8 0.603916 0.569996 0.010490
O O1 0.276885 0.250000 0.732652
O O2 0.328841 0.038196 0.664083
O O3 0.356008 0.999835 0.762550
O O4 0.180809 0.998263 0.723931
O O5 0.500000 0.500000 0.328357
O O6 0.585407 0.750000 0.304116
O O7 0.672810 0.541204 0.361614
O O8 0.097552 0.250000 0.941772
O O9 0.172715 0.515657 0.915402
O O10 0.000000 0.500000 0.950818
O O11 0.153927 0.449060 0.014238
O O12 0.900758 0.250000 0.691058
O O13 0.859824 0.482976 0.624900
O O14 0.000000 0.500000 0.695424
O O15 0.924082 0.250000 0.579018
O O16 0.000000 0.000000 0.556817
O O17 0.500000 0.500000 0.628765
O O18 0.411518 0.250000 0.605715
O O19 0.351057 0.504913 0.564503
O O20 0.287328 0.750000 0.932985
O O21 0.335204 0.026309 0.960574
O O22 0.500000 0.500000 0.003154
O O23 0.597374 0.750000 0.014798
#
# Coordination Sequence:
#
# PCOD8181550 Si02
#       8
#     8   8   8   8   8   8   8   8
#     4  11  24  40  62  91 122 159 205 251 306 365
#     4  11  25  45  69  93 120 156 202 256 312 367
#     4  10  20  36  58  88 124 165 208 251 304 359
#     4  10  20  36  58  86 124 164 207 253 302 360
#     4   8  16  30  50  79 114 156 199 240 288 345
#     4  10  21  37  57  86 121 158 196 243 302 366
#     4  11  24  41  62  90 122 159 205 253 306 365
#     4  11  22  37  59  87 121 159 198 245 304 367
#
# _framework density 20.324133
#
# number of rings (size 3 to 8) (size 9 to 14) (size 15 to 20)
#    0.000    1.750    0.000    4.875    1.750    7.000 
#    0.000    0.625    0.000    3.000    0.000    0.000 
#    0.000    0.000    0.000    0.000    0.000    0.000 
#
# Total GULP energy -396682.222928 kJ/mol
# GULP energy per Si atom -12396.319466 kJ/mol
# Density = 2.027787 g / cm^3
# Si number density = 20.324133 Si / 1000 Ang^3
#
#
#
# Elastic Constant Matrix: (Units=GPa)
#
#
# Indices 1 2 3 4 5 6 
#
# 1 85.7564 51.0326 40.5576 0.0000 0.0000 0.0000
# 2 51.0326 119.7285 53.0593 0.0000 0.0000 0.0000
# 3 40.5576 53.0593 67.4709 0.0000 0.0000 0.0000
# 4 0.0000 0.0000 0.0000 31.2527 0.0000 0.0000
# 5 0.0000 0.0000 0.0000 0.0000 33.1530 0.0000
# 6 0.0000 0.0000 0.0000 0.0000 0.0000 35.5588
#
#
#
# Elastic Compliance Matrix: (Units=1/GPa)
#
#
# Indices 1 2 3 4 5 6 
#
# 1 0.017643 -0.004329 -0.007201 0.000000 0.000000 0.000000
# 2 -0.004329 0.013882 -0.008315 0.000000 0.000000 0.000000
# 3 -0.007201 -0.008315 0.025689 0.000000 0.000000 0.000000
# 4 0.000000 0.000000 0.000000 0.031997 0.000000 0.000000
# 5 0.000000 0.000000 0.000000 0.000000 0.030163 0.000000
# 6 0.000000 0.000000 0.000000 0.000000 0.000000 0.028122
#
#
# Mechanical properties :
#
#
# Convention : Reuss Voigt Hill
#
# Bulk Modulus (GPa) = 57.06438 62.47278 59.76858
# Shear Modulus (GPa) = 25.90311 28.54666 27.22488
#
# Velocity S-wave (km/s) = 3.57389 3.75182 3.66394
# Velocity P-wave (km/s) = 6.72074 7.04082 6.88264
#
# Compressibility (1/GPa) = 0.01752407
#
# Stress axis : x y z
#
# Youngs Moduli (GPa) = 56.68115 72.03513 38.92751
#
# Poissons Ratio (x) = 0.31181 0.28032
# Poissons Ratio (y) = 0.24535 0.32368
# Poissons Ratio (z) = 0.40817 0.59897
#
# Static dielectric constant tensor:
#      x y z
#    x 3.624570 0.000000 0.000000 
#    y 0.000000 3.488210 0.000000 
#    z 0.000000 0.000000 3.730860 
# 
# 
# High freq. dielectric constant tensor:
#      x y z
#    x 1.796180 0.000000 0.000000 
#    y 0.000000 1.808250 0.000000 
#    z 0.000000 0.000000 1.785210 
# 
# From -- ./inp_files/16152.got.cif
#   From: 2010.03.12/outbox.cif.g09.slc.cpg/sg39_9_cif.got.tgz:16152.got - 2010.04.14 02:53:20.
