data_PCOD8181325
_publ_section_title
;
Structure prediction by ZEFSAII (Michael W. Deem and Ramdas Pophale) SiO2 
 PCOD8181325
Probable space group: A B M 2
;
_chemical_formula_sum "Si O2"
_cell_formula_units_Z 44
_cell_length_a 9.010462
_cell_length_b 14.161950
_cell_length_c 18.858584
_cell_angle_alpha 90.000000
_cell_angle_beta 90.000000
_cell_angle_gamma 90.000000
_cell_volume 2406.463045
_symmetry_space_group_name_H-M "A B M 2"
_symmetry_group_IT_number 39
_symmetry_cell_setting 'orthorhombic'
loop_
_space_group_symop_operation_xyz
x,y,z
-x,-y,z
-x,1/2+y,z
x,1/2-y,z
x,1/2+y,1/2+z
-x,1/2-y,1/2+z
-x,y,1/2+z
x,-y,1/2+z
loop_
_atom_site_type_symbol
_atom_site_label
_atom_site_fract_x
_atom_site_fract_y
_atom_site_fract_z
Si Si1 0.652828 0.750000 0.689700
Si Si2 0.919213 0.098506 0.979084
Si Si3 0.428870 0.750000 0.351649
Si Si4 0.507406 0.388768 0.594724
Si Si5 0.078560 0.750000 0.100483
Si Si6 0.128755 0.750000 0.431554
Si Si7 0.415241 0.097232 0.441549
Si Si8 0.757271 0.750000 0.088435
O O1 0.588283 0.750000 0.767817
O O2 0.599473 0.654456 0.652850
O O3 0.828903 0.750000 0.673815
O O4 0.762426 0.081867 0.939043
O O5 0.024888 0.157201 0.925472
O O6 0.892838 0.157054 0.051768
O O7 0.000000 0.000000 0.997390
O O8 0.256947 0.750000 0.373878
O O9 0.523908 0.839524 0.377380
O O10 0.500000 0.500000 0.603090
O O11 0.456154 0.355241 0.516715
O O12 0.670520 0.345990 0.608314
O O13 0.911371 0.750000 0.130619
O O14 0.211631 0.750000 0.505744
O O15 0.500000 0.000000 0.433889
#
# Coordination Sequence:
#
# PCOD8181325 Si02
#       8
#     4   8   4   8   4   4   8   4
#     4  11  23  38  56  83 122 161 189 235 291 365
#     4  10  20  34  59  88 116 142 192 257 302 335
#     4  12  22  39  58  83 127 160 192 239 297 362
#     4  10  20  36  60  85 113 146 198 254 285 334
#     4  10  21  33  52  83 119 148 194 225 294 362
#     4  10  20  33  52  83 114 146 187 237 288 359
#     4  11  21  35  63  90 114 146 203 253 293 343
#     4   9  18  33  56  84 112 139 192 246 294 334
#
# _framework density 18.284096000000002
#
# number of rings (size 3 to 8) (size 9 to 14) (size 15 to 20)
#    0.000    1.818    3.636    2.727    7.636    0.727 
#    0.000    3.636    0.000    5.455    0.000    0.000 
#    0.000    0.000    0.000    0.000    0.000    0.000 
#
# Total GULP energy -272644.807361 kJ/mol
# GULP energy per Si atom -12392.945789 kJ/mol
# Density = 1.824248 g / cm^3
# Si number density = 18.284096 Si / 1000 Ang^3
#
#
#
# Elastic Constant Matrix: (Units=GPa)
#
#
# Indices 1 2 3 4 5 6 
#
# 1 159.1915 64.5324 41.2047 0.0000 0.0000 0.0000
# 2 64.5324 138.8955 43.9962 0.0000 0.0000 0.0000
# 3 41.2047 43.9962 96.2130 0.0000 0.0000 0.0000
# 4 0.0000 0.0000 0.0000 -223.7864 0.0000 0.0000
# 5 0.0000 0.0000 0.0000 0.0000 24.3454 0.0000
# 6 0.0000 0.0000 0.0000 0.0000 0.0000 16.0350
#
#
#
# Elastic Compliance Matrix: (Units=1/GPa)
#
#
# Indices 1 2 3 4 5 6 
#
# 1 0.008067 -0.003103 -0.002036 0.000000 0.000000 0.000000
# 2 -0.003103 0.009613 -0.003067 0.000000 0.000000 0.000000
# 3 -0.002036 -0.003067 0.012668 0.000000 0.000000 0.000000
# 4 0.000000 0.000000 0.000000 -0.004469 0.000000 0.000000
# 5 0.000000 0.000000 0.000000 0.000000 0.041075 0.000000
# 6 0.000000 0.000000 0.000000 0.000000 0.000000 0.062364
#
#
# Mechanical properties :
#
#
# Convention : Reuss Voigt Hill
#
# Bulk Modulus (GPa) = 71.75589 77.08517 74.42053
# Shear Modulus (GPa) = 33.25046 -20.37674 6.43686
#
# Velocity S-wave (km/s) = 4.26907 -3.34196 1.87833
# Velocity P-wave (km/s) = 7.97685 5.23064 6.74499
#
# Compressibility (1/GPa) = 0.01393614
#
# Stress axis : x y z
#
# Youngs Moduli (GPa) = 123.96910 104.02819 78.94022
#
# Poissons Ratio (x) = 0.32280 0.16070
# Poissons Ratio (y) = 0.38467 0.24210
# Poissons Ratio (z) = 0.25236 0.31904
#
# Static dielectric constant tensor:
#      x y z
#    x 3.835280 0.000000 0.000000 
#    y 0.000000 5.287740 0.000000 
#    z 0.000000 0.000000 2.981940 
# 
# 
# High freq. dielectric constant tensor:
#      x y z
#    x 1.732810 0.000000 0.000000 
#    y 0.000000 1.719530 0.000000 
#    z 0.000000 0.000000 1.654400 
# 
# From -- ./inp_files/11567.got.cif
#   From: 2010.03.12/outbox.cif.g09.slc.cpg/sg39_6_cif.got.tgz:11567.got - 2010.04.14 02:53:20.
