data_PCOD8181337
_publ_section_title
;
Structure prediction by ZEFSAII (Michael W. Deem and Ramdas Pophale) SiO2 
 PCOD8181337
Probable space group: A B M 2
;
_chemical_formula_sum "Si O2"
_cell_formula_units_Z 60
_cell_length_a 12.249788
_cell_length_b 17.595856
_cell_length_c 15.597004
_cell_angle_alpha 90.000000
_cell_angle_beta 90.000000
_cell_angle_gamma 90.000000
_cell_volume 3361.864114
_symmetry_space_group_name_H-M "A B M 2"
_symmetry_group_IT_number 39
_symmetry_cell_setting 'orthorhombic'
loop_
_space_group_symop_operation_xyz
x,y,z
-x,-y,z
-x,1/2+y,z
x,1/2-y,z
x,1/2+y,1/2+z
-x,1/2-y,1/2+z
-x,y,1/2+z
x,-y,1/2+z
loop_
_atom_site_type_symbol
_atom_site_label
_atom_site_fract_x
_atom_site_fract_y
_atom_site_fract_z
Si Si1 0.828475 0.663803 0.723670
Si Si2 0.434420 0.574615 0.379294
Si Si3 0.966985 0.579597 0.181548
Si Si4 0.812955 0.401683 0.403017
Si Si5 0.773133 0.659518 0.083322
Si Si6 0.542358 0.413970 0.570657
Si Si7 0.591884 0.161290 0.212935
Si Si8 0.000000 0.500000 0.847356
O O1 0.826767 0.750000 0.697355
O O2 0.844654 0.653498 0.825230
O O3 0.712455 0.625673 0.698935
O O4 0.924805 0.628923 0.668059
O O5 0.500000 0.500000 0.354423
O O6 0.305017 0.558795 0.389347
O O7 0.477814 0.606614 0.470701
O O8 0.460933 0.631283 0.301479
O O9 0.863459 0.624957 0.146545
O O10 0.000000 0.500000 0.134400
O O11 0.946331 0.563371 0.283346
O O12 0.816155 0.349159 0.486736
O O13 0.904782 0.467400 0.408341
O O14 0.751757 0.750000 0.101870
O O15 0.667527 0.605142 0.095740
O O16 0.500000 0.500000 0.589726
O O17 0.474514 0.356871 0.628361
O O18 0.599814 0.250000 0.226710
#
# Coordination Sequence:
#
# PCOD8181337 Si02
#       8
#     8   8   8   8   8   8   8   4
#     4   9  17  33  54  75 104 137 178 219 259 315
#     4   9  19  35  52  77 104 138 177 222 266 318
#     4   9  20  33  51  78 108 136 175 213 263 313
#     4   9  18  33  53  76 103 133 181 216 266 305
#     4  11  22  35  55  81 110 141 175 220 271 318
#     4  10  22  36  55  78 109 141 183 224 270 321
#     4  10  20  33  56  81 105 142 179 221 273 320
#     4   8  18  32  50  78 102 140 178 220 254 312
#
# _framework density 17.847241
#
# number of rings (size 3 to 8) (size 9 to 14) (size 15 to 20)
#    0.400    2.133    0.000    1.600    2.800    4.800 
#    0.000    0.000    0.000    0.000    0.000    8.400 
#    0.000    0.000    0.000    0.000    0.000    0.000 
#
# Total GULP energy -371653.064022 kJ/mol
# GULP energy per Si atom -12388.435467 kJ/mol
# Density = 1.780662 g / cm^3
# Si number density = 17.847241 Si / 1000 Ang^3
#
#
#
# Elastic Constant Matrix: (Units=GPa)
#
#
# Indices 1 2 3 4 5 6 
#
# 1 100.2577 51.8546 54.2265 0.0000 0.0000 0.0000
# 2 51.8546 88.6831 35.0072 0.0000 0.0000 0.0000
# 3 54.2265 35.0072 70.5586 0.0000 0.0000 0.0000
# 4 0.0000 0.0000 0.0000 16.1818 0.0000 0.0000
# 5 0.0000 0.0000 0.0000 0.0000 27.4415 0.0000
# 6 0.0000 0.0000 0.0000 0.0000 0.0000 31.9293
#
#
#
# Elastic Compliance Matrix: (Units=1/GPa)
#
#
# Indices 1 2 3 4 5 6 
#
# 1 0.020059 -0.007018 -0.011934 0.000000 0.000000 0.000000
# 2 -0.007018 0.016478 -0.002782 0.000000 0.000000 0.000000
# 3 -0.011934 -0.002782 0.024724 0.000000 0.000000 0.000000
# 4 0.000000 0.000000 0.000000 0.061798 0.000000 0.000000
# 5 0.000000 0.000000 0.000000 0.000000 0.036441 0.000000
# 6 0.000000 0.000000 0.000000 0.000000 0.000000 0.031319
#
#
# Mechanical properties :
#
#
# Convention : Reuss Voigt Hill
#
# Bulk Modulus (GPa) = 56.20003 60.18623 58.19313
# Shear Modulus (GPa) = 20.81448 23.00458 21.90953
#
# Velocity S-wave (km/s) = 3.41876 3.59412 3.50753
# Velocity P-wave (km/s) = 6.86598 7.14281 7.00577
#
# Compressibility (1/GPa) = 0.01779358
#
# Stress axis : x y z
#
# Youngs Moduli (GPa) = 49.85366 60.68808 40.44587
#
# Poissons Ratio (x) = 0.42590 0.48268
# Poissons Ratio (y) = 0.34986 0.11252
# Poissons Ratio (z) = 0.59495 0.16883
#
# Static dielectric constant tensor:
#      x y z
#    x 3.456170 0.000000 0.000000 
#    y 0.000000 3.268010 0.000000 
#    z 0.000000 0.000000 3.213990 
# 
# 
# High freq. dielectric constant tensor:
#      x y z
#    x 1.694100 0.000000 0.000000 
#    y 0.000000 1.681500 0.000000 
#    z 0.000000 0.000000 1.681420 
# 
# From -- ./inp_files/9388.got.cif
#   From: 2010.03.12/outbox.cif.g09.slc.cpg/sg39_5_cif.got.tgz:9388.got - 2010.04.14 02:53:20.
