data_PCOD8181108
_publ_section_title
;
Structure prediction by ZEFSAII (Michael W. Deem and Ramdas Pophale) SiO2 
 PCOD8181108
Probable space group: A B M 2
;
_chemical_formula_sum "Si O2"
_cell_formula_units_Z 64
_cell_length_a 23.788954
_cell_length_b 9.096131
_cell_length_c 15.040825
_cell_angle_alpha 90.000000
_cell_angle_beta 90.000000
_cell_angle_gamma 90.000000
_cell_volume 3254.645646
_symmetry_space_group_name_H-M "A B M 2"
_symmetry_group_IT_number 39
_symmetry_cell_setting 'orthorhombic'
loop_
_space_group_symop_operation_xyz
x,y,z
-x,-y,z
-x,1/2+y,z
x,1/2-y,z
x,1/2+y,1/2+z
-x,1/2-y,1/2+z
-x,y,1/2+z
x,-y,1/2+z
loop_
_atom_site_type_symbol
_atom_site_label
_atom_site_fract_x
_atom_site_fract_y
_atom_site_fract_z
Si Si1 0.124967 0.582544 0.184290
Si Si2 0.440614 0.077832 0.591921
Si Si3 0.752005 0.417515 0.237766
Si Si4 0.140344 0.417381 0.487798
Si Si5 0.359170 0.581150 0.933931
Si Si6 0.940963 0.075850 0.831952
Si Si7 0.751185 0.917276 0.945916
Si Si8 0.639887 0.077014 0.729904
O O1 0.117776 0.750000 0.219323
O O2 0.190059 0.534332 0.191856
O O3 0.084693 0.474884 0.238378
O O4 0.107388 0.569956 0.081195
O O5 0.448037 0.250000 0.611103
O O6 0.412582 0.049594 0.495898
O O7 0.500000 0.000000 0.589575
O O8 0.404715 0.008867 0.671091
O O9 0.735660 0.250000 0.213469
O O10 0.761447 0.437020 0.341920
O O11 0.702476 0.523580 0.203747
O O12 0.157267 0.250000 0.467007
O O13 0.100034 0.478133 0.410618
O O14 0.197311 0.508583 0.496379
O O15 0.340728 0.750000 0.936640
O O16 0.307390 0.490376 0.974225
O O17 0.373351 0.535356 0.832637
O O18 0.949121 0.250000 0.831139
O O19 0.000000 0.000000 0.848904
O O20 0.748310 0.750000 0.976284
O O21 0.634982 0.250000 0.712144
#
# Coordination Sequence:
#
# PCOD8181108 Si02
#       8
#     8   8   8   8   8   8   8   8
#     4  10  21  39  61  87 120 157 198 242 295 353
#     4  11  24  42  62  85 117 157 201 245 296 354
#     4   9  18  34  57  86 121 158 193 238 296 352
#     4  10  22  38  59  88 120 157 196 239 295 354
#     4   9  21  40  60  84 118 159 197 240 295 353
#     4  11  24  42  63  86 117 157 201 247 296 349
#     4  10  19  33  58  90 121 154 195 244 294 347
#     4  10  21  38  60  88 120 155 198 245 293 350
#
# _framework density 19.664199
#
# number of rings (size 3 to 8) (size 9 to 14) (size 15 to 20)
#    0.000    2.000    1.250    1.500    1.750    4.500 
#    0.000    2.500    0.000    0.000    0.000    0.000 
#    0.000    0.000    0.000    0.000    0.000    0.000 
#
# Total GULP energy -396923.817572 kJ/mol
# GULP energy per Si atom -12403.869299 kJ/mol
# Density = 1.961944 g / cm^3
# Si number density = 19.664199 Si / 1000 Ang^3
#
#
#
# Elastic Constant Matrix: (Units=GPa)
#
#
# Indices 1 2 3 4 5 6 
#
# 1 100.6745 49.7100 28.6807 0.0000 0.0000 0.0000
# 2 49.7100 90.5456 29.7938 0.0000 0.0000 0.0000
# 3 28.6807 29.7938 62.6070 0.0000 0.0000 0.0000
# 4 0.0000 0.0000 0.0000 27.7543 0.0000 0.0000
# 5 0.0000 0.0000 0.0000 0.0000 18.2881 0.0000
# 6 0.0000 0.0000 0.0000 0.0000 0.0000 40.3275
#
#
#
# Elastic Compliance Matrix: (Units=1/GPa)
#
#
# Indices 1 2 3 4 5 6 
#
# 1 0.014183 -0.006697 -0.003310 0.000000 0.000000 0.000000
# 2 -0.006697 0.016257 -0.004668 0.000000 0.000000 0.000000
# 3 -0.003310 -0.004668 0.019711 0.000000 0.000000 0.000000
# 4 0.000000 0.000000 0.000000 0.036030 0.000000 0.000000
# 5 0.000000 0.000000 0.000000 0.000000 0.054680 0.000000
# 6 0.000000 0.000000 0.000000 0.000000 0.000000 0.024797
#
#
# Mechanical properties :
#
#
# Convention : Reuss Voigt Hill
#
# Bulk Modulus (GPa) = 48.07930 52.24399 50.16165
# Shear Modulus (GPa) = 24.75941 26.98349 25.87145
#
# Velocity S-wave (km/s) = 3.55224 3.70836 3.63114
# Velocity P-wave (km/s) = 6.42867 6.70535 6.56847
#
# Compressibility (1/GPa) = 0.02079897
#
# Stress axis : x y z
#
# Youngs Moduli (GPa) = 70.50725 61.51138 50.73378
#
# Poissons Ratio (x) = 0.41196 0.16794
# Poissons Ratio (y) = 0.47221 0.23685
# Poissons Ratio (z) = 0.23339 0.28716
#
# Static dielectric constant tensor:
#      x y z
#    x 3.520000 0.000000 0.000000 
#    y 0.000000 3.617120 0.000000 
#    z 0.000000 0.000000 3.662540 
# 
# 
# High freq. dielectric constant tensor:
#      x y z
#    x 1.760020 0.000000 0.000000 
#    y 0.000000 1.769050 0.000000 
#    z 0.000000 0.000000 1.772190 
# 
# From -- ./inp_files/10603.got.cif
#   From: 2010.03.12/outbox.cif.g09.slc.cpg/sg39_6_cif.got.tgz:10603.got - 2010.04.14 02:53:20.
