data_PCOD8181079
_publ_section_title
;
Structure prediction by ZEFSAII (Michael W. Deem and Ramdas Pophale) SiO2 
 PCOD8181079
Probable space group: A B M 2
;
_chemical_formula_sum "Si O2"
_cell_formula_units_Z 64
_cell_length_a 20.589882
_cell_length_b 8.739228
_cell_length_c 18.503936
_cell_angle_alpha 90.000000
_cell_angle_beta 90.000000
_cell_angle_gamma 90.000000
_cell_volume 3329.592198
_symmetry_space_group_name_H-M "A B M 2"
_symmetry_group_IT_number 39
_symmetry_cell_setting 'orthorhombic'
loop_
_space_group_symop_operation_xyz
x,y,z
-x,-y,z
-x,1/2+y,z
x,1/2-y,z
x,1/2+y,1/2+z
-x,1/2-y,1/2+z
-x,y,1/2+z
x,-y,1/2+z
loop_
_atom_site_type_symbol
_atom_site_label
_atom_site_fract_x
_atom_site_fract_y
_atom_site_fract_z
Si Si1 0.312251 0.930541 0.690040
Si Si2 0.310428 0.567943 0.525771
Si Si3 0.432484 0.430510 0.773050
Si Si4 0.188630 0.931794 0.436799
Si Si5 0.566867 0.430613 0.437978
Si Si6 0.066994 0.571306 0.182697
Si Si7 0.806391 0.928650 0.773019
Si Si8 0.068186 0.931721 0.529022
O O1 0.321709 0.750000 0.693693
O O2 0.307674 0.990017 0.607851
O O3 0.373867 0.009323 0.725543
O O4 0.246318 0.975783 0.729566
O O5 0.309302 0.750000 0.522465
O O6 0.248784 0.501001 0.482488
O O7 0.375298 0.504498 0.487511
O O8 0.500000 0.500000 0.744014
O O9 0.436324 0.250000 0.766106
O O10 0.420337 0.482742 0.855608
O O11 0.190205 0.750000 0.437868
O O12 0.193179 0.990576 0.354835
O O13 0.122117 0.990376 0.472755
O O14 0.500000 0.500000 0.467750
O O15 0.562110 0.250000 0.443418
O O16 0.056401 0.750000 0.168152
O O17 0.122557 0.540019 0.241044
O O18 0.087356 0.491713 0.108061
O O19 0.000000 0.500000 0.212789
O O20 0.787819 0.750000 0.769028
O O21 0.063831 0.750000 0.531697
O O22 0.000000 0.000000 0.502681
#
# Coordination Sequence:
#
# PCOD8181079 Si02
#       8
#     8   8   8   8   8   8   8   8
#     4  11  22  35  54  81 110 140 176 218 265 317
#     4   9  18  33  53  76 102 134 173 214 256 307
#     4  10  20  36  58  81 108 142 178 218 263 313
#     4   9  18  34  55  76 100 135 177 217 261 311
#     4   9  18  34  56  78 102 135 172 211 255 304
#     4  10  20  34  54  79 108 141 176 216 263 316
#     4  10  21  37  56  78 105 139 179 221 265 315
#     4  10  19  33  55  79 105 138 174 215 263 315
#
# _framework density 19.221574
#
# number of rings (size 3 to 8) (size 9 to 14) (size 15 to 20)
#    0.000    2.250    0.000    3.750    0.000    5.500 
#    0.000    3.750    0.000    4.500    0.000    0.000 
#    0.000    0.000    0.000    0.000    0.000    0.000 
#
# Total GULP energy -396869.113527 kJ/mol
# GULP energy per Si atom -12402.159798 kJ/mol
# Density = 1.917782 g / cm^3
# Si number density = 19.221574 Si / 1000 Ang^3
#
#
#
# Elastic Constant Matrix: (Units=GPa)
#
#
# Indices 1 2 3 4 5 6 
#
# 1 161.7931 36.0030 94.7180 0.0000 0.0000 0.0000
# 2 36.0030 52.8153 29.4352 0.0000 0.0000 0.0000
# 3 94.7180 29.4352 143.0229 0.0000 0.0000 0.0000
# 4 0.0000 0.0000 0.0000 17.4325 0.0000 0.0000
# 5 0.0000 0.0000 0.0000 0.0000 26.7126 0.0000
# 6 0.0000 0.0000 0.0000 0.0000 0.0000 31.5610
#
#
#
# Elastic Compliance Matrix: (Units=1/GPa)
#
#
# Indices 1 2 3 4 5 6 
#
# 1 0.010725 -0.003787 -0.006324 0.000000 0.000000 0.000000
# 2 -0.003787 0.022724 -0.002169 0.000000 0.000000 0.000000
# 3 -0.006324 -0.002169 0.011626 0.000000 0.000000 0.000000
# 4 0.000000 0.000000 0.000000 0.057364 0.000000 0.000000
# 5 0.000000 0.000000 0.000000 0.000000 0.037436 0.000000
# 6 0.000000 0.000000 0.000000 0.000000 0.000000 0.031685
#
#
# Mechanical properties :
#
#
# Convention : Reuss Voigt Hill
#
# Bulk Modulus (GPa) = 48.74052 75.32707 62.03379
# Shear Modulus (GPa) = 24.63569 28.30625 26.47097
#
# Velocity S-wave (km/s) = 3.58392 3.84165 3.71502
# Velocity P-wave (km/s) = 6.52214 7.67799 7.12355
#
# Compressibility (1/GPa) = 0.02051681
#
# Stress axis : x y z
#
# Youngs Moduli (GPa) = 93.23628 44.00609 86.01331
#
# Poissons Ratio (x) = 0.16665 0.54391
# Poissons Ratio (y) = 0.35308 0.18655
# Poissons Ratio (z) = 0.58959 0.09544
#
# Static dielectric constant tensor:
#      x y z
#    x 4.334750 0.000000 0.000000 
#    y 0.000000 3.355330 0.000000 
#    z 0.000000 0.000000 3.653690 
# 
# 
# High freq. dielectric constant tensor:
#      x y z
#    x 1.765090 0.000000 0.000000 
#    y 0.000000 1.727530 0.000000 
#    z 0.000000 0.000000 1.749730 
# 
# From -- ./inp_files/13147.got.cif
#   From: 2010.03.12/outbox.cif.g09.slc.cpg/sg39_7_cif.got.tgz:13147.got - 2010.04.14 02:53:20.
