data_PCOD8181548
_publ_section_title
;
Structure prediction by ZEFSAII (Michael W. Deem and Ramdas Pophale) SiO2 
 PCOD8181548
Probable space group: A B M 2
;
_chemical_formula_sum "Si O2"
_cell_formula_units_Z 64
_cell_length_a 19.777383
_cell_length_b 8.742676
_cell_length_c 19.768285
_cell_angle_alpha 90.000000
_cell_angle_beta 90.000000
_cell_angle_gamma 90.000000
_cell_volume 3418.079830
_symmetry_space_group_name_H-M "A B M 2"
_symmetry_group_IT_number 39
_symmetry_cell_setting 'orthorhombic'
loop_
_space_group_symop_operation_xyz
x,y,z
-x,-y,z
-x,1/2+y,z
x,1/2-y,z
x,1/2+y,1/2+z
-x,1/2-y,1/2+z
-x,y,1/2+z
x,-y,1/2+z
loop_
_atom_site_type_symbol
_atom_site_label
_atom_site_fract_x
_atom_site_fract_y
_atom_site_fract_z
Si Si1 0.656903 0.430465 0.968030
Si Si2 0.428275 0.930562 0.582385
Si Si3 0.301729 0.570195 0.333685
Si Si4 0.827570 0.427315 0.649005
Si Si5 0.928264 0.929961 0.753846
Si Si6 0.805961 0.573320 0.512484
Si Si7 0.322342 0.072186 0.196673
Si Si8 0.840955 0.428527 0.863236
O O1 0.649863 0.250000 0.960240
O O2 0.652293 0.504681 0.893934
O O3 0.596038 0.496568 0.012062
O O4 0.728267 0.476074 0.001735
O O5 0.433155 0.750000 0.573261
O O6 0.376969 0.977808 0.641390
O O7 0.500000 0.000000 0.602390
O O8 0.294525 0.750000 0.341731
O O9 0.337529 0.526879 0.263328
O O10 0.227687 0.496337 0.333152
O O11 0.844530 0.250000 0.659936
O O12 0.875889 0.527459 0.695419
O O13 0.839505 0.471000 0.570680
O O14 0.750890 0.468119 0.667160
O O15 0.934977 0.750000 0.759185
O O16 0.904388 0.994211 0.826454
O O17 0.000000 0.000000 0.734376
O O18 0.810425 0.750000 0.533652
O O19 0.847162 0.541953 0.443396
O O20 0.328347 0.250000 0.215078
O O21 0.839832 0.250000 0.846132
#
# Coordination Sequence:
#
# PCOD8181548 Si02
#       8
#     8   8   8   8   8   8   8   8
#     4  10  20  36  58  84 117 154 193 242 292 347
#     4  11  23  40  60  86 119 158 199 243 297 360
#     4  11  21  33  57  89 118 149 193 245 293 346
#     4  11  21  36  60  88 120 155 195 246 295 349
#     4  12  25  41  61  86 118 158 199 243 296 358
#     4   9  19  34  57  87 118 149 190 241 290 340
#     4  10  21  37  58  85 120 157 196 245 298 351
#     4  10  20  37  58  85 119 153 191 239 292 348
#
# _framework density 18.723963000000001
#
# number of rings (size 3 to 8) (size 9 to 14) (size 15 to 20)
#    0.000    1.500    2.500    4.500    0.000    4.000 
#    0.000    1.250    0.000    4.500    0.000    0.000 
#    0.000    0.000    0.000    0.000    0.000    0.000 
#
# Total GULP energy -396976.673254 kJ/mol
# GULP energy per Si atom -12405.521039 kJ/mol
# Density = 1.868135 g / cm^3
# Si number density = 18.723963 Si / 1000 Ang^3
#
#
#
# Elastic Constant Matrix: (Units=GPa)
#
#
# Indices 1 2 3 4 5 6 
#
# 1 99.3169 48.1971 46.7802 0.0000 0.0000 0.0000
# 2 48.1971 122.8180 58.5231 0.0000 0.0000 0.0000
# 3 46.7802 58.5231 125.7113 0.0000 0.0000 0.0000
# 4 0.0000 0.0000 0.0000 36.7375 0.0000 0.0000
# 5 0.0000 0.0000 0.0000 0.0000 23.7460 0.0000
# 6 0.0000 0.0000 0.0000 0.0000 0.0000 29.8498
#
#
#
# Elastic Compliance Matrix: (Units=1/GPa)
#
#
# Indices 1 2 3 4 5 6 
#
# 1 0.013404 -0.003705 -0.003263 0.000000 0.000000 0.000000
# 2 -0.003705 0.011487 -0.003969 0.000000 0.000000 0.000000
# 3 -0.003263 -0.003969 0.011017 0.000000 0.000000 0.000000
# 4 0.000000 0.000000 0.000000 0.027220 0.000000 0.000000
# 5 0.000000 0.000000 0.000000 0.000000 0.042112 0.000000
# 6 0.000000 0.000000 0.000000 0.000000 0.000000 0.033501
#
#
# Mechanical properties :
#
#
# Convention : Reuss Voigt Hill
#
# Bulk Modulus (GPa) = 71.25797 72.76079 72.00938
# Shear Modulus (GPa) = 30.24919 31.02302 30.63610
#
# Velocity S-wave (km/s) = 4.02373 4.07487 4.04938
# Velocity P-wave (km/s) = 7.72832 7.81560 7.77208
#
# Compressibility (1/GPa) = 0.01403352
#
# Stress axis : x y z
#
# Youngs Moduli (GPa) = 74.60573 87.05196 90.77152
#
# Poissons Ratio (x) = 0.32255 0.29618
# Poissons Ratio (y) = 0.27643 0.36027
# Poissons Ratio (z) = 0.24344 0.34551
#
# Static dielectric constant tensor:
#      x y z
#    x 3.286580 0.000000 0.000000 
#    y 0.000000 3.451210 0.000000 
#    z 0.000000 0.000000 3.572380 
# 
# 
# High freq. dielectric constant tensor:
#      x y z
#    x 1.699280 0.000000 0.000000 
#    y 0.000000 1.738470 0.000000 
#    z 0.000000 0.000000 1.740290 
# 
# From -- ./inp_files/13232.got.cif
#   From: 2010.03.12/outbox.cif.g09.slc.cpg/sg39_7_cif.got.tgz:13232.got - 2010.04.14 02:53:20.
