data_PCOD8181912
_publ_section_title
;
Structure prediction by ZEFSAII (Michael W. Deem and Ramdas Pophale) SiO2 
 PCOD8181912
Probable space group: A B M 2
;
_chemical_formula_sum "Si O2"
_cell_formula_units_Z 40
_cell_length_a 7.546373
_cell_length_b 10.003310
_cell_length_c 25.431210
_cell_angle_alpha 90.000000
_cell_angle_beta 90.000000
_cell_angle_gamma 90.000000
_cell_volume 1919.769198
_symmetry_space_group_name_H-M "A B M 2"
_symmetry_group_IT_number 39
_symmetry_cell_setting 'orthorhombic'
loop_
_space_group_symop_operation_xyz
x,y,z
-x,-y,z
-x,1/2+y,z
x,1/2-y,z
x,1/2+y,1/2+z
-x,1/2-y,1/2+z
-x,y,1/2+z
x,-y,1/2+z
loop_
_atom_site_type_symbol
_atom_site_label
_atom_site_fract_x
_atom_site_fract_y
_atom_site_fract_z
Si Si1 0.236927 0.750000 0.980680
Si Si2 0.852474 0.900704 0.810543
Si Si3 0.943983 0.250000 0.572593
Si Si4 0.701715 0.012522 0.419995
Si Si5 0.000000 0.500000 0.645401
Si Si6 0.354619 0.250000 0.995842
Si Si7 0.340095 0.596295 0.208102
O O1 0.212911 0.622540 0.942865
O O2 0.434363 0.750000 0.005714
O O3 0.093111 0.750000 0.026873
O O4 0.928389 0.750000 0.810684
O O5 0.808156 0.942969 0.869358
O O6 0.684859 0.909449 0.771324
O O7 0.000000 0.000000 0.787928
O O8 0.955619 0.378467 0.608103
O O9 0.744009 0.250000 0.551038
O O10 0.713821 0.120840 0.465451
O O11 0.500000 0.000000 0.401586
O O12 0.835610 0.540627 0.681219
O O13 0.500000 0.500000 0.191166
O O14 0.378111 0.750000 0.190535
#
# Coordination Sequence:
#
# PCOD8181912 Si02
#       7
#     4   8   4   8   4   4   8
#     4  10  24  40  63  97 132 177 231 274 331 404
#     4  11  24  40  65 101 138 176 220 269 334 410
#     4  12  26  42  70  94 134 178 228 290 348 402
#     4  10  21  39  61  94 136 178 217 270 330 400
#     4  12  26  48  68 104 138 174 232 298 352 406
#     4  10  22  42  63  91 134 177 225 278 329 404
#     4  11  26  48  75 104 138 181 228 282 350 415
#
# _framework density 20.835837999999999
#
# number of rings (size 3 to 8) (size 9 to 14) (size 15 to 20)
#    0.000    1.200    3.000    1.800    5.600    2.400 
#    0.000    0.000    0.000    0.000    0.000    0.000 
#    0.000    0.000    0.000    0.000    0.000    0.000 
#
# Total GULP energy -248020.924131 kJ/mol
# GULP energy per Si atom -12401.046207 kJ/mol
# Density = 2.078841 g / cm^3
# Si number density = 20.835838 Si / 1000 Ang^3
#
#
#
# Elastic Constant Matrix: (Units=GPa)
#
#
# Indices 1 2 3 4 5 6 
#
# 1 101.2452 54.8131 39.3765 0.0000 0.0000 0.0000
# 2 54.8131 185.5638 44.9484 0.0000 0.0000 0.0000
# 3 39.3765 44.9484 84.5200 0.0000 0.0000 0.0000
# 4 0.0000 0.0000 0.0000 -138.0351 0.0000 0.0000
# 5 0.0000 0.0000 0.0000 0.0000 -10.3230 0.0000
# 6 0.0000 0.0000 0.0000 0.0000 0.0000 46.7390
#
#
#
# Elastic Compliance Matrix: (Units=1/GPa)
#
#
# Indices 1 2 3 4 5 6 
#
# 1 0.013192 -0.002764 -0.004676 0.000000 0.000000 0.000000
# 2 -0.002764 0.006765 -0.002310 0.000000 0.000000 0.000000
# 3 -0.004676 -0.002310 0.015238 0.000000 0.000000 0.000000
# 4 0.000000 0.000000 0.000000 -0.007245 0.000000 0.000000
# 5 0.000000 0.000000 0.000000 0.000000 -0.096871 0.000000
# 6 0.000000 0.000000 0.000000 0.000000 0.000000 0.021395
#
#
# Mechanical properties :
#
#
# Convention : Reuss Voigt Hill
#
# Bulk Modulus (GPa) = 63.71282 72.17833 67.94557
# Shear Modulus (GPa) = -219.36577 -4.84442 -112.10510
#
# Velocity S-wave (km/s) = -10.27188 -1.52646 -7.34308
# Velocity P-wave (km/s) = 10.48986 5.62226 6.26208
#
# Compressibility (1/GPa) = 0.01569543
#
# Stress axis : x y z
#
# Youngs Moduli (GPa) = 75.80311 147.81994 65.62361
#
# Poissons Ratio (x) = 0.40859 0.30686
# Poissons Ratio (y) = 0.20953 0.15158
# Poissons Ratio (z) = 0.35445 0.34145
#
# Static dielectric constant tensor:
#      x y z
#    x 3.842990 0.000000 0.000000 
#    y 0.000000 4.418420 0.000000 
#    z 0.000000 0.000000 3.727980 
# 
# 
# High freq. dielectric constant tensor:
#      x y z
#    x 1.813520 0.000000 0.000000 
#    y 0.000000 1.838870 0.000000 
#    z 0.000000 0.000000 1.819390 
# 
# From -- ./inp_files/15480.got.cif
#   From: 2010.03.12/outbox.cif.g09.slc.cpg/sg39_8_cif.got.tgz:15480.got - 2010.04.14 02:53:20.
