data_PCOD8181623
_publ_section_title
;
Structure prediction by ZEFSAII (Michael W. Deem and Ramdas Pophale) SiO2 
 PCOD8181623
Probable space group: A B M 2
;
_chemical_formula_sum "Si O2"
_cell_formula_units_Z 64
_cell_length_a 21.749121
_cell_length_b 14.869644
_cell_length_c 9.722604
_cell_angle_alpha 90.000000
_cell_angle_beta 90.000000
_cell_angle_gamma 90.000000
_cell_volume 3144.306532
_symmetry_space_group_name_H-M "A B M 2"
_symmetry_group_IT_number 39
_symmetry_cell_setting 'orthorhombic'
loop_
_space_group_symop_operation_xyz
x,y,z
-x,-y,z
-x,1/2+y,z
x,1/2-y,z
x,1/2+y,1/2+z
-x,1/2-y,1/2+z
-x,y,1/2+z
x,-y,1/2+z
loop_
_atom_site_type_symbol
_atom_site_label
_atom_site_fract_x
_atom_site_fract_y
_atom_site_fract_z
Si Si1 0.831703 0.853518 0.282060
Si Si2 0.944891 0.848553 0.958691
Si Si3 0.190214 0.647641 0.465196
Si Si4 0.265492 0.019668 0.405732
Si Si5 0.968956 0.591501 0.246599
Si Si6 0.552373 0.646571 0.733300
Si Si7 0.563851 0.146530 0.549979
Si Si8 0.347753 0.503010 0.153121
O O1 0.836186 0.750000 0.329274
O O2 0.787293 0.906213 0.385397
O O3 0.898507 0.899487 0.291134
O O4 0.804430 0.861601 0.129521
O O5 0.931243 0.750000 0.023096
O O6 0.877679 0.885708 0.916901
O O7 0.989597 0.836461 0.828416
O O8 0.976832 0.903238 0.082421
O O9 0.204620 0.750000 0.418001
O O10 0.238658 0.581492 0.393888
O O11 0.320099 0.029887 0.296790
O O12 0.293094 0.038120 0.556001
O O13 0.000000 0.500000 0.300524
O O14 0.570402 0.750000 0.703922
O O15 0.490184 0.620421 0.654603
O O16 0.605914 0.584774 0.674757
O O17 0.540812 0.629668 0.894685
O O18 0.584565 0.250000 0.569991
O O19 0.621413 0.083351 0.581650
#
# Coordination Sequence:
#
# PCOD8181623 Si02
#       8
#     8   8   8   8   8   8   8   8
#     4  10  22  42  62  84 122 168 208 254 313 374
#     4  10  20  37  59  86 115 151 196 245 308 370
#     4   9  20  40  63  83 119 167 205 247 311 382
#     4  12  24  41  62  91 121 162 216 255 301 365
#     4  11  21  36  60  88 117 151 195 251 309 369
#     4  10  23  43  66  95 129 163 202 253 310 367
#     4  10  23  43  67  95 128 166 205 250 311 372
#     4  12  25  40  65  94 126 164 207 259 307 361
#
# _framework density 20.354248999999999
#
# number of rings (size 3 to 8) (size 9 to 14) (size 15 to 20)
#    0.000    1.500    2.500    3.375    1.750    4.000 
#    2.250    0.000    0.000    0.000    0.000    0.000 
#    0.000    0.000    0.000    0.000    0.000    0.000 
#
# Total GULP energy -396858.896447 kJ/mol
# GULP energy per Si atom -12401.840514 kJ/mol
# Density = 2.030792 g / cm^3
# Si number density = 20.354249 Si / 1000 Ang^3
#
#
#
# Elastic Constant Matrix: (Units=GPa)
#
#
# Indices 1 2 3 4 5 6 
#
# 1 95.1190 51.0633 39.7215 0.0000 0.0000 0.0000
# 2 51.0633 105.3916 30.2822 0.0000 0.0000 0.0000
# 3 39.7215 30.2822 75.2263 0.0000 0.0000 0.0000
# 4 0.0000 0.0000 0.0000 27.6753 0.0000 0.0000
# 5 0.0000 0.0000 0.0000 0.0000 41.3505 0.0000
# 6 0.0000 0.0000 0.0000 0.0000 0.0000 30.5793
#
#
#
# Elastic Compliance Matrix: (Units=1/GPa)
#
#
# Indices 1 2 3 4 5 6 
#
# 1 0.016408 -0.006175 -0.006178 0.000000 0.000000 0.000000
# 2 -0.006175 0.013053 -0.001994 0.000000 0.000000 0.000000
# 3 -0.006178 -0.001994 0.017358 0.000000 0.000000 0.000000
# 4 0.000000 0.000000 0.000000 0.036133 0.000000 0.000000
# 5 0.000000 0.000000 0.000000 0.000000 0.024184 0.000000
# 6 0.000000 0.000000 0.000000 0.000000 0.000000 0.032702
#
#
# Mechanical properties :
#
#
# Convention : Reuss Voigt Hill
#
# Bulk Modulus (GPa) = 55.17162 57.54119 56.35641
# Shear Modulus (GPa) = 28.64123 30.23235 29.43679
#
# Velocity S-wave (km/s) = 3.75525 3.85815 3.80705
# Velocity P-wave (km/s) = 6.77991 6.94106 6.86096
#
# Compressibility (1/GPa) = 0.01812526
#
# Stress axis : x y z
#
# Youngs Moduli (GPa) = 60.94620 76.61043 57.60960
#
# Poissons Ratio (x) = 0.47304 0.35593
# Poissons Ratio (y) = 0.37632 0.11488
# Poissons Ratio (z) = 0.37654 0.15277
#
# Static dielectric constant tensor:
#      x y z
#    x 3.657900 0.000000 0.000000 
#    y 0.000000 3.688980 0.000000 
#    z 0.000000 0.000000 3.556720 
# 
# 
# High freq. dielectric constant tensor:
#      x y z
#    x 1.798710 0.000000 0.000000 
#    y 0.000000 1.802260 0.000000 
#    z 0.000000 0.000000 1.789390 
# 
# From -- ./inp_files/4097.got.cif
#   From: 2010.03.12/outbox.cif.g09.slc.cpg/sg39_3_cif.got.tgz:4097.got - 2010.04.14 02:53:20.
