data_PCOD8181433
_publ_section_title
;
Structure prediction by ZEFSAII (Michael W. Deem and Ramdas Pophale) SiO2 
 PCOD8181433
Probable space group: A B M 2
;
_chemical_formula_sum "Si O2"
_cell_formula_units_Z 64
_cell_length_a 13.875916
_cell_length_b 8.961299
_cell_length_c 28.011230
_cell_angle_alpha 90.000000
_cell_angle_beta 90.000000
_cell_angle_gamma 90.000000
_cell_volume 3483.090909
_symmetry_space_group_name_H-M "A B M 2"
_symmetry_group_IT_number 39
_symmetry_cell_setting 'orthorhombic'
loop_
_space_group_symop_operation_xyz
x,y,z
-x,-y,z
-x,1/2+y,z
x,1/2-y,z
x,1/2+y,1/2+z
-x,1/2-y,1/2+z
-x,y,1/2+z
x,-y,1/2+z
loop_
_atom_site_type_symbol
_atom_site_label
_atom_site_fract_x
_atom_site_fract_y
_atom_site_fract_z
Si Si1 0.266578 0.923170 0.646810
Si Si2 0.399839 0.424335 0.328015
Si Si3 0.400097 0.576875 0.075820
Si Si4 0.900098 0.576928 0.824654
Si Si5 0.766239 0.076830 0.753844
Si Si6 0.100123 0.575670 0.572853
Si Si7 0.765458 0.924529 0.500780
Si Si8 0.734888 0.424483 0.399929
O O1 0.294628 0.750000 0.646275
O O2 0.250333 0.981802 0.700339
O O3 0.169666 0.954498 0.617464
O O4 0.356114 0.011759 0.624556
O O5 0.500000 0.500000 0.314485
O O6 0.414092 0.250000 0.338070
O O7 0.330485 0.454521 0.283334
O O8 0.357631 0.500355 0.375472
O O9 0.500000 0.500000 0.062813
O O10 0.418346 0.750000 0.083787
O O11 0.329145 0.544272 0.031967
O O12 0.918409 0.750000 0.816596
O O13 0.855922 0.511691 0.775979
O O14 0.829283 0.544595 0.868574
O O15 0.000000 0.500000 0.837610
O O16 0.794276 0.250000 0.754322
O O17 0.085820 0.750000 0.562811
O O18 0.142147 0.499650 0.525358
O O19 0.000000 0.500000 0.586480
O O20 0.785970 0.750000 0.494541
O O21 0.750420 0.999908 0.450319
O O22 0.714305 0.250000 0.406286
#
# Coordination Sequence:
#
# PCOD8181433 Si02
#       8
#     8   8   8   8   8   8   8   8
#     4   9  19  36  56  79 108 141 177 218 264 313
#     4  10  20  35  55  78 107 141 177 219 265 314
#     4  10  21  36  55  79 107 140 177 218 263 313
#     4  10  21  36  55  79 107 140 177 218 263 313
#     4   9  19  36  56  79 108 141 177 218 264 313
#     4  10  20  35  55  78 107 141 177 219 265 314
#     4  10  21  37  56  79 107 139 177 219 265 316
#     4  10  21  37  56  79 107 139 177 219 265 316
#
# _framework density 18.374483000000001
#
# number of rings (size 3 to 8) (size 9 to 14) (size 15 to 20)
#    0.000    2.250    0.000    2.250    0.000    6.500 
#    0.000    5.000    0.000    0.000    0.000    0.000 
#    0.000    0.000    0.000    0.000    0.000    0.000 
#
# Total GULP energy -396960.952455 kJ/mol
# GULP energy per Si atom -12405.029764 kJ/mol
# Density = 1.833266 g / cm^3
# Si number density = 18.374483 Si / 1000 Ang^3
#
#
#
# Elastic Constant Matrix: (Units=GPa)
#
#
# Indices 1 2 3 4 5 6 
#
# 1 100.8886 57.6501 29.4976 0.0000 0.0000 0.0000
# 2 57.6501 110.0163 53.4755 0.0000 0.0000 0.0000
# 3 29.4976 53.4755 127.7426 0.0000 0.0000 0.0000
# 4 0.0000 0.0000 0.0000 30.7359 0.0000 0.0000
# 5 0.0000 0.0000 0.0000 0.0000 14.3622 0.0000
# 6 0.0000 0.0000 0.0000 0.0000 0.0000 39.5027
#
#
#
# Elastic Compliance Matrix: (Units=1/GPa)
#
#
# Indices 1 2 3 4 5 6 
#
# 1 0.014153 -0.007316 -0.000205 0.000000 0.000000 0.000000
# 2 -0.007316 0.015194 -0.004671 0.000000 0.000000 0.000000
# 3 -0.000205 -0.004671 0.009831 0.000000 0.000000 0.000000
# 4 0.000000 0.000000 0.000000 0.032535 0.000000 0.000000
# 5 0.000000 0.000000 0.000000 0.000000 0.069627 0.000000
# 6 0.000000 0.000000 0.000000 0.000000 0.000000 0.025315
#
#
# Mechanical properties :
#
#
# Convention : Reuss Voigt Hill
#
# Bulk Modulus (GPa) = 67.60303 68.87709 68.24006
# Shear Modulus (GPa) = 25.51399 30.12179 27.81789
#
# Velocity S-wave (km/s) = 3.73038 4.05325 3.89516
# Velocity P-wave (km/s) = 7.44486 7.71179 7.57950
#
# Compressibility (1/GPa) = 0.01479224
#
# Stress axis : x y z
#
# Youngs Moduli (GPa) = 70.65776 65.81581 101.71902
#
# Poissons Ratio (x) = 0.48154 0.02088
# Poissons Ratio (y) = 0.51696 0.47513
# Poissons Ratio (z) = 0.01450 0.30742
#
# Static dielectric constant tensor:
#      x y z
#    x 3.389990 0.000000 0.000000 
#    y 0.000000 3.520300 0.000000 
#    z 0.000000 0.000000 3.428590 
# 
# 
# High freq. dielectric constant tensor:
#      x y z
#    x 1.714480 0.000000 0.000000 
#    y 0.000000 1.725820 0.000000 
#    z 0.000000 0.000000 1.713220 
# 
# From -- ./inp_files/17860.got.cif
#   From: 2010.03.12/outbox.cif.g09.slc.cpg/sg39_9_cif.got.tgz:17860.got - 2010.04.14 02:53:20.
