data_PCOD8181719
_publ_section_title
;
Structure prediction by ZEFSAII (Michael W. Deem and Ramdas Pophale) SiO2 
 PCOD8181719
Probable space group: A B M 2
;
_chemical_formula_sum "Si O2"
_cell_formula_units_Z 48
_cell_length_a 6.070258
_cell_length_b 25.656551
_cell_length_c 14.401908
_cell_angle_alpha 90.000000
_cell_angle_beta 90.000000
_cell_angle_gamma 90.000000
_cell_volume 2242.980285
_symmetry_space_group_name_H-M "A B M 2"
_symmetry_group_IT_number 39
_symmetry_cell_setting 'orthorhombic'
loop_
_space_group_symop_operation_xyz
x,y,z
-x,-y,z
-x,1/2+y,z
x,1/2-y,z
x,1/2+y,1/2+z
-x,1/2-y,1/2+z
-x,y,1/2+z
x,-y,1/2+z
loop_
_atom_site_type_symbol
_atom_site_label
_atom_site_fract_x
_atom_site_fract_y
_atom_site_fract_z
Si Si1 0.354804 0.950120 0.334170
Si Si2 0.932881 0.082604 0.184874
Si Si3 0.684733 0.140897 0.783338
Si Si4 0.555865 0.152146 0.107536
Si Si5 0.174317 0.596871 0.509921
Si Si6 0.143912 0.307624 0.462231
O O1 0.202248 0.961492 0.242796
O O2 0.500963 0.898757 0.321025
O O3 0.194105 0.940411 0.421458
O O4 0.500000 0.000000 0.355047
O O5 0.761638 0.126086 0.156173
O O6 0.102810 0.107756 0.256483
O O7 0.052170 0.063009 0.090755
O O8 0.598101 0.173051 0.692205
O O9 0.746857 0.181682 0.862480
O O10 0.416981 0.111091 0.046349
O O11 0.657713 0.194783 0.038044
O O12 0.040747 0.649726 0.486423
O O13 0.035375 0.250000 0.459850
#
# Coordination Sequence:
#
# PCOD8181719 Si02
#       6
#     8   8   8   8   8   8
#     4  11  22  39  67  96 124 172 219 258 320 394
#     4   9  20  40  64  86 130 168 201 269 326 371
#     4  10  20  40  64  90 133 163 206 271 317 373
#     4   9  20  39  64  86 126 167 203 267 320 368
#     4  10  20  41  63  89 132 164 211 274 322 380
#     4  11  22  37  64  94 125 171 216 259 324 389
#
# _framework density 21.400099999999998
#
# number of rings (size 3 to 8) (size 9 to 14) (size 15 to 20)
#    0.000    2.000    3.333    0.000    0.000    2.000 
#    0.000   15.833    3.667    0.000    0.000    0.000 
#    0.000    0.000    0.000    0.000    0.000    0.000 
#
# Total GULP energy -297394.636889 kJ/mol
# GULP energy per Si atom -12391.443204 kJ/mol
# Density = 2.135139 g / cm^3
# Si number density = 21.400100 Si / 1000 Ang^3
#
#
#
# Elastic Constant Matrix: (Units=GPa)
#
#
# Indices 1 2 3 4 5 6 
#
# 1 88.1530 20.8553 48.8635 0.0000 0.0000 0.0000
# 2 20.8553 75.6222 50.0897 0.0000 0.0000 0.0000
# 3 48.8635 50.0897 159.5017 0.0000 0.0000 0.0000
# 4 0.0000 0.0000 0.0000 5.5458 0.0000 0.0000
# 5 0.0000 0.0000 0.0000 0.0000 42.0123 0.0000
# 6 0.0000 0.0000 0.0000 0.0000 0.0000 25.9783
#
#
#
# Elastic Compliance Matrix: (Units=1/GPa)
#
#
# Indices 1 2 3 4 5 6 
#
# 1 0.013760 -0.001266 -0.003818 0.000000 0.000000 0.000000
# 2 -0.001266 0.016813 -0.004892 0.000000 0.000000 0.000000
# 3 -0.003818 -0.004892 0.008975 0.000000 0.000000 0.000000
# 4 0.000000 0.000000 0.000000 0.180317 0.000000 0.000000
# 5 0.000000 0.000000 0.000000 0.000000 0.023803 0.000000
# 6 0.000000 0.000000 0.000000 0.000000 0.000000 0.038494
#
#
# Mechanical properties :
#
#
# Convention : Reuss Voigt Hill
#
# Bulk Modulus (GPa) = 51.02937 62.54374 56.78656
# Shear Modulus (GPa) = 16.19983 28.27183 22.23583
#
# Velocity S-wave (km/s) = 2.75434 3.63865 3.22693
# Velocity P-wave (km/s) = 5.83201 6.85145 6.36218
#
# Compressibility (1/GPa) = 0.01959656
#
# Stress axis : x y z
#
# Youngs Moduli (GPa) = 72.67667 59.47718 111.41545
#
# Poissons Ratio (x) = 0.07529 0.42535
# Poissons Ratio (y) = 0.09200 0.54506
# Poissons Ratio (z) = 0.27746 0.29097
#
# Static dielectric constant tensor:
#      x y z
#    x 4.182580 0.000000 0.000000 
#    y 0.000000 3.193610 0.000000 
#    z 0.000000 0.000000 4.498450 
# 
# 
# High freq. dielectric constant tensor:
#      x y z
#    x 1.857430 0.000000 0.000000 
#    y 0.000000 1.779840 0.000000 
#    z 0.000000 0.000000 1.870680 
# 
# From -- ./inp_files/7542.got.cif
#   From: 2010.03.12/outbox.cif.g09.slc.cpg/sg39_4_cif.got.tgz:7542.got - 2010.04.14 02:53:20.
