data_PCOD8181828
_publ_section_title
;
Structure prediction by ZEFSAII (Michael W. Deem and Ramdas Pophale) SiO2 
 PCOD8181828
Probable space group: A B M 2
;
_chemical_formula_sum "Si O2"
_cell_formula_units_Z 56
_cell_length_a 19.387816
_cell_length_b 8.801676
_cell_length_c 15.803439
_cell_angle_alpha 90.000000
_cell_angle_beta 90.000000
_cell_angle_gamma 90.000000
_cell_volume 2696.782191
_symmetry_space_group_name_H-M "A B M 2"
_symmetry_group_IT_number 39
_symmetry_cell_setting 'orthorhombic'
loop_
_space_group_symop_operation_xyz
x,y,z
-x,-y,z
-x,1/2+y,z
x,1/2-y,z
x,1/2+y,1/2+z
-x,1/2-y,1/2+z
-x,y,1/2+z
x,-y,1/2+z
loop_
_atom_site_type_symbol
_atom_site_label
_atom_site_fract_x
_atom_site_fract_y
_atom_site_fract_z
Si Si1 0.199867 0.420170 0.373190
Si Si2 0.069561 0.929475 0.625544
Si Si3 0.345987 0.574188 0.811554
Si Si4 0.930712 0.428754 0.308519
Si Si5 0.664987 0.072923 0.622835
Si Si6 0.574699 0.429115 0.464361
Si Si7 0.797956 0.921161 0.564604
O O1 0.174731 0.250000 0.349304
O O2 0.264812 0.468661 0.315868
O O3 0.136310 0.535391 0.364204
O O4 0.227957 0.425828 0.468504
O O5 0.061918 0.750000 0.629591
O O6 0.081803 0.996457 0.718049
O O7 0.134150 0.975531 0.568814
O O8 0.000000 0.000000 0.585281
O O9 0.356753 0.750000 0.836299
O O10 0.370175 0.542648 0.714687
O O11 0.389490 0.473892 0.876333
O O12 0.940747 0.250000 0.299925
O O13 0.000000 0.500000 0.350208
O O14 0.681254 0.250000 0.610746
O O15 0.616348 0.012786 0.547109
O O16 0.737369 0.985449 0.622738
O O17 0.500000 0.500000 0.468889
O O18 0.567537 0.250000 0.466641
O O19 0.815468 0.750000 0.594205
#
# Coordination Sequence:
#
# PCOD8181828 Si02
#       7
#     8   8   8   8   8   8   8
#     4  10  21  37  59  87 122 161 202 255 313 369
#     4  11  22  38  58  81 115 157 203 259 316 373
#     4  10  21  41  66  93 126 166 207 255 311 368
#     4  11  22  37  58  83 115 156 205 259 313 375
#     4  10  22  40  65  95 128 167 210 255 311 371
#     4  11  24  42  65  95 130 166 206 254 306 369
#     4  11  22  37  60  90 121 159 207 257 310 369
#
# _framework density 20.765488999999999
#
# number of rings (size 3 to 8) (size 9 to 14) (size 15 to 20)
#    0.000    1.429    1.429    5.143    0.000    5.143 
#    0.000    1.429    0.000    0.000    0.000    0.000 
#    0.000    0.000    0.000    0.000    0.000    0.000 
#
# Total GULP energy -347269.268845 kJ/mol
# GULP energy per Si atom -12402.473887 kJ/mol
# Density = 2.071823 g / cm^3
# Si number density = 20.765489 Si / 1000 Ang^3
#
#
#
# Elastic Constant Matrix: (Units=GPa)
#
#
# Indices 1 2 3 4 5 6 
#
# 1 125.9966 52.2951 48.1746 0.0000 0.0000 0.0000
# 2 52.2951 123.8206 35.4043 0.0000 0.0000 0.0000
# 3 48.1746 35.4043 104.7323 0.0000 0.0000 0.0000
# 4 0.0000 0.0000 0.0000 28.4819 0.0000 0.0000
# 5 0.0000 0.0000 0.0000 0.0000 23.2726 0.0000
# 6 0.0000 0.0000 0.0000 0.0000 0.0000 36.6890
#
#
#
# Elastic Compliance Matrix: (Units=1/GPa)
#
#
# Indices 1 2 3 4 5 6 
#
# 1 0.010841 -0.003490 -0.003807 0.000000 0.000000 0.000000
# 2 -0.003490 0.010064 -0.001797 0.000000 0.000000 0.000000
# 3 -0.003807 -0.001797 0.011907 0.000000 0.000000 0.000000
# 4 0.000000 0.000000 0.000000 0.035110 0.000000 0.000000
# 5 0.000000 0.000000 0.000000 0.000000 0.042969 0.000000
# 6 0.000000 0.000000 0.000000 0.000000 0.000000 0.027256
#
#
# Mechanical properties :
#
#
# Convention : Reuss Voigt Hill
#
# Bulk Modulus (GPa) = 68.37964 69.58861 68.98413
# Shear Modulus (GPa) = 31.01579 32.26706 31.64143
#
# Velocity S-wave (km/s) = 3.86893 3.94620 3.90776
# Velocity P-wave (km/s) = 7.27730 7.37209 7.32485
#
# Compressibility (1/GPa) = 0.01462424
#
# Stress axis : x y z
#
# Youngs Moduli (GPa) = 92.24420 99.36440 83.98751
#
# Poissons Ratio (x) = 0.34679 0.31972
# Poissons Ratio (y) = 0.32194 0.15090
# Poissons Ratio (z) = 0.35115 0.17853
#
# Static dielectric constant tensor:
#      x y z
#    x 3.738980 0.000000 0.000000 
#    y 0.000000 3.767850 0.000000 
#    z 0.000000 0.000000 3.783420 
# 
# 
# High freq. dielectric constant tensor:
#      x y z
#    x 1.811120 0.000000 0.000000 
#    y 0.000000 1.813910 0.000000 
#    z 0.000000 0.000000 1.813620 
# 
# From -- ./inp_files/10403.got.cif
#   From: 2010.03.12/outbox.cif.g09.slc.cpg/sg39_6_cif.got.tgz:10403.got - 2010.04.14 02:53:20.
