data_PCOD8181631
_publ_section_title
;
Structure prediction by ZEFSAII (Michael W. Deem and Ramdas Pophale) SiO2 
 PCOD8181631
Probable space group: A B M 2
;
_chemical_formula_sum "Si O2"
_cell_formula_units_Z 40
_cell_length_a 14.754560
_cell_length_b 9.061779
_cell_length_c 14.552508
_cell_angle_alpha 90.000000
_cell_angle_beta 90.000000
_cell_angle_gamma 90.000000
_cell_volume 1945.707603
_symmetry_space_group_name_H-M "A B M 2"
_symmetry_group_IT_number 39
_symmetry_cell_setting 'orthorhombic'
loop_
_space_group_symop_operation_xyz
x,y,z
-x,-y,z
-x,1/2+y,z
x,1/2-y,z
x,1/2+y,1/2+z
-x,1/2-y,1/2+z
-x,y,1/2+z
x,-y,1/2+z
loop_
_atom_site_type_symbol
_atom_site_label
_atom_site_fract_x
_atom_site_fract_y
_atom_site_fract_z
Si Si1 0.595284 0.422628 0.598530
Si Si2 0.086723 0.414787 0.449929
Si Si3 0.270661 0.075968 0.733028
Si Si4 0.088547 0.582460 0.730975
Si Si5 0.262193 0.581746 0.444282
O O1 0.500000 0.500000 0.584288
O O2 0.582969 0.250000 0.620435
O O3 0.645791 0.499590 0.682801
O O4 0.649352 0.448659 0.504301
O O5 0.083098 0.250000 0.488403
O O6 0.084664 0.419031 0.340391
O O7 0.179348 0.487758 0.485490
O O8 0.000000 0.500000 0.490513
O O9 0.269252 0.250000 0.713474
O O10 0.285205 0.038545 0.840017
O O11 0.177001 0.005292 0.696500
O O12 0.092054 0.750000 0.693712
O O13 0.000000 0.500000 0.690966
O O14 0.229886 0.750000 0.449290
#
# Coordination Sequence:
#
# PCOD8181631 Si02
#       5
#     8   8   8   8   8
#     4  11  24  42  61  83 111 144 184 234 286 338
#     4   9  16  27  49  80 114 150 187 225 270 324
#     4  10  20  37  60  86 115 149 187 230 279 333
#     4   9  16  28  49  80 115 152 189 227 272 326
#     4   9  20  38  59  83 114 149 186 228 277 331
#
# _framework density 20.558074000000001
#
# number of rings (size 3 to 8) (size 9 to 14) (size 15 to 20)
#    0.000    2.400    0.000    2.400    0.000    8.000 
#    0.000    3.000    0.000    4.800    0.000    0.000 
#    0.000    0.000    0.000    0.000    0.000    0.000 
#
# Total GULP energy -248060.678905 kJ/mol
# GULP energy per Si atom -12403.033945 kJ/mol
# Density = 2.051128 g / cm^3
# Si number density = 20.558074 Si / 1000 Ang^3
#
#
#
# Elastic Constant Matrix: (Units=GPa)
#
#
# Indices 1 2 3 4 5 6 
#
# 1 182.0113 104.5951 45.2074 0.0000 0.0000 0.0000
# 2 104.5951 174.4946 47.9718 0.0000 0.0000 0.0000
# 3 45.2074 47.9718 56.9691 0.0000 0.0000 0.0000
# 4 0.0000 0.0000 0.0000 20.6095 0.0000 0.0000
# 5 0.0000 0.0000 0.0000 0.0000 556.2257 0.0000
# 6 0.0000 0.0000 0.0000 0.0000 0.0000 48.0529
#
#
#
# Elastic Compliance Matrix: (Units=1/GPa)
#
#
# Indices 1 2 3 4 5 6 
#
# 1 0.008839 -0.004385 -0.003322 0.000000 0.000000 0.000000
# 2 -0.004385 0.009633 -0.004632 0.000000 0.000000 0.000000
# 3 -0.003322 -0.004632 0.024089 0.000000 0.000000 0.000000
# 4 0.000000 0.000000 0.000000 0.048521 0.000000 0.000000
# 5 0.000000 0.000000 0.000000 0.000000 0.001798 0.000000
# 6 0.000000 0.000000 0.000000 0.000000 0.000000 0.020810
#
#
# Mechanical properties :
#
#
# Convention : Reuss Voigt Hill
#
# Bulk Modulus (GPa) = 55.91454 89.89151 72.90302
# Shear Modulus (GPa) = 34.64310 139.35767 87.00038
#
# Velocity S-wave (km/s) = 4.10949 8.24224 6.51239
# Velocity P-wave (km/s) = 7.05511 11.59310 9.59621
#
# Compressibility (1/GPa) = 0.01788444
#
# Stress axis : x y z
#
# Youngs Moduli (GPa) = 113.13264 103.81327 41.51219
#
# Poissons Ratio (x) = 0.45524 0.13789
# Poissons Ratio (y) = 0.49611 0.19227
# Poissons Ratio (z) = 0.37579 0.48082
#
# Static dielectric constant tensor:
#      x y z
#    x 3.640950 0.000000 0.000000 
#    y 0.000000 3.905170 0.000000 
#    z 0.000000 0.000000 3.498660 
# 
# 
# High freq. dielectric constant tensor:
#      x y z
#    x 1.803370 0.000000 0.000000 
#    y 0.000000 1.816430 0.000000 
#    z 0.000000 0.000000 1.791610 
# 
# From -- ./inp_files/9628.got.cif
#   From: 2010.03.12/outbox.cif.g09.slc.cpg/sg39_5_cif.got.tgz:9628.got - 2010.04.14 02:53:20.
