data_PCOD8181883
_publ_section_title
;
Structure prediction by ZEFSAII (Michael W. Deem and Ramdas Pophale) SiO2 
 PCOD8181883
Probable space group: A B M 2
;
_chemical_formula_sum "Si O2"
_cell_formula_units_Z 64
_cell_length_a 12.170839
_cell_length_b 17.731838
_cell_length_c 14.171582
_cell_angle_alpha 90.000000
_cell_angle_beta 90.000000
_cell_angle_gamma 90.000000
_cell_volume 3058.388179
_symmetry_space_group_name_H-M "A B M 2"
_symmetry_group_IT_number 39
_symmetry_cell_setting 'orthorhombic'
loop_
_space_group_symop_operation_xyz
x,y,z
-x,-y,z
-x,1/2+y,z
x,1/2-y,z
x,1/2+y,1/2+z
-x,1/2-y,1/2+z
-x,y,1/2+z
x,-y,1/2+z
loop_
_atom_site_type_symbol
_atom_site_label
_atom_site_fract_x
_atom_site_fract_y
_atom_site_fract_z
Si Si1 0.896940 0.040371 0.768380
Si Si2 0.787730 0.438603 0.397618
Si Si3 0.453998 0.583352 0.459305
Si Si4 0.176700 0.834152 0.988428
Si Si5 0.634038 0.662488 0.342118
Si Si6 0.408630 0.943306 0.665652
Si Si7 0.013563 0.665501 0.354335
Si Si8 0.194022 0.016433 0.588564
O O1 0.927811 0.128363 0.778429
O O2 0.788438 0.008080 0.821876
O O3 0.896789 0.013600 0.660730
O O4 0.000000 0.000000 0.821223
O O5 0.664847 0.408257 0.410330
O O6 0.834207 0.472834 0.493626
O O7 0.866090 0.371257 0.362335
O O8 0.500000 0.500000 0.441747
O O9 0.531055 0.643839 0.408769
O O10 0.451612 0.601009 0.571923
O O11 0.205895 0.750000 0.025561
O O12 0.255638 0.856052 0.900468
O O13 0.050236 0.837065 0.954281
O O14 0.191029 0.893221 0.073684
O O15 0.628705 0.750000 0.313699
O O16 0.633034 0.615163 0.244485
O O17 0.500000 0.000000 0.708570
O O18 0.312621 0.996915 0.628860
O O19 0.032621 0.750000 0.318623
#
# Coordination Sequence:
#
# PCOD8181883 Si02
#       8
#     8   8   8   8   8   8   8   8
#     4  10  22  36  60  93 123 165 212 258 306 379
#     4  10  22  40  62  91 123 166 216 262 314 382
#     4  10  22  40  64  91 122 164 216 267 314 376
#     4  10  21  38  63  93 123 163 211 263 323 378
#     4  11  23  39  63  92 128 166 206 267 327 381
#     4  10  22  37  61  93 119 161 216 261 310 384
#     4  10  21  40  64  91 129 165 203 262 324 379
#     4  11  22  37  65  90 122 165 213 261 313 377
#
# _framework density 20.926055000000002
#
# number of rings (size 3 to 8) (size 9 to 14) (size 15 to 20)
#    0.000    1.750    1.250    3.375    5.250    1.000 
#    0.000    5.625    0.000    0.000    0.000    0.000 
#    0.000    0.000    0.000    0.000    0.000    0.000 
#
# Total GULP energy -396628.975790 kJ/mol
# GULP energy per Si atom -12394.655493 kJ/mol
# Density = 2.087843 g / cm^3
# Si number density = 20.926055 Si / 1000 Ang^3
#
#
#
# Elastic Constant Matrix: (Units=GPa)
#
#
# Indices 1 2 3 4 5 6 
#
# 1 77.2830 32.2526 16.4655 0.0000 0.0000 0.0000
# 2 32.2526 143.7626 48.9535 0.0000 0.0000 0.0000
# 3 16.4655 48.9535 92.7932 0.0000 0.0000 0.0000
# 4 0.0000 0.0000 0.0000 34.6625 0.0000 0.0000
# 5 0.0000 0.0000 0.0000 0.0000 27.7180 0.0000
# 6 0.0000 0.0000 0.0000 0.0000 0.0000 25.8718
#
#
#
# Elastic Compliance Matrix: (Units=1/GPa)
#
#
# Indices 1 2 3 4 5 6 
#
# 1 0.014357 -0.002869 -0.001034 0.000000 0.000000 0.000000
# 2 -0.002869 0.009052 -0.004267 0.000000 0.000000 0.000000
# 3 -0.001034 -0.004267 0.013211 0.000000 0.000000 0.000000
# 4 0.000000 0.000000 0.000000 0.028850 0.000000 0.000000
# 5 0.000000 0.000000 0.000000 0.000000 0.036078 0.000000
# 6 0.000000 0.000000 0.000000 0.000000 0.000000 0.038652
#
#
# Mechanical properties :
#
#
# Convention : Reuss Voigt Hill
#
# Bulk Modulus (GPa) = 49.30622 56.57578 52.94100
# Shear Modulus (GPa) = 30.61865 32.06161 31.34013
#
# Velocity S-wave (km/s) = 3.82931 3.91850 3.87416
# Velocity P-wave (km/s) = 6.56999 6.89693 6.73544
#
# Compressibility (1/GPa) = 0.02028142
#
# Stress axis : x y z
#
# Youngs Moduli (GPa) = 69.65235 110.46850 75.69460
#
# Poissons Ratio (x) = 0.31691 0.07827
# Poissons Ratio (y) = 0.19982 0.32296
# Poissons Ratio (z) = 0.07203 0.47132
#
# Static dielectric constant tensor:
#      x y z
#    x 3.926890 0.000000 0.000000 
#    y 0.000000 3.732230 0.000000 
#    z 0.000000 0.000000 3.949720 
# 
# 
# High freq. dielectric constant tensor:
#      x y z
#    x 1.833180 0.000000 0.000000 
#    y 0.000000 1.808810 0.000000 
#    z 0.000000 0.000000 1.808500 
# 
# From -- ./inp_files/9439.got.cif
#   From: 2010.03.12/outbox.cif.g09.slc.cpg/sg39_5_cif.got.tgz:9439.got - 2010.04.14 02:53:20.
