data_PCOD8181366
_publ_section_title
;
Structure prediction by ZEFSAII (Michael W. Deem and Ramdas Pophale) SiO2 
 PCOD8181366
Probable space group: A B M 2
;
_chemical_formula_sum "Si O2"
_cell_formula_units_Z 56
_cell_length_a 15.340210
_cell_length_b 8.866097
_cell_length_c 19.888370
_cell_angle_alpha 90.000000
_cell_angle_beta 90.000000
_cell_angle_gamma 90.000000
_cell_volume 2704.973248
_symmetry_space_group_name_H-M "A B M 2"
_symmetry_group_IT_number 39
_symmetry_cell_setting 'orthorhombic'
loop_
_space_group_symop_operation_xyz
x,y,z
-x,-y,z
-x,1/2+y,z
x,1/2-y,z
x,1/2+y,1/2+z
-x,1/2-y,1/2+z
-x,y,1/2+z
x,-y,1/2+z
loop_
_atom_site_type_symbol
_atom_site_label
_atom_site_fract_x
_atom_site_fract_y
_atom_site_fract_z
Si Si1 0.914132 0.574312 0.962560
Si Si2 0.683005 0.076081 0.778913
Si Si3 0.085845 0.578537 0.681558
Si Si4 0.131086 0.580880 0.830747
Si Si5 0.725520 0.428913 0.511370
Si Si6 0.590726 0.925980 0.411592
Si Si7 0.267506 0.928267 0.148825
O O1 0.926146 0.750000 0.968801
O O2 0.911297 0.531761 0.883904
O O3 0.000000 0.500000 0.996251
O O4 0.826080 0.521273 0.999830
O O5 0.691289 0.250000 0.756270
O O6 0.770775 0.026000 0.816747
O O7 0.604541 0.049718 0.831364
O O8 0.671124 0.977322 0.711499
O O9 0.093157 0.750000 0.654306
O O10 0.076991 0.576460 0.761959
O O11 0.169845 0.487684 0.657953
O O12 0.000000 0.500000 0.650853
O O13 0.131144 0.750000 0.861210
O O14 0.714993 0.250000 0.512662
O O15 0.668204 0.494668 0.451415
O O16 0.692542 0.499605 0.581346
O O17 0.589765 0.750000 0.429791
O O18 0.500000 0.000000 0.432993
O O19 0.267656 0.750000 0.142706
#
# Coordination Sequence:
#
# PCOD8181366 Si02
#       7
#     8   8   8   8   8   8   8
#     4  11  23  35  54  83 118 162 209 258 309 363
#     4   9  19  38  63  90 122 159 198 250 307 366
#     4  10  20  34  52  79 115 158 207 259 313 367
#     4   9  17  32  54  80 114 154 198 251 306 360
#     4  11  24  43  63  89 127 169 213 263 312 370
#     4  11  23  42  70 101 130 162 202 252 313 376
#     4  11  23  38  61  88 119 163 208 256 314 374
#
# _framework density 20.702608000000001
#
# number of rings (size 3 to 8) (size 9 to 14) (size 15 to 20)
#    0.000    1.714    1.429    4.286    0.000    7.429 
#    0.000    2.143    0.000    1.714    0.000    0.000 
#    0.000    0.000    0.000    0.000    0.000    0.000 
#
# Total GULP energy -347247.054968 kJ/mol
# GULP energy per Si atom -12401.680535 kJ/mol
# Density = 2.065549 g / cm^3
# Si number density = 20.702608 Si / 1000 Ang^3
#
#
#
# Elastic Constant Matrix: (Units=GPa)
#
#
# Indices 1 2 3 4 5 6 
#
# 1 82.3628 51.2769 25.1356 0.0000 0.0000 0.0000
# 2 51.2769 127.9780 52.1474 0.0000 0.0000 0.0000
# 3 25.1356 52.1474 101.7180 0.0000 0.0000 0.0000
# 4 0.0000 0.0000 0.0000 28.3523 0.0000 0.0000
# 5 0.0000 0.0000 0.0000 0.0000 1.8205 0.0000
# 6 0.0000 0.0000 0.0000 0.0000 0.0000 31.9196
#
#
#
# Elastic Compliance Matrix: (Units=1/GPa)
#
#
# Indices 1 2 3 4 5 6 
#
# 1 0.016235 -0.006156 -0.000856 0.000000 0.000000 0.000000
# 2 -0.006156 0.012212 -0.004739 0.000000 0.000000 0.000000
# 3 -0.000856 -0.004739 0.012472 0.000000 0.000000 0.000000
# 4 0.000000 0.000000 0.000000 0.035270 0.000000 0.000000
# 5 0.000000 0.000000 0.000000 0.000000 0.549313 0.000000
# 6 0.000000 0.000000 0.000000 0.000000 0.000000 0.031329
#
#
# Mechanical properties :
#
#
# Convention : Reuss Voigt Hill
#
# Bulk Modulus (GPa) = 57.41664 63.24208 60.32936
# Shear Modulus (GPa) = 7.28715 24.65173 15.96944
#
# Velocity S-wave (km/s) = 1.87818 3.45448 2.78037
# Velocity P-wave (km/s) = 5.70067 6.82095 6.28582
#
# Compressibility (1/GPa) = 0.01741655
#
# Stress axis : x y z
#
# Youngs Moduli (GPa) = 61.59412 81.88961 80.17837
#
# Poissons Ratio (x) = 0.50414 0.06862
# Poissons Ratio (y) = 0.37919 0.37998
# Poissons Ratio (z) = 0.05271 0.38809
#
# Static dielectric constant tensor:
#      x y z
#    x 3.632690 0.000000 0.000000 
#    y 0.000000 3.735730 0.000000 
#    z 0.000000 0.000000 3.781800 
# 
# 
# High freq. dielectric constant tensor:
#      x y z
#    x 1.789960 0.000000 0.000000 
#    y 0.000000 1.813950 0.000000 
#    z 0.000000 0.000000 1.809960 
# 
# From -- ./inp_files/14814.got.cif
#   From: 2010.03.12/outbox.cif.g09.slc.cpg/sg39_8_cif.got.tgz:14814.got - 2010.04.14 02:53:20.
