data_PCOD8181210
_publ_section_title
;
Structure prediction by ZEFSAII (Michael W. Deem and Ramdas Pophale) SiO2 
 PCOD8181210
Probable space group: A B M 2
;
_chemical_formula_sum "Si O2"
_cell_formula_units_Z 64
_cell_length_a 17.054764
_cell_length_b 21.168737
_cell_length_c 9.017652
_cell_angle_alpha 90.000000
_cell_angle_beta 90.000000
_cell_angle_gamma 90.000000
_cell_volume 3255.623186
_symmetry_space_group_name_H-M "A B M 2"
_symmetry_group_IT_number 39
_symmetry_cell_setting 'orthorhombic'
loop_
_space_group_symop_operation_xyz
x,y,z
-x,-y,z
-x,1/2+y,z
x,1/2-y,z
x,1/2+y,1/2+z
-x,1/2-y,1/2+z
-x,y,1/2+z
x,-y,1/2+z
loop_
_atom_site_type_symbol
_atom_site_label
_atom_site_fract_x
_atom_site_fract_y
_atom_site_fract_z
Si Si1 0.738619 0.057962 0.191730
Si Si2 0.600253 0.321057 0.793012
Si Si3 0.831404 0.979798 0.956875
Si Si4 0.101710 0.891507 0.895543
Si Si5 0.023717 0.430086 0.120457
Si Si6 0.747091 0.174942 0.981379
Si Si7 0.433936 0.550839 0.250968
Si Si8 0.483953 0.125913 0.020502
O O1 0.782320 0.065187 0.348421
O O2 0.653878 0.027372 0.226714
O O3 0.737584 0.128813 0.123496
O O4 0.780144 0.005376 0.092630
O O5 0.617291 0.250000 0.757914
O O6 0.679988 0.348355 0.865705
O O7 0.584061 0.349317 0.629789
O O8 0.525796 0.326374 0.904872
O O9 0.858121 0.041002 0.864374
O O10 0.904726 0.937499 0.006501
O O11 0.046704 0.881859 0.752320
O O12 0.166840 0.836519 0.910171
O O13 0.050116 0.895831 0.044409
O O14 0.000000 0.500000 0.180557
O O15 0.738104 0.250000 0.022830
O O16 0.500000 0.500000 0.214338
O O17 0.445738 0.604422 0.127270
O O18 0.443987 0.571956 0.421094
#
# Coordination Sequence:
#
# PCOD8181210 Si02
#       8
#     8   8   8   8   8   8   8   8
#     4  11  23  39  60  93 123 169 206 256 315 373
#     4  10  20  40  66  86 112 153 213 266 295 344
#     4  10  21  35  60  92 124 155 205 257 314 374
#     4  10  21  35  61  89 122 158 200 250 317 372
#     4  10  19  35  59  93 125 155 196 257 312 380
#     4  10  23  43  64  87 124 170 213 259 311 367
#     4  11  24  37  54  85 128 165 195 244 307 379
#     4  10  22  38  57  87 117 158 202 245 308 361
#
# _framework density 19.658294999999999
#
# number of rings (size 3 to 8) (size 9 to 14) (size 15 to 20)
#    0.000    1.750    2.500    1.875    7.000    2.000 
#    0.000    1.250    0.000    0.750    0.000    0.000 
#    0.000    0.000    0.000    0.000    0.000    0.000 
#
# Total GULP energy -396553.958586 kJ/mol
# GULP energy per Si atom -12392.311206 kJ/mol
# Density = 1.961355 g / cm^3
# Si number density = 19.658295 Si / 1000 Ang^3
#
#
#
# Elastic Constant Matrix: (Units=GPa)
#
#
# Indices 1 2 3 4 5 6 
#
# 1 125.9686 26.7746 36.9362 0.0000 0.0000 0.0000
# 2 26.7746 47.3912 22.4299 0.0000 0.0000 0.0000
# 3 36.9362 22.4299 92.1732 0.0000 0.0000 0.0000
# 4 0.0000 0.0000 0.0000 13.1085 0.0000 0.0000
# 5 0.0000 0.0000 0.0000 0.0000 36.6321 0.0000
# 6 0.0000 0.0000 0.0000 0.0000 0.0000 28.3800
#
#
#
# Elastic Compliance Matrix: (Units=1/GPa)
#
#
# Indices 1 2 3 4 5 6 
#
# 1 0.009650 -0.004093 -0.002871 0.000000 0.000000 0.000000
# 2 -0.004093 0.025584 -0.004585 0.000000 0.000000 0.000000
# 3 -0.002871 -0.004585 0.013115 0.000000 0.000000 0.000000
# 4 0.000000 0.000000 0.000000 0.076286 0.000000 0.000000
# 5 0.000000 0.000000 0.000000 0.000000 0.027298 0.000000
# 6 0.000000 0.000000 0.000000 0.000000 0.000000 0.035236
#
#
# Mechanical properties :
#
#
# Convention : Reuss Voigt Hill
#
# Bulk Modulus (GPa) = 39.60382 48.64607 44.12495
# Shear Modulus (GPa) = 22.86378 27.58362 25.22370
#
# Velocity S-wave (km/s) = 3.41407 3.74993 3.58593
# Velocity P-wave (km/s) = 5.97754 6.59916 6.29602
#
# Compressibility (1/GPa) = 0.02525009
#
# Stress axis : x y z
#
# Youngs Moduli (GPa) = 103.62305 39.08729 76.24579
#
# Poissons Ratio (x) = 0.16000 0.21891
# Poissons Ratio (y) = 0.42416 0.34962
# Poissons Ratio (z) = 0.29751 0.17923
#
# Static dielectric constant tensor:
#      x y z
#    x 3.879750 0.000000 0.000000 
#    y 0.000000 3.264710 0.000000 
#    z 0.000000 0.000000 3.694210 
# 
# 
# High freq. dielectric constant tensor:
#      x y z
#    x 1.781730 0.000000 0.000000 
#    y 0.000000 1.718870 0.000000 
#    z 0.000000 0.000000 1.776550 
# 
# From -- ./inp_files/3856.got.cif
#   From: 2010.03.12/outbox.cif.g09.slc.cpg/sg39_2_cif.got.tgz:3856.got - 2010.04.14 02:53:20.
