data_PCOD8181807
_publ_section_title
;
Structure prediction by ZEFSAII (Michael W. Deem and Ramdas Pophale) SiO2 
 PCOD8181807
Probable space group: A B M 2
;
_chemical_formula_sum "Si O2"
_cell_formula_units_Z 64
_cell_length_a 26.527204
_cell_length_b 25.250933
_cell_length_c 5.043499
_cell_angle_alpha 90.000000
_cell_angle_beta 90.000000
_cell_angle_gamma 90.000000
_cell_volume 3378.320479
_symmetry_space_group_name_H-M "A B M 2"
_symmetry_group_IT_number 39
_symmetry_cell_setting 'orthorhombic'
loop_
_space_group_symop_operation_xyz
x,y,z
-x,-y,z
-x,1/2+y,z
x,1/2-y,z
x,1/2+y,1/2+z
-x,1/2-y,1/2+z
-x,y,1/2+z
x,-y,1/2+z
loop_
_atom_site_type_symbol
_atom_site_label
_atom_site_fract_x
_atom_site_fract_y
_atom_site_fract_z
Si Si1 0.831726 0.532226 0.580230
Si Si2 0.470120 0.313052 0.801308
Si Si3 0.859399 0.852350 0.733937
Si Si4 0.695900 0.647597 0.402655
Si Si5 0.642314 0.310874 0.396605
Si Si6 0.195736 0.688531 0.745700
Si Si7 0.287010 0.532436 0.072870
Si Si8 0.031556 0.687957 0.270616
O O1 0.848714 0.512121 0.292021
O O2 0.858361 0.586863 0.648667
O O3 0.772400 0.541754 0.577868
O O4 0.469589 0.250000 0.801144
O O5 0.494020 0.335288 0.532235
O O6 0.413132 0.333691 0.832165
O O7 0.845016 0.816222 0.480924
O O8 0.915935 0.840727 0.824034
O O9 0.822322 0.840715 0.979437
O O10 0.676863 0.686031 0.635358
O O11 0.753922 0.659644 0.342274
O O12 0.687179 0.588002 0.504453
O O13 0.664304 0.654852 0.135636
O O14 0.640161 0.250000 0.489673
O O15 0.205775 0.750000 0.681001
O O16 0.304085 0.511745 0.359907
O O17 0.042303 0.750000 0.288557
O O18 0.991245 0.670470 0.490645
#
# Coordination Sequence:
#
# PCOD8181807 Si02
#       8
#     8   8   8   8   8   8   8   8
#     4  10  21  37  59  82 107 139 187 236 278 321
#     4   9  17  31  51  74 103 144 194 237 268 308
#     4  12  23  39  60  84 111 146 191 229 274 330
#     4  12  23  37  53  80 117 153 186 221 279 339
#     4  11  22  35  53  79 118 160 187 220 275 339
#     4  12  24  36  54  83 118 154 184 219 261 333
#     4  10  21  37  57  77 105 143 190 237 275 314
#     4  10  21  38  59  82 109 142 180 227 279 328
#
# _framework density 18.944323000000001
#
# number of rings (size 3 to 8) (size 9 to 14) (size 15 to 20)
#    0.000    1.250    1.250    6.000    3.500    3.000 
#    0.000    0.000    0.000    2.250    0.000    0.000 
#    0.000   35.000    0.000    0.000    0.000    0.000 
#
# Total GULP energy -396934.519009 kJ/mol
# GULP energy per Si atom -12404.203719 kJ/mol
# Density = 1.890120 g / cm^3
# Si number density = 18.944323 Si / 1000 Ang^3
#
#
#
# Elastic Constant Matrix: (Units=GPa)
#
#
# Indices 1 2 3 4 5 6 
#
# 1 73.9613 29.2601 25.4382 0.0000 0.0000 0.0000
# 2 29.2601 69.7741 16.2457 0.0000 0.0000 0.0000
# 3 25.4382 16.2457 104.2130 0.0000 0.0000 0.0000
# 4 0.0000 0.0000 0.0000 27.6022 0.0000 0.0000
# 5 0.0000 0.0000 0.0000 0.0000 29.5331 0.0000
# 6 0.0000 0.0000 0.0000 0.0000 0.0000 8.7395
#
#
#
# Elastic Compliance Matrix: (Units=1/GPa)
#
#
# Indices 1 2 3 4 5 6 
#
# 1 0.017171 -0.006459 -0.003185 0.000000 0.000000 0.000000
# 2 -0.006459 0.017302 -0.001120 0.000000 0.000000 0.000000
# 3 -0.003185 -0.001120 0.010548 0.000000 0.000000 0.000000
# 4 0.000000 0.000000 0.000000 0.036229 0.000000 0.000000
# 5 0.000000 0.000000 0.000000 0.000000 0.033860 0.000000
# 6 0.000000 0.000000 0.000000 0.000000 0.000000 0.114423
#
#
# Mechanical properties :
#
#
# Convention : Reuss Voigt Hill
#
# Bulk Modulus (GPa) = 42.56774 43.31514 42.94144
# Shear Modulus (GPa) = 19.31305 24.97525 22.14415
#
# Velocity S-wave (km/s) = 3.19637 3.63485 3.42264
# Velocity P-wave (km/s) = 6.01174 6.36634 6.19158
#
# Compressibility (1/GPa) = 0.02349197
#
# Stress axis : x y z
#
# Youngs Moduli (GPa) = 58.23672 57.79807 94.80716
#
# Poissons Ratio (x) = 0.37334 0.30192
# Poissons Ratio (y) = 0.37617 0.10622
# Poissons Ratio (z) = 0.18546 0.06476
#
# Static dielectric constant tensor:
#      x y z
#    x 3.367730 0.000000 0.000000 
#    y 0.000000 3.253520 0.000000 
#    z 0.000000 0.000000 3.772700 
# 
# 
# High freq. dielectric constant tensor:
#      x y z
#    x 1.718000 0.000000 0.000000 
#    y 0.000000 1.713310 0.000000 
#    z 0.000000 0.000000 1.760860 
# 
# From -- ./inp_files/1318.got.cif
#   From: 2010.03.12/outbox.cif.g09.slc.cpg/sg39_1_cif.got.tgz:1318.got - 2010.04.14 02:53:20.
