data_PCOD8181531
_publ_section_title
;
Structure prediction by ZEFSAII (Michael W. Deem and Ramdas Pophale) SiO2 
 PCOD8181531
Probable space group: A B M 2
;
_chemical_formula_sum "Si O2"
_cell_formula_units_Z 48
_cell_length_a 9.547463
_cell_length_b 9.040818
_cell_length_c 29.891202
_cell_angle_alpha 90.000000
_cell_angle_beta 90.000000
_cell_angle_gamma 90.000000
_cell_volume 2580.115157
_symmetry_space_group_name_H-M "A B M 2"
_symmetry_group_IT_number 39
_symmetry_cell_setting 'orthorhombic'
loop_
_space_group_symop_operation_xyz
x,y,z
-x,-y,z
-x,1/2+y,z
x,1/2-y,z
x,1/2+y,1/2+z
-x,1/2-y,1/2+z
-x,y,1/2+z
x,-y,1/2+z
loop_
_atom_site_type_symbol
_atom_site_label
_atom_site_fract_x
_atom_site_fract_y
_atom_site_fract_z
Si Si1 0.358829 0.078641 0.006580
Si Si2 0.851697 0.424103 0.431580
Si Si3 0.850387 0.925367 0.677177
Si Si4 0.645439 0.575602 0.109723
Si Si5 0.640415 0.078097 0.254533
Si Si6 0.357884 0.076245 0.855565
O O1 0.385956 0.250000 0.998541
O O2 0.322517 0.043579 0.057873
O O3 0.500000 0.000000 0.990986
O O4 0.231384 0.022935 0.975803
O O5 0.875002 0.250000 0.431860
O O6 0.767964 0.475553 0.387413
O O7 0.000000 0.500000 0.431282
O O8 0.864317 0.750000 0.669466
O O9 0.768812 0.964294 0.722725
O O10 0.771379 0.998488 0.635633
O O11 0.000000 0.000000 0.681573
O O12 0.500000 0.500000 0.124402
O O13 0.637692 0.750000 0.120306
O O14 0.607584 0.250000 0.252726
O O15 0.679058 0.027168 0.304859
O O16 0.500000 0.000000 0.236992
O O17 0.381838 0.250000 0.859360
O O18 0.500000 0.000000 0.872034
#
# Coordination Sequence:
#
# PCOD8181531 Si02
#       6
#     8   8   8   8   8   8
#     4   9  19  35  55  79 104 133 171 214 256 302
#     4  10  21  35  51  75 107 139 171 208 253 305
#     4  11  23  37  53  76 107 141 176 215 262 312
#     4  10  20  36  57  80 106 136 174 217 261 309
#     4   9  19  35  55  78 103 133 170 213 258 305
#     4   9  18  34  55  78 103 132 170 213 255 303
#
# _framework density 18.603821
#
# number of rings (size 3 to 8) (size 9 to 14) (size 15 to 20)
#    0.000    2.333    0.000    2.000    0.000    6.000 
#    0.000    1.667    0.000    0.000    0.000    0.000 
#    0.000    0.000    0.000    0.000    0.000    0.000 
#
# Total GULP energy -297657.760564 kJ/mol
# GULP energy per Si atom -12402.406690 kJ/mol
# Density = 1.856148 g / cm^3
# Si number density = 18.603821 Si / 1000 Ang^3
#
#
#
# Elastic Constant Matrix: (Units=GPa)
#
#
# Indices 1 2 3 4 5 6 
#
# 1 189.1625 71.2096 94.9871 0.0000 0.0000 0.0000
# 2 71.2096 67.5462 52.7604 0.0000 0.0000 0.0000
# 3 94.9871 52.7604 113.6715 0.0000 0.0000 0.0000
# 4 0.0000 0.0000 0.0000 23.7044 0.0000 0.0000
# 5 0.0000 0.0000 0.0000 0.0000 21.8599 0.0000
# 6 0.0000 0.0000 0.0000 0.0000 0.0000 40.3043
#
#
#
# Elastic Compliance Matrix: (Units=1/GPa)
#
#
# Indices 1 2 3 4 5 6 
#
# 1 0.010787 -0.006795 -0.005860 0.000000 0.000000 0.000000
# 2 -0.006795 0.027505 -0.007088 0.000000 0.000000 0.000000
# 3 -0.005860 -0.007088 0.016984 0.000000 0.000000 0.000000
# 4 0.000000 0.000000 0.000000 0.042186 0.000000 0.000000
# 5 0.000000 0.000000 0.000000 0.000000 0.045746 0.000000
# 6 0.000000 0.000000 0.000000 0.000000 0.000000 0.024811
#
#
# Mechanical properties :
#
#
# Convention : Reuss Voigt Hill
#
# Bulk Modulus (GPa) = 63.33366 89.81049 76.57208
# Shear Modulus (GPa) = 23.49970 27.26859 25.38414
#
# Velocity S-wave (km/s) = 3.55796 3.83267 3.69787
# Velocity P-wave (km/s) = 7.14115 8.24414 7.71239
#
# Compressibility (1/GPa) = 0.01578939
#
# Stress axis : x y z
#
# Youngs Moduli (GPa) = 92.70498 36.35761 58.87793
#
# Poissons Ratio (x) = 0.24703 0.34503
# Poissons Ratio (y) = 0.62989 0.41735
# Poissons Ratio (z) = 0.54327 0.25772
#
# Static dielectric constant tensor:
#      x y z
#    x 3.406240 0.000000 0.000000 
#    y 0.000000 3.422180 0.000000 
#    z 0.000000 0.000000 3.760810 
# 
# 
# High freq. dielectric constant tensor:
#      x y z
#    x 1.718140 0.000000 0.000000 
#    y 0.000000 1.721650 0.000000 
#    z 0.000000 0.000000 1.736460 
# 
# From -- ./inp_files/17576.got.cif
#   From: 2010.03.12/outbox.cif.g09.slc.cpg/sg39_9_cif.got.tgz:17576.got - 2010.04.14 02:53:20.
