data_PCOD8181479
_publ_section_title
;
Structure prediction by ZEFSAII (Michael W. Deem and Ramdas Pophale) SiO2 
 PCOD8181479
Probable space group: A B M 2
;
_chemical_formula_sum "Si O2"
_cell_formula_units_Z 48
_cell_length_a 11.467116
_cell_length_b 13.144252
_cell_length_c 17.247543
_cell_angle_alpha 90.000000
_cell_angle_beta 90.000000
_cell_angle_gamma 90.000000
_cell_volume 2599.664591
_symmetry_space_group_name_H-M "A B M 2"
_symmetry_group_IT_number 39
_symmetry_cell_setting 'orthorhombic'
loop_
_space_group_symop_operation_xyz
x,y,z
-x,-y,z
-x,1/2+y,z
x,1/2-y,z
x,1/2+y,1/2+z
-x,1/2-y,1/2+z
-x,y,1/2+z
x,-y,1/2+z
loop_
_atom_site_type_symbol
_atom_site_label
_atom_site_fract_x
_atom_site_fract_y
_atom_site_fract_z
Si Si1 0.448567 0.365882 0.934930
Si Si2 0.636840 0.971617 0.647717
Si Si3 0.281576 0.632687 0.302633
Si Si4 0.867891 0.026035 0.431234
Si Si5 0.255885 0.868029 0.553904
Si Si6 0.688221 0.369614 0.989419
O O1 0.460645 0.250000 0.963289
O O2 0.404452 0.372697 0.847495
O O3 0.355344 0.412446 0.995234
O O4 0.576831 0.415125 0.940737
O O5 0.694764 0.923718 0.723061
O O6 0.660234 0.891034 0.579390
O O7 0.500000 0.000000 0.657357
O O8 0.716059 0.072726 0.633149
O O9 0.244359 0.750000 0.288947
O O10 0.181646 0.578531 0.353432
O O11 0.861532 0.101270 0.507035
O O12 0.801993 0.922221 0.454246
O O13 0.000000 0.000000 0.412812
O O14 0.256079 0.750000 0.572790
O O15 0.706351 0.250000 0.977324
#
# Coordination Sequence:
#
# PCOD8181479 Si02
#       6
#     8   8   8   8   8   8
#     4   8  15  31  54  79 106 143 181 221 284 346
#     4  11  21  32  56  89 122 151 182 224 284 360
#     4  10  22  37  56  82 118 157 190 230 289 348
#     4  10  22  38  60  83 107 151 207 244 277 327
#     4   9  18  35  59  84 114 149 184 230 288 341
#     4  10  20  35  57  85 115 144 187 242 290 339
#
# _framework density 18.463920000000002
#
# number of rings (size 3 to 8) (size 9 to 14) (size 15 to 20)
#    0.000    2.333    1.667    2.000    2.333    2.000 
#    0.000    4.167    0.000    4.000    0.000    0.000 
#    0.000    0.000    0.000    0.000    0.000    0.000 
#
# Total GULP energy -297454.688785 kJ/mol
# GULP energy per Si atom -12393.945366 kJ/mol
# Density = 1.842189 g / cm^3
# Si number density = 18.463920 Si / 1000 Ang^3
#
#
#
# Elastic Constant Matrix: (Units=GPa)
#
#
# Indices 1 2 3 4 5 6 
#
# 1 114.2543 49.0134 54.3337 0.0000 0.0000 0.0000
# 2 49.0134 111.7773 60.2176 0.0000 0.0000 0.0000
# 3 54.3337 60.2176 121.2461 0.0000 0.0000 0.0000
# 4 0.0000 0.0000 0.0000 32.0634 0.0000 0.0000
# 5 0.0000 0.0000 0.0000 0.0000 15.8473 0.0000
# 6 0.0000 0.0000 0.0000 0.0000 0.0000 21.4856
#
#
#
# Elastic Compliance Matrix: (Units=1/GPa)
#
#
# Indices 1 2 3 4 5 6 
#
# 1 0.011908 -0.003204 -0.003745 0.000000 0.000000 0.000000
# 2 -0.003204 0.013077 -0.005059 0.000000 0.000000 0.000000
# 3 -0.003745 -0.005059 0.012438 0.000000 0.000000 0.000000
# 4 0.000000 0.000000 0.000000 0.031188 0.000000 0.000000
# 5 0.000000 0.000000 0.000000 0.000000 0.063102 0.000000
# 6 0.000000 0.000000 0.000000 0.000000 0.000000 0.046543
#
#
# Mechanical properties :
#
#
# Convention : Reuss Voigt Hill
#
# Bulk Modulus (GPa) = 74.58580 74.93411 74.75995
# Shear Modulus (GPa) = 24.18496 26.12682 25.15589
#
# Velocity S-wave (km/s) = 3.62311 3.76576 3.69512
# Velocity P-wave (km/s) = 7.61483 7.71881 7.66700
#
# Compressibility (1/GPa) = 0.01340738
#
# Stress axis : x y z
#
# Youngs Moduli (GPa) = 83.97895 76.47265 80.39640
#
# Poissons Ratio (x) = 0.24501 0.30108
# Poissons Ratio (y) = 0.26906 0.40671
# Poissons Ratio (z) = 0.31449 0.38686
#
# Static dielectric constant tensor:
#      x y z
#    x 3.237920 0.000000 0.000000 
#    y 0.000000 3.516060 0.000000 
#    z 0.000000 0.000000 3.225290 
# 
# 
# High freq. dielectric constant tensor:
#      x y z
#    x 1.689790 0.000000 0.000000 
#    y 0.000000 1.740410 0.000000 
#    z 0.000000 0.000000 1.700070 
# 
# From -- ./inp_files/9206.got.cif
#   From: 2010.03.12/outbox.cif.g09.slc.cpg/sg39_5_cif.got.tgz:9206.got - 2010.04.14 02:53:20.
