data_PCOD8181713
_publ_section_title
;
Structure prediction by ZEFSAII (Michael W. Deem and Ramdas Pophale) SiO2 
 PCOD8181713
Probable space group: A B M 2
;
_chemical_formula_sum "Si O2"
_cell_formula_units_Z 60
_cell_length_a 11.108730
_cell_length_b 14.718373
_cell_length_c 18.404078
_cell_angle_alpha 90.000000
_cell_angle_beta 90.000000
_cell_angle_gamma 90.000000
_cell_volume 3009.111506
_symmetry_space_group_name_H-M "A B M 2"
_symmetry_group_IT_number 39
_symmetry_cell_setting 'orthorhombic'
loop_
_space_group_symop_operation_xyz
x,y,z
-x,-y,z
-x,1/2+y,z
x,1/2-y,z
x,1/2+y,1/2+z
-x,1/2-y,1/2+z
-x,y,1/2+z
x,-y,1/2+z
loop_
_atom_site_type_symbol
_atom_site_label
_atom_site_fract_x
_atom_site_fract_y
_atom_site_fract_z
Si Si1 0.500000 0.000000 0.255750
Si Si2 0.136980 0.511508 0.840661
Si Si3 0.871744 0.854755 0.605667
Si Si4 0.748568 0.354030 0.423573
Si Si5 0.762740 0.854457 0.452193
Si Si6 0.751487 0.008200 0.692368
Si Si7 0.484222 0.646056 0.879273
Si Si8 0.149694 0.644498 0.579428
O O1 0.388583 0.984435 0.201595
O O2 0.520788 0.912687 0.306429
O O3 0.194498 0.414801 0.860776
O O4 0.148546 0.585137 0.904141
O O5 0.201756 0.547390 0.768676
O O6 0.000000 0.500000 0.820882
O O7 0.861389 0.750000 0.629916
O O8 0.787748 0.875548 0.536294
O O9 0.824598 0.917266 0.670888
O O10 0.009251 0.880091 0.586912
O O11 0.779084 0.250000 0.405019
O O12 0.605285 0.371379 0.425250
O O13 0.806814 0.383387 0.499501
O O14 0.793057 0.750000 0.434935
O O15 0.625039 0.879761 0.433253
O O16 0.769270 0.087470 0.634265
O O17 0.474662 0.750000 0.853654
O O18 0.174226 0.750000 0.594743
#
# Coordination Sequence:
#
# PCOD8181713 Si02
#       8
#     4   8   8   8   8   8   8   8
#     4  12  24  42  60  86 124 162 200 248 300 356
#     4  12  23  36  60  89 120 159 205 250 296 356
#     4  10  22  41  63  90 125 160 198 248 302 358
#     4  10  21  39  65  91 118 156 202 252 304 354
#     4  10  21  39  65  91 118 156 202 252 304 354
#     4  12  25  40  60  87 123 165 202 242 300 360
#     4  10  20  39  65  91 121 153 196 256 306 350
#     4  10  22  41  63  90 125 160 198 248 302 358
#
# _framework density 19.939440000000001
#
# number of rings (size 3 to 8) (size 9 to 14) (size 15 to 20)
#    0.000    1.333    2.667    2.800    0.000    4.800 
#    0.000    1.333    0.000    0.000    0.000    0.000 
#    0.000    0.000    0.000    0.000    0.000    0.000 
#
# Total GULP energy -372150.073586 kJ/mol
# GULP energy per Si atom -12405.002453 kJ/mol
# Density = 1.989406 g / cm^3
# Si number density = 19.939440 Si / 1000 Ang^3
#
#
#
# Elastic Constant Matrix: (Units=GPa)
#
#
# Indices 1 2 3 4 5 6 
#
# 1 120.8964 18.0701 28.0810 0.0000 0.0000 0.0000
# 2 18.0701 70.7078 27.6674 0.0000 0.0000 0.0000
# 3 28.0810 27.6674 69.6167 0.0000 0.0000 0.0000
# 4 0.0000 0.0000 0.0000 32.4222 0.0000 0.0000
# 5 0.0000 0.0000 0.0000 0.0000 43.6063 0.0000
# 6 0.0000 0.0000 0.0000 0.0000 0.0000 25.5584
#
#
#
# Elastic Compliance Matrix: (Units=1/GPa)
#
#
# Indices 1 2 3 4 5 6 
#
# 1 0.009194 -0.001064 -0.003286 0.000000 0.000000 0.000000
# 2 -0.001064 0.016870 -0.006275 0.000000 0.000000 0.000000
# 3 -0.003286 -0.006275 0.018184 0.000000 0.000000 0.000000
# 4 0.000000 0.000000 0.000000 0.030843 0.000000 0.000000
# 5 0.000000 0.000000 0.000000 0.000000 0.022932 0.000000
# 6 0.000000 0.000000 0.000000 0.000000 0.000000 0.039126
#
#
# Mechanical properties :
#
#
# Convention : Reuss Voigt Hill
#
# Bulk Modulus (GPa) = 43.48281 45.42864 44.45573
# Shear Modulus (GPa) = 30.10868 32.81086 31.45977
#
# Velocity S-wave (km/s) = 3.89010 4.06091 3.97642
# Velocity P-wave (km/s) = 6.48320 6.69483 6.58987
#
# Compressibility (1/GPa) = 0.02299759
#
# Stress axis : x y z
#
# Youngs Moduli (GPa) = 108.76982 59.27636 54.99430
#
# Poissons Ratio (x) = 0.06307 0.18069
# Poissons Ratio (y) = 0.11572 0.34511
# Poissons Ratio (z) = 0.35737 0.37199
#
# Static dielectric constant tensor:
#      x y z
#    x 3.801520 0.000000 0.000000 
#    y 0.000000 3.740980 0.000000 
#    z 0.000000 0.000000 3.503730 
# 
# 
# High freq. dielectric constant tensor:
#      x y z
#    x 1.789630 0.000000 0.000000 
#    y 0.000000 1.789140 0.000000 
#    z 0.000000 0.000000 1.769480 
# 
# From -- ./inp_files/12308.got.cif
#   From: 2010.03.12/outbox.cif.g09.slc.cpg/sg39_7_cif.got.tgz:12308.got - 2010.04.14 02:53:20.
