data_PCOD8181505
_publ_section_title
;
Structure prediction by ZEFSAII (Michael W. Deem and Ramdas Pophale) SiO2 
 PCOD8181505
Probable space group: A B M 2
;
_chemical_formula_sum "Si O2"
_cell_formula_units_Z 64
_cell_length_a 23.852564
_cell_length_b 8.472829
_cell_length_c 15.242950
_cell_angle_alpha 90.000000
_cell_angle_beta 90.000000
_cell_angle_gamma 90.000000
_cell_volume 3080.580318
_symmetry_space_group_name_H-M "A B M 2"
_symmetry_group_IT_number 39
_symmetry_cell_setting 'orthorhombic'
loop_
_space_group_symop_operation_xyz
x,y,z
-x,-y,z
-x,1/2+y,z
x,1/2-y,z
x,1/2+y,1/2+z
-x,1/2-y,1/2+z
-x,y,1/2+z
x,-y,1/2+z
loop_
_atom_site_type_symbol
_atom_site_label
_atom_site_fract_x
_atom_site_fract_y
_atom_site_fract_z
Si Si1 0.443148 0.434301 0.483310
Si Si2 0.674361 0.430587 0.062612
Si Si3 0.440733 0.934603 0.292515
Si Si4 0.139996 0.935943 0.892975
Si Si5 0.326648 0.431101 0.241189
Si Si6 0.939132 0.062650 0.540143
Si Si7 0.059618 0.564671 0.739508
Si Si8 0.262386 0.568538 0.400963
O O1 0.500000 0.500000 0.528909
O O2 0.449048 0.250000 0.458936
O O3 0.391321 0.465582 0.547070
O O4 0.433123 0.533459 0.395353
O O5 0.683262 0.250000 0.089140
O O6 0.696143 0.537218 0.143049
O O7 0.710021 0.463730 0.976296
O O8 0.436498 0.750000 0.272549
O O9 0.500000 0.000000 0.258010
O O10 0.391940 0.023844 0.240705
O O11 0.151581 0.750000 0.889009
O O12 0.106511 0.996480 0.807072
O O13 0.197504 0.029461 0.892681
O O14 0.106665 0.977239 0.980955
O O15 0.317594 0.250000 0.266908
O O16 0.292505 0.536870 0.309047
O O17 0.936377 0.250000 0.527357
O O18 0.925947 0.010974 0.640405
O O19 0.000000 0.000000 0.511976
O O20 0.055393 0.750000 0.744372
O O21 0.000000 0.500000 0.770807
O O22 0.270353 0.750000 0.426270
#
# Coordination Sequence:
#
# PCOD8181505 Si02
#       8
#     8   8   8   8   8   8   8   8
#     4  10  20  35  60  90 124 159 198 248 310 373
#     4  11  24  43  66  92 123 162 208 257 313 376
#     4  11  21  36  61  91 125 161 203 251 310 374
#     4  11  23  40  62  89 122 163 207 256 309 365
#     4  12  25  43  66  92 124 163 208 258 313 374
#     4  10  20  37  60  91 127 163 204 250 304 367
#     4   9  20  37  60  89 125 163 200 245 300 358
#     4  12  26  45  66  90 122 164 212 263 316 371
#
# _framework density 20.775306
#
# number of rings (size 3 to 8) (size 9 to 14) (size 15 to 20)
#    0.000    1.250    1.250    6.000    0.000    5.500 
#    0.000    5.000    0.000    0.000    0.000    0.000 
#    0.000    0.000    0.000    0.000    0.000    0.000 
#
# Total GULP energy -396964.225296 kJ/mol
# GULP energy per Si atom -12405.132040 kJ/mol
# Density = 2.072802 g / cm^3
# Si number density = 20.775306 Si / 1000 Ang^3
#
#
#
# Elastic Constant Matrix: (Units=GPa)
#
#
# Indices 1 2 3 4 5 6 
#
# 1 117.7569 21.2595 48.8472 0.0000 0.0000 0.0000
# 2 21.2595 67.9218 11.0983 0.0000 0.0000 0.0000
# 3 48.8472 11.0983 102.3552 0.0000 0.0000 0.0000
# 4 0.0000 0.0000 0.0000 30.0831 0.0000 0.0000
# 5 0.0000 0.0000 0.0000 0.0000 5.6338 0.0000
# 6 0.0000 0.0000 0.0000 0.0000 0.0000 35.5405
#
#
#
# Elastic Compliance Matrix: (Units=1/GPa)
#
#
# Indices 1 2 3 4 5 6 
#
# 1 0.011034 -0.002640 -0.004980 0.000000 0.000000 0.000000
# 2 -0.002640 0.015620 -0.000434 0.000000 0.000000 0.000000
# 3 -0.004980 -0.000434 0.012193 0.000000 0.000000 0.000000
# 4 0.000000 0.000000 0.000000 0.033241 0.000000 0.000000
# 5 0.000000 0.000000 0.000000 0.000000 0.177501 0.000000
# 6 0.000000 0.000000 0.000000 0.000000 0.000000 0.028137
#
#
# Mechanical properties :
#
#
# Convention : Reuss Voigt Hill
#
# Bulk Modulus (GPa) = 43.97386 50.04930 47.01158
# Shear Modulus (GPa) = 16.58847 28.04006 22.31427
#
# Velocity S-wave (km/s) = 2.82879 3.67779 3.28087
# Velocity P-wave (km/s) = 5.64639 6.49445 6.08521
#
# Compressibility (1/GPa) = 0.02274078
#
# Stress axis : x y z
#
# Youngs Moduli (GPa) = 90.62614 64.02035 82.01162
#
# Poissons Ratio (x) = 0.16902 0.40839
# Poissons Ratio (y) = 0.23926 0.03557
# Poissons Ratio (z) = 0.45129 0.02777
#
# Static dielectric constant tensor:
#      x y z
#    x 3.764590 0.000000 0.000000 
#    y 0.000000 4.044350 0.000000 
#    z 0.000000 0.000000 3.814950 
# 
# 
# High freq. dielectric constant tensor:
#      x y z
#    x 1.811980 0.000000 0.000000 
#    y 0.000000 1.821470 0.000000 
#    z 0.000000 0.000000 1.816680 
# 
# From -- ./inp_files/10660.got.cif
#   From: 2010.03.12/outbox.cif.g09.slc.cpg/sg39_6_cif.got.tgz:10660.got - 2010.04.14 02:53:20.
