data_PCOD8181290
_publ_section_title
;
Structure prediction by ZEFSAII (Michael W. Deem and Ramdas Pophale) SiO2 
 PCOD8181290
Probable space group: A B M 2
;
_chemical_formula_sum "Si O2"
_cell_formula_units_Z 64
_cell_length_a 19.161187
_cell_length_b 18.563294
_cell_length_c 10.098198
_cell_angle_alpha 90.000000
_cell_angle_beta 90.000000
_cell_angle_gamma 90.000000
_cell_volume 3591.875990
_symmetry_space_group_name_H-M "A B M 2"
_symmetry_group_IT_number 39
_symmetry_cell_setting 'orthorhombic'
loop_
_space_group_symop_operation_xyz
x,y,z
-x,-y,z
-x,1/2+y,z
x,1/2-y,z
x,1/2+y,1/2+z
-x,1/2-y,1/2+z
-x,y,1/2+z
x,-y,1/2+z
loop_
_atom_site_type_symbol
_atom_site_label
_atom_site_fract_x
_atom_site_fract_y
_atom_site_fract_z
Si Si1 0.911876 0.913907 0.824600
Si Si2 0.159734 0.585447 0.063318
Si Si3 0.559095 0.166791 0.974856
Si Si4 0.069372 0.414390 0.324600
Si Si5 0.309244 0.567368 0.669686
Si Si6 0.309244 0.567368 0.979514
Si Si7 0.159734 0.414553 0.085882
Si Si8 0.440905 0.333209 0.174344
O O1 0.867552 0.883152 0.701770
O O2 0.990743 0.884227 0.824600
O O3 0.921628 0.999648 0.824600
O O4 0.867552 0.883152 0.947430
O O5 0.156875 0.500000 0.074600
O O6 0.107308 0.616535 0.953811
O O7 0.238602 0.607729 0.026187
O O8 0.575590 0.250000 0.003753
O O9 0.500000 0.137661 0.074600
O O10 0.629455 0.123753 0.000771
O O11 0.532400 0.155316 0.824600
O O12 0.107308 0.383465 0.195389
O O13 0.302781 0.543154 0.824600
O O14 0.324652 0.500000 0.574600
O O15 0.238602 0.607729 0.623013
O O16 0.370545 0.623753 0.648429
O O17 0.424410 0.250000 0.145447
#
# Coordination Sequence:
#
# PCOD8181290 Si02
#       8
#     8   8   8   8   8   8   8   8
#     4   9  16  22  36  56  84 123 164 194 237 277
#     4   9  16  25  37  58  89 124 158 196 235 283
#     4   9  19  37  57  76  98 125 161 201 240 284
#     4   9  14  24  36  54  84 123 162 194 235 283
#     4  10  20  32  49  72 101 134 161 196 242 290
#     4  10  20  32  49  72 101 134 161 196 242 290
#     4   9  16  25  37  58  89 124 158 196 235 283
#     4   9  19  37  57  76  98 125 161 201 240 284
#
# _framework density 17.817986999999999
#
# number of rings (size 3 to 8) (size 9 to 14) (size 15 to 20)
#    0.000    2.750    1.250    0.750    5.250    4.500 
#    0.000    2.500    0.000    0.000    0.000    0.000 
#    0.000    6.000    0.000    0.000    0.000    0.000 
#
# Total GULP energy -396622.117128 kJ/mol
# GULP energy per Si atom -12394.441160 kJ/mol
# Density = 1.777743 g / cm^3
# Si number density = 17.817987 Si / 1000 Ang^3
#
#
#
# Elastic Constant Matrix: (Units=GPa)
#
#
# Indices 1 2 3 4 5 6 
#
# 1 165.6835 35.1709 103.4521 0.0000 0.0000 0.0000
# 2 35.1709 23.5134 29.5020 0.0000 0.0000 0.0000
# 3 103.4521 29.5020 170.8674 0.0000 0.0000 0.0000
# 4 0.0000 0.0000 0.0000 12.5358 0.0000 0.0000
# 5 0.0000 0.0000 0.0000 0.0000 40.1260 0.0000
# 6 0.0000 0.0000 0.0000 0.0000 0.0000 -1.8186
#
#
#
# Elastic Compliance Matrix: (Units=1/GPa)
#
#
# Indices 1 2 3 4 5 6 
#
# 1 0.011523 -0.010828 -0.005107 0.000000 0.000000 0.000000
# 2 -0.010828 0.064465 -0.004575 0.000000 0.000000 0.000000
# 3 -0.005107 -0.004575 0.009734 0.000000 0.000000 0.000000
# 4 0.000000 0.000000 0.000000 0.079772 0.000000 0.000000
# 5 0.000000 0.000000 0.000000 0.000000 0.024921 0.000000
# 6 0.000000 0.000000 0.000000 0.000000 0.000000 -0.549882
#
#
# Mechanical properties :
#
#
# Convention : Reuss Voigt Hill
#
# Bulk Modulus (GPa) = 22.36993 77.36825 49.86909
# Shear Modulus (GPa) = -16.47198 22.96460 3.24631
#
# Velocity S-wave (km/s) = -3.04379 3.59394 1.35125
# Velocity P-wave (km/s) = 0.47862 7.79343 5.52117
#
# Compressibility (1/GPa) = 0.04470286
#
# Stress axis : x y z
#
# Youngs Moduli (GPa) = 86.78323 15.51229 102.72822
#
# Poissons Ratio (x) = 0.16797 0.52464
# Poissons Ratio (y) = 0.93969 0.46995
# Poissons Ratio (z) = 0.44320 0.07096
#
# Static dielectric constant tensor:
#      x y z
#    x 3.496060 0.000000 0.000000 
#    y 0.000000 2.631700 0.000000 
#    z 0.000000 0.000000 3.694670 
# 
# 
# High freq. dielectric constant tensor:
#      x y z
#    x 1.704260 0.000000 0.000000 
#    y 0.000000 1.614390 0.000000 
#    z 0.000000 0.000000 1.710870 
# 
# From -- ./inp_files/4034.got.cif
#   From: 2010.03.12/outbox.cif.g09.slc.cpg/sg39_3_cif.got.tgz:4034.got - 2010.04.14 02:53:20.
