data_PCOD8181991
_publ_section_title
;
Structure prediction by ZEFSAII (Michael W. Deem and Ramdas Pophale) SiO2 
 PCOD8181991
Probable space group: A B M 2
;
_chemical_formula_sum "Si O2"
_cell_formula_units_Z 64
_cell_length_a 21.876784
_cell_length_b 15.768797
_cell_length_c 8.872553
_cell_angle_alpha 90.000000
_cell_angle_beta 90.000000
_cell_angle_gamma 90.000000
_cell_volume 3060.769629
_symmetry_space_group_name_H-M "A B M 2"
_symmetry_group_IT_number 39
_symmetry_cell_setting 'orthorhombic'
loop_
_space_group_symop_operation_xyz
x,y,z
-x,-y,z
-x,1/2+y,z
x,1/2-y,z
x,1/2+y,1/2+z
-x,1/2-y,1/2+z
-x,y,1/2+z
x,-y,1/2+z
loop_
_atom_site_type_symbol
_atom_site_label
_atom_site_fract_x
_atom_site_fract_y
_atom_site_fract_z
Si Si1 0.680141 0.154525 0.360710
Si Si2 0.762682 0.001594 0.470542
Si Si3 0.679759 0.845218 0.511260
Si Si4 0.436970 0.908534 0.505853
Si Si5 0.065527 0.655164 0.768541
Si Si6 0.437066 0.591823 0.866412
Si Si7 0.149573 0.490183 0.221237
Si Si8 0.039965 0.916833 0.091875
O O1 0.707155 0.250000 0.376679
O O2 0.617404 0.152767 0.454983
O O3 0.726598 0.086520 0.429356
O O4 0.667124 0.132996 0.186050
O O5 0.724711 0.915607 0.440170
O O6 0.783479 0.004271 0.644061
O O7 0.830028 0.998497 0.394453
O O8 0.707520 0.750000 0.494375
O O9 0.616836 0.846054 0.417719
O O10 0.441673 0.913586 0.686168
O O11 0.499794 0.872669 0.435655
O O12 0.422605 0.000394 0.436988
O O13 0.089708 0.750000 0.760948
O O14 0.116886 0.599044 0.686429
O O15 0.999858 0.648409 0.688923
O O16 0.059131 0.626014 0.938682
O O17 0.101729 0.564684 0.185120
O O18 0.000000 0.000000 0.057570
#
# Coordination Sequence:
#
# PCOD8181991 Si02
#       8
#     8   8   8   8   8   8   8   8
#     4  11  25  44  66  95 130 172 219 272 331 391
#     4  12  24  45  67  93 128 176 220 269 317 376
#     4  11  25  44  67  95 130 172 219 272 332 392
#     4  11  22  39  66  96 130 169 216 270 333 396
#     4  11  23  40  65 100 132 162 208 267 316 372
#     4  11  22  39  66  97 127 170 215 269 334 395
#     4  11  24  42  69  91 125 175 218 256 317 384
#     4  10  21  41  65  93 128 170 208 251 319 381
#
# _framework density 20.909773000000001
#
# number of rings (size 3 to 8) (size 9 to 14) (size 15 to 20)
#    0.000    1.000    3.750    4.500    3.500    2.000 
#    0.000    1.250    0.000    0.000    0.000    0.000 
#    0.000    0.000    0.000    0.000    0.000    0.000 
#
# Total GULP energy -396822.477132 kJ/mol
# GULP energy per Si atom -12400.702410 kJ/mol
# Density = 2.086218 g / cm^3
# Si number density = 20.909773 Si / 1000 Ang^3
#
#
#
# Elastic Constant Matrix: (Units=GPa)
#
#
# Indices 1 2 3 4 5 6 
#
# 1 109.4366 40.3524 24.3027 0.0000 0.0000 0.0000
# 2 40.3524 98.4685 13.5447 0.0000 0.0000 0.0000
# 3 24.3027 13.5447 84.1972 0.0000 0.0000 0.0000
# 4 0.0000 0.0000 0.0000 62.1826 0.0000 0.0000
# 5 0.0000 0.0000 0.0000 0.0000 38.6326 0.0000
# 6 0.0000 0.0000 0.0000 0.0000 0.0000 16.1469
#
#
#
# Elastic Compliance Matrix: (Units=1/GPa)
#
#
# Indices 1 2 3 4 5 6 
#
# 1 0.011283 -0.004270 -0.002570 0.000000 0.000000 0.000000
# 2 -0.004270 0.012002 -0.000698 0.000000 0.000000 0.000000
# 3 -0.002570 -0.000698 0.012731 0.000000 0.000000 0.000000
# 4 0.000000 0.000000 0.000000 0.016082 0.000000 0.000000
# 5 0.000000 0.000000 0.000000 0.000000 0.025885 0.000000
# 6 0.000000 0.000000 0.000000 0.000000 0.000000 0.061931
#
#
# Mechanical properties :
#
#
# Convention : Reuss Voigt Hill
#
# Bulk Modulus (GPa) = 47.75749 49.83355 48.79552
# Shear Modulus (GPa) = 30.87004 37.65259 34.26131
#
# Velocity S-wave (km/s) = 3.84649 4.24809 4.05227
# Velocity P-wave (km/s) = 6.52815 6.92431 6.72915
#
# Compressibility (1/GPa) = 0.02093912
#
# Stress axis : x y z
#
# Youngs Moduli (GPa) = 88.62932 83.32285 78.54890
#
# Poissons Ratio (x) = 0.35581 0.20185
# Poissons Ratio (y) = 0.37847 0.05483
# Poissons Ratio (z) = 0.22776 0.05817
#
# Static dielectric constant tensor:
#      x y z
#    x 3.820730 0.000000 0.000000 
#    y 0.000000 3.151030 0.000000 
#    z 0.000000 0.000000 3.847340 
# 
# 
# High freq. dielectric constant tensor:
#      x y z
#    x 1.823340 0.000000 0.000000 
#    y 0.000000 1.806630 0.000000 
#    z 0.000000 0.000000 1.832070 
# 
# From -- ./inp_files/4085.got.cif
#   From: 2010.03.12/outbox.cif.g09.slc.cpg/sg39_3_cif.got.tgz:4085.got - 2010.04.14 02:53:20.
