data_PCOD8181275
_publ_section_title
;
Structure prediction by ZEFSAII (Michael W. Deem and Ramdas Pophale) SiO2 
 PCOD8181275
Probable space group: A B M 2
;
_chemical_formula_sum "Si O2"
_cell_formula_units_Z 40
_cell_length_a 8.482695
_cell_length_b 18.702993
_cell_length_c 11.749304
_cell_angle_alpha 90.000000
_cell_angle_beta 90.000000
_cell_angle_gamma 90.000000
_cell_volume 1864.048055
_symmetry_space_group_name_H-M "A B M 2"
_symmetry_group_IT_number 39
_symmetry_cell_setting 'orthorhombic'
loop_
_space_group_symop_operation_xyz
x,y,z
-x,-y,z
-x,1/2+y,z
x,1/2-y,z
x,1/2+y,1/2+z
-x,1/2-y,1/2+z
-x,y,1/2+z
x,-y,1/2+z
loop_
_atom_site_type_symbol
_atom_site_label
_atom_site_fract_x
_atom_site_fract_y
_atom_site_fract_z
Si Si1 0.712290 0.384849 0.149070
Si Si2 0.068512 0.421280 0.439066
Si Si3 0.227904 0.830113 0.376153
Si Si4 0.584859 0.076306 0.534043
Si Si5 0.824022 0.473035 0.710879
O O1 0.759608 0.323371 0.238159
O O2 0.535540 0.374124 0.104408
O O3 0.717215 0.456759 0.226604
O O4 0.832011 0.391271 0.043840
O O5 0.180307 0.427550 0.327219
O O6 0.000000 0.500000 0.465395
O O7 0.937847 0.363128 0.411931
O O8 0.239492 0.750000 0.426041
O O9 0.371047 0.879659 0.421466
O O10 0.748840 0.070114 0.604956
O O11 0.500000 0.000000 0.505772
O O12 0.000000 0.500000 0.680842
#
# Coordination Sequence:
#
# PCOD8181275 Si02
#       5
#     8   8   8   8   8
#     4  11  23  40  68  97 135 177 225 285 343 403
#     4  11  22  41  70  98 133 176 234 289 334 405
#     4  12  27  44  66 101 142 180 226 284 351 421
#     4  10  24  41  71  99 133 178 234 287 340 406
#     4  10  19  38  68 101 131 169 232 289 333 395
#
# _framework density 21.458673999999998
#
# number of rings (size 3 to 8) (size 9 to 14) (size 15 to 20)
#    0.000    1.200    4.000    4.200    2.800    2.400 
#    0.000    0.000    0.000    0.000    0.000    0.000 
#    0.000    0.000    0.000    0.000    0.000    0.000 
#
# Total GULP energy -247862.788306 kJ/mol
# GULP energy per Si atom -12393.139415 kJ/mol
# Density = 2.140983 g / cm^3
# Si number density = 21.458674 Si / 1000 Ang^3
#
#
#
# Elastic Constant Matrix: (Units=GPa)
#
#
# Indices 1 2 3 4 5 6 
#
# 1 121.8915 37.8167 72.0159 0.0000 0.0000 0.0000
# 2 37.8167 92.1301 60.5581 0.0000 0.0000 0.0000
# 3 72.0159 60.5581 144.1569 0.0000 0.0000 0.0000
# 4 0.0000 0.0000 0.0000 16.7474 0.0000 0.0000
# 5 0.0000 0.0000 0.0000 0.0000 31.0611 0.0000
# 6 0.0000 0.0000 0.0000 0.0000 0.0000 18.5529
#
#
#
# Elastic Compliance Matrix: (Units=1/GPa)
#
#
# Indices 1 2 3 4 5 6 
#
# 1 0.011757 -0.001333 -0.005313 0.000000 0.000000 0.000000
# 2 -0.001333 0.015146 -0.005696 0.000000 0.000000 0.000000
# 3 -0.005313 -0.005696 0.011984 0.000000 0.000000 0.000000
# 4 0.000000 0.000000 0.000000 0.059711 0.000000 0.000000
# 5 0.000000 0.000000 0.000000 0.000000 0.032195 0.000000
# 6 0.000000 0.000000 0.000000 0.000000 0.000000 0.053900
#
#
# Mechanical properties :
#
#
# Convention : Reuss Voigt Hill
#
# Bulk Modulus (GPa) = 70.41843 77.66222 74.04033
# Shear Modulus (GPa) = 23.35230 25.79147 24.57189
#
# Velocity S-wave (km/s) = 3.30244 3.47062 3.38757
# Velocity P-wave (km/s) = 6.88684 7.23398 7.06254
#
# Compressibility (1/GPa) = 0.01420083
#
# Stress axis : x y z
#
# Youngs Moduli (GPa) = 85.05689 66.02458 83.44355
#
# Poissons Ratio (x) = 0.08804 0.44335
# Poissons Ratio (y) = 0.11342 0.47533
# Poissons Ratio (z) = 0.45192 0.37610
#
# Static dielectric constant tensor:
#      x y z
#    x 4.004410 0.000000 0.000000 
#    y 0.000000 3.508420 0.000000 
#    z 0.000000 0.000000 4.152140 
# 
# 
# High freq. dielectric constant tensor:
#      x y z
#    x 1.846170 0.000000 0.000000 
#    y 0.000000 1.794330 0.000000 
#    z 0.000000 0.000000 1.862400 
# 
# From -- ./inp_files/5055.got.cif
#   From: 2010.03.12/outbox.cif.g09.slc.cpg/sg39_3_cif.got.tgz:5055.got - 2010.04.14 02:53:20.
