data_PCOD8181441
_publ_section_title
;
Structure prediction by ZEFSAII (Michael W. Deem and Ramdas Pophale) SiO2 
 PCOD8181441
Probable space group: A B M 2
;
_chemical_formula_sum "Si O2"
_cell_formula_units_Z 60
_cell_length_a 15.492666
_cell_length_b 8.875409
_cell_length_c 22.036099
_cell_angle_alpha 90.000000
_cell_angle_beta 90.000000
_cell_angle_gamma 90.000000
_cell_volume 3030.046187
_symmetry_space_group_name_H-M "A B M 2"
_symmetry_group_IT_number 39
_symmetry_cell_setting 'orthorhombic'
loop_
_space_group_symop_operation_xyz
x,y,z
-x,-y,z
-x,1/2+y,z
x,1/2-y,z
x,1/2+y,1/2+z
-x,1/2-y,1/2+z
-x,y,1/2+z
x,-y,1/2+z
loop_
_atom_site_type_symbol
_atom_site_label
_atom_site_fract_x
_atom_site_fract_y
_atom_site_fract_z
Si Si1 0.916770 0.072534 0.171140
Si Si2 0.408316 0.069588 0.048066
Si Si3 0.268283 0.580644 0.357753
Si Si4 0.155080 0.588861 0.474674
Si Si5 0.122211 0.582404 0.793266
Si Si6 0.586932 0.427681 0.918212
Si Si7 0.000000 0.000000 0.896893
Si Si8 0.234802 0.074635 0.582381
O O1 0.930213 0.250000 0.175040
O O2 0.826056 0.032077 0.139238
O O3 0.922207 0.001650 0.237849
O O4 0.000000 0.000000 0.136015
O O5 0.415532 0.250000 0.048828
O O6 0.500000 0.000000 0.071617
O O7 0.325135 0.017237 0.087649
O O8 0.388075 0.009727 0.980883
O O9 0.296884 0.750000 0.339450
O O10 0.225129 0.578859 0.422828
O O11 0.206098 0.516994 0.306542
O O12 0.347690 0.466095 0.364080
O O13 0.163753 0.750000 0.508591
O O14 0.176575 0.459017 0.522817
O O15 0.061406 0.589169 0.443008
O O16 0.149933 0.750000 0.774168
O O17 0.059398 0.599445 0.851922
O O18 0.500000 0.500000 0.893602
O O19 0.579654 0.250000 0.929708
O O20 0.258398 0.250000 0.581363
#
# Coordination Sequence:
#
# PCOD8181441 Si02
#       8
#     8   8   8   8   8   8   4   8
#     4  11  25  43  62  85 115 155 201 249 297 347
#     4  11  21  36  59  86 117 154 194 239 292 354
#     4  10  20  35  55  83 117 151 188 237 289 341
#     4  10  21  35  54  80 114 152 190 231 287 347
#     4  11  22  38  62  85 111 151 200 246 290 342
#     4  11  20  32  53  82 119 156 193 233 284 347
#     4  10  22  36  56  84 116 150 194 242 286 346
#     4  11  24  40  58  85 120 156 196 245 296 352
#
# _framework density 19.801677000000002
#
# number of rings (size 3 to 8) (size 9 to 14) (size 15 to 20)
#    0.000    1.333    2.000    5.200    0.933    5.867 
#    0.000    0.000    0.000    0.800    0.000    1.867 
#    0.000    0.000    0.000    0.000    0.000    0.000 
#
# Total GULP energy -371790.594043 kJ/mol
# GULP energy per Si atom -12393.019801 kJ/mol
# Density = 1.975661 g / cm^3
# Si number density = 19.801677 Si / 1000 Ang^3
#
#
#
# Elastic Constant Matrix: (Units=GPa)
#
#
# Indices 1 2 3 4 5 6 
#
# 1 139.8341 63.0313 38.7777 0.0000 0.0000 0.0000
# 2 63.0313 152.6845 29.0559 0.0000 0.0000 0.0000
# 3 38.7777 29.0559 49.1922 0.0000 0.0000 0.0000
# 4 0.0000 0.0000 0.0000 21.1335 0.0000 0.0000
# 5 0.0000 0.0000 0.0000 0.0000 26.8428 0.0000
# 6 0.0000 0.0000 0.0000 0.0000 0.0000 27.3205
#
#
#
# Elastic Compliance Matrix: (Units=1/GPa)
#
#
# Indices 1 2 3 4 5 6 
#
# 1 0.010269 -0.003040 -0.006299 0.000000 0.000000 0.000000
# 2 -0.003040 0.008279 -0.002493 0.000000 0.000000 0.000000
# 3 -0.006299 -0.002493 0.026766 0.000000 0.000000 0.000000
# 4 0.000000 0.000000 0.000000 0.047318 0.000000 0.000000
# 5 0.000000 0.000000 0.000000 0.000000 0.037254 0.000000
# 6 0.000000 0.000000 0.000000 0.000000 0.000000 0.036602
#
#
# Mechanical properties :
#
#
# Convention : Reuss Voigt Hill
#
# Bulk Modulus (GPa) = 46.19164 67.04894 56.62029
# Shear Modulus (GPa) = 25.33311 29.11576 27.22443
#
# Velocity S-wave (km/s) = 3.58067 3.83870 3.71193
# Velocity P-wave (km/s) = 6.36182 7.31992 6.85762
#
# Compressibility (1/GPa) = 0.02164894
#
# Stress axis : x y z
#
# Youngs Moduli (GPa) = 97.38483 120.78619 37.36025
#
# Poissons Ratio (x) = 0.36724 0.23532
# Poissons Ratio (y) = 0.29609 0.09315
# Poissons Ratio (z) = 0.61340 0.30117
#
# Static dielectric constant tensor:
#      x y z
#    x 3.740140 0.000000 0.000000 
#    y 0.000000 3.145170 0.000000 
#    z 0.000000 0.000000 3.270590 
# 
# 
# High freq. dielectric constant tensor:
#      x y z
#    x 1.786620 0.000000 0.000000 
#    y 0.000000 1.784840 0.000000 
#    z 0.000000 0.000000 1.728440 
# 
# From -- ./inp_files/16101.got.cif
#   From: 2010.03.12/outbox.cif.g09.slc.cpg/sg39_9_cif.got.tgz:16101.got - 2010.04.14 02:53:20.
