data_PCOD8181567
_publ_section_title
;
Structure prediction by ZEFSAII (Michael W. Deem and Ramdas Pophale) SiO2 
 PCOD8181567
Probable space group: A B M 2
;
_chemical_formula_sum "Si O2"
_cell_formula_units_Z 64
_cell_length_a 24.033822
_cell_length_b 8.497959
_cell_length_c 15.511401
_cell_angle_alpha 90.000000
_cell_angle_beta 90.000000
_cell_angle_gamma 90.000000
_cell_volume 3168.024249
_symmetry_space_group_name_H-M "A B M 2"
_symmetry_group_IT_number 39
_symmetry_cell_setting 'orthorhombic'
loop_
_space_group_symop_operation_xyz
x,y,z
-x,-y,z
-x,1/2+y,z
x,1/2-y,z
x,1/2+y,1/2+z
-x,1/2-y,1/2+z
-x,y,1/2+z
x,-y,1/2+z
loop_
_atom_site_type_symbol
_atom_site_label
_atom_site_fract_x
_atom_site_fract_y
_atom_site_fract_z
Si Si1 0.251914 0.570782 0.012170
Si Si2 0.126543 0.931402 0.024666
Si Si3 0.628514 0.061960 0.273129
Si Si4 0.866894 0.063321 0.336156
Si Si5 0.561072 0.436334 0.929274
Si Si6 0.255224 0.569933 0.333990
Si Si7 0.938605 0.565915 0.181600
Si Si8 0.633552 0.566970 0.585090
O O1 0.257223 0.750000 0.976763
O O2 0.299947 0.535229 0.081698
O O3 0.190992 0.545525 0.052607
O O4 0.261993 0.448275 0.936090
O O5 0.108547 0.750000 0.033038
O O6 0.114994 0.986109 0.926796
O O7 0.091146 0.034005 0.090818
O O8 0.628879 0.250000 0.281978
O O9 0.690608 0.991193 0.290355
O O10 0.611651 0.004245 0.177149
O O11 0.583420 0.992216 0.337369
O O12 0.865427 0.250000 0.349802
O O13 0.805316 0.998402 0.308433
O O14 0.909204 0.019830 0.261278
O O15 0.500000 0.500000 0.945308
O O16 0.560465 0.250000 0.930154
O O17 0.600237 0.509315 0.004982
O O18 0.255025 0.750000 0.306588
O O19 0.939294 0.750000 0.200376
O O20 0.000000 0.500000 0.174685
O O21 0.621295 0.750000 0.580257
#
# Coordination Sequence:
#
# PCOD8181567 Si02
#       8
#     8   8   8   8   8   8   8   8
#     4   9  17  33  59  86 120 157 194 236 290 355
#     4  10  21  38  63  93 125 163 203 249 306 364
#     4  10  20  36  59  88 119 154 194 238 292 351
#     4  10  21  39  62  92 127 164 204 249 304 364
#     4  11  23  41  61  82 114 155 200 247 295 349
#     4   9  18  32  57  88 123 156 191 238 293 353
#     4  12  26  44  64  89 122 162 211 259 305 365
#     4   9  19  35  58  86 117 154 193 236 290 350
#
# _framework density 20.201865999999999
#
# number of rings (size 3 to 8) (size 9 to 14) (size 15 to 20)
#    0.000    2.000    1.250    2.250    1.750    2.000 
#    0.000    5.625    0.000    0.000    0.000    0.000 
#    0.000    0.000    0.000    0.000    0.000    0.000 
#
# Total GULP energy -396669.057136 kJ/mol
# GULP energy per Si atom -12395.908035 kJ/mol
# Density = 2.015589 g / cm^3
# Si number density = 20.201866 Si / 1000 Ang^3
#
#
#
# Elastic Constant Matrix: (Units=GPa)
#
#
# Indices 1 2 3 4 5 6 
#
# 1 120.6460 19.5540 55.4421 0.0000 0.0000 0.0000
# 2 19.5540 45.0368 13.6865 0.0000 0.0000 0.0000
# 3 55.4421 13.6865 110.3751 0.0000 0.0000 0.0000
# 4 0.0000 0.0000 0.0000 29.3845 0.0000 0.0000
# 5 0.0000 0.0000 0.0000 0.0000 32.3188 0.0000
# 6 0.0000 0.0000 0.0000 0.0000 0.0000 22.8997
#
#
#
# Elastic Compliance Matrix: (Units=1/GPa)
#
#
# Indices 1 2 3 4 5 6 
#
# 1 0.011225 -0.003284 -0.005231 0.000000 0.000000 0.000000
# 2 -0.003284 0.024034 -0.001331 0.000000 0.000000 0.000000
# 3 -0.005231 -0.001331 0.011853 0.000000 0.000000 0.000000
# 4 0.000000 0.000000 0.000000 0.034032 0.000000 0.000000
# 5 0.000000 0.000000 0.000000 0.000000 0.030942 0.000000
# 6 0.000000 0.000000 0.000000 0.000000 0.000000 0.043669
#
#
# Mechanical properties :
#
#
# Convention : Reuss Voigt Hill
#
# Bulk Modulus (GPa) = 36.46934 50.38036 43.42485
# Shear Modulus (GPa) = 27.08775 29.41229 28.25002
#
# Velocity S-wave (km/s) = 3.66574 3.81979 3.74356
# Velocity P-wave (km/s) = 6.00071 6.66686 6.34254
#
# Compressibility (1/GPa) = 0.02742030
#
# Stress axis : x y z
#
# Youngs Moduli (GPa) = 89.08774 41.60731 84.36933
#
# Poissons Ratio (x) = 0.13663 0.44135
# Poissons Ratio (y) = 0.29255 0.11227
# Poissons Ratio (z) = 0.46603 0.05537
#
# Static dielectric constant tensor:
#      x y z
#    x 3.793920 0.000000 0.000000 
#    y 0.000000 3.516280 0.000000 
#    z 0.000000 0.000000 3.696090 
# 
# 
# High freq. dielectric constant tensor:
#      x y z
#    x 1.795030 0.000000 0.000000 
#    y 0.000000 1.771020 0.000000 
#    z 0.000000 0.000000 1.789410 
# 
# From -- ./inp_files/10673.got.cif
#   From: 2010.03.12/outbox.cif.g09.slc.cpg/sg39_6_cif.got.tgz:10673.got - 2010.04.14 02:53:20.
