data_PCOD8181824
_publ_section_title
;
Structure prediction by ZEFSAII (Michael W. Deem and Ramdas Pophale) SiO2 
 PCOD8181824
Probable space group: A B M 2
;
_chemical_formula_sum "Si O2"
_cell_formula_units_Z 64
_cell_length_a 12.167671
_cell_length_b 18.117777
_cell_length_c 14.701519
_cell_angle_alpha 90.000000
_cell_angle_beta 90.000000
_cell_angle_gamma 90.000000
_cell_volume 3240.966767
_symmetry_space_group_name_H-M "A B M 2"
_symmetry_group_IT_number 39
_symmetry_cell_setting 'orthorhombic'
loop_
_space_group_symop_operation_xyz
x,y,z
-x,-y,z
-x,1/2+y,z
x,1/2-y,z
x,1/2+y,1/2+z
-x,1/2-y,1/2+z
-x,y,1/2+z
x,-y,1/2+z
loop_
_atom_site_type_symbol
_atom_site_label
_atom_site_fract_x
_atom_site_fract_y
_atom_site_fract_z
Si Si1 0.951247 0.920049 0.764780
Si Si2 0.082712 0.436493 0.558883
Si Si3 0.289659 0.554877 0.315381
Si Si4 0.350921 0.668365 0.934888
Si Si5 0.481751 0.833261 0.276322
Si Si6 0.317398 0.017303 0.510079
Si Si7 0.893729 0.665840 0.392520
Si Si8 0.398880 0.953888 0.685992
O O1 0.937811 0.901961 0.658187
O O2 0.834127 0.914121 0.815648
O O3 0.039148 0.863610 0.806209
O O4 0.000000 0.000000 0.781116
O O5 0.198712 0.477125 0.554375
O O6 0.069060 0.372214 0.485828
O O7 0.000000 0.500000 0.532051
O O8 0.368098 0.622359 0.285884
O O9 0.321112 0.523247 0.413747
O O10 0.295856 0.486075 0.243846
O O11 0.342896 0.750000 0.982421
O O12 0.457087 0.667253 0.872261
O O13 0.237549 0.653947 0.878324
O O14 0.365411 0.601256 0.006196
O O15 0.454993 0.750000 0.244017
O O16 0.568785 0.868756 0.204259
O O17 0.388104 0.967197 0.578444
O O18 0.925775 0.750000 0.403513
O O19 0.500000 0.000000 0.727684
#
# Coordination Sequence:
#
# PCOD8181824 Si02
#       8
#     8   8   8   8   8   8   8   8
#     4  11  22  38  62  89 121 155 202 255 309 357
#     4  10  21  37  59  88 117 153 204 256 298 361
#     4  11  22  39  60  91 120 162 205 256 308 369
#     4   9  19  36  60  88 117 158 207 254 306 360
#     4  10  22  41  61  87 126 162 201 253 308 366
#     4  11  20  35  62  87 120 158 206 253 307 368
#     4  10  21  37  58  87 122 161 201 246 306 370
#     4  10  22  36  58  89 120 158 208 248 303 361
#
# _framework density 19.747194
#
# number of rings (size 3 to 8) (size 9 to 14) (size 15 to 20)
#    0.000    1.750    2.500    2.625    1.750    1.000 
#    0.000    3.125    0.000    2.250    0.000    0.000 
#    0.000    0.000    0.000    0.000    0.000    0.000 
#
# Total GULP energy -396681.017772 kJ/mol
# GULP energy per Si atom -12396.281805 kJ/mol
# Density = 1.970225 g / cm^3
# Si number density = 19.747194 Si / 1000 Ang^3
#
#
#
# Elastic Constant Matrix: (Units=GPa)
#
#
# Indices 1 2 3 4 5 6 
#
# 1 71.0804 34.1463 19.1806 0.0000 0.0000 0.0000
# 2 34.1463 126.2546 46.9513 0.0000 0.0000 0.0000
# 3 19.1806 46.9513 96.8691 0.0000 0.0000 0.0000
# 4 0.0000 0.0000 0.0000 26.0804 0.0000 0.0000
# 5 0.0000 0.0000 0.0000 0.0000 27.0661 0.0000
# 6 0.0000 0.0000 0.0000 0.0000 0.0000 27.3050
#
#
#
# Elastic Compliance Matrix: (Units=1/GPa)
#
#
# Indices 1 2 3 4 5 6 
#
# 1 0.016309 -0.003916 -0.001331 0.000000 0.000000 0.000000
# 2 -0.003916 0.010602 -0.004363 0.000000 0.000000 0.000000
# 3 -0.001331 -0.004363 0.012702 0.000000 0.000000 0.000000
# 4 0.000000 0.000000 0.000000 0.038343 0.000000 0.000000
# 5 0.000000 0.000000 0.000000 0.000000 0.036947 0.000000
# 6 0.000000 0.000000 0.000000 0.000000 0.000000 0.036623
#
#
# Mechanical properties :
#
#
# Convention : Reuss Voigt Hill
#
# Bulk Modulus (GPa) = 49.03927 54.97340 52.00634
# Shear Modulus (GPa) = 28.16204 29.01870 28.59037
#
# Velocity S-wave (km/s) = 3.78051 3.83758 3.80915
# Velocity P-wave (km/s) = 6.62901 6.89457 6.76309
#
# Compressibility (1/GPa) = 0.02039182
#
# Stress axis : x y z
#
# Youngs Moduli (GPa) = 61.31619 94.32003 78.72946
#
# Poissons Ratio (x) = 0.36933 0.10482
# Poissons Ratio (y) = 0.24010 0.34353
# Poissons Ratio (z) = 0.08163 0.41156
#
# Static dielectric constant tensor:
#      x y z
#    x 3.699010 0.000000 0.000000 
#    y 0.000000 3.654010 0.000000 
#    z 0.000000 0.000000 3.444990 
# 
# 
# High freq. dielectric constant tensor:
#      x y z
#    x 1.777830 0.000000 0.000000 
#    y 0.000000 1.763370 0.000000 
#    z 0.000000 0.000000 1.759020 
# 
# From -- ./inp_files/9432.got.cif
#   From: 2010.03.12/outbox.cif.g09.slc.cpg/sg39_5_cif.got.tgz:9432.got - 2010.04.14 02:53:20.
