data_PCOD8181189
_publ_section_title
;
Structure prediction by ZEFSAII (Michael W. Deem and Ramdas Pophale) SiO2 
 PCOD8181189
Probable space group: A B M 2
;
_chemical_formula_sum "Si O2"
_cell_formula_units_Z 56
_cell_length_a 14.470167
_cell_length_b 8.750334
_cell_length_c 25.028112
_cell_angle_alpha 90.000000
_cell_angle_beta 90.000000
_cell_angle_gamma 90.000000
_cell_volume 3169.029365
_symmetry_space_group_name_H-M "A B M 2"
_symmetry_group_IT_number 39
_symmetry_cell_setting 'orthorhombic'
loop_
_space_group_symop_operation_xyz
x,y,z
-x,-y,z
-x,1/2+y,z
x,1/2-y,z
x,1/2+y,1/2+z
-x,1/2-y,1/2+z
-x,y,1/2+z
x,-y,1/2+z
loop_
_atom_site_type_symbol
_atom_site_label
_atom_site_fract_x
_atom_site_fract_y
_atom_site_fract_z
Si Si1 0.786695 0.069282 0.957840
Si Si2 0.898890 0.068753 0.061618
Si Si3 0.902763 0.429647 0.245636
Si Si4 0.593921 0.429178 0.001372
Si Si5 0.903982 0.427549 0.369251
Si Si6 0.781730 0.068872 0.657465
Si Si7 0.404337 0.931035 0.124576
O O1 0.788638 0.250000 0.952166
O O2 0.819643 0.995155 0.902871
O O3 0.852677 0.016541 0.006174
O O4 0.682446 0.010546 0.968603
O O5 0.903700 0.250000 0.066528
O O6 0.837837 0.007222 0.109693
O O7 0.000000 0.000000 0.065275
O O8 0.902949 0.250000 0.233122
O O9 0.884439 0.464952 0.307647
O O10 0.822717 0.514832 0.213760
O O11 0.000000 0.500000 0.227108
O O12 0.500000 0.500000 0.977465
O O13 0.584831 0.250000 0.996284
O O14 0.607944 0.477313 0.062748
O O15 0.911850 0.250000 0.380413
O O16 0.000000 0.500000 0.388706
O O17 0.786283 0.250000 0.652249
O O18 0.676785 0.011120 0.657426
O O19 0.401473 0.750000 0.133230
O O20 0.500000 0.000000 0.146642
#
# Coordination Sequence:
#
# PCOD8181189 Si02
#       7
#     8   8   8   8   8   8   8
#     4  10  20  35  54  77 108 142 176 217 266 316
#     4  11  22  36  50  73 109 145 177 215 265 322
#     4  10  21  38  57  78 106 140 180 226 270 320
#     4   9  18  33  52  77 106 140 176 215 260 311
#     4  10  21  36  56  80 105 139 181 223 268 316
#     4  12  23  35  54  80 107 142 181 220 270 320
#     4  10  19  35  55  79 110 142 179 220 265 319
#
# _framework density 17.671026999999999
#
# number of rings (size 3 to 8) (size 9 to 14) (size 15 to 20)
#    0.000    1.714    1.429    3.857    0.000    5.143 
#    0.000    0.000    0.000    0.857    0.000    2.000 
#    0.000    0.000    0.000    0.000    0.000    0.000 
#
# Total GULP energy -347313.135216 kJ/mol
# GULP energy per Si atom -12404.040543 kJ/mol
# Density = 1.763081 g / cm^3
# Si number density = 17.671027 Si / 1000 Ang^3
#
#
#
# Elastic Constant Matrix: (Units=GPa)
#
#
# Indices 1 2 3 4 5 6 
#
# 1 158.5505 46.0914 56.9515 0.0000 0.0000 0.0000
# 2 46.0914 68.9764 31.4210 0.0000 0.0000 0.0000
# 3 56.9515 31.4210 70.5950 0.0000 0.0000 0.0000
# 4 0.0000 0.0000 0.0000 27.4623 0.0000 0.0000
# 5 0.0000 0.0000 0.0000 0.0000 29.0204 0.0000
# 6 0.0000 0.0000 0.0000 0.0000 0.0000 35.5973
#
#
#
# Elastic Compliance Matrix: (Units=1/GPa)
#
#
# Indices 1 2 3 4 5 6 
#
# 1 0.009544 -0.003600 -0.006097 0.000000 0.000000 0.000000
# 2 -0.003600 0.019543 -0.005794 0.000000 0.000000 0.000000
# 3 -0.006097 -0.005794 0.021663 0.000000 0.000000 0.000000
# 4 0.000000 0.000000 0.000000 0.036414 0.000000 0.000000
# 5 0.000000 0.000000 0.000000 0.000000 0.034458 0.000000
# 6 0.000000 0.000000 0.000000 0.000000 0.000000 0.028092
#
#
# Mechanical properties :
#
#
# Convention : Reuss Voigt Hill
#
# Bulk Modulus (GPa) = 50.58855 63.00554 56.79705
# Shear Modulus (GPa) = 26.69742 29.32654 28.01198
#
# Velocity S-wave (km/s) = 3.89112 4.07822 3.98577
# Velocity P-wave (km/s) = 6.99127 7.60973 7.30704
#
# Compressibility (1/GPa) = 0.01976732
#
# Stress axis : x y z
#
# Youngs Moduli (GPa) = 104.78136 51.17025 46.16214
#
# Poissons Ratio (x) = 0.18421 0.28145
# Poissons Ratio (y) = 0.37720 0.26746
# Poissons Ratio (z) = 0.63885 0.29648
#
# Static dielectric constant tensor:
#      x y z
#    x 3.524100 0.000000 0.000000 
#    y 0.000000 3.332330 0.000000 
#    z 0.000000 0.000000 3.196260 
# 
# 
# High freq. dielectric constant tensor:
#      x y z
#    x 1.691150 0.000000 0.000000 
#    y 0.000000 1.694660 0.000000 
#    z 0.000000 0.000000 1.663860 
# 
# From -- ./inp_files/14785.got.cif
#   From: 2010.03.12/outbox.cif.g09.slc.cpg/sg39_8_cif.got.tgz:14785.got - 2010.04.14 02:53:20.
