data_PCOD8181469
_publ_section_title
;
Structure prediction by ZEFSAII (Michael W. Deem and Ramdas Pophale) SiO2 
 PCOD8181469
Probable space group: A B M 2
;
_chemical_formula_sum "Si O2"
_cell_formula_units_Z 64
_cell_length_a 14.980328
_cell_length_b 8.934284
_cell_length_c 24.566685
_cell_angle_alpha 90.000000
_cell_angle_beta 90.000000
_cell_angle_gamma 90.000000
_cell_volume 3287.968387
_symmetry_space_group_name_H-M "A B M 2"
_symmetry_group_IT_number 39
_symmetry_cell_setting 'orthorhombic'
loop_
_space_group_symop_operation_xyz
x,y,z
-x,-y,z
-x,1/2+y,z
x,1/2-y,z
x,1/2+y,1/2+z
-x,1/2-y,1/2+z
-x,y,1/2+z
x,-y,1/2+z
loop_
_atom_site_type_symbol
_atom_site_label
_atom_site_fract_x
_atom_site_fract_y
_atom_site_fract_z
Si Si1 0.404310 0.575099 0.785030
Si Si2 0.746606 0.924695 0.198983
Si Si3 0.904265 0.425511 0.011969
Si Si4 0.904224 0.426697 0.776566
Si Si5 0.741874 0.426979 0.083826
Si Si6 0.595587 0.075495 0.389738
Si Si7 0.906752 0.576437 0.394483
Si Si8 0.596084 0.074885 0.509879
O O1 0.500000 0.500000 0.773564
O O2 0.417510 0.750000 0.795210
O O3 0.342113 0.544120 0.733512
O O4 0.354981 0.505263 0.838942
O O5 0.754316 0.750000 0.183674
O O6 0.833073 0.980712 0.232264
O O7 0.741482 0.025849 0.146102
O O8 0.920280 0.250000 0.017828
O O9 0.834213 0.483319 0.056736
O O10 0.000000 0.500000 0.022149
O O11 0.859188 0.463335 0.952168
O O12 0.917074 0.250000 0.772972
O O13 0.863781 0.473663 0.836602
O O14 0.000000 0.500000 0.764891
O O15 0.731106 0.250000 0.078265
O O16 0.659329 0.504025 0.054508
O O17 0.587105 0.250000 0.376840
O O18 0.638726 0.048083 0.449334
O O19 0.500000 0.000000 0.390891
O O20 0.925189 0.750000 0.391285
O O21 0.000000 0.500000 0.399736
O O22 0.584825 0.250000 0.521507
O O23 0.500000 0.000000 0.515009
#
# Coordination Sequence:
#
# PCOD8181469 Si02
#       8
#     8   8   8   8   8   8   8   8
#     4  10  20  35  57  82 109 143 179 220 271 323
#     4  10  23  40  55  75 106 146 189 229 274 327
#     4   9  19  35  56  82 110 142 179 222 274 328
#     4   9  18  34  56  80 106 138 174 217 271 327
#     4  11  24  39  56  80 109 145 191 237 277 323
#     4   9  17  31  54  84 114 142 174 215 266 324
#     4   8  14  28  51  78 106 133 168 214 266 327
#     4  10  21  38  60  85 114 147 181 222 274 329
#
# _framework density 19.464905999999999
#
# number of rings (size 3 to 8) (size 9 to 14) (size 15 to 20)
#    0.000    2.500    0.000    2.250    0.000    6.000 
#    0.000    6.250    0.000    6.000    0.000    0.000 
#    0.000    0.000    0.000    0.000    0.000    0.000 
#
# Total GULP energy -396452.597148 kJ/mol
# GULP energy per Si atom -12389.143661 kJ/mol
# Density = 1.942060 g / cm^3
# Si number density = 19.464906 Si / 1000 Ang^3
#
#
#
# Elastic Constant Matrix: (Units=GPa)
#
#
# Indices 1 2 3 4 5 6 
#
# 1 99.2470 44.4333 67.5750 0.0000 0.0000 0.0000
# 2 44.4333 80.1994 60.4722 0.0000 0.0000 0.0000
# 3 67.5750 60.4722 158.8895 0.0000 0.0000 0.0000
# 4 0.0000 0.0000 0.0000 19.3892 0.0000 0.0000
# 5 0.0000 0.0000 0.0000 0.0000 68.7848 0.0000
# 6 0.0000 0.0000 0.0000 0.0000 0.0000 23.9865
#
#
#
# Elastic Compliance Matrix: (Units=1/GPa)
#
#
# Indices 1 2 3 4 5 6 
#
# 1 0.015532 -0.005083 -0.004671 0.000000 0.000000 0.000000
# 2 -0.005083 0.019151 -0.005127 0.000000 0.000000 0.000000
# 3 -0.004671 -0.005127 0.010232 0.000000 0.000000 0.000000
# 4 0.000000 0.000000 0.000000 0.051575 0.000000 0.000000
# 5 0.000000 0.000000 0.000000 0.000000 0.014538 0.000000
# 6 0.000000 0.000000 0.000000 0.000000 0.000000 0.041690
#
#
# Mechanical properties :
#
#
# Convention : Reuss Voigt Hill
#
# Bulk Modulus (GPa) = 65.99676 75.92188 70.95932
# Shear Modulus (GPa) = 26.66228 33.48914 30.07571
#
# Velocity S-wave (km/s) = 3.70504 4.15238 3.93507
# Velocity P-wave (km/s) = 7.23065 7.87901 7.56178
#
# Compressibility (1/GPa) = 0.01515226
#
# Stress axis : x y z
#
# Youngs Moduli (GPa) = 64.38287 52.21663 97.73721
#
# Poissons Ratio (x) = 0.26543 0.45654
# Poissons Ratio (y) = 0.32727 0.50109
# Poissons Ratio (z) = 0.30074 0.26771
#
# Static dielectric constant tensor:
#      x y z
#    x 3.347340 0.000000 0.000000 
#    y 0.000000 3.335740 0.000000 
#    z 0.000000 0.000000 4.199240 
# 
# 
# High freq. dielectric constant tensor:
#      x y z
#    x 1.737530 0.000000 0.000000 
#    y 0.000000 1.759950 0.000000 
#    z 0.000000 0.000000 1.773870 
# 
# From -- ./inp_files/16215.got.cif
#   From: 2010.03.12/outbox.cif.g09.slc.cpg/sg39_9_cif.got.tgz:16215.got - 2010.04.14 02:53:20.
