data_PCOD8181817
_publ_section_title
;
Structure prediction by ZEFSAII (Michael W. Deem and Ramdas Pophale) SiO2 
 PCOD8181817
Probable space group: A B M 2
;
_chemical_formula_sum "Si O2"
_cell_formula_units_Z 36
_cell_length_a 7.677652
_cell_length_b 15.892758
_cell_length_c 14.892398
_cell_angle_alpha 90.000000
_cell_angle_beta 90.000000
_cell_angle_gamma 90.000000
_cell_volume 1817.156483
_symmetry_space_group_name_H-M "A B M 2"
_symmetry_group_IT_number 39
_symmetry_cell_setting 'orthorhombic'
loop_
_space_group_symop_operation_xyz
x,y,z
-x,-y,z
-x,1/2+y,z
x,1/2-y,z
x,1/2+y,1/2+z
-x,1/2-y,1/2+z
-x,y,1/2+z
x,-y,1/2+z
loop_
_atom_site_type_symbol
_atom_site_label
_atom_site_fract_x
_atom_site_fract_y
_atom_site_fract_z
Si Si1 0.596309 0.346802 0.514400
Si Si2 0.652027 0.060448 0.328736
Si Si3 0.307755 0.653162 0.147710
Si Si4 0.000000 0.500000 0.899275
Si Si5 0.014363 0.846150 0.530648
O O1 0.553217 0.250000 0.492922
O O2 0.595575 0.394983 0.420432
O O3 0.450852 0.388298 0.580009
O O4 0.785291 0.356202 0.562052
O O5 0.677995 0.126464 0.249847
O O6 0.500000 0.000000 0.296469
O O7 0.829598 0.008077 0.338375
O O8 0.353802 0.750000 0.146382
O O9 0.111832 0.634421 0.114147
O O10 0.027918 0.585771 0.954780
O O11 0.983168 0.750000 0.494511
#
# Coordination Sequence:
#
# PCOD8181817 Si02
#       5
#     8   8   8   4   8
#     4   9  19  38  60  80 108 146 187 233 283 333
#     4  11  23  36  54  84 115 147 187 231 279 336
#     4  10  21  37  58  83 112 148 189 233 282 336
#     4  10  22  38  58  84 114 150 190 232 282 336
#     4   9  19  37  60  83 109 147 191 234 283 335
#
# _framework density 19.811171000000002
#
# number of rings (size 3 to 8) (size 9 to 14) (size 15 to 20)
#    0.000    2.222    0.000    2.000    0.000    8.000 
#    0.000    1.111    0.000   10.667    0.000    0.000 
#    0.000    0.000    0.000    0.000    0.000    0.000 
#
# Total GULP energy -223152.900399 kJ/mol
# GULP energy per Si atom -12397.383356 kJ/mol
# Density = 1.976608 g / cm^3
# Si number density = 19.811171 Si / 1000 Ang^3
#
#
#
# Elastic Constant Matrix: (Units=GPa)
#
#
# Indices 1 2 3 4 5 6 
#
# 1 115.1400 34.2006 51.4150 0.0000 0.0000 0.0000
# 2 34.2006 52.4723 24.5839 0.0000 0.0000 0.0000
# 3 51.4150 24.5839 103.3180 0.0000 0.0000 0.0000
# 4 0.0000 0.0000 0.0000 25.4546 0.0000 0.0000
# 5 0.0000 0.0000 0.0000 0.0000 11.7186 0.0000
# 6 0.0000 0.0000 0.0000 0.0000 0.0000 27.2697
#
#
#
# Elastic Compliance Matrix: (Units=1/GPa)
#
#
# Indices 1 2 3 4 5 6 
#
# 1 0.012626 -0.005949 -0.004868 0.000000 0.000000 0.000000
# 2 -0.005949 0.024252 -0.002810 0.000000 0.000000 0.000000
# 3 -0.004868 -0.002810 0.012770 0.000000 0.000000 0.000000
# 4 0.000000 0.000000 0.000000 0.039286 0.000000 0.000000
# 5 0.000000 0.000000 0.000000 0.000000 0.085335 0.000000
# 6 0.000000 0.000000 0.000000 0.000000 0.000000 0.036671
#
#
# Mechanical properties :
#
#
# Convention : Reuss Voigt Hill
#
# Bulk Modulus (GPa) = 44.65461 54.59215 49.62338
# Shear Modulus (GPa) = 20.35371 23.60395 21.97883
#
# Velocity S-wave (km/s) = 3.20876 3.45548 3.33440
# Velocity P-wave (km/s) = 6.02638 6.59822 6.31877
#
# Compressibility (1/GPa) = 0.02239410
#
# Stress axis : x y z
#
# Youngs Moduli (GPa) = 79.20406 41.23446 78.30973
#
# Poissons Ratio (x) = 0.24529 0.38118
# Poissons Ratio (y) = 0.47116 0.22007
# Poissons Ratio (z) = 0.38553 0.11588
#
# Static dielectric constant tensor:
#      x y z
#    x 3.991100 0.000000 0.000000 
#    y 0.000000 3.635670 0.000000 
#    z 0.000000 0.000000 3.353190 
# 
# 
# High freq. dielectric constant tensor:
#      x y z
#    x 1.792480 0.000000 0.000000 
#    y 0.000000 1.775190 0.000000 
#    z 0.000000 0.000000 1.751720 
# 
# From -- ./inp_files/7990.got.cif
#   From: 2010.03.12/outbox.cif.g09.slc.cpg/sg39_4_cif.got.tgz:7990.got - 2010.04.14 02:53:20.
