data_PCOD8181669
_publ_section_title
;
Structure prediction by ZEFSAII (Michael W. Deem and Ramdas Pophale) SiO2 
 PCOD8181669
Probable space group: A B M 2
;
_chemical_formula_sum "Si O2"
_cell_formula_units_Z 56
_cell_length_a 5.039611
_cell_length_b 16.836224
_cell_length_c 31.674620
_cell_angle_alpha 90.000000
_cell_angle_beta 90.000000
_cell_angle_gamma 90.000000
_cell_volume 2687.528781
_symmetry_space_group_name_H-M "A B M 2"
_symmetry_group_IT_number 39
_symmetry_cell_setting 'orthorhombic'
loop_
_space_group_symop_operation_xyz
x,y,z
-x,-y,z
-x,1/2+y,z
x,1/2-y,z
x,1/2+y,1/2+z
-x,1/2-y,1/2+z
-x,y,1/2+z
x,-y,1/2+z
loop_
_atom_site_type_symbol
_atom_site_label
_atom_site_fract_x
_atom_site_fract_y
_atom_site_fract_z
Si Si1 0.292944 0.844570 0.790070
Si Si2 0.915972 0.909283 0.926746
Si Si3 0.250000 0.553151 0.515119
Si Si4 0.409704 0.657776 0.883803
Si Si5 0.792944 0.344570 0.240169
Si Si6 0.090299 0.657776 0.146435
Si Si7 0.415970 0.409283 0.103493
O O1 0.294709 0.750000 0.790097
O O2 0.325704 0.874893 0.837851
O O3 0.522516 0.878109 0.759712
O O4 0.022516 0.878109 0.770527
O O5 0.667394 0.891270 0.897093
O O6 0.164975 0.853805 0.915711
O O7 0.835031 0.892519 0.975442
O O8 0.000000 0.000000 0.920681
O O9 0.500000 0.500000 0.500429
O O10 0.335032 0.607481 0.554796
O O11 0.000000 0.500000 0.529809
O O12 0.488853 0.750000 0.882637
O O13 0.794710 0.250000 0.240142
O O14 0.825703 0.374893 0.192388
O O15 0.011147 0.750000 0.147602
O O16 0.335031 0.646196 0.114528
O O17 0.832613 0.608728 0.133144
O O18 0.500000 0.500000 0.109557
#
# Coordination Sequence:
#
# PCOD8181669 Si02
#       7
#     8   8   8   8   8   8   8
#     4   9  17  31  53  79 108 147 191 229 269 330
#     4  11  22  39  61  84 113 153 194 233 282 343
#     4  10  20  38  61  84 109 150 202 234 264 340
#     4  11  22  37  59  89 119 146 188 243 291 332
#     4   9  17  31  53  79 108 147 191 229 269 330
#     4  11  22  37  59  89 119 146 188 243 291 332
#     4  11  22  39  61  84 113 153 194 233 282 343
#
# _framework density 20.836984999999999
#
# number of rings (size 3 to 8) (size 9 to 14) (size 15 to 20)
#    0.000    1.714    0.000    6.857    0.000    4.571 
#    0.000    4.286    0.000   17.143    0.000    0.000 
#    0.000    0.000    0.000    0.000    0.000    0.000 
#
# Total GULP energy -347259.426949 kJ/mol
# GULP energy per Si atom -12402.122391 kJ/mol
# Density = 2.078956 g / cm^3
# Si number density = 20.836985 Si / 1000 Ang^3
#
#
#
# Elastic Constant Matrix: (Units=GPa)
#
#
# Indices 1 2 3 4 5 6 
#
# 1 116.8158 11.5672 23.3376 0.0000 0.0000 0.0000
# 2 11.5672 31.5272 36.0909 0.0000 0.0000 0.0000
# 3 23.3376 36.0909 112.6979 0.0000 0.0000 0.0000
# 4 0.0000 0.0000 0.0000 -13.7307 0.0000 0.0000
# 5 0.0000 0.0000 0.0000 0.0000 46.1084 0.0000
# 6 0.0000 0.0000 0.0000 0.0000 0.0000 34.0013
#
#
#
# Elastic Compliance Matrix: (Units=1/GPa)
#
#
# Indices 1 2 3 4 5 6 
#
# 1 0.008997 -0.001844 -0.001273 0.000000 0.000000 0.000000
# 2 -0.001844 0.050455 -0.015776 0.000000 0.000000 0.000000
# 3 -0.001273 -0.015776 0.014189 0.000000 0.000000 0.000000
# 4 0.000000 0.000000 0.000000 -0.072830 0.000000 0.000000
# 5 0.000000 0.000000 0.000000 0.000000 0.021688 0.000000
# 6 0.000000 0.000000 0.000000 0.000000 0.000000 0.029411
#
#
# Mechanical properties :
#
#
# Convention : Reuss Voigt Hill
#
# Bulk Modulus (GPa) = 27.88973 44.78136 36.33554
# Shear Modulus (GPa) = 49.18950 25.94549 37.56750
#
# Velocity S-wave (km/s) = 4.86396 3.53252 4.25069
# Velocity P-wave (km/s) = 6.70506 6.17869 6.44725
#
# Compressibility (1/GPa) = 0.03585550
#
# Stress axis : x y z
#
# Youngs Moduli (GPa) = 111.14398 19.81968 70.47729
#
# Poissons Ratio (x) = 0.03655 0.08968
# Poissons Ratio (y) = 0.20499 1.11185
# Poissons Ratio (z) = 0.14143 0.31267
#
# Static dielectric constant tensor:
#      x y z
#    x 4.068640 0.000000 0.000000 
#    y 0.000000 3.316320 0.000000 
#    z 0.000000 0.000000 4.039310 
# 
# 
# High freq. dielectric constant tensor:
#      x y z
#    x 1.840850 0.000000 0.000000 
#    y 0.000000 1.767030 0.000000 
#    z 0.000000 0.000000 1.830400 
# 
# From -- ./inp_files/17273.got.cif
#   From: 2010.03.12/outbox.cif.g09.slc.cpg/sg39_9_cif.got.tgz:17273.got - 2010.04.14 02:53:20.
