data_PCOD8181869
_publ_section_title
;
Structure prediction by ZEFSAII (Michael W. Deem and Ramdas Pophale) SiO2 
 PCOD8181869
Probable space group: A B M 2
;
_chemical_formula_sum "Si O2"
_cell_formula_units_Z 36
_cell_length_a 6.925448
_cell_length_b 10.358713
_cell_length_c 23.222180
_cell_angle_alpha 90.000000
_cell_angle_beta 90.000000
_cell_angle_gamma 90.000000
_cell_volume 1665.929660
_symmetry_space_group_name_H-M "A B M 2"
_symmetry_group_IT_number 39
_symmetry_cell_setting 'orthorhombic'
loop_
_space_group_symop_operation_xyz
x,y,z
-x,-y,z
-x,1/2+y,z
x,1/2-y,z
x,1/2+y,1/2+z
-x,1/2-y,1/2+z
-x,y,1/2+z
x,-y,1/2+z
loop_
_atom_site_type_symbol
_atom_site_label
_atom_site_fract_x
_atom_site_fract_y
_atom_site_fract_z
Si Si1 0.000000 0.000000 0.774821
Si Si2 0.653246 0.605905 0.067436
Si Si3 0.331931 0.396796 0.197759
Si Si4 0.348186 0.107331 0.842497
Si Si5 0.139640 0.390592 0.952851
O O1 0.863049 0.910926 0.814203
O O2 0.139674 0.913196 0.735295
O O3 0.500000 0.500000 0.049712
O O4 0.562076 0.750000 0.063319
O O5 0.732735 0.580260 0.131541
O O6 0.820402 0.590980 0.020411
O O7 0.500000 0.500000 0.214468
O O8 0.411025 0.250000 0.205955
O O9 0.425993 0.250000 0.824936
O O10 0.328588 0.099938 0.911968
O O11 0.500000 0.000000 0.820495
O O12 0.042467 0.250000 0.943645
O O13 0.000000 0.500000 0.930056
#
# Coordination Sequence:
#
# PCOD8181869 Si02
#       5
#     4   8   8   8   8
#     4  12  24  40  64  92 122 166 208 262 298 362
#     4   9  19  37  60  88 121 155 197 246 302 363
#     4  10  23  42  64  92 125 163 207 255 306 363
#     4  11  25  43  64  92 124 162 206 255 309 366
#     4  10  21  38  61  91 123 156 199 249 305 367
#
# _framework density 21.609556000000001
#
# number of rings (size 3 to 8) (size 9 to 14) (size 15 to 20)
#    0.000    1.778    1.111    2.000    1.556    7.111 
#    0.000    0.000    0.000    0.000    0.000    0.000 
#    0.000    0.000    0.000    0.000    0.000    0.000 
#
# Total GULP energy -223086.416582 kJ/mol
# GULP energy per Si atom -12393.689810 kJ/mol
# Density = 2.156037 g / cm^3
# Si number density = 21.609556 Si / 1000 Ang^3
#
#
#
# Elastic Constant Matrix: (Units=GPa)
#
#
# Indices 1 2 3 4 5 6 
#
# 1 97.8565 69.7595 37.7427 0.0000 0.0000 0.0000
# 2 69.7595 180.3932 36.6619 0.0000 0.0000 0.0000
# 3 37.7427 36.6619 110.2869 0.0000 0.0000 0.0000
# 4 0.0000 0.0000 0.0000 75.5502 0.0000 0.0000
# 5 0.0000 0.0000 0.0000 0.0000 25.7871 0.0000
# 6 0.0000 0.0000 0.0000 0.0000 0.0000 39.2619
#
#
#
# Elastic Compliance Matrix: (Units=1/GPa)
#
#
# Indices 1 2 3 4 5 6 
#
# 1 0.015272 -0.005195 -0.003500 0.000000 0.000000 0.000000
# 2 -0.005195 0.007712 -0.000786 0.000000 0.000000 0.000000
# 3 -0.003500 -0.000786 0.010526 0.000000 0.000000 0.000000
# 4 0.000000 0.000000 0.000000 0.013236 0.000000 0.000000
# 5 0.000000 0.000000 0.000000 0.000000 0.038779 0.000000
# 6 0.000000 0.000000 0.000000 0.000000 0.000000 0.025470
#
#
# Mechanical properties :
#
#
# Convention : Reuss Voigt Hill
#
# Bulk Modulus (GPa) = 68.72925 75.20720 71.96822
# Shear Modulus (GPa) = 37.09053 44.41136 40.75094
#
# Velocity S-wave (km/s) = 4.14743 4.53832 4.34727
# Velocity P-wave (km/s) = 7.40331 7.89557 7.65340
#
# Compressibility (1/GPa) = 0.01454985
#
# Stress axis : x y z
#
# Youngs Moduli (GPa) = 65.47994 129.66911 95.00133
#
# Poissons Ratio (x) = 0.67357 0.33247
# Poissons Ratio (y) = 0.34014 0.07467
# Poissons Ratio (z) = 0.22915 0.10191
#
# Static dielectric constant tensor:
#      x y z
#    x 3.362030 0.000000 0.000000 
#    y 0.000000 4.041750 0.000000 
#    z 0.000000 0.000000 4.160670 
# 
# 
# High freq. dielectric constant tensor:
#      x y z
#    x 1.802280 0.000000 0.000000 
#    y 0.000000 1.862800 0.000000 
#    z 0.000000 0.000000 1.881640 
# 
# From -- ./inp_files/15143.got.cif
#   From: 2010.03.12/outbox.cif.g09.slc.cpg/sg39_8_cif.got.tgz:15143.got - 2010.04.14 02:53:20.
