data_PCOD8181133
_publ_section_title
;
Structure prediction by ZEFSAII (Michael W. Deem and Ramdas Pophale) SiO2 
 PCOD8181133
Probable space group: A B M 2
;
_chemical_formula_sum "Si O2"
_cell_formula_units_Z 64
_cell_length_a 18.988050
_cell_length_b 9.140837
_cell_length_c 19.507806
_cell_angle_alpha 90.000000
_cell_angle_beta 90.000000
_cell_angle_gamma 90.000000
_cell_volume 3385.904926
_symmetry_space_group_name_H-M "A B M 2"
_symmetry_group_IT_number 39
_symmetry_cell_setting 'orthorhombic'
loop_
_space_group_symop_operation_xyz
x,y,z
-x,-y,z
-x,1/2+y,z
x,1/2-y,z
x,1/2+y,1/2+z
-x,1/2-y,1/2+z
-x,y,1/2+z
x,-y,1/2+z
loop_
_atom_site_type_symbol
_atom_site_label
_atom_site_fract_x
_atom_site_fract_y
_atom_site_fract_z
Si Si1 0.427468 0.578097 0.733150
Si Si2 0.302021 0.076209 0.485651
Si Si3 0.572035 0.578760 0.390151
Si Si4 0.687742 0.078209 0.143052
Si Si5 0.158157 0.086768 0.687275
Si Si6 0.074837 0.577351 0.798684
Si Si7 0.066630 0.086550 0.557563
Si Si8 0.846361 0.576237 0.433804
O O1 0.500000 0.500000 0.714505
O O2 0.435879 0.750000 0.720701
O O3 0.406006 0.543891 0.811771
O O4 0.369909 0.515512 0.681991
O O5 0.299392 0.250000 0.482909
O O6 0.367396 0.017969 0.440539
O O7 0.309018 0.023713 0.564231
O O8 0.230868 0.011497 0.450910
O O9 0.500000 0.500000 0.410619
O O10 0.559931 0.750000 0.400674
O O11 0.669517 0.250000 0.146192
O O12 0.760220 0.044227 0.182716
O O13 0.148419 0.250000 0.718589
O O14 0.130493 0.084006 0.610229
O O15 0.114078 0.969586 0.729830
O O16 0.061622 0.750000 0.797494
O O17 0.127458 0.528036 0.859160
O O18 0.000000 0.500000 0.806580
O O19 0.039923 0.250000 0.544070
O O20 0.096352 0.014899 0.487775
O O21 0.000000 0.000000 0.586482
O O22 0.843223 0.750000 0.441318
#
# Coordination Sequence:
#
# PCOD8181133 Si02
#       8
#     8   8   8   8   8   8   8   8
#     4  10  21  37  58  85 116 149 186 227 271 324
#     4   9  17  34  58  82 108 144 185 222 269 327
#     4   9  19  35  58  83 110 144 182 223 266 319
#     4  10  20  36  59  84 113 149 185 227 276 328
#     4  10  21  37  56  80 112 147 184 225 275 332
#     4  11  23  37  57  81 110 145 184 233 282 333
#     4  10  19  34  56  79 103 140 183 224 270 324
#     4   9  18  34  56  80 106 140 184 226 270 328
#
# _framework density 18.901889000000001
#
# number of rings (size 3 to 8) (size 9 to 14) (size 15 to 20)
#    0.000    2.250    1.250    1.500    1.750    3.000 
#    0.000    2.500    0.000    2.250    0.000    0.000 
#    0.000    0.000    0.000    0.000    0.000    0.000 
#
# Total GULP energy -396795.106402 kJ/mol
# GULP energy per Si atom -12399.847075 kJ/mol
# Density = 1.885887 g / cm^3
# Si number density = 18.901889 Si / 1000 Ang^3
#
#
#
# Elastic Constant Matrix: (Units=GPa)
#
#
# Indices 1 2 3 4 5 6 
#
# 1 142.8081 50.9480 60.2401 0.0000 0.0000 0.0000
# 2 50.9480 60.0466 35.7648 0.0000 0.0000 0.0000
# 3 60.2401 35.7648 96.4593 0.0000 0.0000 0.0000
# 4 0.0000 0.0000 0.0000 20.6847 0.0000 0.0000
# 5 0.0000 0.0000 0.0000 0.0000 37.1034 0.0000
# 6 0.0000 0.0000 0.0000 0.0000 0.0000 27.3513
#
#
#
# Elastic Compliance Matrix: (Units=1/GPa)
#
#
# Indices 1 2 3 4 5 6 
#
# 1 0.011404 -0.006974 -0.004536 0.000000 0.000000 0.000000
# 2 -0.006974 0.025639 -0.005151 0.000000 0.000000 0.000000
# 3 -0.004536 -0.005151 0.015110 0.000000 0.000000 0.000000
# 4 0.000000 0.000000 0.000000 0.048345 0.000000 0.000000
# 5 0.000000 0.000000 0.000000 0.000000 0.026952 0.000000
# 6 0.000000 0.000000 0.000000 0.000000 0.000000 0.036561
#
#
# Mechanical properties :
#
#
# Convention : Reuss Voigt Hill
#
# Bulk Modulus (GPa) = 53.10533 65.91330 59.50932
# Shear Modulus (GPa) = 24.55677 27.18528 25.87103
#
# Velocity S-wave (km/s) = 3.60831 3.79652 3.70361
# Velocity P-wave (km/s) = 6.74656 7.35969 7.05979
#
# Compressibility (1/GPa) = 0.01883050
#
# Stress axis : x y z
#
# Youngs Moduli (GPa) = 87.68917 39.00296 66.18267
#
# Poissons Ratio (x) = 0.27201 0.30021
# Poissons Ratio (y) = 0.61156 0.34090
# Poissons Ratio (z) = 0.39776 0.20090
#
# Static dielectric constant tensor:
#      x y z
#    x 3.570560 0.000000 0.000000 
#    y 0.000000 3.192340 0.000000 
#    z 0.000000 0.000000 3.527880 
# 
# 
# High freq. dielectric constant tensor:
#      x y z
#    x 1.746180 0.000000 0.000000 
#    y 0.000000 1.705560 0.000000 
#    z 0.000000 0.000000 1.740890 
# 
# From -- ./inp_files/13163.got.cif
#   From: 2010.03.12/outbox.cif.g09.slc.cpg/sg39_7_cif.got.tgz:13163.got - 2010.04.14 02:53:20.
