data_PCOD8181613
_publ_section_title
;
Structure prediction by ZEFSAII (Michael W. Deem and Ramdas Pophale) SiO2 
 PCOD8181613
Probable space group: A B M 2
;
_chemical_formula_sum "Si O2"
_cell_formula_units_Z 64
_cell_length_a 24.334244
_cell_length_b 8.994527
_cell_length_c 14.687235
_cell_angle_alpha 90.000000
_cell_angle_beta 90.000000
_cell_angle_gamma 90.000000
_cell_volume 3214.668776
_symmetry_space_group_name_H-M "A B M 2"
_symmetry_group_IT_number 39
_symmetry_cell_setting 'orthorhombic'
loop_
_space_group_symop_operation_xyz
x,y,z
-x,-y,z
-x,1/2+y,z
x,1/2-y,z
x,1/2+y,1/2+z
-x,1/2-y,1/2+z
-x,y,1/2+z
x,-y,1/2+z
loop_
_atom_site_type_symbol
_atom_site_label
_atom_site_fract_x
_atom_site_fract_y
_atom_site_fract_z
Si Si1 0.137225 0.074269 0.868590
Si Si2 0.339635 0.420163 0.230541
Si Si3 0.056560 0.925978 0.731779
Si Si4 0.745959 0.575797 0.384703
Si Si5 0.945481 0.578034 0.023656
Si Si6 0.665095 0.074440 0.521390
Si Si7 0.553953 0.581337 0.519966
Si Si8 0.447098 0.084262 0.736840
O O1 0.139063 0.250000 0.851301
O O2 0.107369 0.994807 0.785107
O O3 0.197604 0.010321 0.875836
O O4 0.106259 0.033457 0.962186
O O5 0.358076 0.250000 0.234454
O O6 0.286551 0.452791 0.291159
O O7 0.325675 0.465193 0.127277
O O8 0.390848 0.510689 0.271543
O O9 0.053379 0.750000 0.747587
O O10 0.067294 0.969283 0.626909
O O11 0.000000 0.000000 0.766341
O O12 0.755943 0.750000 0.401724
O O13 0.713815 0.507568 0.469576
O O14 0.958488 0.750000 0.017156
O O15 0.000000 0.500000 0.985550
O O16 0.666817 0.250000 0.502843
O O17 0.607085 0.009561 0.486307
O O18 0.500000 0.500000 0.480026
O O19 0.556969 0.750000 0.482942
O O20 0.551351 0.580265 0.628338
O O21 0.448883 0.250000 0.775249
O O22 0.500000 0.000000 0.777271
#
# Coordination Sequence:
#
# PCOD8181613 Si02
#       8
#     8   8   8   8   8   8   8   8
#     4  11  23  39  58  83 114 151 191 233 277 325
#     4   9  20  38  58  78 107 145 183 225 280 336
#     4  10  20  37  60  88 119 151 185 225 273 326
#     4  11  24  41  58  80 110 147 190 235 278 329
#     4   9  20  37  59  86 118 151 184 223 272 326
#     4  10  20  37  59  81 107 143 183 229 281 334
#     4   9  16  28  49  79 110 141 177 221 274 335
#     4   9  16  27  49  79 109 139 176 221 274 333
#
# _framework density 19.908739000000001
#
# number of rings (size 3 to 8) (size 9 to 14) (size 15 to 20)
#    0.000    2.250    0.000    2.625    0.000    8.000 
#    0.000    5.625    0.000    3.000    0.000    0.000 
#    0.000    0.000    0.000    0.000    0.000    0.000 
#
# Total GULP energy -396901.555788 kJ/mol
# GULP energy per Si atom -12403.173618 kJ/mol
# Density = 1.986343 g / cm^3
# Si number density = 19.908739 Si / 1000 Ang^3
#
#
#
# Elastic Constant Matrix: (Units=GPa)
#
#
# Indices 1 2 3 4 5 6 
#
# 1 158.8621 68.0789 53.8976 0.0000 0.0000 0.0000
# 2 68.0789 113.4825 45.3187 0.0000 0.0000 0.0000
# 3 53.8976 45.3187 71.3267 0.0000 0.0000 0.0000
# 4 0.0000 0.0000 0.0000 26.8000 0.0000 0.0000
# 5 0.0000 0.0000 0.0000 0.0000 38.4845 0.0000
# 6 0.0000 0.0000 0.0000 0.0000 0.0000 44.9123
#
#
#
# Elastic Compliance Matrix: (Units=1/GPa)
#
#
# Indices 1 2 3 4 5 6 
#
# 1 0.009559 -0.003819 -0.004797 0.000000 0.000000 0.000000
# 2 -0.003819 0.013334 -0.005586 0.000000 0.000000 0.000000
# 3 -0.004797 -0.005586 0.021194 0.000000 0.000000 0.000000
# 4 0.000000 0.000000 0.000000 0.037313 0.000000 0.000000
# 5 0.000000 0.000000 0.000000 0.000000 0.025985 0.000000
# 6 0.000000 0.000000 0.000000 0.000000 0.000000 0.022266
#
#
# Mechanical properties :
#
#
# Convention : Reuss Voigt Hill
#
# Bulk Modulus (GPa) = 63.76317 75.36239 69.56278
# Shear Modulus (GPa) = 30.62219 33.79775 32.20997
#
# Velocity S-wave (km/s) = 3.92615 4.12471 4.02665
# Velocity P-wave (km/s) = 7.25604 7.78591 7.52564
#
# Compressibility (1/GPa) = 0.01568304
#
# Stress axis : x y z
#
# Youngs Moduli (GPa) = 104.61758 74.99829 47.18372
#
# Poissons Ratio (x) = 0.28640 0.22632
# Poissons Ratio (y) = 0.39951 0.26357
# Poissons Ratio (z) = 0.50181 0.41895
#
# Static dielectric constant tensor:
#      x y z
#    x 3.652650 0.000000 0.000000 
#    y 0.000000 3.701870 0.000000 
#    z 0.000000 0.000000 3.647720 
# 
# 
# High freq. dielectric constant tensor:
#      x y z
#    x 1.775840 0.000000 0.000000 
#    y 0.000000 1.787900 0.000000 
#    z 0.000000 0.000000 1.772790 
# 
# From -- ./inp_files/10578.got.cif
#   From: 2010.03.12/outbox.cif.g09.slc.cpg/sg39_6_cif.got.tgz:10578.got - 2010.04.14 02:53:20.
