data_PCOD8181542
_publ_section_title
;
Structure prediction by ZEFSAII (Michael W. Deem and Ramdas Pophale) SiO2 
 PCOD8181542
Probable space group: A B M 2
;
_chemical_formula_sum "Si O2"
_cell_formula_units_Z 64
_cell_length_a 19.007658
_cell_length_b 8.963408
_cell_length_c 19.439550
_cell_angle_alpha 90.000000
_cell_angle_beta 90.000000
_cell_angle_gamma 90.000000
_cell_volume 3311.982107
_symmetry_space_group_name_H-M "A B M 2"
_symmetry_group_IT_number 39
_symmetry_cell_setting 'orthorhombic'
loop_
_space_group_symop_operation_xyz
x,y,z
-x,-y,z
-x,1/2+y,z
x,1/2-y,z
x,1/2+y,1/2+z
-x,1/2-y,1/2+z
-x,y,1/2+z
x,-y,1/2+z
loop_
_atom_site_type_symbol
_atom_site_label
_atom_site_fract_x
_atom_site_fract_y
_atom_site_fract_z
Si Si1 0.428160 0.575107 0.733150
Si Si2 0.301559 0.072511 0.487232
Si Si3 0.572271 0.574370 0.389152
Si Si4 0.699827 0.927079 0.136503
Si Si5 0.161915 0.080395 0.679621
Si Si6 0.074562 0.572966 0.793957
Si Si7 0.067895 0.083257 0.551095
Si Si8 0.845068 0.573650 0.428199
O O1 0.500000 0.500000 0.708098
O O2 0.439880 0.750000 0.730442
O O3 0.408683 0.524905 0.811080
O O4 0.367800 0.525127 0.680673
O O5 0.300011 0.250000 0.498139
O O6 0.366787 0.020494 0.440526
O O7 0.232527 0.013765 0.446575
O O8 0.307149 0.995665 0.561059
O O9 0.500000 0.500000 0.413899
O O10 0.562522 0.750000 0.393476
O O11 0.708544 0.750000 0.131182
O O12 0.764973 0.992905 0.179334
O O13 0.172436 0.250000 0.706151
O O14 0.132954 0.080090 0.602718
O O15 0.104162 0.994493 0.724139
O O16 0.064864 0.750000 0.787112
O O17 0.131747 0.528434 0.851842
O O18 0.000000 0.500000 0.812166
O O19 0.042150 0.250000 0.537143
O O20 0.096997 0.007669 0.481108
O O21 0.000000 0.000000 0.580473
O O22 0.844275 0.750000 0.437621
#
# Coordination Sequence:
#
# PCOD8181542 Si02
#       8
#     8   8   8   8   8   8   8   8
#     4   9  20  38  60  87 117 152 194 237 287 345
#     4  10  20  38  61  83 114 157 196 233 286 347
#     4   9  19  36  61  86 114 152 192 235 284 341
#     4  11  23  38  59  88 120 152 193 245 293 343
#     4  11  23  40  60  83 116 154 196 240 289 350
#     4  11  23  39  61  86 117 152 192 243 294 349
#     4  10  20  36  58  81 107 145 189 231 278 335
#     4   9  19  37  59  82 111 151 193 234 282 343
#
# _framework density 19.323775999999999
#
# number of rings (size 3 to 8) (size 9 to 14) (size 15 to 20)
#    0.000    2.000    1.250    1.875    1.750    4.000 
#    0.000    4.375    0.000    0.000    0.000    0.000 
#    0.000    0.000    0.000    0.000    0.000    0.000 
#
# Total GULP energy -396817.852370 kJ/mol
# GULP energy per Si atom -12400.557887 kJ/mol
# Density = 1.927979 g / cm^3
# Si number density = 19.323776 Si / 1000 Ang^3
#
#
#
# Elastic Constant Matrix: (Units=GPa)
#
#
# Indices 1 2 3 4 5 6 
#
# 1 148.7460 47.4192 51.1776 0.0000 0.0000 0.0000
# 2 47.4192 65.3659 33.1306 0.0000 0.0000 0.0000
# 3 51.1776 33.1306 87.5634 0.0000 0.0000 0.0000
# 4 0.0000 0.0000 0.0000 27.2036 0.0000 0.0000
# 5 0.0000 0.0000 0.0000 0.0000 38.1230 0.0000
# 6 0.0000 0.0000 0.0000 0.0000 0.0000 34.5811
#
#
#
# Elastic Compliance Matrix: (Units=1/GPa)
#
#
# Indices 1 2 3 4 5 6 
#
# 1 0.009621 -0.005109 -0.003690 0.000000 0.000000 0.000000
# 2 -0.005109 0.021642 -0.005202 0.000000 0.000000 0.000000
# 3 -0.003690 -0.005202 0.015545 0.000000 0.000000 0.000000
# 4 0.000000 0.000000 0.000000 0.036760 0.000000 0.000000
# 5 0.000000 0.000000 0.000000 0.000000 0.026231 0.000000
# 6 0.000000 0.000000 0.000000 0.000000 0.000000 0.028918
#
#
# Mechanical properties :
#
#
# Convention : Reuss Voigt Hill
#
# Bulk Modulus (GPa) = 53.17708 62.79224 57.98466
# Shear Modulus (GPa) = 28.90365 31.31137 30.10751
#
# Velocity S-wave (km/s) = 3.87170 4.02973 3.95150
# Velocity P-wave (km/s) = 6.89677 7.36322 7.13381
#
# Compressibility (1/GPa) = 0.01880509
#
# Stress axis : x y z
#
# Youngs Moduli (GPa) = 103.93563 46.20692 64.32793
#
# Poissons Ratio (x) = 0.23609 0.23738
# Poissons Ratio (y) = 0.53105 0.33464
# Poissons Ratio (z) = 0.38354 0.24038
#
# Static dielectric constant tensor:
#      x y z
#    x 3.630750 0.000000 0.000000 
#    y 0.000000 3.411190 0.000000 
#    z 0.000000 0.000000 3.572160 
# 
# 
# High freq. dielectric constant tensor:
#      x y z
#    x 1.762800 0.000000 0.000000 
#    y 0.000000 1.738460 0.000000 
#    z 0.000000 0.000000 1.758040 
# 
# From -- ./inp_files/13162.got.cif
#   From: 2010.03.12/outbox.cif.g09.slc.cpg/sg39_7_cif.got.tgz:13162.got - 2010.04.14 02:53:20.
