data_PCOD8181789
_publ_section_title
;
Structure prediction by ZEFSAII (Michael W. Deem and Ramdas Pophale) SiO2 
 PCOD8181789
Probable space group: A B M 2
;
_chemical_formula_sum "Si O2"
_cell_formula_units_Z 40
_cell_length_a 9.570209
_cell_length_b 22.209623
_cell_length_c 8.904143
_cell_angle_alpha 90.000000
_cell_angle_beta 90.000000
_cell_angle_gamma 90.000000
_cell_volume 1892.582130
_symmetry_space_group_name_H-M "A B M 2"
_symmetry_group_IT_number 39
_symmetry_cell_setting 'orthorhombic'
loop_
_space_group_symop_operation_xyz
x,y,z
-x,-y,z
-x,1/2+y,z
x,1/2-y,z
x,1/2+y,1/2+z
-x,1/2-y,1/2+z
-x,y,1/2+z
x,-y,1/2+z
loop_
_atom_site_type_symbol
_atom_site_label
_atom_site_fract_x
_atom_site_fract_y
_atom_site_fract_z
Si Si1 0.750195 0.082933 0.871170
Si Si2 0.428173 0.181005 0.508372
Si Si3 0.809987 0.496003 0.617920
Si Si4 0.306349 0.680965 0.330774
Si Si5 0.927946 0.417607 0.362683
O O1 0.659833 0.142501 0.888868
O O2 0.709283 0.046415 0.719678
O O3 0.911972 0.103355 0.862285
O O4 0.717492 0.038889 0.012058
O O5 0.390736 0.250000 0.473176
O O6 0.591973 0.169501 0.473177
O O7 0.391383 0.164025 0.679302
O O8 0.907129 0.452772 0.517943
O O9 0.904830 0.536532 0.726899
O O10 0.255846 0.750000 0.324906
O O11 0.170043 0.640454 0.348295
#
# Coordination Sequence:
#
# PCOD8181789 Si02
#       5
#     8   8   8   8   8
#     4  11  20  37  63  89 118 153 195 240 290 350
#     4  10  23  43  62  83 117 158 198 244 297 347
#     4  10  21  36  59  90 123 156 187 234 299 352
#     4  10  23  43  62  83 117 158 198 244 297 347
#     4  11  20  37  63  89 118 153 195 240 290 350
#
# _framework density 21.135145999999999
#
# number of rings (size 3 to 8) (size 9 to 14) (size 15 to 20)
#    0.000    1.600    2.000    4.800    2.800    0.800 
#    0.000    6.000    0.000    0.000    0.000    0.000 
#    0.000    0.000    0.000    0.000    0.000    0.000 
#
# Total GULP energy -247962.398248 kJ/mol
# GULP energy per Si atom -12398.119912 kJ/mol
# Density = 2.108704 g / cm^3
# Si number density = 21.135146 Si / 1000 Ang^3
#
#
#
# Elastic Constant Matrix: (Units=GPa)
#
#
# Indices 1 2 3 4 5 6 
#
# 1 66.6229 58.3738 24.3553 0.0000 0.0000 0.0000
# 2 58.3738 108.6594 44.1835 0.0000 0.0000 0.0000
# 3 24.3553 44.1835 116.9294 0.0000 0.0000 0.0000
# 4 0.0000 0.0000 0.0000 60.3059 0.0000 0.0000
# 5 0.0000 0.0000 0.0000 0.0000 18.7147 0.0000
# 6 0.0000 0.0000 0.0000 0.0000 0.0000 32.8345
#
#
#
# Elastic Compliance Matrix: (Units=1/GPa)
#
#
# Indices 1 2 3 4 5 6 
#
# 1 0.028361 -0.015164 -0.000177 0.000000 0.000000 0.000000
# 2 -0.015164 0.018982 -0.004014 0.000000 0.000000 0.000000
# 3 -0.000177 -0.004014 0.010106 0.000000 0.000000 0.000000
# 4 0.000000 0.000000 0.000000 0.016582 0.000000 0.000000
# 5 0.000000 0.000000 0.000000 0.000000 0.053434 0.000000
# 6 0.000000 0.000000 0.000000 0.000000 0.000000 0.030456
#
#
# Mechanical properties :
#
#
# Convention : Reuss Voigt Hill
#
# Bulk Modulus (GPa) = 53.36785 60.67074 57.01929
# Shear Modulus (GPa) = 24.64546 33.39096 29.01821
#
# Velocity S-wave (km/s) = 3.41851 3.97908 3.70940
# Velocity P-wave (km/s) = 6.39431 7.06252 6.73670
#
# Compressibility (1/GPa) = 0.01873787
#
# Stress axis : x y z
#
# Youngs Moduli (GPa) = 35.25956 52.68264 98.95247
#
# Poissons Ratio (x) = 0.79888 0.01756
# Poissons Ratio (y) = 0.53467 0.39719
# Poissons Ratio (z) = 0.00626 0.21147
#
# Static dielectric constant tensor:
#      x y z
#    x 3.389330 0.000000 0.000000 
#    y 0.000000 3.909160 0.000000 
#    z 0.000000 0.000000 4.238320 
# 
# 
# High freq. dielectric constant tensor:
#      x y z
#    x 1.798000 0.000000 0.000000 
#    y 0.000000 1.829470 0.000000 
#    z 0.000000 0.000000 1.849810 
# 
# From -- ./inp_files/2095.got.cif
#   From: 2010.03.12/outbox.cif.g09.slc.cpg/sg39_2_cif.got.tgz:2095.got - 2010.04.14 02:53:20.
