data_PCOD8181302
_publ_section_title
;
Structure prediction by ZEFSAII (Michael W. Deem and Ramdas Pophale) SiO2 
 PCOD8181302
Probable space group: A B M 2
;
_chemical_formula_sum "Si O2"
_cell_formula_units_Z 48
_cell_length_a 14.341910
_cell_length_b 29.730044
_cell_length_c 4.834808
_cell_angle_alpha 90.000000
_cell_angle_beta 90.000000
_cell_angle_gamma 90.000000
_cell_volume 2061.492584
_symmetry_space_group_name_H-M "A B M 2"
_symmetry_group_IT_number 39
_symmetry_cell_setting 'orthorhombic'
loop_
_space_group_symop_operation_xyz
x,y,z
-x,-y,z
-x,1/2+y,z
x,1/2-y,z
x,1/2+y,1/2+z
-x,1/2-y,1/2+z
-x,y,1/2+z
x,-y,1/2+z
loop_
_atom_site_type_symbol
_atom_site_label
_atom_site_fract_x
_atom_site_fract_y
_atom_site_fract_z
Si Si1 0.563239 0.300414 0.502540
Si Si2 0.271214 0.971844 0.265147
Si Si3 0.942406 0.198458 0.677506
Si Si4 0.937219 0.050530 0.131924
Si Si5 0.287218 0.876914 0.514300
Si Si6 0.829484 0.634139 0.516585
O O1 0.607934 0.250000 0.548083
O O2 0.529511 0.305151 0.188065
O O3 0.630214 0.342074 0.577054
O O4 0.157903 0.971081 0.246663
O O5 0.313570 0.923397 0.352850
O O6 0.306579 0.011244 0.469152
O O7 0.918747 0.250000 0.716064
O O8 0.963950 0.186004 0.358932
O O9 0.854559 0.174839 0.813633
O O10 0.024715 0.037347 0.328207
O O11 0.917936 0.103992 0.104462
O O12 0.240919 0.892617 0.806328
O O13 0.219777 0.850028 0.299429
#
# Coordination Sequence:
#
# PCOD8181302 Si02
#       6
#     8   8   8   8   8   8
#     4  10  22  42  69  99 128 156 188 235 299 371
#     4  11  23  39  57  82 118 160 204 251 302 349
#     4  10  20  33  49  71 105 151 197 242 292 341
#     4  11  21  34  53  77 109 154 207 259 303 343
#     4  11  23  39  62  89 119 156 194 239 301 365
#     4  11  21  35  54  81 114 152 200 250 299 353
#
# _framework density 23.284101
#
# number of rings (size 3 to 8) (size 9 to 14) (size 15 to 20)
#    0.000    1.333    0.000    8.000    0.000    3.333 
#    0.000    0.000    0.000    3.000    0.000    0.000 
#    0.000    0.000    0.000    0.000    0.000    0.000 
#
# Total GULP energy -297323.253244 kJ/mol
# GULP energy per Si atom -12388.468885 kJ/mol
# Density = 2.323111 g / cm^3
# Si number density = 23.284101 Si / 1000 Ang^3
#
#
#
# Elastic Constant Matrix: (Units=GPa)
#
#
# Indices 1 2 3 4 5 6 
#
# 1 41.4880 29.1598 -1.7269 0.0000 0.0001 0.0000
# 2 29.1598 109.7941 -5.6690 0.0000 0.0000 0.0000
# 3 -1.7269 -5.6690 89.5106 0.0000 0.0000 0.0000
# 4 0.0000 0.0000 0.0000 23.3282 0.0000 0.0000
# 5 0.0001 0.0000 0.0000 0.0000 -149.2687 0.0000
# 6 0.0000 0.0000 0.0000 0.0000 0.0000 41.5026
#
#
#
# Elastic Compliance Matrix: (Units=1/GPa)
#
#
# Indices 1 2 3 4 5 6 
#
# 1 0.029636 -0.007867 0.000074 0.000000 0.000000 0.000000
# 2 -0.007867 0.011226 0.000559 0.000000 0.000000 0.000000
# 3 0.000074 0.000559 0.011209 0.000000 0.000000 0.000000
# 4 0.000000 0.000000 0.000000 0.042867 0.000000 0.000000
# 5 0.000000 0.000000 0.000000 0.000000 -0.006699 0.000000
# 6 0.000000 0.000000 0.000000 0.000000 0.000000 0.024095
#
#
# Mechanical properties :
#
#
# Convention : Reuss Voigt Hill
#
# Bulk Modulus (GPa) = 26.59433 31.59116 29.09274
# Shear Modulus (GPa) = 35.88463 -2.28566 16.79949
#
# Velocity S-wave (km/s) = 3.93003 -0.99185 2.68899
# Velocity P-wave (km/s) = 5.66038 3.50506 4.70773
#
# Compressibility (1/GPa) = 0.03760201
#
# Stress axis : x y z
#
# Youngs Moduli (GPa) = 33.74306 89.07727 89.21645
#
# Poissons Ratio (x) = 0.70077 -0.00656
# Poissons Ratio (y) = 0.26546 -0.04989
# Poissons Ratio (z) = -0.00248 -0.04981
#
# Static dielectric constant tensor:
#      x y z
#    x 3.516010 0.000000 0.000000 
#    y 0.000000 4.284850 0.000000 
#    z 0.000000 0.000000 4.498350 
# 
# 
# High freq. dielectric constant tensor:
#      x y z
#    x 1.845760 0.000000 0.000000 
#    y 0.000000 1.936700 0.000000 
#    z 0.000000 0.000000 1.953150 
# 
# From -- ./inp_files/637.got.cif
#   From: 2010.03.12/outbox.cif.g09.slc.cpg/sg39_1_cif.got.tgz:637.got - 2010.04.14 02:53:20.
