data_PCOD8181874
_publ_section_title
;
Structure prediction by ZEFSAII (Michael W. Deem and Ramdas Pophale) SiO2 
 PCOD8181874
Probable space group: A B M 2
;
_chemical_formula_sum "Si O2"
_cell_formula_units_Z 40
_cell_length_a 9.197068
_cell_length_b 8.738505
_cell_length_c 24.759401
_cell_angle_alpha 90.000000
_cell_angle_beta 90.000000
_cell_angle_gamma 90.000000
_cell_volume 1989.879007
_symmetry_space_group_name_H-M "A B M 2"
_symmetry_group_IT_number 39
_symmetry_cell_setting 'orthorhombic'
loop_
_space_group_symop_operation_xyz
x,y,z
-x,-y,z
-x,1/2+y,z
x,1/2-y,z
x,1/2+y,1/2+z
-x,1/2-y,1/2+z
-x,y,1/2+z
x,-y,1/2+z
loop_
_atom_site_type_symbol
_atom_site_label
_atom_site_fract_x
_atom_site_fract_y
_atom_site_fract_z
Si Si1 0.652997 0.427234 0.175280
Si Si2 0.843283 0.571149 0.779929
Si Si3 0.657116 0.431299 0.874532
Si Si4 0.151166 0.071634 0.088417
Si Si5 0.847436 0.929517 0.963309
O O1 0.500000 0.500000 0.190532
O O2 0.630646 0.250000 0.163777
O O3 0.759073 0.459091 0.224772
O O4 0.715297 0.502293 0.121155
O O5 0.852879 0.750000 0.794267
O O6 0.765875 0.483312 0.828153
O O7 0.000000 0.500000 0.771641
O O8 0.500000 0.500000 0.862368
O O9 0.645607 0.250000 0.875946
O O10 0.715393 0.492058 0.931764
O O11 0.141761 0.250000 0.099623
O O12 0.178771 0.033352 0.025926
O O13 0.000000 0.000000 0.108589
O O14 0.850034 0.750000 0.951249
O O15 0.000000 0.000000 0.943403
#
# Coordination Sequence:
#
# PCOD8181874 Si02
#       5
#     8   8   8   8   8
#     4  11  24  40  61  88 121 158 197 243 296 351
#     4  11  24  42  64  90 119 155 197 242 292 350
#     4  12  25  41  62  88 120 157 196 244 297 352
#     4  10  21  38  62  89 120 157 199 245 293 347
#     4  10  21  39  62  89 120 157 199 244 293 348
#
# _framework density 20.101725999999999
#
# number of rings (size 3 to 8) (size 9 to 14) (size 15 to 20)
#    0.000    1.200    0.000    6.000    0.000    9.600 
#    0.000    0.000    0.000    0.000    0.000    0.000 
#    0.000    0.000    0.000    0.000    0.000    0.000 
#
# Total GULP energy -248161.217118 kJ/mol
# GULP energy per Si atom -12408.060856 kJ/mol
# Density = 2.005597 g / cm^3
# Si number density = 20.101726 Si / 1000 Ang^3
#
#
#
# Elastic Constant Matrix: (Units=GPa)
#
#
# Indices 1 2 3 4 5 6 
#
# 1 139.4671 69.8683 48.8629 0.0000 0.0000 0.0000
# 2 69.8683 148.2879 62.9606 0.0000 0.0000 0.0000
# 3 48.8629 62.9606 85.9142 0.0000 0.0000 0.0000
# 4 0.0000 0.0000 0.0000 27.5605 0.0000 0.0000
# 5 0.0000 0.0000 0.0000 0.0000 16.8596 0.0000
# 6 0.0000 0.0000 0.0000 0.0000 0.0000 42.2070
#
#
#
# Elastic Compliance Matrix: (Units=1/GPa)
#
#
# Indices 1 2 3 4 5 6 
#
# 1 0.009968 -0.003324 -0.003234 0.000000 0.000000 0.000000
# 2 -0.003324 0.010898 -0.006096 0.000000 0.000000 0.000000
# 3 -0.003234 -0.006096 0.017946 0.000000 0.000000 0.000000
# 4 0.000000 0.000000 0.000000 0.036284 0.000000 0.000000
# 5 0.000000 0.000000 0.000000 0.000000 0.059313 0.000000
# 6 0.000000 0.000000 0.000000 0.000000 0.000000 0.023693
#
#
# Mechanical properties :
#
#
# Convention : Reuss Voigt Hill
#
# Bulk Modulus (GPa) = 74.04442 81.89476 77.96959
# Shear Modulus (GPa) = 26.60846 30.12391 28.36618
#
# Velocity S-wave (km/s) = 3.64220 3.87534 3.76058
# Velocity P-wave (km/s) = 7.38934 7.80083 7.59787
#
# Compressibility (1/GPa) = 0.01350541
#
# Stress axis : x y z
#
# Youngs Moduli (GPa) = 100.31989 91.76051 55.72301
#
# Poissons Ratio (x) = 0.30499 0.18018
# Poissons Ratio (y) = 0.33344 0.33969
# Poissons Ratio (z) = 0.32439 0.55937
#
# Static dielectric constant tensor:
#      x y z
#    x 3.711300 0.000000 0.000000 
#    y 0.000000 3.839130 0.000000 
#    z 0.000000 0.000000 3.744260 
# 
# 
# High freq. dielectric constant tensor:
#      x y z
#    x 1.793110 0.000000 0.000000 
#    y 0.000000 1.804110 0.000000 
#    z 0.000000 0.000000 1.796170 
# 
# From -- ./inp_files/15451.got.cif
#   From: 2010.03.12/outbox.cif.g09.slc.cpg/sg39_8_cif.got.tgz:15451.got - 2010.04.14 02:53:20.
