data_PCOD8181522
_publ_section_title
;
Structure prediction by ZEFSAII (Michael W. Deem and Ramdas Pophale) SiO2 
 PCOD8181522
Probable space group: A B M 2
;
_chemical_formula_sum "Si O2"
_cell_formula_units_Z 56
_cell_length_a 23.749348
_cell_length_b 8.643104
_cell_length_c 14.316686
_cell_angle_alpha 90.000000
_cell_angle_beta 90.000000
_cell_angle_gamma 90.000000
_cell_volume 2938.758714
_symmetry_space_group_name_H-M "A B M 2"
_symmetry_group_IT_number 39
_symmetry_cell_setting 'orthorhombic'
loop_
_space_group_symop_operation_xyz
x,y,z
-x,-y,z
-x,1/2+y,z
x,1/2-y,z
x,1/2+y,1/2+z
-x,1/2-y,1/2+z
-x,y,1/2+z
x,-y,1/2+z
loop_
_atom_site_type_symbol
_atom_site_label
_atom_site_fract_x
_atom_site_fract_y
_atom_site_fract_z
Si Si1 0.853783 0.567638 0.676260
Si Si2 0.653307 0.932454 0.528761
Si Si3 0.268054 0.568751 0.676901
Si Si4 0.438658 0.569193 0.173170
Si Si5 0.940951 0.566762 0.313456
Si Si6 0.057290 0.070018 0.527550
Si Si7 0.349725 0.567975 0.324380
O O1 0.840412 0.750000 0.676265
O O2 0.797309 0.469543 0.675707
O O3 0.889509 0.521984 0.766497
O O4 0.888825 0.513148 0.585561
O O5 0.662667 0.750000 0.538784
O O6 0.596231 0.985212 0.581908
O O7 0.705831 0.016021 0.578050
O O8 0.649407 0.977834 0.421302
O O9 0.277649 0.750000 0.691204
O O10 0.295576 0.478656 0.763857
O O11 0.500000 0.500000 0.171842
O O12 0.445806 0.750000 0.171243
O O13 0.405551 0.518886 0.266888
O O14 0.937957 0.750000 0.295926
O O15 0.934096 0.520376 0.421192
O O16 0.000000 0.500000 0.274926
O O17 0.050314 0.250000 0.539236
O O18 0.000000 0.000000 0.569485
O O19 0.347741 0.750000 0.343926
#
# Coordination Sequence:
#
# PCOD8181522 Si02
#       7
#     8   8   8   8   8   8   8
#     4  11  22  37  56  80 109 143 181 228 279 332
#     4  10  21  39  60  84 114 151 190 232 280 333
#     4  11  23  39  58  82 111 147 188 235 284 335
#     4   9  20  36  56  84 119 152 188 232 276 325
#     4  10  20  36  55  79 108 141 180 223 275 336
#     4   9  20  36  55  77 106 140 175 217 269 325
#     4  10  21  39  60  84 113 150 191 233 281 334
#
# _framework density 19.055665000000001
#
# number of rings (size 3 to 8) (size 9 to 14) (size 15 to 20)
#    0.000    2.000    0.000    4.286    0.000    8.000 
#    0.000    7.143    0.000    0.000    0.000    0.000 
#    0.000    0.000    0.000    0.000    0.000    0.000 
#
# Total GULP energy -347257.099111 kJ/mol
# GULP energy per Si atom -12402.039254 kJ/mol
# Density = 1.901229 g / cm^3
# Si number density = 19.055665 Si / 1000 Ang^3
#
#
#
# Elastic Constant Matrix: (Units=GPa)
#
#
# Indices 1 2 3 4 5 6 
#
# 1 144.4837 22.2040 50.1526 0.0000 0.0000 0.0000
# 2 22.2040 43.5925 14.7143 0.0000 0.0000 0.0000
# 3 50.1526 14.7143 104.6845 0.0000 0.0000 0.0000
# 4 0.0000 0.0000 0.0000 30.7939 0.0000 0.0000
# 5 0.0000 0.0000 0.0000 0.0000 18.7449 0.0000
# 6 0.0000 0.0000 0.0000 0.0000 0.0000 37.0300
#
#
#
# Elastic Compliance Matrix: (Units=1/GPa)
#
#
# Indices 1 2 3 4 5 6 
#
# 1 0.008701 -0.003176 -0.003722 0.000000 0.000000 0.000000
# 2 -0.003176 0.025241 -0.002026 0.000000 0.000000 0.000000
# 3 -0.003722 -0.002026 0.011621 0.000000 0.000000 0.000000
# 4 0.000000 0.000000 0.000000 0.032474 0.000000 0.000000
# 5 0.000000 0.000000 0.000000 0.000000 0.053348 0.000000
# 6 0.000000 0.000000 0.000000 0.000000 0.000000 0.027005
#
#
# Mechanical properties :
#
#
# Convention : Reuss Voigt Hill
#
# Bulk Modulus (GPa) = 36.08231 51.87805 43.98018
# Shear Modulus (GPa) = 26.95751 31.02640 28.99195
#
# Velocity S-wave (km/s) = 3.76529 4.03947 3.90479
# Velocity P-wave (km/s) = 6.15464 7.00286 6.59240
#
# Compressibility (1/GPa) = 0.02771441
#
# Stress axis : x y z
#
# Youngs Moduli (GPa) = 114.92560 39.61771 86.05381
#
# Poissons Ratio (x) = 0.12581 0.32032
# Poissons Ratio (y) = 0.36496 0.17439
# Poissons Ratio (z) = 0.42779 0.08028
#
# Static dielectric constant tensor:
#      x y z
#    x 3.087030 0.000000 0.000000 
#    y 0.000000 3.507410 0.000000 
#    z 0.000000 0.000000 3.693550 
# 
# 
# High freq. dielectric constant tensor:
#      x y z
#    x 1.742540 0.000000 0.000000 
#    y 0.000000 1.748440 0.000000 
#    z 0.000000 0.000000 1.747640 
# 
# From -- ./inp_files/10378.got.cif
#   From: 2010.03.12/outbox.cif.g09.slc.cpg/sg39_6_cif.got.tgz:10378.got - 2010.04.14 02:53:20.
