data_PCOD8181428
_publ_section_title
;
Structure prediction by ZEFSAII (Michael W. Deem and Ramdas Pophale) SiO2 
 PCOD8181428
Probable space group: A B M 2
;
_chemical_formula_sum "Si O2"
_cell_formula_units_Z 64
_cell_length_a 14.157354
_cell_length_b 8.841193
_cell_length_c 25.567492
_cell_angle_alpha 90.000000
_cell_angle_beta 90.000000
_cell_angle_gamma 90.000000
_cell_volume 3200.229258
_symmetry_space_group_name_H-M "A B M 2"
_symmetry_group_IT_number 39
_symmetry_cell_setting 'orthorhombic'
loop_
_space_group_symop_operation_xyz
x,y,z
-x,-y,z
-x,1/2+y,z
x,1/2-y,z
x,1/2+y,1/2+z
-x,1/2-y,1/2+z
-x,y,1/2+z
x,-y,1/2+z
loop_
_atom_site_type_symbol
_atom_site_label
_atom_site_fract_x
_atom_site_fract_y
_atom_site_fract_z
Si Si1 0.898551 0.426642 0.397860
Si Si2 0.781595 0.571117 0.308126
Si Si3 0.897213 0.071523 0.707306
Si Si4 0.600666 0.574576 0.958599
Si Si5 0.603422 0.929092 0.561781
Si Si6 0.900674 0.075635 0.516058
Si Si7 0.397996 0.574803 0.342258
Si Si8 0.227907 0.428898 0.109386
O O1 0.903998 0.250000 0.383538
O O2 0.825487 0.510911 0.361391
O O3 0.862788 0.451700 0.457264
O O4 0.000000 0.500000 0.389312
O O5 0.773364 0.750000 0.309468
O O6 0.845999 0.515708 0.260043
O O7 0.676121 0.502914 0.302752
O O8 0.910507 0.250000 0.706934
O O9 0.831694 0.018053 0.659476
O O10 0.000000 0.000000 0.702667
O O11 0.500000 0.500000 0.952571
O O12 0.593140 0.750000 0.974388
O O13 0.646399 0.555843 0.901086
O O14 0.650784 0.487577 0.006787
O O15 0.595597 0.750000 0.562172
O O16 0.500000 0.000000 0.569429
O O17 0.670856 0.986673 0.608742
O O18 0.917777 0.250000 0.527012
O O19 0.826432 0.012904 0.557756
O O20 0.000000 0.000000 0.525919
O O21 0.500000 0.500000 0.335518
O O22 0.408815 0.750000 0.328061
O O23 0.245408 0.250000 0.109864
#
# Coordination Sequence:
#
# PCOD8181428 Si02
#       8
#     8   8   8   8   8   8   8   8
#     4  10  20  35  54  82 115 151 189 234 292 356
#     4  11  23  38  58  86 117 154 198 245 294 350
#     4  10  23  42  65  89 116 151 196 246 298 349
#     4   9  17  31  52  78 112 152 192 233 281 336
#     4  11  22  36  56  85 118 156 197 240 288 344
#     4   9  19  34  55  81 113 147 183 230 288 348
#     4  10  21  37  58  85 118 157 198 243 292 349
#     4  10  21  39  60  84 115 152 193 243 293 346
#
# _framework density 19.998569
#
# number of rings (size 3 to 8) (size 9 to 14) (size 15 to 20)
#    0.000    2.000    0.000    4.125    1.750    5.000 
#    0.000    0.625    0.000    0.000    0.000    0.000 
#    0.000    0.000    0.000    0.000    0.000    0.000 
#
# Total GULP energy -396726.227413 kJ/mol
# GULP energy per Si atom -12397.694607 kJ/mol
# Density = 1.995305 g / cm^3
# Si number density = 19.998569 Si / 1000 Ang^3
#
#
#
# Elastic Constant Matrix: (Units=GPa)
#
#
# Indices 1 2 3 4 5 6 
#
# 1 102.9908 51.6899 71.6230 0.0000 0.0000 0.0000
# 2 51.6899 104.2733 46.8692 0.0000 0.0000 0.0000
# 3 71.6230 46.8692 94.2631 0.0000 0.0000 0.0000
# 4 0.0000 0.0000 0.0000 22.6223 0.0000 0.0000
# 5 0.0000 0.0000 0.0000 0.0000 37.8158 0.0000
# 6 0.0000 0.0000 0.0000 0.0000 0.0000 36.1316
#
#
#
# Elastic Compliance Matrix: (Units=1/GPa)
#
#
# Indices 1 2 3 4 5 6 
#
# 1 0.022037 -0.004376 -0.014569 0.000000 0.000000 0.000000
# 2 -0.004376 0.013219 -0.003248 0.000000 0.000000 0.000000
# 3 -0.014569 -0.003248 0.023293 0.000000 0.000000 0.000000
# 4 0.000000 0.000000 0.000000 0.044204 0.000000 0.000000
# 5 0.000000 0.000000 0.000000 0.000000 0.026444 0.000000
# 6 0.000000 0.000000 0.000000 0.000000 0.000000 0.027677
#
#
# Mechanical properties :
#
#
# Convention : Reuss Voigt Hill
#
# Bulk Modulus (GPa) = 70.59790 71.32126 70.95958
# Shear Modulus (GPa) = 24.27411 28.07027 26.17219
#
# Velocity S-wave (km/s) = 3.48773 3.75055 3.62152
# Velocity P-wave (km/s) = 7.18312 7.38215 7.28331
#
# Compressibility (1/GPa) = 0.01416473
#
# Stress axis : x y z
#
# Youngs Moduli (GPa) = 45.37777 75.64705 42.93127
#
# Poissons Ratio (x) = 0.33102 0.62545
# Poissons Ratio (y) = 0.19857 0.13944
# Poissons Ratio (z) = 0.66109 0.24570
#
# Static dielectric constant tensor:
#      x y z
#    x 3.605880 0.000000 0.000000 
#    y 0.000000 3.604580 0.000000 
#    z 0.000000 0.000000 3.888090 
# 
# 
# High freq. dielectric constant tensor:
#      x y z
#    x 1.786210 0.000000 0.000000 
#    y 0.000000 1.781780 0.000000 
#    z 0.000000 0.000000 1.768800 
# 
# From -- ./inp_files/16265.got.cif
#   From: 2010.03.12/outbox.cif.g09.slc.cpg/sg39_9_cif.got.tgz:16265.got - 2010.04.14 02:53:20.
