data_PCOD8181596
_publ_section_title
;
Structure prediction by ZEFSAII (Michael W. Deem and Ramdas Pophale) SiO2 
 PCOD8181596
Probable space group: A B M 2
;
_chemical_formula_sum "Si O2"
_cell_formula_units_Z 64
_cell_length_a 23.443862
_cell_length_b 8.642868
_cell_length_c 15.155521
_cell_angle_alpha 90.000000
_cell_angle_beta 90.000000
_cell_angle_gamma 90.000000
_cell_volume 3070.845078
_symmetry_space_group_name_H-M "A B M 2"
_symmetry_group_IT_number 39
_symmetry_cell_setting 'orthorhombic'
loop_
_space_group_symop_operation_xyz
x,y,z
-x,-y,z
-x,1/2+y,z
x,1/2-y,z
x,1/2+y,1/2+z
-x,1/2-y,1/2+z
-x,y,1/2+z
x,-y,1/2+z
loop_
_atom_site_type_symbol
_atom_site_label
_atom_site_fract_x
_atom_site_fract_y
_atom_site_fract_z
Si Si1 0.620547 0.568932 0.320380
Si Si2 0.365596 0.568433 0.502274
Si Si3 0.263522 0.928644 0.261601
Si Si4 0.127265 0.428212 0.502497
Si Si5 0.747541 0.570314 0.555689
Si Si6 0.561134 0.067249 0.156535
Si Si7 0.061130 0.568651 0.655997
Si Si8 0.146691 0.070415 0.305769
O O1 0.609050 0.750000 0.310865
O O2 0.604868 0.512930 0.418613
O O3 0.686304 0.532640 0.300431
O O4 0.578144 0.479300 0.255273
O O5 0.375908 0.750000 0.496671
O O6 0.298295 0.530902 0.502484
O O7 0.391913 0.501296 0.591336
O O8 0.277880 0.750000 0.280689
O O9 0.258153 0.962514 0.158645
O O10 0.204750 0.973658 0.308470
O O11 0.121209 0.250000 0.530402
O O12 0.190694 0.487262 0.524684
O O13 0.081157 0.523745 0.557952
O O14 0.114667 0.453215 0.399076
O O15 0.737667 0.750000 0.532287
O O16 0.560329 0.250000 0.147236
O O17 0.500000 0.000000 0.130888
O O18 0.055938 0.750000 0.663749
O O19 0.105984 0.505646 0.728558
O O20 0.000000 0.500000 0.677959
O O21 0.162046 0.250000 0.290708
#
# Coordination Sequence:
#
# PCOD8181596 Si02
#       8
#     8   8   8   8   8   8   8   8
#     4  12  25  43  67  96 131 173 215 264 319 376
#     4  12  25  42  67  99 132 171 214 262 318 380
#     4  11  21  36  63  97 130 166 208 256 312 374
#     4  10  21  40  63  89 122 160 201 250 307 367
#     4  10  20  36  62  94 131 169 204 254 315 373
#     4  12  26  47  70  96 129 168 217 268 319 379
#     4  11  24  41  61  86 117 157 205 256 307 367
#     4  10  22  39  62  91 124 162 204 250 309 372
#
# _framework density 20.841168
#
# number of rings (size 3 to 8) (size 9 to 14) (size 15 to 20)
#    0.000    1.000    2.500    4.875    0.000    4.000 
#    0.000    3.750    0.000    0.000    0.000    0.000 
#    0.000    0.000    0.000    0.000    0.000    0.000 
#
# Total GULP energy -397048.023960 kJ/mol
# GULP energy per Si atom -12407.750749 kJ/mol
# Density = 2.079373 g / cm^3
# Si number density = 20.841168 Si / 1000 Ang^3
#
#
#
# Elastic Constant Matrix: (Units=GPa)
#
#
# Indices 1 2 3 4 5 6 
#
# 1 82.5217 27.2553 8.2602 0.0000 0.0000 0.0000
# 2 27.2553 70.9240 11.4688 0.0000 0.0000 0.0000
# 3 8.2602 11.4688 82.6634 0.0000 0.0000 0.0000
# 4 0.0000 0.0000 0.0000 31.3965 0.0000 0.0000
# 5 0.0000 0.0000 0.0000 0.0000 19.0872 0.0000
# 6 0.0000 0.0000 0.0000 0.0000 0.0000 36.9598
#
#
#
# Elastic Compliance Matrix: (Units=1/GPa)
#
#
# Indices 1 2 3 4 5 6 
#
# 1 0.013915 -0.005240 -0.000663 0.000000 0.000000 0.000000
# 2 -0.005240 0.016397 -0.001751 0.000000 0.000000 0.000000
# 3 -0.000663 -0.001751 0.012407 0.000000 0.000000 0.000000
# 4 0.000000 0.000000 0.000000 0.031851 0.000000 0.000000
# 5 0.000000 0.000000 0.000000 0.000000 0.052391 0.000000
# 6 0.000000 0.000000 0.000000 0.000000 0.000000 0.027056
#
#
# Mechanical properties :
#
#
# Convention : Reuss Voigt Hill
#
# Bulk Modulus (GPa) = 36.48506 36.67530 36.58018
# Shear Modulus (GPa) = 28.01714 30.09703 29.05709
#
# Velocity S-wave (km/s) = 3.67047 3.80427 3.73797
# Velocity P-wave (km/s) = 5.95881 6.07720 6.01830
#
# Compressibility (1/GPa) = 0.02740848
#
# Stress axis : x y z
#
# Youngs Moduli (GPa) = 71.86417 60.98860 80.60283
#
# Poissons Ratio (x) = 0.31959 0.05348
# Poissons Ratio (y) = 0.37658 0.14116
# Poissons Ratio (z) = 0.04768 0.10681
#
# Static dielectric constant tensor:
#      x y z
#    x 3.747390 0.000000 0.000000 
#    y 0.000000 3.784770 0.000000 
#    z 0.000000 0.000000 3.938110 
# 
# 
# High freq. dielectric constant tensor:
#      x y z
#    x 1.810330 0.000000 0.000000 
#    y 0.000000 1.816420 0.000000 
#    z 0.000000 0.000000 1.830740 
# 
# From -- ./inp_files/10657.got.cif
#   From: 2010.03.12/outbox.cif.g09.slc.cpg/sg39_6_cif.got.tgz:10657.got - 2010.04.14 02:53:20.
