data_PCOD8181947
_publ_section_title
;
Structure prediction by ZEFSAII (Michael W. Deem and Ramdas Pophale) SiO2 
 PCOD8181947
Probable space group: A B M 2
;
_chemical_formula_sum "Si O2"
_cell_formula_units_Z 64
_cell_length_a 16.601823
_cell_length_b 14.189353
_cell_length_c 12.564513
_cell_angle_alpha 90.000000
_cell_angle_beta 90.000000
_cell_angle_gamma 90.000000
_cell_volume 2959.811358
_symmetry_space_group_name_H-M "A B M 2"
_symmetry_group_IT_number 39
_symmetry_cell_setting 'orthorhombic'
loop_
_space_group_symop_operation_xyz
x,y,z
-x,-y,z
-x,1/2+y,z
x,1/2-y,z
x,1/2+y,1/2+z
-x,1/2-y,1/2+z
-x,y,1/2+z
x,-y,1/2+z
loop_
_atom_site_type_symbol
_atom_site_label
_atom_site_fract_x
_atom_site_fract_y
_atom_site_fract_z
Si Si1 0.888397 0.046890 0.632330
Si Si2 0.870642 0.642499 0.920484
Si Si3 0.577389 0.356741 0.796154
Si Si4 0.590677 0.856009 0.722073
Si Si5 0.584241 0.054227 0.006747
Si Si6 0.041953 0.641908 0.203261
Si Si7 0.721156 0.644475 0.156422
Si Si8 0.693838 0.399825 0.422184
O O1 0.909978 0.081138 0.513744
O O2 0.797459 0.074661 0.662873
O O3 0.950425 0.104476 0.706513
O O4 0.901836 0.933396 0.639342
O O5 0.853440 0.750000 0.959258
O O6 0.932361 0.642005 0.825009
O O7 0.786828 0.593006 0.887327
O O8 0.579730 0.250000 0.758465
O O9 0.494498 0.403178 0.754652
O O10 0.653928 0.403161 0.734491
O O11 0.573963 0.359684 0.924437
O O12 0.578049 0.750000 0.682346
O O13 0.621575 0.914059 0.619523
O O14 0.649664 0.851390 0.822984
O O15 0.500000 0.000000 0.021389
O O16 0.653073 0.999387 0.942752
O O17 0.049310 0.750000 0.157328
O O18 0.745089 0.750000 0.194867
O O19 0.687188 0.654113 0.035729
#
# Coordination Sequence:
#
# PCOD8181947 Si02
#       8
#     8   8   8   8   8   8   8   8
#     4  10  21  39  69  96 129 172 212 260 320 379
#     4  10  22  42  66  96 129 167 217 264 314 387
#     4  10  23  40  61  88 126 167 211 268 325 383
#     4  11  24  42  63  87 124 168 213 266 323 380
#     4  12  25  38  59  89 125 161 217 267 323 381
#     4  10  22  39  64  99 134 168 210 261 316 381
#     4  10  21  40  66  96 124 163 220 270 321 385
#     4  11  23  37  65  89 125 165 212 263 319 384
#
# _framework density 21.623000000000001
#
# number of rings (size 3 to 8) (size 9 to 14) (size 15 to 20)
#    0.000    1.500    1.250    4.125    5.250    3.000 
#    0.000    0.000    2.750    4.500    0.000    0.000 
#    0.000    0.000    0.000    0.000    0.000    0.000 
#
# Total GULP energy -396526.864373 kJ/mol
# GULP energy per Si atom -12391.464512 kJ/mol
# Density = 2.157378 g / cm^3
# Si number density = 21.623000 Si / 1000 Ang^3
#
#
#
# Elastic Constant Matrix: (Units=GPa)
#
#
# Indices 1 2 3 4 5 6 
#
# 1 105.0216 16.8228 51.0729 0.0000 0.0000 0.0000
# 2 16.8228 89.9148 34.2364 0.0000 0.0000 0.0000
# 3 51.0729 34.2364 128.3257 0.0000 0.0000 0.0000
# 4 0.0000 0.0000 0.0000 70.6318 0.0000 0.0000
# 5 0.0000 0.0000 0.0000 0.0000 38.8790 0.0000
# 6 0.0000 0.0000 0.0000 0.0000 0.0000 12.1701
#
#
#
# Elastic Compliance Matrix: (Units=1/GPa)
#
#
# Indices 1 2 3 4 5 6 
#
# 1 0.011825 -0.000468 -0.004581 0.000000 0.000000 0.000000
# 2 -0.000468 0.012398 -0.003121 0.000000 0.000000 0.000000
# 3 -0.004581 -0.003121 0.010449 0.000000 0.000000 0.000000
# 4 0.000000 0.000000 0.000000 0.014158 0.000000 0.000000
# 5 0.000000 0.000000 0.000000 0.000000 0.025721 0.000000
# 6 0.000000 0.000000 0.000000 0.000000 0.000000 0.082168
#
#
# Mechanical properties :
#
#
# Convention : Reuss Voigt Hill
#
# Bulk Modulus (GPa) = 54.55571 58.61403 56.58487
# Shear Modulus (GPa) = 27.90651 39.07818 33.49234
#
# Velocity S-wave (km/s) = 3.59638 4.25579 3.93990
# Velocity P-wave (km/s) = 6.52154 7.16346 6.85002
#
# Compressibility (1/GPa) = 0.01832989
#
# Stress axis : x y z
#
# Youngs Moduli (GPa) = 84.56837 80.66007 95.70502
#
# Poissons Ratio (x) = 0.03775 0.43846
# Poissons Ratio (y) = 0.03958 0.29873
# Poissons Ratio (z) = 0.38744 0.25177
#
# Static dielectric constant tensor:
#      x y z
#    x 3.920290 0.000000 0.000000 
#    y 0.000000 2.819750 0.000000 
#    z 0.000000 0.000000 3.851560 
# 
# 
# High freq. dielectric constant tensor:
#      x y z
#    x 1.844740 0.000000 0.000000 
#    y 0.000000 1.850830 0.000000 
#    z 0.000000 0.000000 1.848640 
# 
# From -- ./inp_files/6891.got.cif
#   From: 2010.03.12/outbox.cif.g09.slc.cpg/sg39_4_cif.got.tgz:6891.got - 2010.04.14 02:53:20.
