data_PCOD8181001
_publ_section_title
;
Structure prediction by ZEFSAII (Michael W. Deem and Ramdas Pophale) SiO2 
 PCOD8181001
Probable space group: A B M 2
;
_chemical_formula_sum "Si O2"
_cell_formula_units_Z 64
_cell_length_a 19.175959
_cell_length_b 8.850713
_cell_length_c 20.602541
_cell_angle_alpha 90.000000
_cell_angle_beta 90.000000
_cell_angle_gamma 90.000000
_cell_volume 3496.681999
_symmetry_space_group_name_H-M "A B M 2"
_symmetry_group_IT_number 39
_symmetry_cell_setting 'orthorhombic'
loop_
_space_group_symop_operation_xyz
x,y,z
-x,-y,z
-x,1/2+y,z
x,1/2-y,z
x,1/2+y,1/2+z
-x,1/2-y,1/2+z
-x,y,1/2+z
x,-y,1/2+z
loop_
_atom_site_type_symbol
_atom_site_label
_atom_site_fract_x
_atom_site_fract_y
_atom_site_fract_z
Si Si1 0.428723 0.071973 0.953260
Si Si2 0.210614 0.076297 0.519293
Si Si3 0.716857 0.428270 0.401403
Si Si4 0.930066 0.573865 0.586908
Si Si5 0.706083 0.072107 0.145468
Si Si6 0.429176 0.072517 0.102277
Si Si7 0.791753 0.571271 0.771427
Si Si8 0.073190 0.430017 0.224921
O O1 0.436575 0.250000 0.947052
O O2 0.362003 0.010161 0.912848
O O3 0.500000 0.000000 0.925524
O O4 0.416604 0.022257 0.027772
O O5 0.228050 0.250000 0.505353
O O6 0.128860 0.052098 0.532817
O O7 0.252711 0.018405 0.581802
O O8 0.230646 0.980629 0.457042
O O9 0.714145 0.250000 0.404397
O O10 0.746259 0.484398 0.332666
O O11 0.941361 0.750000 0.603626
O O12 0.908907 0.489927 0.653066
O O13 0.000000 0.500000 0.557781
O O14 0.693397 0.250000 0.145728
O O15 0.749590 0.021292 0.207885
O O16 0.632349 0.988559 0.147468
O O17 0.434402 0.250000 0.109201
O O18 0.500000 0.000000 0.128979
O O19 0.805509 0.750000 0.772854
O O20 0.865821 0.485778 0.773004
O O21 0.068401 0.250000 0.225215
O O22 0.000000 0.500000 0.249103
#
# Coordination Sequence:
#
# PCOD8181001 Si02
#       8
#     8   8   8   8   8   8   8   8
#     4   9  18  32  51  78 105 136 177 220 267 320
#     4  10  20  34  55  80 110 143 179 225 273 323
#     4  10  21  37  57  81 111 146 184 227 273 324
#     4  10  19  34  54  82 113 145 182 225 278 328
#     4  10  19  34  55  79 108 144 181 222 273 324
#     4  10  19  32  52  80 111 140 181 229 275 329
#     4  10  21  39  58  79 113 151 186 224 275 332
#     4  11  21  34  56  83 111 143 184 230 274 327
#
# _framework density 18.303063999999999
#
# number of rings (size 3 to 8) (size 9 to 14) (size 15 to 20)
#    0.000    2.000    2.500    2.625    0.000    3.000 
#    0.000    1.250    0.000    3.000    0.000    0.000 
#    0.000    0.000    0.000    0.000    0.000    0.000 
#
# Total GULP energy -396855.203556 kJ/mol
# GULP energy per Si atom -12401.725111 kJ/mol
# Density = 1.826141 g / cm^3
# Si number density = 18.303064 Si / 1000 Ang^3
#
#
#
# Elastic Constant Matrix: (Units=GPa)
#
#
# Indices 1 2 3 4 5 6 
#
# 1 157.5335 49.4757 56.9971 0.0000 0.0000 0.0000
# 2 49.4757 58.9637 29.4254 0.0000 0.0000 0.0000
# 3 56.9971 29.4254 87.0968 0.0000 0.0000 0.0000
# 4 0.0000 0.0000 0.0000 20.8601 0.0000 0.0000
# 5 0.0000 0.0000 0.0000 0.0000 21.9175 0.0000
# 6 0.0000 0.0000 0.0000 0.0000 0.0000 36.3763
#
#
#
# Elastic Compliance Matrix: (Units=1/GPa)
#
#
# Indices 1 2 3 4 5 6 
#
# 1 0.009842 -0.006067 -0.004391 0.000000 0.000000 0.000000
# 2 -0.006067 0.024139 -0.004185 0.000000 0.000000 0.000000
# 3 -0.004391 -0.004185 0.015769 0.000000 0.000000 0.000000
# 4 0.000000 0.000000 0.000000 0.047938 0.000000 0.000000
# 5 0.000000 0.000000 0.000000 0.000000 0.045626 0.000000
# 6 0.000000 0.000000 0.000000 0.000000 0.000000 0.027490
#
#
# Mechanical properties :
#
#
# Convention : Reuss Voigt Hill
#
# Bulk Modulus (GPa) = 48.86672 63.93227 56.39949
# Shear Modulus (GPa) = 24.16497 27.01051 25.58774
#
# Velocity S-wave (km/s) = 3.63749 3.84570 3.74304
# Velocity P-wave (km/s) = 6.66321 7.39763 7.04000
#
# Compressibility (1/GPa) = 0.02046383
#
# Stress axis : x y z
#
# Youngs Moduli (GPa) = 101.60553 41.42716 63.41622
#
# Poissons Ratio (x) = 0.25134 0.27846
# Poissons Ratio (y) = 0.61644 0.26539
# Poissons Ratio (z) = 0.44615 0.17337
#
# Static dielectric constant tensor:
#      x y z
#    x 3.636110 0.000000 0.000000 
#    y 0.000000 3.277170 0.000000 
#    z 0.000000 0.000000 3.187450 
# 
# 
# High freq. dielectric constant tensor:
#      x y z
#    x 1.727170 0.000000 0.000000 
#    y 0.000000 1.706830 0.000000 
#    z 0.000000 0.000000 1.676870 
# 
# From -- ./inp_files/13215.got.cif
#   From: 2010.03.12/outbox.cif.g09.slc.cpg/sg39_7_cif.got.tgz:13215.got - 2010.04.14 02:53:20.
