data_PCOD8181512
_publ_section_title
;
Structure prediction by ZEFSAII (Michael W. Deem and Ramdas Pophale) SiO2 
 PCOD8181512
Probable space group: A B M 2
;
_chemical_formula_sum "Si O2"
_cell_formula_units_Z 64
_cell_length_a 23.633614
_cell_length_b 8.619565
_cell_length_c 15.370183
_cell_angle_alpha 90.000000
_cell_angle_beta 90.000000
_cell_angle_gamma 90.000000
_cell_volume 3131.082605
_symmetry_space_group_name_H-M "A B M 2"
_symmetry_group_IT_number 39
_symmetry_cell_setting 'orthorhombic'
loop_
_space_group_symop_operation_xyz
x,y,z
-x,-y,z
-x,1/2+y,z
x,1/2-y,z
x,1/2+y,1/2+z
-x,1/2-y,1/2+z
-x,y,1/2+z
x,-y,1/2+z
loop_
_atom_site_type_symbol
_atom_site_label
_atom_site_fract_x
_atom_site_fract_y
_atom_site_fract_z
Si Si1 0.561528 0.932405 0.344820
Si Si2 0.938523 0.069589 0.588440
Si Si3 0.131948 0.073720 0.438444
Si Si4 0.242087 0.928863 0.491463
Si Si5 0.630291 0.067118 0.502732
Si Si6 0.863165 0.429515 0.745617
Si Si7 0.758900 0.427248 0.172588
Si Si8 0.630379 0.428853 0.190401
O O1 0.559195 0.750000 0.361695
O O2 0.500000 0.000000 0.328202
O O3 0.586909 0.015001 0.429426
O O4 0.597507 0.965957 0.258769
O O5 0.946366 0.250000 0.599360
O O6 0.906544 0.003260 0.673625
O O7 0.902381 0.036716 0.502368
O O8 0.000000 0.000000 0.579015
O O9 0.123774 0.250000 0.469657
O O10 0.108782 0.050135 0.340569
O O11 0.198655 0.032399 0.436474
O O12 0.231390 0.750000 0.469078
O O13 0.306580 0.978217 0.470516
O O14 0.229891 0.957169 0.592924
O O15 0.625716 0.250000 0.519062
O O16 0.615534 0.981113 0.592572
O O17 0.848630 0.250000 0.727571
O O18 0.805287 0.528995 0.744573
O O19 0.766144 0.250000 0.141211
O O20 0.696585 0.451975 0.211642
O O21 0.612261 0.250000 0.201783
#
# Coordination Sequence:
#
# PCOD8181512 Si02
#       8
#     8   8   8   8   8   8   8   8
#     4  12  26  44  66  92 125 168 215 264 317 377
#     4  11  24  44  66  88 121 166 209 261 313 367
#     4  11  23  39  61  93 126 163 207 255 307 368
#     4  10  20  36  60  90 128 166 203 253 311 368
#     4  10  22  41  64  93 128 167 211 261 316 376
#     4  10  23  40  60  90 127 163 204 253 308 367
#     4  10  20  35  61  92 126 164 205 252 307 369
#     4  10  22  41  63  94 129 165 211 261 314 377
#
# _framework density 20.440214999999998
#
# number of rings (size 3 to 8) (size 9 to 14) (size 15 to 20)
#    0.000    1.500    1.250    3.375    1.750    5.500 
#    0.000    3.750    0.000    0.000    0.000    0.000 
#    0.000    0.000    0.000    0.000    0.000    0.000 
#
# Total GULP energy -396918.000504 kJ/mol
# GULP energy per Si atom -12403.687516 kJ/mol
# Density = 2.039369 g / cm^3
# Si number density = 20.440215 Si / 1000 Ang^3
#
#
#
# Elastic Constant Matrix: (Units=GPa)
#
#
# Indices 1 2 3 4 5 6 
#
# 1 88.2395 23.5729 38.7492 0.0000 0.0000 0.0000
# 2 23.5729 54.1859 15.0866 0.0000 0.0000 0.0000
# 3 38.7492 15.0866 95.6514 0.0000 0.0000 0.0000
# 4 0.0000 0.0000 0.0000 33.0199 0.0000 0.0000
# 5 0.0000 0.0000 0.0000 0.0000 18.0604 0.0000
# 6 0.0000 0.0000 0.0000 0.0000 0.0000 33.8544
#
#
#
# Elastic Compliance Matrix: (Units=1/GPa)
#
#
# Indices 1 2 3 4 5 6 
#
# 1 0.015002 -0.005056 -0.005280 0.000000 0.000000 0.000000
# 2 -0.005056 0.021007 -0.001265 0.000000 0.000000 0.000000
# 3 -0.005280 -0.001265 0.012793 0.000000 0.000000 0.000000
# 4 0.000000 0.000000 0.000000 0.030285 0.000000 0.000000
# 5 0.000000 0.000000 0.000000 0.000000 0.055370 0.000000
# 6 0.000000 0.000000 0.000000 0.000000 0.000000 0.029538
#
#
# Mechanical properties :
#
#
# Convention : Reuss Voigt Hill
#
# Bulk Modulus (GPa) = 39.06322 43.65493 41.35907
# Shear Modulus (GPa) = 25.54527 27.69815 26.62171
#
# Velocity S-wave (km/s) = 3.53902 3.68514 3.61282
# Velocity P-wave (km/s) = 5.98766 6.28575 6.13852
#
# Compressibility (1/GPa) = 0.02559953
#
# Stress axis : x y z
#
# Youngs Moduli (GPa) = 66.65664 47.60337 78.16701
#
# Poissons Ratio (x) = 0.24070 0.41272
# Poissons Ratio (y) = 0.33705 0.09887
# Poissons Ratio (z) = 0.35195 0.06021
#
# Static dielectric constant tensor:
#      x y z
#    x 3.776070 0.000000 0.000000 
#    y 0.000000 3.716270 0.000000 
#    z 0.000000 0.000000 3.627060 
# 
# 
# High freq. dielectric constant tensor:
#      x y z
#    x 1.795760 0.000000 0.000000 
#    y 0.000000 1.806400 0.000000 
#    z 0.000000 0.000000 1.800750 
# 
# From -- ./inp_files/10615.got.cif
#   From: 2010.03.12/outbox.cif.g09.slc.cpg/sg39_6_cif.got.tgz:10615.got - 2010.04.14 02:53:20.
