data_PCOD8181556
_publ_section_title
;
Structure prediction by ZEFSAII (Michael W. Deem and Ramdas Pophale) SiO2 
 PCOD8181556
Probable space group: A B M 2
;
_chemical_formula_sum "Si O2"
_cell_formula_units_Z 48
_cell_length_a 18.803205
_cell_length_b 8.485554
_cell_length_c 15.145068
_cell_angle_alpha 90.000000
_cell_angle_beta 90.000000
_cell_angle_gamma 90.000000
_cell_volume 2416.480584
_symmetry_space_group_name_H-M "A B M 2"
_symmetry_group_IT_number 39
_symmetry_cell_setting 'orthorhombic'
loop_
_space_group_symop_operation_xyz
x,y,z
-x,-y,z
-x,1/2+y,z
x,1/2-y,z
x,1/2+y,1/2+z
-x,1/2-y,1/2+z
-x,y,1/2+z
x,-y,1/2+z
loop_
_atom_site_type_symbol
_atom_site_label
_atom_site_fract_x
_atom_site_fract_y
_atom_site_fract_z
Si Si1 0.166362 0.567462 0.030180
Si Si2 0.679871 0.434536 0.535858
Si Si3 0.077835 0.064096 0.187125
Si Si4 0.924454 0.434515 0.376550
Si Si5 0.576725 0.935159 0.189207
Si Si6 0.424521 0.566452 0.377371
O O1 0.150303 0.750000 0.012526
O O2 0.249943 0.538203 0.031870
O O3 0.134683 0.516705 0.123794
O O4 0.133165 0.464474 0.951744
O O5 0.698982 0.250000 0.542835
O O6 0.635357 0.494498 0.620006
O O7 0.635004 0.471931 0.448707
O O8 0.079600 0.250000 0.172816
O O9 0.099111 0.022064 0.287145
O O10 0.000000 0.000000 0.163615
O O11 0.931181 0.250000 0.356539
O O12 0.000000 0.500000 0.410262
O O13 0.571186 0.750000 0.185436
O O14 0.500000 0.000000 0.162002
O O15 0.600470 0.988968 0.286080
O O16 0.500000 0.500000 0.410213
O O17 0.434421 0.750000 0.361003
#
# Coordination Sequence:
#
# PCOD8181556 Si02
#       6
#     8   8   8   8   8   8
#     4  12  25  40  59  86 119 158 197 238 291 348
#     4  10  23  40  56  80 115 154 190 234 287 342
#     4  11  22  40  64  90 119 152 194 242 289 343
#     4  11  22  40  64  90 119 152 194 242 289 343
#     4  10  20  36  59  84 112 145 187 234 284 338
#     4  10  20  36  59  84 112 145 187 234 284 338
#
# _framework density 19.863598
#
# number of rings (size 3 to 8) (size 9 to 14) (size 15 to 20)
#    0.000    1.333    0.000    8.500    0.000    4.000 
#    0.000    3.333    0.000    0.000    0.000    0.000 
#    0.000    0.000    0.000    0.000    0.000    0.000 
#
# Total GULP energy -297744.754846 kJ/mol
# GULP energy per Si atom -12406.031452 kJ/mol
# Density = 1.981839 g / cm^3
# Si number density = 19.863598 Si / 1000 Ang^3
#
#
#
# Elastic Constant Matrix: (Units=GPa)
#
#
# Indices 1 2 3 4 5 6 
#
# 1 110.1703 20.8656 55.1272 0.0000 0.0000 0.0000
# 2 20.8656 76.1115 5.6066 0.0000 0.0000 0.0000
# 3 55.1272 5.6066 88.2367 0.0000 0.0000 0.0000
# 4 0.0000 0.0000 0.0000 9.3120 0.0000 0.0000
# 5 0.0000 0.0000 0.0000 0.0000 18.0099 0.0000
# 6 0.0000 0.0000 0.0000 0.0000 0.0000 35.0588
#
#
#
# Elastic Compliance Matrix: (Units=1/GPa)
#
#
# Indices 1 2 3 4 5 6 
#
# 1 0.013937 -0.003194 -0.008505 0.000000 0.000000 0.000000
# 2 -0.003194 0.013933 0.001110 0.000000 0.000000 0.000000
# 3 -0.008505 0.001110 0.016576 0.000000 0.000000 0.000000
# 4 0.000000 0.000000 0.000000 0.107388 0.000000 0.000000
# 5 0.000000 0.000000 0.000000 0.000000 0.055525 0.000000
# 6 0.000000 0.000000 0.000000 0.000000 0.000000 0.028523
#
#
# Mechanical properties :
#
#
# Convention : Reuss Voigt Hill
#
# Bulk Modulus (GPa) = 42.97596 48.63526 45.80561
# Shear Modulus (GPa) = 18.88106 25.33743 22.10925
#
# Velocity S-wave (km/s) = 3.08642 3.57539 3.33986
# Velocity P-wave (km/s) = 5.86377 6.44843 6.16304
#
# Compressibility (1/GPa) = 0.02326882
#
# Stress axis : x y z
#
# Youngs Moduli (GPa) = 71.74922 71.77439 60.32817
#
# Poissons Ratio (x) = 0.22928 0.51307
# Poissons Ratio (y) = 0.22920 -0.06699
# Poissons Ratio (z) = 0.61020 -0.07970
#
# Static dielectric constant tensor:
#      x y z
#    x 3.405390 0.000000 0.000000 
#    y 0.000000 3.715860 0.000000 
#    z 0.000000 0.000000 3.966010 
# 
# 
# High freq. dielectric constant tensor:
#      x y z
#    x 1.770420 0.000000 0.000000 
#    y 0.000000 1.789090 0.000000 
#    z 0.000000 0.000000 1.788190 
# 
# From -- ./inp_files/10046.got.cif
#   From: 2010.03.12/outbox.cif.g09.slc.cpg/sg39_6_cif.got.tgz:10046.got - 2010.04.14 02:53:20.
