data_PCOD8181346
_publ_section_title
;
Structure prediction by ZEFSAII (Michael W. Deem and Ramdas Pophale) SiO2 
 PCOD8181346
Probable space group: A B M 2
;
_chemical_formula_sum "Si O2"
_cell_formula_units_Z 56
_cell_length_a 19.824968
_cell_length_b 9.159875
_cell_length_c 14.964812
_cell_angle_alpha 90.000000
_cell_angle_beta 90.000000
_cell_angle_gamma 90.000000
_cell_volume 2717.523494
_symmetry_space_group_name_H-M "A B M 2"
_symmetry_group_IT_number 39
_symmetry_cell_setting 'orthorhombic'
loop_
_space_group_symop_operation_xyz
x,y,z
-x,-y,z
-x,1/2+y,z
x,1/2-y,z
x,1/2+y,1/2+z
-x,1/2-y,1/2+z
-x,y,1/2+z
x,-y,1/2+z
loop_
_atom_site_type_symbol
_atom_site_label
_atom_site_fract_x
_atom_site_fract_y
_atom_site_fract_z
Si Si1 0.070193 0.921651 0.724620
Si Si2 0.561092 0.590203 0.306701
Si Si3 0.304118 0.412411 0.566265
Si Si4 0.825668 0.082500 0.569631
Si Si5 0.162468 0.421655 0.863137
Si Si6 0.705282 0.586240 0.356111
Si Si7 0.438233 0.589003 0.599853
O O1 0.060292 0.750000 0.742711
O O2 0.112473 0.950519 0.634818
O O3 0.103962 0.993330 0.811532
O O4 0.000000 0.000000 0.707405
O O5 0.500000 0.500000 0.352344
O O6 0.562905 0.750000 0.352921
O O7 0.634582 0.516721 0.321696
O O8 0.544935 0.607644 0.203286
O O9 0.310884 0.250000 0.607111
O O10 0.237321 0.488336 0.605488
O O11 0.296733 0.404901 0.461338
O O12 0.368855 0.505014 0.590675
O O13 0.802662 0.250000 0.573868
O O14 0.846789 0.042582 0.468215
O O15 0.157779 0.250000 0.843454
O O16 0.234134 0.481003 0.826052
O O17 0.716285 0.750000 0.315883
O O18 0.500000 0.500000 0.554189
O O19 0.432900 0.750000 0.555431
#
# Coordination Sequence:
#
# PCOD8181346 Si02
#       7
#     8   8   8   8   8   8   8
#     4  11  24  42  64  91 122 157 195 236 286 348
#     4   9  19  34  51  72 102 141 185 231 282 337
#     4  10  20  34  55  82 111 143 186 236 287 344
#     4   9  21  41  62  86 121 160 197 239 290 346
#     4  10  21  39  62  91 122 155 197 243 290 345
#     4   9  19  36  55  79 110 147 187 231 287 344
#     4  10  20  34  51  73 105 145 188 236 288 344
#
# _framework density 20.606997
#
# number of rings (size 3 to 8) (size 9 to 14) (size 15 to 20)
#    0.000    2.286    0.000    1.714    2.000    4.571 
#    0.000    2.857    0.000    0.000    0.000    0.000 
#    0.000    0.000    0.000    0.000    0.000    0.000 
#
# Total GULP energy -347170.409286 kJ/mol
# GULP energy per Si atom -12398.943189 kJ/mol
# Density = 2.056010 g / cm^3
# Si number density = 20.606997 Si / 1000 Ang^3
#
#
#
# Elastic Constant Matrix: (Units=GPa)
#
#
# Indices 1 2 3 4 5 6 
#
# 1 176.1315 100.9046 40.0316 0.0000 0.0000 0.0000
# 2 100.9046 159.5763 40.7771 0.0000 0.0000 0.0000
# 3 40.0316 40.7771 44.0504 0.0000 0.0000 0.0000
# 4 0.0000 0.0000 0.0000 10.6568 0.0000 0.0000
# 5 0.0000 0.0000 0.0000 0.0000 40.9977 0.0000
# 6 0.0000 0.0000 0.0000 0.0000 0.0000 43.6455
#
#
#
# Elastic Compliance Matrix: (Units=1/GPa)
#
#
# Indices 1 2 3 4 5 6 
#
# 1 0.009408 -0.004931 -0.003986 0.000000 0.000000 0.000000
# 2 -0.004931 0.010792 -0.005510 0.000000 0.000000 0.000000
# 3 -0.003986 -0.005510 0.031423 0.000000 0.000000 0.000000
# 4 0.000000 0.000000 0.000000 0.093836 0.000000 0.000000
# 5 0.000000 0.000000 0.000000 0.000000 0.024392 0.000000
# 6 0.000000 0.000000 0.000000 0.000000 0.000000 0.022912
#
#
# Mechanical properties :
#
#
# Convention : Reuss Voigt Hill
#
# Bulk Modulus (GPa) = 43.91296 82.57609 63.24453
# Shear Modulus (GPa) = 21.81446 32.26299 27.03872
#
# Velocity S-wave (km/s) = 3.25714 3.96110 3.62624
# Velocity P-wave (km/s) = 5.95829 7.81532 6.94912
#
# Compressibility (1/GPa) = 0.02277232
#
# Stress axis : x y z
#
# Youngs Moduli (GPa) = 106.29105 92.65955 31.82342
#
# Poissons Ratio (x) = 0.45686 0.12684
# Poissons Ratio (y) = 0.52407 0.17533
# Poissons Ratio (z) = 0.42364 0.51051
#
# Static dielectric constant tensor:
#      x y z
#    x 3.760510 0.000000 0.000000 
#    y 0.000000 4.251180 0.000000 
#    z 0.000000 0.000000 3.593870 
# 
# 
# High freq. dielectric constant tensor:
#      x y z
#    x 1.808690 0.000000 0.000000 
#    y 0.000000 1.813190 0.000000 
#    z 0.000000 0.000000 1.792610 
# 
# From -- ./inp_files/10384.got.cif
#   From: 2010.03.12/outbox.cif.g09.slc.cpg/sg39_6_cif.got.tgz:10384.got - 2010.04.14 02:53:20.
