data_PCOD8181675
_publ_section_title
;
Structure prediction by ZEFSAII (Michael W. Deem and Ramdas Pophale) SiO2 
 PCOD8181675
Probable space group: A B M 2
;
_chemical_formula_sum "Si O2"
_cell_formula_units_Z 64
_cell_length_a 18.843014
_cell_length_b 8.854230
_cell_length_c 19.485438
_cell_angle_alpha 90.000000
_cell_angle_beta 90.000000
_cell_angle_gamma 90.000000
_cell_volume 3250.957877
_symmetry_space_group_name_H-M "A B M 2"
_symmetry_group_IT_number 39
_symmetry_cell_setting 'orthorhombic'
loop_
_space_group_symop_operation_xyz
x,y,z
-x,-y,z
-x,1/2+y,z
x,1/2-y,z
x,1/2+y,1/2+z
-x,1/2-y,1/2+z
-x,y,1/2+z
x,-y,1/2+z
loop_
_atom_site_type_symbol
_atom_site_label
_atom_site_fract_x
_atom_site_fract_y
_atom_site_fract_z
Si Si1 0.151747 0.078757 0.601430
Si Si2 0.426442 0.428618 0.330142
Si Si3 0.299345 0.070761 0.424968
Si Si4 0.928146 0.927105 0.986678
Si Si5 0.923321 0.926838 0.742945
Si Si6 0.426932 0.427254 0.174076
Si Si7 0.149898 0.570323 0.866127
Si Si8 0.689149 0.576438 0.581310
O O1 0.138226 0.250000 0.575247
O O2 0.103827 0.041645 0.666613
O O3 0.234698 0.058156 0.617924
O O4 0.133134 0.962814 0.541221
O O5 0.500000 0.500000 0.355783
O O6 0.432979 0.250000 0.336172
O O7 0.364160 0.491526 0.379033
O O8 0.409654 0.478924 0.252014
O O9 0.297229 0.250000 0.423462
O O10 0.226043 0.009932 0.392499
O O11 0.307759 0.014722 0.503169
O O12 0.936535 0.750000 0.976299
O O13 0.911477 0.005223 0.914518
O O14 0.000000 0.000000 0.015998
O O15 0.928150 0.750000 0.759487
O O16 0.864876 0.005132 0.790979
O O17 0.000000 0.000000 0.753413
O O18 0.500000 0.500000 0.148314
O O19 0.435993 0.250000 0.169961
O O20 0.364700 0.476356 0.124009
O O21 0.146253 0.750000 0.864846
O O22 0.663867 0.750000 0.582389
#
# Coordination Sequence:
#
# PCOD8181675 Si02
#       8
#     8   8   8   8   8   8   8   8
#     4  10  22  41  62  87 122 159 198 244 301 361
#     4   9  19  37  59  86 116 152 193 237 283 339
#     4   9  19  37  61  85 116 154 192 235 290 350
#     4  12  24  39  62  88 118 154 200 249 296 356
#     4  11  24  41  60  87 119 154 199 250 300 358
#     4  10  21  37  59  87 120 154 197 241 286 344
#     4  11  22  40  63  86 118 158 198 244 301 359
#     4  10  20  38  61  86 120 157 191 236 295 352
#
# _framework density 19.686505
#
# number of rings (size 3 to 8) (size 9 to 14) (size 15 to 20)
#    0.000    1.750    1.250    3.000    1.750    3.500 
#    0.000    3.125    0.000    0.000    0.000    0.000 
#    0.000    0.000    0.000    0.000    0.000    0.000 
#
# Total GULP energy -396927.376997 kJ/mol
# GULP energy per Si atom -12403.980531 kJ/mol
# Density = 1.964170 g / cm^3
# Si number density = 19.686505 Si / 1000 Ang^3
#
#
#
# Elastic Constant Matrix: (Units=GPa)
#
#
# Indices 1 2 3 4 5 6 
#
# 1 115.5214 32.8834 48.3493 0.0000 0.0000 0.0000
# 2 32.8834 79.2750 34.6192 0.0000 0.0000 0.0000
# 3 48.3493 34.6192 83.0380 0.0000 0.0000 0.0000
# 4 0.0000 0.0000 0.0000 26.2151 0.0000 0.0000
# 5 0.0000 0.0000 0.0000 0.0000 41.9871 0.0000
# 6 0.0000 0.0000 0.0000 0.0000 0.0000 31.5283
#
#
#
# Elastic Compliance Matrix: (Units=1/GPa)
#
#
# Indices 1 2 3 4 5 6 
#
# 1 0.011782 -0.002312 -0.005896 0.000000 0.000000 0.000000
# 2 -0.002312 0.015876 -0.005272 0.000000 0.000000 0.000000
# 3 -0.005896 -0.005272 0.017674 0.000000 0.000000 0.000000
# 4 0.000000 0.000000 0.000000 0.038146 0.000000 0.000000
# 5 0.000000 0.000000 0.000000 0.000000 0.023817 0.000000
# 6 0.000000 0.000000 0.000000 0.000000 0.000000 0.031718
#
#
# Mechanical properties :
#
#
# Convention : Reuss Voigt Hill
#
# Bulk Modulus (GPa) = 54.43644 56.61536 55.52590
# Shear Modulus (GPa) = 29.05316 30.74493 29.89905
#
# Velocity S-wave (km/s) = 3.84577 3.95616 3.90135
# Velocity P-wave (km/s) = 6.88706 7.04905 6.96853
#
# Compressibility (1/GPa) = 0.01837005
#
# Stress axis : x y z
#
# Youngs Moduli (GPa) = 84.87215 62.98827 56.58055
#
# Poissons Ratio (x) = 0.14566 0.33362
# Poissons Ratio (y) = 0.19626 0.29831
# Poissons Ratio (z) = 0.50043 0.33210
#
# Static dielectric constant tensor:
#      x y z
#    x 3.697210 0.000000 0.000000 
#    y 0.000000 3.424380 0.000000 
#    z 0.000000 0.000000 3.659180 
# 
# 
# High freq. dielectric constant tensor:
#      x y z
#    x 1.776480 0.000000 0.000000 
#    y 0.000000 1.755090 0.000000 
#    z 0.000000 0.000000 1.771860 
# 
# From -- ./inp_files/13172.got.cif
#   From: 2010.03.12/outbox.cif.g09.slc.cpg/sg39_7_cif.got.tgz:13172.got - 2010.04.14 02:53:20.
