data_PCOD8181390
_publ_section_title
;
Structure prediction by ZEFSAII (Michael W. Deem and Ramdas Pophale) SiO2 
 PCOD8181390
Probable space group: A B M 2
;
_chemical_formula_sum "Si O2"
_cell_formula_units_Z 64
_cell_length_a 33.228437
_cell_length_b 10.322821
_cell_length_c 8.787619
_cell_angle_alpha 90.000000
_cell_angle_beta 90.000000
_cell_angle_gamma 90.000000
_cell_volume 3014.251802
_symmetry_space_group_name_H-M "A B M 2"
_symmetry_group_IT_number 39
_symmetry_cell_setting 'orthorhombic'
loop_
_space_group_symop_operation_xyz
x,y,z
-x,-y,z
-x,1/2+y,z
x,1/2-y,z
x,1/2+y,1/2+z
-x,1/2-y,1/2+z
-x,y,1/2+z
x,-y,1/2+z
loop_
_atom_site_type_symbol
_atom_site_label
_atom_site_fract_x
_atom_site_fract_y
_atom_site_fract_z
Si Si1 0.411816 0.475506 0.837610
Si Si2 0.778315 0.958027 0.262931
Si Si3 0.534313 0.107059 0.069959
Si Si4 0.034953 0.596742 0.660339
Si Si5 0.168688 0.608917 0.034657
Si Si6 0.724841 0.392007 0.492013
Si Si7 0.080303 0.398385 0.458551
Si Si8 0.641723 0.394118 0.598213
O O1 0.439894 0.394038 0.724845
O O2 0.374618 0.534532 0.746098
O O3 0.438095 0.585853 0.921458
O O4 0.392499 0.386551 0.968123
O O5 0.800519 0.876723 0.393074
O O6 0.813296 0.034520 0.177045
O O7 0.745019 0.044274 0.346194
O O8 0.755039 0.876887 0.135252
O O9 0.514828 0.250000 0.055503
O O10 0.500000 0.000000 0.077878
O O11 0.022085 0.750000 0.618979
O O12 0.051616 0.512246 0.520149
O O13 0.000000 0.500000 0.724522
O O14 0.070888 0.607209 0.780396
O O15 0.160566 0.750000 0.100066
O O16 0.125946 0.551521 0.981037
O O17 0.713010 0.250000 0.434995
O O18 0.683076 0.463525 0.540555
O O19 0.073339 0.250000 0.524211
O O20 0.652616 0.250000 0.650935
#
# Coordination Sequence:
#
# PCOD8181390 Si02
#       8
#     8   8   8   8   8   8   8   8
#     4  10  22  38  58  82 112 146 187 231 280 334
#     4  10  20  34  54  81 112 145 185 228 277 329
#     4  11  24  40  60  86 115 148 188 233 283 340
#     4  11  23  39  60  86 115 149 189 234 285 341
#     4  10  20  36  56  79 111 148 185 229 279 330
#     4  10  20  34  54  81 111 145 186 229 275 328
#     4  10  22  39  59  85 115 150 193 237 283 337
#     4  10  20  36  57  80 110 147 185 229 278 329
#
# _framework density 21.232467
#
# number of rings (size 3 to 8) (size 9 to 14) (size 15 to 20)
#    0.000    1.750    0.000    4.125    0.000    6.000 
#    0.000    3.125    0.000   12.000    0.000    0.000 
#    0.000    0.000    0.000    0.000    0.000    0.000 
#
# Total GULP energy -396431.222225 kJ/mol
# GULP energy per Si atom -12388.475695 kJ/mol
# Density = 2.118414 g / cm^3
# Si number density = 21.232467 Si / 1000 Ang^3
#
#
#
# Elastic Constant Matrix: (Units=GPa)
#
#
# Indices 1 2 3 4 5 6 
#
# 1 89.7829 20.7519 3.8735 0.0000 0.0000 0.0000
# 2 20.7519 109.7777 12.6970 0.0000 0.0000 0.0000
# 3 3.8735 12.6970 68.5281 0.0000 0.0000 0.0000
# 4 0.0000 0.0000 0.0000 -136.2643 0.0000 0.0000
# 5 0.0000 0.0000 0.0000 0.0000 33.0311 0.0000
# 6 0.0000 0.0000 0.0000 0.0000 0.0000 24.1895
#
#
#
# Elastic Compliance Matrix: (Units=1/GPa)
#
#
# Indices 1 2 3 4 5 6 
#
# 1 0.011651 -0.002173 -0.000256 0.000000 0.000000 0.000000
# 2 -0.002173 0.009714 -0.001677 0.000000 0.000000 0.000000
# 3 -0.000256 -0.001677 0.014918 0.000000 0.000000 0.000000
# 4 0.000000 0.000000 0.000000 -0.007339 0.000000 0.000000
# 5 0.000000 0.000000 0.000000 0.000000 0.030274 0.000000
# 6 0.000000 0.000000 0.000000 0.000000 0.000000 0.041340
#
#
# Mechanical properties :
#
#
# Convention : Reuss Voigt Hill
#
# Bulk Modulus (GPa) = 35.62361 38.08149 36.85255
# Shear Modulus (GPa) = 42.32697 -0.42431 20.95133
#
# Velocity S-wave (km/s) = 4.46971 -0.44752 3.14468
# Velocity P-wave (km/s) = 6.59182 4.20802 5.52989
#
# Compressibility (1/GPa) = 0.02807127
#
# Stress axis : x y z
#
# Youngs Moduli (GPa) = 85.82766 102.94384 67.03424
#
# Poissons Ratio (x) = 0.22369 0.01716
# Poissons Ratio (y) = 0.18649 0.11242
# Poissons Ratio (z) = 0.02197 0.17264
#
# Static dielectric constant tensor:
#      x y z
#    x 4.023680 0.000000 0.000000 
#    y 0.000000 3.757300 0.000000 
#    z 0.000000 0.000000 3.729490 
# 
# 
# High freq. dielectric constant tensor:
#      x y z
#    x 1.845400 0.000000 0.000000 
#    y 0.000000 1.819480 0.000000 
#    z 0.000000 0.000000 1.832630 
# 
# From -- ./inp_files/4152.got.cif
#   From: 2010.03.12/outbox.cif.g09.slc.cpg/sg39_3_cif.got.tgz:4152.got - 2010.04.14 02:53:20.
