data_PCOD8181023
_publ_section_title
;
Structure prediction by ZEFSAII (Michael W. Deem and Ramdas Pophale) SiO2 
 PCOD8181023
Probable space group: A B M 2
;
_chemical_formula_sum "Si O2"
_cell_formula_units_Z 56
_cell_length_a 19.646044
_cell_length_b 8.673114
_cell_length_c 15.403316
_cell_angle_alpha 90.000000
_cell_angle_beta 90.000000
_cell_angle_gamma 90.000000
_cell_volume 2624.607662
_symmetry_space_group_name_H-M "A B M 2"
_symmetry_group_IT_number 39
_symmetry_cell_setting 'orthorhombic'
loop_
_space_group_symop_operation_xyz
x,y,z
-x,-y,z
-x,1/2+y,z
x,1/2-y,z
x,1/2+y,1/2+z
-x,1/2-y,1/2+z
-x,y,1/2+z
x,-y,1/2+z
loop_
_atom_site_type_symbol
_atom_site_label
_atom_site_fract_x
_atom_site_fract_y
_atom_site_fract_z
Si Si1 0.655220 0.070656 0.909150
Si Si2 0.427124 0.067928 0.753592
Si Si3 0.935260 0.070653 0.338776
Si Si4 0.355702 0.570014 0.587933
Si Si5 0.212976 0.429370 0.167541
Si Si6 0.066068 0.927327 0.650447
Si Si7 0.214282 0.927290 0.353550
O O1 0.640940 0.250000 0.894299
O O2 0.623919 0.974121 0.830546
O O3 0.735969 0.035062 0.909570
O O4 0.622829 0.017237 0.000036
O O5 0.431217 0.250000 0.742663
O O6 0.500000 0.000000 0.778434
O O7 0.402109 0.994010 0.664331
O O8 0.946430 0.250000 0.318634
O O9 0.863246 0.045298 0.387502
O O10 0.933232 0.974657 0.250504
O O11 0.000000 0.000000 0.392652
O O12 0.370569 0.750000 0.577030
O O13 0.276039 0.537122 0.604736
O O14 0.212293 0.250000 0.197150
O O15 0.142299 0.470139 0.115862
O O16 0.220676 0.535572 0.251738
O O17 0.052928 0.750000 0.639545
O O18 0.000000 0.000000 0.601648
O O19 0.235531 0.750000 0.367871
#
# Coordination Sequence:
#
# PCOD8181023 Si02
#       7
#     8   8   8   8   8   8   8
#     4  12  25  42  65  96 131 170 213 260 313 370
#     4  12  26  47  73 102 133 167 205 251 306 370
#     4   9  16  25  41  70 107 149 198 253 310 369
#     4  11  23  42  67  97 130 168 212 260 312 370
#     4   9  18  32  54  81 116 158 204 254 312 371
#     4   9  15  24  40  69 106 149 196 249 304 363
#     4  10  19  32  54  83 117 159 208 260 314 373
#
# _framework density 21.336521000000001
#
# number of rings (size 3 to 8) (size 9 to 14) (size 15 to 20)
#    0.000    1.714    1.429    5.143    0.000    3.429 
#    0.000    2.857    0.000    0.857    0.000    2.000 
#    0.000    0.000    0.000    0.000    0.000    0.000 
#
# Total GULP energy -347056.859716 kJ/mol
# GULP energy per Si atom -12394.887847 kJ/mol
# Density = 2.128796 g / cm^3
# Si number density = 21.336521 Si / 1000 Ang^3
#
#
#
# Elastic Constant Matrix: (Units=GPa)
#
#
# Indices 1 2 3 4 5 6 
#
# 1 99.8788 31.9822 12.9767 0.0000 0.0000 0.0000
# 2 31.9822 63.0013 8.2766 0.0000 0.0000 0.0000
# 3 12.9767 8.2766 69.1091 0.0000 0.0000 0.0000
# 4 0.0000 0.0000 0.0000 25.7992 0.0000 0.0000
# 5 0.0000 0.0000 0.0000 0.0000 4.0499 0.0000
# 6 0.0000 0.0000 0.0000 0.0000 0.0000 37.2200
#
#
#
# Elastic Compliance Matrix: (Units=1/GPa)
#
#
# Indices 1 2 3 4 5 6 
#
# 1 0.012120 -0.005947 -0.001563 0.000000 0.000000 0.000000
# 2 -0.005947 0.019045 -0.001164 0.000000 0.000000 0.000000
# 3 -0.001563 -0.001164 0.014903 0.000000 0.000000 0.000000
# 4 0.000000 0.000000 0.000000 0.038761 0.000000 0.000000
# 5 0.000000 0.000000 0.000000 0.000000 0.246921 0.000000
# 6 0.000000 0.000000 0.000000 0.000000 0.000000 0.026867
#
#
# Mechanical properties :
#
#
# Convention : Reuss Voigt Hill
#
# Bulk Modulus (GPa) = 34.82167 37.60670 36.21418
# Shear Modulus (GPa) = 12.96889 25.33072 19.14981
#
# Velocity S-wave (km/s) = 2.46809 3.44931 2.99910
# Velocity P-wave (km/s) = 4.94748 5.79029 5.38540
#
# Compressibility (1/GPa) = 0.02871775
#
# Stress axis : x y z
#
# Youngs Moduli (GPa) = 82.51114 52.50831 67.10116
#
# Poissons Ratio (x) = 0.31227 0.10491
# Poissons Ratio (y) = 0.49070 0.07812
# Poissons Ratio (z) = 0.12900 0.06113
#
# Static dielectric constant tensor:
#      x y z
#    x 4.618730 0.000000 0.000000 
#    y 0.000000 3.863510 0.000000 
#    z 0.000000 0.000000 3.380640 
# 
# 
# High freq. dielectric constant tensor:
#      x y z
#    x 1.858580 0.000000 0.000000 
#    y 0.000000 1.844050 0.000000 
#    z 0.000000 0.000000 1.794570 
# 
# From -- ./inp_files/10401.got.cif
#   From: 2010.03.12/outbox.cif.g09.slc.cpg/sg39_6_cif.got.tgz:10401.got - 2010.04.14 02:53:20.
