data_PCOD8181220
_publ_section_title
;
Structure prediction by ZEFSAII (Michael W. Deem and Ramdas Pophale) SiO2 
 PCOD8181220
Probable space group: A B M 2
;
_chemical_formula_sum "Si O2"
_cell_formula_units_Z 64
_cell_length_a 9.236227
_cell_length_b 18.640124
_cell_length_c 19.179690
_cell_angle_alpha 90.000000
_cell_angle_beta 90.000000
_cell_angle_gamma 90.000000
_cell_volume 3302.060139
_symmetry_space_group_name_H-M "A B M 2"
_symmetry_group_IT_number 39
_symmetry_cell_setting 'orthorhombic'
loop_
_space_group_symop_operation_xyz
x,y,z
-x,-y,z
-x,1/2+y,z
x,1/2-y,z
x,1/2+y,1/2+z
-x,1/2-y,1/2+z
-x,y,1/2+z
x,-y,1/2+z
loop_
_atom_site_type_symbol
_atom_site_label
_atom_site_fract_x
_atom_site_fract_y
_atom_site_fract_z
Si Si1 0.023272 0.418531 0.577860
Si Si2 0.107337 0.065813 0.427431
Si Si3 0.712125 0.168219 0.731044
Si Si4 0.732972 0.831928 0.077461
Si Si5 0.892326 0.333754 0.358249
Si Si6 0.394894 0.667388 0.434807
Si Si7 0.599856 0.431843 0.851717
Si Si8 0.949744 0.168355 0.208178
O O1 0.868852 0.382649 0.561835
O O2 0.000000 0.500000 0.600634
O O3 0.124554 0.413099 0.509115
O O4 0.100984 0.379868 0.643142
O O5 0.257097 0.042162 0.392024
O O6 0.041080 0.131926 0.385001
O O7 0.000000 0.000000 0.421022
O O8 0.675414 0.250000 0.754548
O O9 0.656715 0.153290 0.651974
O O10 0.634851 0.111248 0.781098
O O11 0.883563 0.155883 0.728569
O O12 0.792200 0.750000 0.075535
O O13 0.612696 0.843996 0.018053
O O14 0.919626 0.250000 0.366540
O O15 0.755735 0.360386 0.402213
O O16 0.859990 0.353256 0.277228
O O17 0.421833 0.750000 0.414736
O O18 0.524891 0.621139 0.405974
O O19 0.500000 0.500000 0.833114
O O20 0.920858 0.250000 0.186309
#
# Coordination Sequence:
#
# PCOD8181220 Si02
#       8
#     8   8   8   8   8   8   8   8
#     4  10  20  33  56  88 117 149 194 247 299 345
#     4  11  23  39  59  83 117 156 197 246 293 348
#     4   9  18  37  62  86 114 151 198 251 299 353
#     4   9  18  37  64  87 114 154 201 246 299 355
#     4  10  19  35  62  89 113 148 198 246 294 349
#     4  10  21  39  62  88 118 158 198 239 295 360
#     4  12  25  39  57  87 126 161 196 242 300 362
#     4   9  18  35  58  89 118 146 191 251 303 343
#
# _framework density 19.381838999999999
#
# number of rings (size 3 to 8) (size 9 to 14) (size 15 to 20)
#    0.000    2.000    2.500    2.250    1.750    1.500 
#    4.500    1.875    0.000    3.000    0.000    0.000 
#    0.000    0.000    0.000    0.000    0.000    0.000 
#
# Total GULP energy -396762.182489 kJ/mol
# GULP energy per Si atom -12398.818203 kJ/mol
# Density = 1.933773 g / cm^3
# Si number density = 19.381839 Si / 1000 Ang^3
#
#
#
# Elastic Constant Matrix: (Units=GPa)
#
#
# Indices 1 2 3 4 5 6 
#
# 1 67.1107 37.2282 43.8575 0.0000 0.0000 0.0000
# 2 37.2282 95.0962 65.7940 0.0000 0.0000 0.0000
# 3 43.8575 65.7940 161.8295 0.0000 0.0000 0.0000
# 4 0.0000 0.0000 0.0000 22.8823 0.0000 0.0000
# 5 0.0000 0.0000 0.0000 0.0000 23.2858 0.0000
# 6 0.0000 0.0000 0.0000 0.0000 0.0000 30.1702
#
#
#
# Elastic Compliance Matrix: (Units=1/GPa)
#
#
# Indices 1 2 3 4 5 6 
#
# 1 0.020113 -0.005708 -0.003130 0.000000 0.000000 0.000000
# 2 -0.005708 0.016251 -0.005060 0.000000 0.000000 0.000000
# 3 -0.003130 -0.005060 0.009085 0.000000 0.000000 0.000000
# 4 0.000000 0.000000 0.000000 0.043702 0.000000 0.000000
# 5 0.000000 0.000000 0.000000 0.000000 0.042945 0.000000
# 6 0.000000 0.000000 0.000000 0.000000 0.000000 0.033145
#
#
# Mechanical properties :
#
#
# Convention : Reuss Voigt Hill
#
# Bulk Modulus (GPa) = 56.65034 68.64397 62.64716
# Shear Modulus (GPa) = 25.13555 27.07812 26.10683
#
# Velocity S-wave (km/s) = 3.60510 3.74182 3.67410
# Velocity P-wave (km/s) = 6.82796 7.35947 7.09869
#
# Compressibility (1/GPa) = 0.01765214
#
# Stress axis : x y z
#
# Youngs Moduli (GPa) = 49.71974 61.53367 110.07252
#
# Poissons Ratio (x) = 0.35124 0.34453
# Poissons Ratio (y) = 0.28381 0.55699
# Poissons Ratio (z) = 0.15563 0.31137
#
# Static dielectric constant tensor:
#      x y z
#    x 3.221400 0.000000 0.000000 
#    y 0.000000 3.559800 0.000000 
#    z 0.000000 0.000000 3.975580 
# 
# 
# High freq. dielectric constant tensor:
#      x y z
#    x 1.713650 0.000000 0.000000 
#    y 0.000000 1.758620 0.000000 
#    z 0.000000 0.000000 1.774260 
# 
# From -- ./inp_files/14237.got.cif
#   From: 2010.03.12/outbox.cif.g09.slc.cpg/sg39_8_cif.got.tgz:14237.got - 2010.04.14 02:53:20.
