data_PCOD8181664
_publ_section_title
;
Structure prediction by ZEFSAII (Michael W. Deem and Ramdas Pophale) SiO2 
 PCOD8181664
Probable space group: A B M 2
;
_chemical_formula_sum "Si O2"
_cell_formula_units_Z 40
_cell_length_a 8.151351
_cell_length_b 24.272403
_cell_length_c 10.097095
_cell_angle_alpha 90.000000
_cell_angle_beta 90.000000
_cell_angle_gamma 90.000000
_cell_volume 1997.739290
_symmetry_space_group_name_H-M "A B M 2"
_symmetry_group_IT_number 39
_symmetry_cell_setting 'orthorhombic'
loop_
_space_group_symop_operation_xyz
x,y,z
-x,-y,z
-x,1/2+y,z
x,1/2-y,z
x,1/2+y,1/2+z
-x,1/2-y,1/2+z
-x,y,1/2+z
x,-y,1/2+z
loop_
_atom_site_type_symbol
_atom_site_label
_atom_site_fract_x
_atom_site_fract_y
_atom_site_fract_z
Si Si1 0.135354 0.685992 0.080480
Si Si2 0.838083 0.030674 0.942544
Si Si3 0.395815 0.398637 0.601937
Si Si4 0.657185 0.923892 0.883442
Si Si5 0.994572 0.630777 0.833208
O O1 0.142030 0.750000 0.113100
O O2 0.322196 0.663050 0.090395
O O3 0.015592 0.656012 0.186579
O O4 0.065131 0.676245 0.933796
O O5 0.889025 0.076296 0.832088
O O6 0.705983 0.988316 0.882939
O O7 0.756671 0.061014 0.067394
O O8 0.000000 0.000000 0.996740
O O9 0.450081 0.412234 0.751895
O O10 0.551159 0.407589 0.509960
O O11 0.815074 0.885173 0.885245
#
# Coordination Sequence:
#
# PCOD8181664 Si02
#       5
#     8   8   8   8   8
#     4  10  20  38  59  81 108 142 185 236 279 321
#     4   9  19  34  55  82 111 142 178 227 280 332
#     4  10  22  36  53  80 111 146 185 223 271 337
#     4  10  21  36  54  80 114 146 179 223 276 335
#     4   9  20  36  58  83 108 140 185 229 278 335
#
# _framework density 20.022634
#
# number of rings (size 3 to 8) (size 9 to 14) (size 15 to 20)
#    0.000    2.400    0.000    1.200    0.000   13.600 
#    0.000    5.000    0.000    0.000    0.000    0.000 
#    0.000    0.000    0.000    0.000    0.000    0.000 
#
# Total GULP energy -247986.054518 kJ/mol
# GULP energy per Si atom -12399.302726 kJ/mol
# Density = 1.997706 g / cm^3
# Si number density = 20.022634 Si / 1000 Ang^3
#
#
#
# Elastic Constant Matrix: (Units=GPa)
#
#
# Indices 1 2 3 4 5 6 
#
# 1 66.8278 27.5855 32.1284 0.0000 0.0000 0.0000
# 2 27.5855 114.0532 21.4286 0.0000 0.0000 0.0000
# 3 32.1284 21.4286 85.1981 0.0000 0.0000 0.0000
# 4 0.0000 0.0000 0.0000 21.5631 0.0000 0.0000
# 5 0.0000 0.0000 0.0000 0.0000 33.8737 0.0000
# 6 0.0000 0.0000 0.0000 0.0000 0.0000 18.9887
#
#
#
# Elastic Compliance Matrix: (Units=1/GPa)
#
#
# Indices 1 2 3 4 5 6 
#
# 1 0.019527 -0.003505 -0.006482 0.000000 0.000000 0.000000
# 2 -0.003505 0.009832 -0.001151 0.000000 0.000000 0.000000
# 3 -0.006482 -0.001151 0.014471 0.000000 0.000000 0.000000
# 4 0.000000 0.000000 0.000000 0.046375 0.000000 0.000000
# 5 0.000000 0.000000 0.000000 0.000000 0.029521 0.000000
# 6 0.000000 0.000000 0.000000 0.000000 0.000000 0.052663
#
#
# Mechanical properties :
#
#
# Convention : Reuss Voigt Hill
#
# Bulk Modulus (GPa) = 46.39583 47.59602 46.99593
# Shear Modulus (GPa) = 24.77075 27.21421 25.99248
#
# Velocity S-wave (km/s) = 3.52111 3.69070 3.60690
# Velocity P-wave (km/s) = 6.30500 6.47953 6.39286
#
# Compressibility (1/GPa) = 0.02155366
#
# Stress axis : x y z
#
# Youngs Moduli (GPa) = 51.21108 101.71024 69.10232
#
# Poissons Ratio (x) = 0.35650 0.44793
# Poissons Ratio (y) = 0.17950 0.07954
# Poissons Ratio (z) = 0.33196 0.11708
#
# Static dielectric constant tensor:
#      x y z
#    x 3.543160 0.000000 0.000000 
#    y 0.000000 3.635500 0.000000 
#    z 0.000000 0.000000 3.540690 
# 
# 
# High freq. dielectric constant tensor:
#      x y z
#    x 1.773780 0.000000 0.000000 
#    y 0.000000 1.773170 0.000000 
#    z 0.000000 0.000000 1.779310 
# 
# From -- ./inp_files/2093.got.cif
#   From: 2010.03.12/outbox.cif.g09.slc.cpg/sg39_2_cif.got.tgz:2093.got - 2010.04.14 02:53:20.
