data_PCOD8181846
_publ_section_title
;
Structure prediction by ZEFSAII (Michael W. Deem and Ramdas Pophale) SiO2 
 PCOD8181846
Probable space group: A B M 2
;
_chemical_formula_sum "Si O2"
_cell_formula_units_Z 40
_cell_length_a 28.423923
_cell_length_b 13.314834
_cell_length_c 4.954233
_cell_angle_alpha 90.000000
_cell_angle_beta 90.000000
_cell_angle_gamma 90.000000
_cell_volume 1874.978111
_symmetry_space_group_name_H-M "A B M 2"
_symmetry_group_IT_number 39
_symmetry_cell_setting 'orthorhombic'
loop_
_space_group_symop_operation_xyz
x,y,z
-x,-y,z
-x,1/2+y,z
x,1/2-y,z
x,1/2+y,1/2+z
-x,1/2-y,1/2+z
-x,y,1/2+z
x,-y,1/2+z
loop_
_atom_site_type_symbol
_atom_site_label
_atom_site_fract_x
_atom_site_fract_y
_atom_site_fract_z
Si Si1 0.399435 0.568971 0.071850
Si Si2 0.100565 0.931029 0.126409
Si Si3 0.201747 0.933881 0.026177
Si Si4 0.298253 0.433881 0.672082
Si Si5 0.468659 0.250000 0.571766
Si Si6 0.968659 0.750000 0.626493
O O1 0.405330 0.474858 0.272599
O O2 0.347706 0.621620 0.107909
O O3 0.438493 0.651315 0.129873
O O4 0.061507 0.848685 0.068386
O O5 0.094670 0.974858 0.425660
O O6 0.152294 0.878380 0.090351
O O7 0.202721 0.034506 0.213488
O O8 0.250000 0.871591 0.099130
O O9 0.297279 0.534506 0.484772
O O10 0.486148 0.250000 0.264716
O O11 0.013852 0.750000 0.433543
#
# Coordination Sequence:
#
# PCOD8181846 Si02
#       6
#     8   8   8   8   4   4
#     4  10  21  38  59  82 111 145 180 223 275 326
#     4  10  21  38  59  82 111 145 180 223 275 326
#     4   8  14  27  50  78 106 137 171 210 261 320
#     4   8  14  27  50  78 106 137 171 210 261 320
#     4  12  26  40  57  82 109 142 190 236 272 320
#     4  12  26  40  57  82 109 142 190 236 272 320
#
# _framework density 21.333583999999998
#
# number of rings (size 3 to 8) (size 9 to 14) (size 15 to 20)
#    0.000    2.400    0.000    2.400    0.000    4.800 
#    0.000    1.000    0.000    0.000    0.000   30.800 
#    0.000    0.000    0.000    0.000    0.000    0.000 
#
# Total GULP energy -247789.190763 kJ/mol
# GULP energy per Si atom -12389.459538 kJ/mol
# Density = 2.128503 g / cm^3
# Si number density = 21.333584 Si / 1000 Ang^3
#
#
#
# Elastic Constant Matrix: (Units=GPa)
#
#
# Indices 1 2 3 4 5 6 
#
# 1 156.5057 47.3345 12.5433 0.0000 0.0000 0.0000
# 2 47.3345 51.1270 5.3695 0.0000 0.0000 0.0000
# 3 12.5433 5.3695 83.9034 0.0000 0.0000 0.0000
# 4 0.0000 0.0000 0.0000 14.7650 0.0000 0.0000
# 5 0.0000 0.0000 0.0000 0.0000 37.2488 0.0000
# 6 0.0000 0.0000 0.0000 0.0000 0.0000 -65.8229
#
#
#
# Elastic Compliance Matrix: (Units=1/GPa)
#
#
# Indices 1 2 3 4 5 6 
#
# 1 0.008929 -0.008181 -0.000811 0.000000 0.000000 0.000000
# 2 -0.008181 0.027188 -0.000517 0.000000 0.000000 0.000000
# 3 -0.000811 -0.000517 0.012073 0.000000 0.000000 0.000000
# 4 0.000000 0.000000 0.000000 0.067728 0.000000 0.000000
# 5 0.000000 0.000000 0.000000 0.000000 0.026846 0.000000
# 6 0.000000 0.000000 0.000000 0.000000 0.000000 -0.015192
#
#
# Mechanical properties :
#
#
# Convention : Reuss Voigt Hill
#
# Bulk Modulus (GPa) = 34.28101 46.89229 40.58665
# Shear Modulus (GPa) = 31.98681 12.32411 22.15546
#
# Velocity S-wave (km/s) = 3.87636 2.40612 3.22611
# Velocity P-wave (km/s) = 6.01156 5.45412 5.73961
#
# Compressibility (1/GPa) = 0.02917067
#
# Stress axis : x y z
#
# Youngs Moduli (GPa) = 111.99448 36.78099 82.83063
#
# Poissons Ratio (x) = 0.30092 0.06720
# Poissons Ratio (y) = 0.91628 0.04281
# Poissons Ratio (z) = 0.09086 0.01901
#
# Static dielectric constant tensor:
#      x y z
#    x 4.501530 0.000000 0.000000 
#    y 0.000000 2.998660 0.000000 
#    z 0.000000 0.000000 3.866720 
# 
# 
# High freq. dielectric constant tensor:
#      x y z
#    x 1.873350 0.000000 0.000000 
#    y 0.000000 1.751990 0.000000 
#    z 0.000000 0.000000 1.857320 
# 
# From -- ./inp_files/337.got.cif
#   From: 2010.03.12/outbox.cif.g09.slc.cpg/sg39_1_cif.got.tgz:337.got - 2010.04.14 02:53:20.
