data_PCOD8181152
_publ_section_title
;
Structure prediction by ZEFSAII (Michael W. Deem and Ramdas Pophale) SiO2 
 PCOD8181152
Probable space group: A B M 2
;
_chemical_formula_sum "Si O2"
_cell_formula_units_Z 64
_cell_length_a 24.076416
_cell_length_b 8.441150
_cell_length_c 15.354507
_cell_angle_alpha 90.000000
_cell_angle_beta 90.000000
_cell_angle_gamma 90.000000
_cell_volume 3120.536977
_symmetry_space_group_name_H-M "A B M 2"
_symmetry_group_IT_number 39
_symmetry_cell_setting 'orthorhombic'
loop_
_space_group_symop_operation_xyz
x,y,z
-x,-y,z
-x,1/2+y,z
x,1/2-y,z
x,1/2+y,1/2+z
-x,1/2-y,1/2+z
-x,y,1/2+z
x,-y,1/2+z
loop_
_atom_site_type_symbol
_atom_site_label
_atom_site_fract_x
_atom_site_fract_y
_atom_site_fract_z
Si Si1 0.745235 0.065392 0.414110
Si Si2 0.557906 0.435778 0.309306
Si Si3 0.442968 0.434530 0.011320
Si Si4 0.130658 0.063058 0.896909
Si Si5 0.326637 0.063438 0.070043
Si Si6 0.938462 0.563047 0.554474
Si Si7 0.059951 0.063937 0.240785
Si Si8 0.327082 0.067137 0.263466
O O1 0.752088 0.250000 0.429942
O O2 0.806614 0.994987 0.401083
O O3 0.715877 0.988584 0.499410
O O4 0.707248 0.038759 0.329994
O O5 0.500000 0.500000 0.269846
O O6 0.563525 0.250000 0.292777
O O7 0.561127 0.480819 0.410416
O O8 0.607905 0.526354 0.262435
O O9 0.500000 0.500000 0.052775
O O10 0.444580 0.250000 0.026007
O O11 0.388532 0.509679 0.057329
O O12 0.127775 0.250000 0.878654
O O13 0.102372 0.970585 0.817879
O O14 0.102241 0.024471 0.988375
O O15 0.331451 0.250000 0.052185
O O16 0.304231 0.028366 0.166717
O O17 0.936234 0.750000 0.538852
O O18 0.919575 0.521681 0.652608
O O19 0.000000 0.500000 0.537007
O O20 0.055849 0.250000 0.222543
O O21 0.000000 0.000000 0.269958
O O22 0.318320 0.250000 0.287433
#
# Coordination Sequence:
#
# PCOD8181152 Si02
#       8
#     8   8   8   8   8   8   8   8
#     4  10  22  43  63  80 113 157 199 243 292 344
#     4  10  19  34  57  82 113 149 186 231 289 353
#     4   9  17  32  55  78 107 142 181 224 279 344
#     4  11  23  39  62  90 120 162 209 252 304 360
#     4   9  19  38  59  80 109 150 189 232 288 346
#     4  11  22  39  63  93 129 163 201 248 299 360
#     4  11  22  39  63  92 128 164 202 249 301 357
#     4  11  22  36  59  87 115 147 191 241 292 350
#
# _framework density 20.509291000000001
#
# number of rings (size 3 to 8) (size 9 to 14) (size 15 to 20)
#    0.000    1.750    1.250    4.500    0.000    3.000 
#    0.000    5.000    0.000    0.000    0.000    0.000 
#    0.000    0.000    0.000    0.000    0.000    0.000 
#
# Total GULP energy -396843.271320 kJ/mol
# GULP energy per Si atom -12401.352229 kJ/mol
# Density = 2.046261 g / cm^3
# Si number density = 20.509291 Si / 1000 Ang^3
#
#
#
# Elastic Constant Matrix: (Units=GPa)
#
#
# Indices 1 2 3 4 5 6 
#
# 1 127.6813 0.9572 56.3598 0.0000 0.0000 0.0000
# 2 0.9572 37.1890 6.8820 0.0000 0.0000 0.0000
# 3 56.3598 6.8820 98.1211 0.0000 0.0000 0.0000
# 4 0.0000 0.0000 0.0000 27.3951 0.0000 0.0000
# 5 0.0000 0.0000 0.0000 0.0000 1.0037 0.0000
# 6 0.0000 0.0000 0.0000 0.0000 0.0000 25.7826
#
#
#
# Elastic Compliance Matrix: (Units=1/GPa)
#
#
# Indices 1 2 3 4 5 6 
#
# 1 0.010519 0.000859 -0.006102 0.000000 0.000000 0.000000
# 2 0.000859 0.027313 -0.002409 0.000000 0.000000 0.000000
# 3 -0.006102 -0.002409 0.013866 0.000000 0.000000 0.000000
# 4 0.000000 0.000000 0.000000 0.036503 0.000000 0.000000
# 5 0.000000 0.000000 0.000000 0.000000 0.996310 0.000000
# 6 0.000000 0.000000 0.000000 0.000000 0.000000 0.038786
#
#
# Mechanical properties :
#
#
# Convention : Reuss Voigt Hill
#
# Bulk Modulus (GPa) = 27.47795 43.48771 35.48283
# Shear Modulus (GPa) = 4.34506 24.08911 14.21708
#
# Velocity S-wave (km/s) = 1.45711 3.43088 2.63573
# Velocity P-wave (km/s) = 4.03210 6.07820 5.15763
#
# Compressibility (1/GPa) = 0.03639282
#
# Stress axis : x y z
#
# Youngs Moduli (GPa) = 95.06426 36.61215 72.12117
#
# Poissons Ratio (x) = -0.03143 0.44011
# Poissons Ratio (y) = -0.08161 0.17373
# Poissons Ratio (z) = 0.58011 0.08819
#
# Static dielectric constant tensor:
#      x y z
#    x 3.949500 0.000000 0.000000 
#    y 0.000000 3.531080 0.000000 
#    z 0.000000 0.000000 3.743200 
# 
# 
# High freq. dielectric constant tensor:
#      x y z
#    x 1.803370 0.000000 0.000000 
#    y 0.000000 1.789560 0.000000 
#    z 0.000000 0.000000 1.806340 
# 
# From -- ./inp_files/10671.got.cif
#   From: 2010.03.12/outbox.cif.g09.slc.cpg/sg39_6_cif.got.tgz:10671.got - 2010.04.14 02:53:20.
