data_PCOD8181541
_publ_section_title
;
Structure prediction by ZEFSAII (Michael W. Deem and Ramdas Pophale) SiO2 
 PCOD8181541
Probable space group: A B M 2
;
_chemical_formula_sum "Si O2"
_cell_formula_units_Z 56
_cell_length_a 16.016998
_cell_length_b 14.376263
_cell_length_c 12.920873
_cell_angle_alpha 90.000000
_cell_angle_beta 90.000000
_cell_angle_gamma 90.000000
_cell_volume 2975.219339
_symmetry_space_group_name_H-M "A B M 2"
_symmetry_group_IT_number 39
_symmetry_cell_setting 'orthorhombic'
loop_
_space_group_symop_operation_xyz
x,y,z
-x,-y,z
-x,1/2+y,z
x,1/2-y,z
x,1/2+y,1/2+z
-x,1/2-y,1/2+z
-x,y,1/2+z
x,-y,1/2+z
loop_
_atom_site_type_symbol
_atom_site_label
_atom_site_fract_x
_atom_site_fract_y
_atom_site_fract_z
Si Si1 0.883610 0.356457 0.023250
Si Si2 0.500000 0.000000 0.798149
Si Si3 0.481748 0.645962 0.975862
Si Si4 0.000000 0.000000 0.146220
Si Si5 0.302092 0.588900 0.998894
Si Si6 0.279920 0.352264 0.282489
Si Si7 0.612146 0.056582 0.628467
Si Si8 0.905353 0.146803 0.781777
O O1 0.907546 0.250000 0.057210
O O2 0.934893 0.438044 0.080463
O O3 0.783653 0.367203 0.043020
O O4 0.905425 0.371916 0.903934
O O5 0.509097 0.092305 0.867243
O O6 0.579672 0.989736 0.721450
O O7 0.515160 0.750000 0.958917
O O8 0.386226 0.649610 0.016708
O O9 0.535187 0.593403 0.061956
O O10 0.042892 0.071447 0.222088
O O11 0.294654 0.573297 0.874731
O O12 0.319038 0.491374 0.055401
O O13 0.291562 0.250000 0.333909
O O14 0.341548 0.359121 0.185559
O O15 0.187628 0.362243 0.237248
O O16 0.941437 0.250000 0.759320
#
# Coordination Sequence:
#
# PCOD8181541 Si02
#       8
#     8   4   8   4   8   8   8   8
#     4  10  22  38  59  86 115 147 186 230 281 343
#     4  12  22  40  50  82 112 152 184 234 278 330
#     4  12  23  37  56  81 112 150 193 236 276 323
#     4  12  20  36  60  88 112 146 180 232 286 332
#     4  11  20  37  56  82 111 146 185 235 276 329
#     4  10  20  36  58  79 106 147 189 227 274 334
#     4  12  21  37  56  82 113 146 191 238 278 321
#     4   9  20  37  56  83 113 145 186 226 275 343
#
# _framework density 18.822141999999999
#
# number of rings (size 3 to 8) (size 9 to 14) (size 15 to 20)
#    0.000    1.143    4.286    4.286    0.000    0.571 
#    0.000    0.000    0.000    0.000    0.000    8.000 
#    0.000    0.000    0.000    0.000    0.000    0.000 
#
# Total GULP energy -346913.273428 kJ/mol
# GULP energy per Si atom -12389.759765 kJ/mol
# Density = 1.877930 g / cm^3
# Si number density = 18.822142 Si / 1000 Ang^3
#
#
#
# Elastic Constant Matrix: (Units=GPa)
#
#
# Indices 1 2 3 4 5 6 
#
# 1 109.4781 62.0458 60.4479 0.0000 0.0000 0.0000
# 2 62.0458 120.2653 65.6386 0.0000 0.0000 0.0000
# 3 60.4479 65.6386 99.5079 0.0000 0.0000 0.0000
# 4 0.0000 0.0000 0.0000 23.7632 0.0000 0.0000
# 5 0.0000 0.0000 0.0000 0.0000 13.0575 0.0000
# 6 0.0000 0.0000 0.0000 0.0000 0.0000 29.2321
#
#
#
# Elastic Compliance Matrix: (Units=1/GPa)
#
#
# Indices 1 2 3 4 5 6 
#
# 1 0.015067 -0.004340 -0.006290 0.000000 0.000000 0.000000
# 2 -0.004340 0.014243 -0.006758 0.000000 0.000000 0.000000
# 3 -0.006290 -0.006758 0.018328 0.000000 0.000000 0.000000
# 4 0.000000 0.000000 0.000000 0.042082 0.000000 0.000000
# 5 0.000000 0.000000 0.000000 0.000000 0.076584 0.000000
# 6 0.000000 0.000000 0.000000 0.000000 0.000000 0.034209
#
#
# Mechanical properties :
#
#
# Convention : Reuss Voigt Hill
#
# Bulk Modulus (GPa) = 77.75315 78.39066 78.07191
# Shear Modulus (GPa) = 20.87015 22.61850 21.74433
#
# Velocity S-wave (km/s) = 3.33349 3.47031 3.40259
# Velocity P-wave (km/s) = 7.49769 7.60236 7.55021
#
# Compressibility (1/GPa) = 0.01286121
#
# Stress axis : x y z
#
# Youngs Moduli (GPa) = 66.37067 70.21108 54.56072
#
# Poissons Ratio (x) = 0.30474 0.34317
# Poissons Ratio (y) = 0.28807 0.36874
# Poissons Ratio (z) = 0.41745 0.47451
#
# Static dielectric constant tensor:
#      x y z
#    x 3.867720 0.000000 0.000000 
#    y 0.000000 3.522830 0.000000 
#    z 0.000000 0.000000 3.454790 
# 
# 
# High freq. dielectric constant tensor:
#      x y z
#    x 1.735350 0.000000 0.000000 
#    y 0.000000 1.723390 0.000000 
#    z 0.000000 0.000000 1.730480 
# 
# From -- ./inp_files/6541.got.cif
#   From: 2010.03.12/outbox.cif.g09.slc.cpg/sg39_4_cif.got.tgz:6541.got - 2010.04.14 02:53:20.
