data_PCOD8181930
_publ_section_title
;
Structure prediction by ZEFSAII (Michael W. Deem and Ramdas Pophale) SiO2 
 PCOD8181930
Probable space group: A B M 2
;
_chemical_formula_sum "Si O2"
_cell_formula_units_Z 56
_cell_length_a 4.996856
_cell_length_b 16.422785
_cell_length_c 30.891776
_cell_angle_alpha 90.000000
_cell_angle_beta 90.000000
_cell_angle_gamma 90.000000
_cell_volume 2535.049935
_symmetry_space_group_name_H-M "A B M 2"
_symmetry_group_IT_number 39
_symmetry_cell_setting 'orthorhombic'
loop_
_space_group_symop_operation_xyz
x,y,z
-x,-y,z
-x,1/2+y,z
x,1/2-y,z
x,1/2+y,1/2+z
-x,1/2-y,1/2+z
-x,y,1/2+z
x,-y,1/2+z
loop_
_atom_site_type_symbol
_atom_site_label
_atom_site_fract_x
_atom_site_fract_y
_atom_site_fract_z
Si Si1 0.197567 0.656467 0.977940
Si Si2 0.703558 0.156628 0.421485
Si Si3 0.412906 0.344116 0.643195
Si Si4 0.900438 0.656764 0.284100
Si Si5 0.411035 0.090622 0.830116
Si Si6 0.919190 0.406583 0.690574
Si Si7 0.245700 0.554552 0.061886
O O1 0.150246 0.750000 0.991700
O O2 0.493411 0.642369 0.959833
O O3 0.991307 0.631651 0.940217
O O4 0.146962 0.600493 0.019141
O O5 0.701326 0.250000 0.405369
O O6 0.641076 0.099735 0.381002
O O7 0.491052 0.250000 0.637950
O O8 0.674088 0.393776 0.657769
O O9 0.317402 0.378740 0.597510
O O10 0.175055 0.352477 0.677846
O O11 0.988956 0.750000 0.279950
O O12 0.643355 0.651885 0.315185
O O13 0.820613 0.620443 0.237715
O O14 0.142007 0.605667 0.303738
O O15 0.500000 0.000000 0.819285
O O16 0.000000 0.500000 0.689433
O O17 0.500000 0.500000 0.050535
O O18 0.000000 0.500000 0.079291
#
# Coordination Sequence:
#
# PCOD8181930 Si02
#       7
#     8   8   8   8   8   8   8
#     4  10  22  41  64  91 125 166 211 259 315 380
#     4  10  21  39  64  92 125 167 212 259 316 381
#     4  12  25  44  68  96 130 172 218 261 316 386
#     4  12  25  44  67  94 130 174 219 262 318 386
#     4  12  25  42  65  97 132 169 216 271 325 375
#     4  12  25  44  68  97 132 168 213 269 325 377
#     4  12  25  42  65  95 130 166 210 263 322 377
#
# _framework density 22.090292999999999
#
# number of rings (size 3 to 8) (size 9 to 14) (size 15 to 20)
#    0.000    0.571    0.000    9.429    0.000    2.857 
#    0.000    4.286    0.000    0.000    0.000    0.000 
#    0.000    0.000    0.000    0.000    0.000    0.000 
#
# Total GULP energy -347492.842507 kJ/mol
# GULP energy per Si atom -12410.458661 kJ/mol
# Density = 2.204001 g / cm^3
# Si number density = 22.090293 Si / 1000 Ang^3
#
#
#
# Elastic Constant Matrix: (Units=GPa)
#
#
# Indices 1 2 3 4 5 6 
#
# 1 112.5816 22.5814 25.6569 0.0000 0.0000 0.0000
# 2 22.5814 92.9928 54.5349 0.0000 0.0000 0.0000
# 3 25.6569 54.5349 107.0601 0.0000 0.0000 0.0000
# 4 0.0000 0.0000 0.0000 44.5686 0.0000 0.0000
# 5 0.0000 0.0000 0.0000 0.0000 34.3653 0.0000
# 6 0.0000 0.0000 0.0000 0.0000 0.0000 33.7718
#
#
#
# Elastic Compliance Matrix: (Units=1/GPa)
#
#
# Indices 1 2 3 4 5 6 
#
# 1 0.009520 -0.001389 -0.001574 0.000000 0.000000 0.000000
# 2 -0.001389 0.015537 -0.007581 0.000000 0.000000 0.000000
# 3 -0.001574 -0.007581 0.013580 0.000000 0.000000 0.000000
# 4 0.000000 0.000000 0.000000 0.022437 0.000000 0.000000
# 5 0.000000 0.000000 0.000000 0.000000 0.029099 0.000000
# 6 0.000000 0.000000 0.000000 0.000000 0.000000 0.029611
#
#
# Mechanical properties :
#
#
# Convention : Reuss Voigt Hill
#
# Bulk Modulus (GPa) = 56.98667 57.57564 57.28115
# Shear Modulus (GPa) = 34.07837 36.53187 35.30512
#
# Velocity S-wave (km/s) = 3.93196 4.07105 4.00211
# Velocity P-wave (km/s) = 6.81667 6.94394 6.88060
#
# Compressibility (1/GPa) = 0.01754796
#
# Stress axis : x y z
#
# Youngs Moduli (GPa) = 105.04543 64.36343 73.63958
#
# Poissons Ratio (x) = 0.08937 0.11591
# Poissons Ratio (y) = 0.14586 0.55829
# Poissons Ratio (z) = 0.16535 0.48797
#
# Static dielectric constant tensor:
#      x y z
#    x 4.164630 0.000000 0.000000 
#    y 0.000000 3.956700 0.000000 
#    z 0.000000 0.000000 3.945390 
# 
# 
# High freq. dielectric constant tensor:
#      x y z
#    x 1.885800 0.000000 0.000000 
#    y 0.000000 1.875080 0.000000 
#    z 0.000000 0.000000 1.876480 
# 
# From -- ./inp_files/17270.got.cif
#   From: 2010.03.12/outbox.cif.g09.slc.cpg/sg39_9_cif.got.tgz:17270.got - 2010.04.14 02:53:20.
