data_PCOD8181891
_publ_section_title
;
Structure prediction by ZEFSAII (Michael W. Deem and Ramdas Pophale) SiO2 
 PCOD8181891
Probable space group: A B M 2
;
_chemical_formula_sum "Si O2"
_cell_formula_units_Z 32
_cell_length_a 8.859453
_cell_length_b 17.620859
_cell_length_c 8.844456
_cell_angle_alpha 90.000000
_cell_angle_beta 90.000000
_cell_angle_gamma 90.000000
_cell_volume 1380.718393
_symmetry_space_group_name_H-M "A B M 2"
_symmetry_group_IT_number 39
_symmetry_cell_setting 'orthorhombic'
loop_
_space_group_symop_operation_xyz
x,y,z
-x,-y,z
-x,1/2+y,z
x,1/2-y,z
x,1/2+y,1/2+z
-x,1/2-y,1/2+z
-x,y,1/2+z
x,-y,1/2+z
loop_
_atom_site_type_symbol
_atom_site_label
_atom_site_fract_x
_atom_site_fract_y
_atom_site_fract_z
Si Si1 0.209002 0.991850 0.386000
Si Si2 0.923114 0.103372 0.123756
Si Si3 0.429923 0.250000 0.255389
Si Si4 0.272827 0.895874 0.643298
Si Si5 0.718696 0.250000 0.083987
O O1 0.101066 0.040959 0.494872
O O2 0.307524 0.047814 0.282948
O O3 0.109838 0.934919 0.284611
O O4 0.319868 0.940022 0.489380
O O5 0.822219 0.176249 0.088962
O O6 0.097187 0.127860 0.130469
O O7 0.371890 0.322225 0.163272
O O8 0.610859 0.250000 0.231931
O O9 0.380048 0.250000 0.429704
#
# Coordination Sequence:
#
# PCOD8181891 Si02
#       5
#     8   8   4   8   4
#     4  10  21  38  71 106 131 158 209 276 335 388
#     4  11  21  42  71 101 129 165 214 272 331 389
#     4  12  29  48  62  90 136 182 225 268 318 384
#     4  11  21  42  71 101 129 165 214 272 331 389
#     4  12  29  48  62  90 136 182 225 268 318 384
#
# _framework density 23.17634
#
# number of rings (size 3 to 8) (size 9 to 14) (size 15 to 20)
#    0.000    1.000    2.500    6.750    3.500    0.000 
#    0.000    7.500    0.000    0.000    0.000    0.000 
#    0.000    0.000    0.000    0.000    0.000    0.000 
#
# Total GULP energy -198378.114258 kJ/mol
# GULP energy per Si atom -12398.632141 kJ/mol
# Density = 2.312359 g / cm^3
# Si number density = 23.176340 Si / 1000 Ang^3
#
#
#
# Elastic Constant Matrix: (Units=GPa)
#
#
# Indices 1 2 3 4 5 6 
#
# 1 50.4751 47.7016 20.5140 0.0000 0.0000 0.0000
# 2 47.7016 149.7660 57.1512 0.0000 0.0000 0.0000
# 3 20.5140 57.1512 150.4468 0.0000 0.0000 0.0000
# 4 0.0000 0.0000 0.0000 131.0120 0.0000 0.0000
# 5 0.0000 0.0000 0.0000 0.0000 21.1451 0.0000
# 6 0.0000 0.0000 0.0000 0.0000 0.0000 -15.9868
#
#
#
# Elastic Compliance Matrix: (Units=1/GPa)
#
#
# Indices 1 2 3 4 5 6 
#
# 1 0.028377 -0.008844 -0.000510 0.000000 0.000000 0.000000
# 2 -0.008844 0.010565 -0.002808 0.000000 0.000000 0.000000
# 3 -0.000510 -0.002808 0.007783 0.000000 0.000000 0.000000
# 4 0.000000 0.000000 0.000000 0.007633 0.000000 0.000000
# 5 0.000000 0.000000 0.000000 0.000000 0.047292 0.000000
# 6 0.000000 0.000000 0.000000 0.000000 0.000000 -0.062552
#
#
# Mechanical properties :
#
#
# Convention : Reuss Voigt Hill
#
# Bulk Modulus (GPa) = 44.63742 66.82461 55.73102
# Shear Modulus (GPa) = 70.53403 42.25549 56.39476
#
# Velocity S-wave (km/s) = 5.52265 4.27455 4.93819
# Velocity P-wave (km/s) = 7.74390 7.29781 7.52416
#
# Compressibility (1/GPa) = 0.02240273
#
# Stress axis : x y z
#
# Youngs Moduli (GPa) = 35.24029 94.64995 128.48642
#
# Poissons Ratio (x) = 0.83705 0.06550
# Poissons Ratio (y) = 0.31165 0.36074
# Poissons Ratio (z) = 0.01796 0.26574
#
# Static dielectric constant tensor:
#      x y z
#    x 3.699900 0.000000 0.000000 
#    y 0.000000 4.356320 0.000000 
#    z 0.000000 0.000000 4.660870 
# 
# 
# High freq. dielectric constant tensor:
#      x y z
#    x 1.884760 0.000000 0.000000 
#    y 0.000000 1.929290 0.000000 
#    z 0.000000 0.000000 1.941090 
# 
# From -- ./inp_files/1993.got.cif
#   From: 2010.03.12/outbox.cif.g09.slc.cpg/sg39_1_cif.got.tgz:1993.got - 2010.04.14 02:53:20.
