data_PCOD8181092
_publ_section_title
;
Structure prediction by ZEFSAII (Michael W. Deem and Ramdas Pophale) SiO2 
 PCOD8181092
Probable space group: A B M 2
;
_chemical_formula_sum "Si O2"
_cell_formula_units_Z 64
_cell_length_a 19.079332
_cell_length_b 8.705665
_cell_length_c 19.947042
_cell_angle_alpha 90.000000
_cell_angle_beta 90.000000
_cell_angle_gamma 90.000000
_cell_volume 3313.169224
_symmetry_space_group_name_H-M "A B M 2"
_symmetry_group_IT_number 39
_symmetry_cell_setting 'orthorhombic'
loop_
_space_group_symop_operation_xyz
x,y,z
-x,-y,z
-x,1/2+y,z
x,1/2-y,z
x,1/2+y,1/2+z
-x,1/2-y,1/2+z
-x,y,1/2+z
x,-y,1/2+z
loop_
_atom_site_type_symbol
_atom_site_label
_atom_site_fract_x
_atom_site_fract_y
_atom_site_fract_z
Si Si1 0.575367 0.567097 0.753480
Si Si2 0.305128 0.067922 0.497716
Si Si3 0.575472 0.567400 0.395242
Si Si4 0.691373 0.432619 0.149531
Si Si5 0.158840 0.067495 0.688289
Si Si6 0.076936 0.431269 0.816646
Si Si7 0.074110 0.070948 0.564100
Si Si8 0.840681 0.569341 0.435875
O O1 0.500000 0.500000 0.735205
O O2 0.571946 0.750000 0.759069
O O3 0.602041 0.500288 0.824431
O O4 0.626057 0.510709 0.693843
O O5 0.300065 0.250000 0.502247
O O6 0.371291 0.015137 0.453460
O O7 0.312683 0.000760 0.573384
O O8 0.234630 0.007801 0.461360
O O9 0.500000 0.500000 0.414566
O O10 0.570559 0.750000 0.389097
O O11 0.692268 0.250000 0.144948
O O12 0.760938 0.491972 0.188304
O O13 0.158702 0.250000 0.692473
O O14 0.111099 0.002382 0.748423
O O15 0.127249 0.004804 0.619058
O O16 0.067855 0.250000 0.815338
O O17 0.134150 0.476561 0.871733
O O18 0.000000 0.500000 0.829493
O O19 0.067308 0.250000 0.574310
O O20 0.101733 0.028919 0.491288
O O21 0.000000 0.000000 0.577255
O O22 0.837921 0.750000 0.419775
#
# Coordination Sequence:
#
# PCOD8181092 Si02
#       8
#     8   8   8   8   8   8   8   8
#     4  10  20  34  57  83 111 145 180 221 265 316
#     4   9  18  34  56  81 109 143 182 221 267 322
#     4  10  20  35  56  82 112 145 181 221 265 318
#     4   9  17  33  56  81 107 140 182 220 264 320
#     4   9  18  34  54  78 105 137 178 221 263 315
#     4  11  23  37  55  79 109 142 179 225 272 324
#     4  10  19  33  56  78 101 135 176 218 261 312
#     4  10  20  36  57  80 107 141 178 222 270 320
#
# _framework density 19.316852000000001
#
# number of rings (size 3 to 8) (size 9 to 14) (size 15 to 20)
#    0.000    2.250    1.250    2.625    1.750    2.000 
#    0.000    1.250    0.000    5.250    0.000    0.000 
#    0.000    0.000    0.000    0.000    0.000    0.000 
#
# Total GULP energy -396715.002407 kJ/mol
# GULP energy per Si atom -12397.343825 kJ/mol
# Density = 1.927289 g / cm^3
# Si number density = 19.316852 Si / 1000 Ang^3
#
#
#
# Elastic Constant Matrix: (Units=GPa)
#
#
# Indices 1 2 3 4 5 6 
#
# 1 132.7605 23.5620 66.4394 0.0000 0.0000 0.0000
# 2 23.5620 35.2153 32.1751 0.0000 0.0000 0.0000
# 3 66.4394 32.1751 117.7894 0.0000 0.0000 0.0000
# 4 0.0000 0.0000 0.0000 21.0901 0.0000 0.0000
# 5 0.0000 0.0000 0.0000 0.0000 41.7601 0.0000
# 6 0.0000 0.0000 0.0000 0.0000 0.0000 20.7821
#
#
#
# Elastic Compliance Matrix: (Units=1/GPa)
#
#
# Indices 1 2 3 4 5 6 
#
# 1 0.010618 -0.002175 -0.005395 0.000000 0.000000 0.000000
# 2 -0.002175 0.038287 -0.009231 0.000000 0.000000 0.000000
# 3 -0.005395 -0.009231 0.014054 0.000000 0.000000 0.000000
# 4 0.000000 0.000000 0.000000 0.047416 0.000000 0.000000
# 5 0.000000 0.000000 0.000000 0.000000 0.023946 0.000000
# 6 0.000000 0.000000 0.000000 0.000000 0.000000 0.048118
#
#
# Mechanical properties :
#
#
# Convention : Reuss Voigt Hill
#
# Bulk Modulus (GPa) = 34.06456 58.90202 46.48329
# Shear Modulus (GPa) = 22.14071 27.63238 24.88654
#
# Velocity S-wave (km/s) = 3.38921 3.78627 3.59323
# Velocity P-wave (km/s) = 5.74357 7.04792 6.42891
#
# Compressibility (1/GPa) = 0.02935602
#
# Stress axis : x y z
#
# Youngs Moduli (GPa) = 94.17623 26.11884 71.15167
#
# Poissons Ratio (x) = 0.05681 0.38387
# Poissons Ratio (y) = 0.20485 0.65682
# Poissons Ratio (z) = 0.50810 0.24111
#
# Static dielectric constant tensor:
#      x y z
#    x 3.687750 0.000000 0.000000 
#    y 0.000000 3.153330 0.000000 
#    z 0.000000 0.000000 3.786810 
# 
# 
# High freq. dielectric constant tensor:
#      x y z
#    x 1.764870 0.000000 0.000000 
#    y 0.000000 1.714640 0.000000 
#    z 0.000000 0.000000 1.764070 
# 
# From -- ./inp_files/13154.got.cif
#   From: 2010.03.12/outbox.cif.g09.slc.cpg/sg39_7_cif.got.tgz:13154.got - 2010.04.14 02:53:20.
