data_PCOD8181758
_publ_section_title
;
Structure prediction by ZEFSAII (Michael W. Deem and Ramdas Pophale) SiO2 
 PCOD8181758
Probable space group: A B M 2
;
_chemical_formula_sum "Si O2"
_cell_formula_units_Z 56
_cell_length_a 15.289222
_cell_length_b 8.775026
_cell_length_c 20.163832
_cell_angle_alpha 90.000000
_cell_angle_beta 90.000000
_cell_angle_gamma 90.000000
_cell_volume 2705.246657
_symmetry_space_group_name_H-M "A B M 2"
_symmetry_group_IT_number 39
_symmetry_cell_setting 'orthorhombic'
loop_
_space_group_symop_operation_xyz
x,y,z
-x,-y,z
-x,1/2+y,z
x,1/2-y,z
x,1/2+y,1/2+z
-x,1/2-y,1/2+z
-x,y,1/2+z
x,-y,1/2+z
loop_
_atom_site_type_symbol
_atom_site_label
_atom_site_fract_x
_atom_site_fract_y
_atom_site_fract_z
Si Si1 0.723366 0.069161 0.361330
Si Si2 0.591399 0.570853 0.464970
Si Si3 0.267185 0.930609 0.726357
Si Si4 0.127828 0.577074 0.553659
Si Si5 0.912053 0.571550 0.906013
Si Si6 0.672772 0.922213 0.084298
Si Si7 0.911989 0.571619 0.685687
O O1 0.714143 0.250000 0.364864
O O2 0.824302 0.014942 0.369180
O O3 0.667299 0.998309 0.420002
O O4 0.688358 0.006600 0.290726
O O5 0.500000 0.500000 0.441705
O O6 0.588067 0.750000 0.455468
O O7 0.608961 0.530515 0.542241
O O8 0.264396 0.750000 0.733472
O O9 0.322719 0.977426 0.660997
O O10 0.168881 0.991141 0.720864
O O11 0.098932 0.750000 0.571988
O O12 0.092715 0.523571 0.482890
O O13 0.232172 0.569325 0.551527
O O14 0.088971 0.460035 0.606890
O O15 0.919140 0.750000 0.897797
O O16 0.000000 0.500000 0.874425
O O17 0.636357 0.750000 0.080327
O O18 0.907972 0.750000 0.700541
O O19 0.000000 0.500000 0.716614
#
# Coordination Sequence:
#
# PCOD8181758 Si02
#       7
#     8   8   8   8   8   8   8
#     4  11  23  43  64  89 129 171 211 260 314 371
#     4  12  25  42  69 100 128 161 205 254 311 376
#     4  10  22  40  62  88 121 163 206 254 314 373
#     4   9  17  33  54  80 116 157 198 253 315 364
#     4  10  21  35  54  82 120 165 209 256 309 362
#     4   9  18  38  64  90 124 157 194 250 311 368
#     4  11  21  33  51  79 114 158 210 263 314 366
#
# _framework density 20.700516
#
# number of rings (size 3 to 8) (size 9 to 14) (size 15 to 20)
#    0.000    1.714    1.429    4.714    0.000    6.286 
#    0.000    2.143    0.000    3.429    0.000    0.000 
#    0.000    0.000    0.000    0.000    0.000    0.000 
#
# Total GULP energy -347235.191990 kJ/mol
# GULP energy per Si atom -12401.256857 kJ/mol
# Density = 2.065340 g / cm^3
# Si number density = 20.700516 Si / 1000 Ang^3
#
#
#
# Elastic Constant Matrix: (Units=GPa)
#
#
# Indices 1 2 3 4 5 6 
#
# 1 74.2671 41.6819 41.2103 0.0000 0.0000 0.0000
# 2 41.6819 109.5203 46.7448 0.0000 0.0000 0.0000
# 3 41.2103 46.7448 111.7366 0.0000 0.0000 0.0000
# 4 0.0000 0.0000 0.0000 26.1079 0.0000 0.0000
# 5 0.0000 0.0000 0.0000 0.0000 6.2616 0.0000
# 6 0.0000 0.0000 0.0000 0.0000 0.0000 33.1841
#
#
#
# Elastic Compliance Matrix: (Units=1/GPa)
#
#
# Indices 1 2 3 4 5 6 
#
# 1 0.019074 -0.005182 -0.004867 0.000000 0.000000 0.000000
# 2 -0.005182 0.012523 -0.003328 0.000000 0.000000 0.000000
# 3 -0.004867 -0.003328 0.012137 0.000000 0.000000 0.000000
# 4 0.000000 0.000000 0.000000 0.038303 0.000000 0.000000
# 5 0.000000 0.000000 0.000000 0.000000 0.159702 0.000000
# 6 0.000000 0.000000 0.000000 0.000000 0.000000 0.030135
#
#
# Mechanical properties :
#
#
# Convention : Reuss Voigt Hill
#
# Bulk Modulus (GPa) = 58.89122 61.64422 60.26772
# Shear Modulus (GPa) = 16.43183 24.16988 20.30086
#
# Velocity S-wave (km/s) = 2.82048 3.42072 3.13500
# Velocity P-wave (km/s) = 6.25442 6.74133 6.50243
#
# Compressibility (1/GPa) = 0.01698046
#
# Stress axis : x y z
#
# Youngs Moduli (GPa) = 52.42778 79.85101 82.39387
#
# Poissons Ratio (x) = 0.41379 0.40100
# Poissons Ratio (y) = 0.27168 0.27420
# Poissons Ratio (z) = 0.25516 0.26574
#
# Static dielectric constant tensor:
#      x y z
#    x 3.635750 0.000000 0.000000 
#    y 0.000000 3.636000 0.000000 
#    z 0.000000 0.000000 3.864530 
# 
# 
# High freq. dielectric constant tensor:
#      x y z
#    x 1.793690 0.000000 0.000000 
#    y 0.000000 1.806310 0.000000 
#    z 0.000000 0.000000 1.814540 
# 
# From -- ./inp_files/14764.got.cif
#   From: 2010.03.12/outbox.cif.g09.slc.cpg/sg39_8_cif.got.tgz:14764.got - 2010.04.14 02:53:20.
