data_PCOD8181335
_publ_section_title
;
Structure prediction by ZEFSAII (Michael W. Deem and Ramdas Pophale) SiO2 
 PCOD8181335
Probable space group: A B M 2
;
_chemical_formula_sum "Si O2"
_cell_formula_units_Z 64
_cell_length_a 16.434319
_cell_length_b 8.831688
_cell_length_c 22.609692
_cell_angle_alpha 90.000000
_cell_angle_beta 90.000000
_cell_angle_gamma 90.000000
_cell_volume 3281.633504
_symmetry_space_group_name_H-M "A B M 2"
_symmetry_group_IT_number 39
_symmetry_cell_setting 'orthorhombic'
loop_
_space_group_symop_operation_xyz
x,y,z
-x,-y,z
-x,1/2+y,z
x,1/2-y,z
x,1/2+y,1/2+z
-x,1/2-y,1/2+z
-x,y,1/2+z
x,-y,1/2+z
loop_
_atom_site_type_symbol
_atom_site_label
_atom_site_fract_x
_atom_site_fract_y
_atom_site_fract_z
Si Si1 0.250676 0.571857 0.063630
Si Si2 0.414999 0.930255 0.614406
Si Si3 0.881833 0.920831 0.767385
Si Si4 0.422463 0.422587 0.247311
Si Si5 0.229363 0.423737 0.941045
Si Si6 0.913249 0.571519 0.632474
Si Si7 0.703418 0.084362 0.317649
Si Si8 0.921035 0.427239 0.881177
O O1 0.260214 0.750000 0.074252
O O2 0.332502 0.490065 0.084949
O O3 0.166059 0.514464 0.094765
O O4 0.247858 0.536021 0.994298
O O5 0.418393 0.750000 0.606472
O O6 0.406376 0.987232 0.681851
O O7 0.500000 0.000000 0.588094
O O8 0.915993 0.750000 0.777340
O O9 0.896622 0.974923 0.700358
O O10 0.787678 0.923594 0.783266
O O11 0.925243 0.041114 0.810534
O O12 0.500000 0.500000 0.277073
O O13 0.442441 0.250000 0.241394
O O14 0.347780 0.449221 0.290460
O O15 0.224025 0.250000 0.963157
O O16 0.294832 0.440409 0.888357
O O17 0.146764 0.473193 0.911168
O O18 0.921714 0.750000 0.624460
O O19 0.000000 0.500000 0.611212
O O20 0.664700 0.250000 0.305036
O O21 0.911330 0.250000 0.894458
O O22 0.000000 0.500000 0.911266
#
# Coordination Sequence:
#
# PCOD8181335 Si02
#       8
#     8   8   8   8   8   8   8   8
#     4  11  23  40  60  83 113 152 195 241 288 338
#     4  10  21  38  61  90 119 150 187 231 282 338
#     4   9  18  34  54  79 110 144 180 224 279 337
#     4  10  20  33  54  84 116 145 177 217 268 329
#     4  10  22  40  58  78 106 143 186 232 279 332
#     4  10  22  37  55  81 115 153 192 233 283 339
#     4   9  18  34  56  79 108 142 176 220 278 334
#     4  11  21  34  54  80 108 141 182 230 281 333
#
# _framework density 19.502483000000002
#
# number of rings (size 3 to 8) (size 9 to 14) (size 15 to 20)
#    0.000    2.000    0.000    4.500    0.000    8.000 
#    0.000    1.875    0.000    3.000    0.000    0.000 
#    0.000    0.000    0.000    0.000    0.000    0.000 
#
# Total GULP energy -396571.023025 kJ/mol
# GULP energy per Si atom -12392.844470 kJ/mol
# Density = 1.945809 g / cm^3
# Si number density = 19.502483 Si / 1000 Ang^3
#
#
#
# Elastic Constant Matrix: (Units=GPa)
#
#
# Indices 1 2 3 4 5 6 
#
# 1 115.7814 31.6175 42.4602 0.0000 0.0000 0.0000
# 2 31.6175 51.8331 18.7956 0.0000 0.0000 0.0000
# 3 42.4602 18.7956 75.5462 0.0000 0.0000 0.0000
# 4 0.0000 0.0000 0.0000 26.3805 0.0000 0.0000
# 5 0.0000 0.0000 0.0000 0.0000 -8.8579 0.0000
# 6 0.0000 0.0000 0.0000 0.0000 0.0000 35.5998
#
#
#
# Elastic Compliance Matrix: (Units=1/GPa)
#
#
# Indices 1 2 3 4 5 6 
#
# 1 0.012119 -0.005410 -0.005465 0.000000 0.000000 0.000000
# 2 -0.005410 0.023621 -0.002836 0.000000 0.000000 0.000000
# 3 -0.005465 -0.002836 0.017014 0.000000 0.000000 0.000000
# 4 0.000000 0.000000 0.000000 0.037907 0.000000 0.000000
# 5 0.000000 0.000000 0.000000 0.000000 -0.112893 0.000000
# 6 0.000000 0.000000 0.000000 0.000000 0.000000 0.028090
#
#
# Mechanical properties :
#
#
# Convention : Reuss Voigt Hill
#
# Bulk Modulus (GPa) = 39.47723 47.65636 43.56679
# Shear Modulus (GPa) = 119.83285 20.64363 70.23824
#
# Velocity S-wave (km/s) = 7.84718 3.25701 6.00776
# Velocity P-wave (km/s) = 10.11882 6.21556 8.39713
#
# Compressibility (1/GPa) = 0.02533106
#
# Stress axis : x y z
#
# Youngs Moduli (GPa) = 82.51740 42.33455 58.77464
#
# Poissons Ratio (x) = 0.22905 0.32121
# Poissons Ratio (y) = 0.44646 0.16668
# Poissons Ratio (z) = 0.45097 0.12006
#
# Static dielectric constant tensor:
#      x y z
#    x 3.790320 0.000000 0.000000 
#    y 0.000000 3.559290 0.000000 
#    z 0.000000 0.000000 3.652690 
# 
# 
# High freq. dielectric constant tensor:
#      x y z
#    x 1.764250 0.000000 0.000000 
#    y 0.000000 1.761970 0.000000 
#    z 0.000000 0.000000 1.747250 
# 
# From -- ./inp_files/16221.got.cif
#   From: 2010.03.12/outbox.cif.g09.slc.cpg/sg39_9_cif.got.tgz:16221.got - 2010.04.14 02:53:20.
