data_PCOD8181050
_publ_section_title
;
Structure prediction by ZEFSAII (Michael W. Deem and Ramdas Pophale) SiO2 
 PCOD8181050
Probable space group: A B M 2
;
_chemical_formula_sum "Si O2"
_cell_formula_units_Z 56
_cell_length_a 15.600817
_cell_length_b 8.773564
_cell_length_c 20.245966
_cell_angle_alpha 90.000000
_cell_angle_beta 90.000000
_cell_angle_gamma 90.000000
_cell_volume 2771.161867
_symmetry_space_group_name_H-M "A B M 2"
_symmetry_group_IT_number 39
_symmetry_cell_setting 'orthorhombic'
loop_
_space_group_symop_operation_xyz
x,y,z
-x,-y,z
-x,1/2+y,z
x,1/2-y,z
x,1/2+y,1/2+z
-x,1/2-y,1/2+z
-x,y,1/2+z
x,-y,1/2+z
loop_
_atom_site_type_symbol
_atom_site_label
_atom_site_fract_x
_atom_site_fract_y
_atom_site_fract_z
Si Si1 0.680381 0.076813 0.869710
Si Si2 0.253648 0.927199 0.731577
Si Si3 0.730996 0.427373 0.585625
Si Si4 0.874120 0.574682 0.406911
Si Si5 0.916215 0.070049 0.269902
Si Si6 0.086347 0.571110 0.541688
Si Si7 0.409864 0.429508 0.984953
O O1 0.647298 0.250000 0.873156
O O2 0.685772 0.022102 0.792830
O O3 0.771881 0.058608 0.904290
O O4 0.613565 0.972849 0.909542
O O5 0.228147 0.750000 0.742311
O O6 0.300232 0.954037 0.661296
O O7 0.167531 0.026125 0.728524
O O8 0.737456 0.250000 0.568829
O O9 0.826654 0.496485 0.575156
O O10 0.661073 0.498874 0.535731
O O11 0.901478 0.750000 0.417436
O O12 0.914340 0.511193 0.340521
O O13 0.911066 0.471064 0.464788
O O14 0.922655 0.250000 0.277269
O O15 0.000000 0.000000 0.233340
O O16 0.080346 0.750000 0.551716
O O17 0.000000 0.500000 0.573896
O O18 0.500000 0.500000 0.005628
O O19 0.416772 0.250000 0.991320
#
# Coordination Sequence:
#
# PCOD8181050 Si02
#       7
#     8   8   8   8   8   8   8
#     4   9  18  34  59  87 114 146 184 236 290 345
#     4   9  19  38  60  82 113 153 195 235 291 350
#     4   9  20  39  61  84 118 160 195 238 291 347
#     4  10  19  33  53  79 111 149 191 243 297 343
#     4  11  21  33  50  76 110 150 198 247 294 344
#     4  11  21  34  52  80 115 157 201 243 291 342
#     4  11  22  39  64  92 119 151 191 238 292 351
#
# _framework density 20.208130000000001
#
# number of rings (size 3 to 8) (size 9 to 14) (size 15 to 20)
#    0.000    2.000    1.429    3.857    0.000    2.857 
#    0.000    5.000    0.000    1.714    0.000    0.000 
#    0.000    0.000    0.000    0.000    0.000    0.000 
#
# Total GULP energy -347148.907812 kJ/mol
# GULP energy per Si atom -12398.175279 kJ/mol
# Density = 2.016213 g / cm^3
# Si number density = 20.208130 Si / 1000 Ang^3
#
#
#
# Elastic Constant Matrix: (Units=GPa)
#
#
# Indices 1 2 3 4 5 6 
#
# 1 122.3196 37.1353 54.8034 0.0000 0.0000 0.0000
# 2 37.1353 69.3340 18.4059 0.0000 0.0000 0.0000
# 3 54.8034 18.4059 107.1401 0.0000 0.0000 0.0000
# 4 0.0000 0.0000 0.0000 20.9897 0.0000 0.0000
# 5 0.0000 0.0000 0.0000 0.0000 8.5953 0.0000
# 6 0.0000 0.0000 0.0000 0.0000 0.0000 29.9795
#
#
#
# Elastic Compliance Matrix: (Units=1/GPa)
#
#
# Indices 1 2 3 4 5 6 
#
# 1 0.012096 -0.005067 -0.005317 0.000000 0.000000 0.000000
# 2 -0.005067 0.017235 -0.000369 0.000000 0.000000 0.000000
# 3 -0.005317 -0.000369 0.012116 0.000000 0.000000 0.000000
# 4 0.000000 0.000000 0.000000 0.047642 0.000000 0.000000
# 5 0.000000 0.000000 0.000000 0.000000 0.116343 0.000000
# 6 0.000000 0.000000 0.000000 0.000000 0.000000 0.033356
#
#
# Mechanical properties :
#
#
# Convention : Reuss Voigt Hill
#
# Bulk Modulus (GPa) = 50.14615 57.72033 53.93324
# Shear Modulus (GPa) = 18.73076 24.47615 21.60346
#
# Velocity S-wave (km/s) = 3.04779 3.48401 3.27318
# Velocity P-wave (km/s) = 6.10361 6.69398 6.40560
#
# Compressibility (1/GPa) = 0.01994171
#
# Stress axis : x y z
#
# Youngs Moduli (GPa) = 82.67438 58.02213 82.53236
#
# Poissons Ratio (x) = 0.29400 0.43879
# Poissons Ratio (y) = 0.41892 0.03045
# Poissons Ratio (z) = 0.43955 0.02141
#
# Static dielectric constant tensor:
#      x y z
#    x 3.749900 0.000000 0.000000 
#    y 0.000000 3.516260 0.000000 
#    z 0.000000 0.000000 3.630300 
# 
# 
# High freq. dielectric constant tensor:
#      x y z
#    x 1.775040 0.000000 0.000000 
#    y 0.000000 1.773670 0.000000 
#    z 0.000000 0.000000 1.786660 
# 
# From -- ./inp_files/14742.got.cif
#   From: 2010.03.12/outbox.cif.g09.slc.cpg/sg39_8_cif.got.tgz:14742.got - 2010.04.14 02:53:20.
