data_PCOD8181728
_publ_section_title
;
Structure prediction by ZEFSAII (Michael W. Deem and Ramdas Pophale) SiO2 
 PCOD8181728
Probable space group: A B M 2
;
_chemical_formula_sum "Si O2"
_cell_formula_units_Z 44
_cell_length_a 7.793942
_cell_length_b 28.271854
_cell_length_c 9.153569
_cell_angle_alpha 90.000000
_cell_angle_beta 90.000000
_cell_angle_gamma 90.000000
_cell_volume 2016.981518
_symmetry_space_group_name_H-M "A B M 2"
_symmetry_group_IT_number 39
_symmetry_cell_setting 'orthorhombic'
loop_
_space_group_symop_operation_xyz
x,y,z
-x,-y,z
-x,1/2+y,z
x,1/2-y,z
x,1/2+y,1/2+z
-x,1/2-y,1/2+z
-x,y,1/2+z
x,-y,1/2+z
loop_
_atom_site_type_symbol
_atom_site_label
_atom_site_fract_x
_atom_site_fract_y
_atom_site_fract_z
Si Si1 0.443848 0.426077 0.663980
Si Si2 0.231314 0.514198 0.626628
Si Si3 0.493683 0.860232 0.912641
Si Si4 0.000000 0.500000 0.373756
Si Si5 0.178145 0.194348 0.807965
Si Si6 0.169140 0.305824 0.467898
O O1 0.268614 0.457002 0.644172
O O2 0.593366 0.459665 0.611479
O O3 0.481086 0.409933 0.828741
O O4 0.454000 0.376644 0.577711
O O5 0.126666 0.528487 0.481099
O O6 0.119475 0.531704 0.766488
O O7 0.663243 0.829036 0.893359
O O8 0.324622 0.829411 0.875259
O O9 0.203440 0.250000 0.821272
O O10 0.167737 0.178638 0.638501
O O11 0.006556 0.177720 0.891218
O O12 0.193670 0.250000 0.454582
#
# Coordination Sequence:
#
# PCOD8181728 Si02
#       6
#     8   8   8   4   8   8
#     4  11  24  42  63  86 134 166 213 256 324 375
#     4  10  22  44  62  90 122 174 206 260 314 390
#     4  12  23  43  62 102 126 176 208 275 315 384
#     4  10  20  40  68  90 112 156 230 250 316 372
#     4  10  23  44  67  94 130 171 215 263 323 387
#     4  10  23  44  67  94 130 171 215 263 323 387
#
# _framework density 21.814776999999999
#
# number of rings (size 3 to 8) (size 9 to 14) (size 15 to 20)
#    0.000    1.455    1.818    2.727    2.545    2.909 
#   19.636    0.000    0.000    0.000    0.000    0.000 
#    0.000    0.000    0.000    0.000    0.000    0.000 
#
# Total GULP energy -272609.861106 kJ/mol
# GULP energy per Si atom -12391.357323 kJ/mol
# Density = 2.176513 g / cm^3
# Si number density = 21.814777 Si / 1000 Ang^3
#
#
#
# Elastic Constant Matrix: (Units=GPa)
#
#
# Indices 1 2 3 4 5 6 
#
# 1 170.0869 53.9130 47.3735 0.0000 0.0000 0.0000
# 2 53.9130 63.2391 27.6939 0.0000 0.0000 0.0000
# 3 47.3735 27.6939 103.6846 0.0000 0.0000 0.0000
# 4 0.0000 0.0000 0.0000 23.7645 0.0000 0.0000
# 5 0.0000 0.0000 0.0000 0.0000 23.9304 0.0000
# 6 0.0000 0.0000 0.0000 0.0000 0.0000 17.9343
#
#
#
# Elastic Compliance Matrix: (Units=1/GPa)
#
#
# Indices 1 2 3 4 5 6 
#
# 1 0.008478 -0.006264 -0.002200 0.000000 0.000000 0.000000
# 2 -0.006264 0.022536 -0.003157 0.000000 0.000000 0.000000
# 3 -0.002200 -0.003157 0.011493 0.000000 0.000000 0.000000
# 4 0.000000 0.000000 0.000000 0.042080 0.000000 0.000000
# 5 0.000000 0.000000 0.000000 0.000000 0.041788 0.000000
# 6 0.000000 0.000000 0.000000 0.000000 0.000000 0.055759
#
#
# Mechanical properties :
#
#
# Convention : Reuss Voigt Hill
#
# Bulk Modulus (GPa) = 51.91121 66.10794 59.00958
# Shear Modulus (GPa) = 23.60747 26.99453 25.30100
#
# Velocity S-wave (km/s) = 3.29322 3.52155 3.40929
# Velocity P-wave (km/s) = 6.18938 6.84873 6.52738
#
# Compressibility (1/GPa) = 0.01926366
#
# Stress axis : x y z
#
# Youngs Moduli (GPa) = 117.95668 44.37398 87.00724
#
# Poissons Ratio (x) = 0.27795 0.19145
# Poissons Ratio (y) = 0.73886 0.27471
# Poissons Ratio (z) = 0.25955 0.14010
#
# Static dielectric constant tensor:
#      x y z
#    x 4.203330 0.000000 0.000000 
#    y 0.000000 3.904060 0.000000 
#    z 0.000000 0.000000 4.036730 
# 
# 
# High freq. dielectric constant tensor:
#      x y z
#    x 1.875570 0.000000 0.000000 
#    y 0.000000 1.835040 0.000000 
#    z 0.000000 0.000000 1.866190 
# 
# From -- ./inp_files/2257.got.cif
#   From: 2010.03.12/outbox.cif.g09.slc.cpg/sg39_2_cif.got.tgz:2257.got - 2010.04.14 02:53:20.
