data_PCOD8181504
_publ_section_title
;
Structure prediction by ZEFSAII (Michael W. Deem and Ramdas Pophale) SiO2 
 PCOD8181504
Probable space group: A B M 2
;
_chemical_formula_sum "Si O2"
_cell_formula_units_Z 64
_cell_length_a 12.534202
_cell_length_b 17.753407
_cell_length_c 14.261735
_cell_angle_alpha 90.000000
_cell_angle_beta 90.000000
_cell_angle_gamma 90.000000
_cell_volume 3173.589579
_symmetry_space_group_name_H-M "A B M 2"
_symmetry_group_IT_number 39
_symmetry_cell_setting 'orthorhombic'
loop_
_space_group_symop_operation_xyz
x,y,z
-x,-y,z
-x,1/2+y,z
x,1/2-y,z
x,1/2+y,1/2+z
-x,1/2-y,1/2+z
-x,y,1/2+z
x,-y,1/2+z
loop_
_atom_site_type_symbol
_atom_site_label
_atom_site_fract_x
_atom_site_fract_y
_atom_site_fract_z
Si Si1 0.320674 0.339304 0.906930
Si Si2 0.421101 0.837733 0.215085
Si Si3 0.373040 0.839189 0.611982
Si Si4 0.965609 0.920538 0.688019
Si Si5 0.834688 0.162082 0.725874
Si Si6 0.779679 0.336883 0.091269
Si Si7 0.102363 0.579036 0.399025
Si Si8 0.131324 0.410785 0.421850
O O1 0.323497 0.250000 0.902741
O O2 0.383346 0.372950 0.815626
O O3 0.195568 0.359948 0.904309
O O4 0.373833 0.369167 0.003986
O O5 0.438915 0.750000 0.233043
O O6 0.530718 0.874030 0.174771
O O7 0.336432 0.852234 0.133029
O O8 0.385851 0.750000 0.608567
O O9 0.262927 0.862752 0.660364
O O10 0.858554 0.891676 0.643702
O O11 0.940048 0.935918 0.795507
O O12 0.057179 0.858056 0.670549
O O13 0.000000 0.000000 0.641425
O O14 0.831352 0.250000 0.751709
O O15 0.833670 0.111054 0.817718
O O16 0.811858 0.250000 0.103969
O O17 0.785877 0.361935 0.983354
O O18 0.147368 0.500045 0.438499
O O19 0.993033 0.608550 0.449948
#
# Coordination Sequence:
#
# PCOD8181504 Si02
#       8
#     8   8   8   8   8   8   8   8
#     4  10  20  35  60  88 115 152 198 254 298 354
#     4   9  19  37  58  85 119 153 195 250 307 353
#     4   9  20  36  58  89 116 150 200 247 304 355
#     4  11  21  37  58  83 121 160 196 240 304 361
#     4  10  20  36  57  84 118 152 195 251 293 344
#     4  11  23  36  59  91 119 158 204 249 298 355
#     4  10  20  39  56  81 118 161 202 236 299 369
#     4  10  22  37  55  85 121 160 196 241 301 359
#
# _framework density 20.166439
#
# number of rings (size 3 to 8) (size 9 to 14) (size 15 to 20)
#    0.000    2.000    3.750    0.750    3.500    3.500 
#    0.000    3.750    0.000    8.250    0.000    0.000 
#    0.000    0.000    0.000    0.000    0.000    0.000 
#
# Total GULP energy -396613.373282 kJ/mol
# GULP energy per Si atom -12394.167915 kJ/mol
# Density = 2.012054 g / cm^3
# Si number density = 20.166439 Si / 1000 Ang^3
#
#
#
# Elastic Constant Matrix: (Units=GPa)
#
#
# Indices 1 2 3 4 5 6 
#
# 1 99.8326 17.4963 47.2365 0.0000 0.0000 0.0000
# 2 17.4963 44.5482 18.5658 0.0000 0.0000 0.0000
# 3 47.2365 18.5658 95.5399 0.0000 0.0000 0.0000
# 4 0.0000 0.0000 0.0000 24.2219 0.0000 0.0000
# 5 0.0000 0.0000 0.0000 0.0000 33.5460 0.0000
# 6 0.0000 0.0000 0.0000 0.0000 0.0000 11.9968
#
#
#
# Elastic Compliance Matrix: (Units=1/GPa)
#
#
# Indices 1 2 3 4 5 6 
#
# 1 0.013371 -0.002716 -0.006083 0.000000 0.000000 0.000000
# 2 -0.002716 0.024978 -0.003511 0.000000 0.000000 0.000000
# 3 -0.006083 -0.003511 0.014157 0.000000 0.000000 0.000000
# 4 0.000000 0.000000 0.000000 0.041285 0.000000 0.000000
# 5 0.000000 0.000000 0.000000 0.000000 0.029810 0.000000
# 6 0.000000 0.000000 0.000000 0.000000 0.000000 0.083355
#
#
# Mechanical properties :
#
#
# Convention : Reuss Voigt Hill
#
# Bulk Modulus (GPa) = 35.86160 45.16866 40.51513
# Shear Modulus (GPa) = 20.75804 24.39442 22.57623
#
# Velocity S-wave (km/s) = 3.21181 3.48178 3.34952
# Velocity P-wave (km/s) = 5.61923 6.21372 5.92393
#
# Compressibility (1/GPa) = 0.02788498
#
# Stress axis : x y z
#
# Youngs Moduli (GPa) = 74.78850 40.03593 70.63846
#
# Poissons Ratio (x) = 0.10875 0.42969
# Poissons Ratio (y) = 0.20315 0.24800
# Poissons Ratio (z) = 0.45494 0.14056
#
# Static dielectric constant tensor:
#      x y z
#    x 3.770570 0.000000 0.000000 
#    y 0.000000 3.295520 0.000000 
#    z 0.000000 0.000000 4.134300 
# 
# 
# High freq. dielectric constant tensor:
#      x y z
#    x 1.781800 0.000000 0.000000 
#    y 0.000000 1.758130 0.000000 
#    z 0.000000 0.000000 1.798120 
# 
# From -- ./inp_files/9473.got.cif
#   From: 2010.03.12/outbox.cif.g09.slc.cpg/sg39_5_cif.got.tgz:9473.got - 2010.04.14 02:53:20.
