data_PCOD8181341
_publ_section_title
;
Structure prediction by ZEFSAII (Michael W. Deem and Ramdas Pophale) SiO2 
 PCOD8181341
Probable space group: A B M 2
;
_chemical_formula_sum "Si O2"
_cell_formula_units_Z 64
_cell_length_a 20.552493
_cell_length_b 9.461263
_cell_length_c 18.420512
_cell_angle_alpha 90.000000
_cell_angle_beta 90.000000
_cell_angle_gamma 90.000000
_cell_volume 3581.915376
_symmetry_space_group_name_H-M "A B M 2"
_symmetry_group_IT_number 39
_symmetry_cell_setting 'orthorhombic'
loop_
_space_group_symop_operation_xyz
x,y,z
-x,-y,z
-x,1/2+y,z
x,1/2-y,z
x,1/2+y,1/2+z
-x,1/2-y,1/2+z
-x,y,1/2+z
x,-y,1/2+z
loop_
_atom_site_type_symbol
_atom_site_label
_atom_site_fract_x
_atom_site_fract_y
_atom_site_fract_z
Si Si1 0.442583 0.905483 0.020740
Si Si2 0.062610 0.086965 0.029986
Si Si3 0.188745 0.087656 0.943666
Si Si4 0.702624 0.417627 0.021560
Si Si5 0.699420 0.416870 0.184105
Si Si6 0.558089 0.093165 0.193238
Si Si7 0.936062 0.415546 0.698861
Si Si8 0.823915 0.912853 0.773453
O O1 0.452320 0.750000 0.987883
O O2 0.370875 0.962080 0.999591
O O3 0.448472 0.899690 0.107002
O O4 0.500000 0.000000 0.986582
O O5 0.047628 0.250000 0.013728
O O6 0.077712 0.060188 0.114185
O O7 0.124460 0.032827 0.984842
O O8 0.000000 0.000000 0.003853
O O9 0.202762 0.250000 0.964270
O O10 0.177701 0.068587 0.858902
O O11 0.249704 0.994367 0.966329
O O12 0.712517 0.250000 0.015187
O O13 0.717672 0.471964 0.103487
O O14 0.690218 0.250000 0.177908
O O15 0.629108 0.475455 0.211368
O O16 0.754673 0.461031 0.240789
O O17 0.551399 0.250000 0.226655
O O18 0.500000 0.000000 0.227311
O O19 0.944249 0.250000 0.717525
O O20 0.876804 0.480608 0.742827
O O21 0.000000 0.500000 0.723456
O O22 0.839477 0.750000 0.751538
#
# Coordination Sequence:
#
# PCOD8181341 Si02
#       8
#     8   8   8   8   8   8   8   8
#     4   8  14  24  40  65  93 118 149 193 241 285
#     4   9  19  35  53  74  98 123 155 194 235 281
#     4  10  21  34  48  71 101 129 159 197 238 280
#     4   9  17  30  49  71  94 124 163 201 237 284
#     4   8  15  29  49  70  93 125 162 198 239 287
#     4   8  13  23  40  64  92 118 149 192 240 286
#     4  10  20  35  55  76  98 124 155 194 237 281
#     4  10  20  34  51  71  98 131 164 197 235 282
#
# _framework density 17.867535
#
# number of rings (size 3 to 8) (size 9 to 14) (size 15 to 20)
#    0.000    3.000    0.000    2.625    0.000    2.500 
#    0.000    3.750    0.000    0.750    0.000    3.500 
#    0.000    0.000    0.000    0.000    0.000    0.000 
#
# Total GULP energy -396697.751646 kJ/mol
# GULP energy per Si atom -12396.804739 kJ/mol
# Density = 1.782687 g / cm^3
# Si number density = 17.867535 Si / 1000 Ang^3
#
#
#
# Elastic Constant Matrix: (Units=GPa)
#
#
# Indices 1 2 3 4 5 6 
#
# 1 162.2224 73.3553 50.5069 0.0000 0.0000 0.0000
# 2 73.3553 76.1461 32.4837 0.0000 0.0000 0.0000
# 3 50.5069 32.4837 48.7275 0.0000 0.0000 0.0000
# 4 0.0000 0.0000 0.0000 16.2396 0.0000 0.0000
# 5 0.0000 0.0000 0.0000 0.0000 0.7751 0.0000
# 6 0.0000 0.0000 0.0000 0.0000 0.0000 36.7059
#
#
#
# Elastic Compliance Matrix: (Units=1/GPa)
#
#
# Indices 1 2 3 4 5 6 
#
# 1 0.012350 -0.008995 -0.006805 0.000000 0.000000 0.000000
# 2 -0.008995 0.024902 -0.007278 0.000000 0.000000 0.000000
# 3 -0.006805 -0.007278 0.032428 0.000000 0.000000 0.000000
# 4 0.000000 0.000000 0.000000 0.061578 0.000000 0.000000
# 5 0.000000 0.000000 0.000000 0.000000 1.290088 0.000000
# 6 0.000000 0.000000 0.000000 0.000000 0.000000 0.027244
#
#
# Mechanical properties :
#
#
# Convention : Reuss Voigt Hill
#
# Bulk Modulus (GPa) = 42.50774 66.64309 54.57542
# Shear Modulus (GPa) = 3.32760 19.46081 11.39420
#
# Velocity S-wave (km/s) = 1.36617 3.30384 2.52802
# Velocity P-wave (km/s) = 5.13134 7.20647 6.25555
#
# Compressibility (1/GPa) = 0.02352513
#
# Stress axis : x y z
#
# Youngs Moduli (GPa) = 80.96857 40.15683 30.83793
#
# Poissons Ratio (x) = 0.36120 0.20986
# Poissons Ratio (y) = 0.72829 0.22443
# Poissons Ratio (z) = 0.55101 0.29225
#
# Static dielectric constant tensor:
#      x y z
#    x 3.596910 0.000000 0.000000 
#    y 0.000000 3.307610 0.000000 
#    z 0.000000 0.000000 2.982400 
# 
# 
# High freq. dielectric constant tensor:
#      x y z
#    x 1.707090 0.000000 0.000000 
#    y 0.000000 1.676780 0.000000 
#    z 0.000000 0.000000 1.656920 
# 
# From -- ./inp_files/13104.got.cif
#   From: 2010.03.12/outbox.cif.g09.slc.cpg/sg39_7_cif.got.tgz:13104.got - 2010.04.14 02:53:20.
