data_PCOD8181463
_publ_section_title
;
Structure prediction by ZEFSAII (Michael W. Deem and Ramdas Pophale) SiO2 
 PCOD8181463
Probable space group: A B M 2
;
_chemical_formula_sum "Si O2"
_cell_formula_units_Z 64
_cell_length_a 14.192447
_cell_length_b 9.012234
_cell_length_c 25.317404
_cell_angle_alpha 90.000000
_cell_angle_beta 90.000000
_cell_angle_gamma 90.000000
_cell_volume 3238.239101
_symmetry_space_group_name_H-M "A B M 2"
_symmetry_group_IT_number 39
_symmetry_cell_setting 'orthorhombic'
loop_
_space_group_symop_operation_xyz
x,y,z
-x,-y,z
-x,1/2+y,z
x,1/2-y,z
x,1/2+y,1/2+z
-x,1/2-y,1/2+z
-x,y,1/2+z
x,-y,1/2+z
loop_
_atom_site_type_symbol
_atom_site_label
_atom_site_fract_x
_atom_site_fract_y
_atom_site_fract_z
Si Si1 0.226214 0.923144 0.639270
Si Si2 0.777201 0.423845 0.948311
Si Si3 0.399173 0.575228 0.177654
Si Si4 0.601993 0.575704 0.907897
Si Si5 0.595657 0.081046 0.292895
Si Si6 0.096118 0.424447 0.233227
Si Si7 0.898435 0.425729 0.538427
Si Si8 0.905850 0.420845 0.851304
O O1 0.249509 0.750000 0.639869
O O2 0.176178 0.976695 0.692999
O O3 0.160379 0.965701 0.590473
O O4 0.324891 0.011014 0.635472
O O5 0.769880 0.250000 0.962091
O O6 0.673474 0.497209 0.948686
O O7 0.820739 0.451751 0.890652
O O8 0.843333 0.506178 0.989470
O O9 0.500000 0.500000 0.168200
O O10 0.409562 0.750000 0.168844
O O11 0.358486 0.532358 0.236840
O O12 0.500000 0.500000 0.914078
O O13 0.592579 0.750000 0.921341
O O14 0.648763 0.553525 0.848747
O O15 0.567655 0.250000 0.286495
O O16 0.500000 0.000000 0.301611
O O17 0.080901 0.250000 0.229071
O O18 0.124224 0.475822 0.292606
O O19 0.000000 0.500000 0.215101
O O20 0.910470 0.250000 0.530664
O O21 0.000000 0.500000 0.543336
O O22 0.932852 0.250000 0.849054
O O23 0.000000 0.500000 0.871769
#
# Coordination Sequence:
#
# PCOD8181463 Si02
#       8
#     8   8   8   8   8   8   8   8
#     4  10  22  38  59  85 115 151 194 240 293 348
#     4  11  23  38  59  87 116 153 199 243 294 351
#     4  10  20  35  56  84 119 157 198 240 287 342
#     4  10  20  36  57  84 120 158 198 243 291 346
#     4   8  16  30  49  77 112 152 193 232 279 334
#     4   9  18  34  54  80 113 147 182 229 285 345
#     4  11  24  43  65  89 116 151 196 247 298 351
#     4   9  19  34  53  80 113 147 184 228 285 347
#
# _framework density 19.763829000000001
#
# number of rings (size 3 to 8) (size 9 to 14) (size 15 to 20)
#    0.000    2.250    0.000    2.250    1.750    4.500 
#    0.000    0.625    0.000    3.000    0.000    0.000 
#    0.000    0.000    0.000    0.000    0.000    0.000 
#
# Total GULP energy -396587.597107 kJ/mol
# GULP energy per Si atom -12393.362410 kJ/mol
# Density = 1.971885 g / cm^3
# Si number density = 19.763829 Si / 1000 Ang^3
#
#
#
# Elastic Constant Matrix: (Units=GPa)
#
#
# Indices 1 2 3 4 5 6 
#
# 1 129.7486 66.3757 58.8679 0.0000 0.0000 0.0000
# 2 66.3757 86.7408 51.5296 0.0000 0.0000 0.0000
# 3 58.8679 51.5296 76.8656 0.0000 0.0000 0.0000
# 4 0.0000 0.0000 0.0000 26.5888 0.0000 0.0000
# 5 0.0000 0.0000 0.0000 0.0000 28.9325 0.0000
# 6 0.0000 0.0000 0.0000 0.0000 0.0000 37.4224
#
#
#
# Elastic Compliance Matrix: (Units=1/GPa)
#
#
# Indices 1 2 3 4 5 6 
#
# 1 0.014126 -0.007283 -0.005936 0.000000 0.000000 0.000000
# 2 -0.007283 0.022914 -0.009783 0.000000 0.000000 0.000000
# 3 -0.005936 -0.009783 0.024114 0.000000 0.000000 0.000000
# 4 0.000000 0.000000 0.000000 0.037610 0.000000 0.000000
# 5 0.000000 0.000000 0.000000 0.000000 0.034563 0.000000
# 6 0.000000 0.000000 0.000000 0.000000 0.000000 0.026722
#
#
# Mechanical properties :
#
#
# Convention : Reuss Voigt Hill
#
# Bulk Modulus (GPa) = 66.00905 71.87794 68.94349
# Shear Modulus (GPa) = 23.68495 26.36084 25.02289
#
# Velocity S-wave (km/s) = 3.46555 3.65607 3.56208
# Velocity P-wave (km/s) = 7.03454 7.36681 7.20259
#
# Compressibility (1/GPa) = 0.01514944
#
# Stress axis : x y z
#
# Youngs Moduli (GPa) = 70.78914 43.64191 41.46907
#
# Poissons Ratio (x) = 0.31786 0.24617
# Poissons Ratio (y) = 0.51559 0.40569
# Poissons Ratio (z) = 0.42021 0.42695
#
# Static dielectric constant tensor:
#      x y z
#    x 3.551410 0.000000 0.000000 
#    y 0.000000 3.510980 0.000000 
#    z 0.000000 0.000000 3.794040 
# 
# 
# High freq. dielectric constant tensor:
#      x y z
#    x 1.764850 0.000000 0.000000 
#    y 0.000000 1.775410 0.000000 
#    z 0.000000 0.000000 1.764490 
# 
# From -- ./inp_files/16224.got.cif
#   From: 2010.03.12/outbox.cif.g09.slc.cpg/sg39_9_cif.got.tgz:16224.got - 2010.04.14 02:53:20.
