data_PCOD8181767
_publ_section_title
;
Structure prediction by ZEFSAII (Michael W. Deem and Ramdas Pophale) SiO2 
 PCOD8181767
Probable space group: A B M 2
;
_chemical_formula_sum "Si O2"
_cell_formula_units_Z 48
_cell_length_a 11.462768
_cell_length_b 17.949081
_cell_length_c 11.785629
_cell_angle_alpha 90.000000
_cell_angle_beta 90.000000
_cell_angle_gamma 90.000000
_cell_volume 2424.847808
_symmetry_space_group_name_H-M "A B M 2"
_symmetry_group_IT_number 39
_symmetry_cell_setting 'orthorhombic'
loop_
_space_group_symop_operation_xyz
x,y,z
-x,-y,z
-x,1/2+y,z
x,1/2-y,z
x,1/2+y,1/2+z
-x,1/2-y,1/2+z
-x,y,1/2+z
x,-y,1/2+z
loop_
_atom_site_type_symbol
_atom_site_label
_atom_site_fract_x
_atom_site_fract_y
_atom_site_fract_z
Si Si1 0.342808 0.571254 0.316080
Si Si2 0.830369 0.574275 0.615736
Si Si3 0.752188 0.587579 0.061747
Si Si4 0.601089 0.405823 0.769553
Si Si5 0.203916 0.333393 0.395106
Si Si6 0.053582 0.335512 0.182597
O O1 0.258794 0.595222 0.214812
O O2 0.285349 0.598945 0.432509
O O3 0.361391 0.483222 0.327919
O O4 0.465462 0.611379 0.288812
O O5 0.827633 0.486480 0.589747
O O6 0.792890 0.612609 0.500353
O O7 0.955800 0.603910 0.654175
O O8 0.632853 0.588983 0.135856
O O9 0.838215 0.654938 0.095617
O O10 0.674263 0.340409 0.828106
O O11 0.190580 0.250000 0.440489
O O12 0.097406 0.353052 0.310305
O O13 0.008963 0.250000 0.171744
#
# Coordination Sequence:
#
# PCOD8181767 Si02
#       6
#     8   8   8   8   8   8
#     4  10  21  35  64  92 118 150 200 254 293 355
#     4  11  22  38  61  93 118 156 206 245 297 358
#     4  10  21  39  61  93 122 153 200 252 298 350
#     4   9  20  37  60  89 119 157 193 242 310 351
#     4  10  21  40  61  84 123 163 198 243 302 361
#     4  10  23  42  61  84 122 164 198 244 305 360
#
# _framework density 19.795055999999999
#
# number of rings (size 3 to 8) (size 9 to 14) (size 15 to 20)
#    0.000    2.000    1.667    1.000    4.667    1.333 
#    0.000    3.333    0.000    0.000    0.000    0.000 
#    0.000    0.000    0.000    0.000    0.000    0.000 
#
# Total GULP energy -297577.986404 kJ/mol
# GULP energy per Si atom -12399.082767 kJ/mol
# Density = 1.975000 g / cm^3
# Si number density = 19.795056 Si / 1000 Ang^3
#
#
#
# Elastic Constant Matrix: (Units=GPa)
#
#
# Indices 1 2 3 4 5 6 
#
# 1 117.5818 26.8687 46.5452 0.0000 0.0000 0.0000
# 2 26.8687 47.1835 31.2410 0.0000 0.0000 0.0000
# 3 46.5452 31.2410 132.9785 0.0000 0.0000 0.0000
# 4 0.0000 0.0000 0.0000 20.1971 0.0000 0.0000
# 5 0.0000 0.0000 0.0000 0.0000 28.3132 0.0000
# 6 0.0000 0.0000 0.0000 0.0000 0.0000 16.4257
#
#
#
# Elastic Compliance Matrix: (Units=1/GPa)
#
#
# Indices 1 2 3 4 5 6 
#
# 1 0.010535 -0.004213 -0.002698 0.000000 0.000000 0.000000
# 2 -0.004213 0.026783 -0.004817 0.000000 0.000000 0.000000
# 3 -0.002698 -0.004817 0.009596 0.000000 0.000000 0.000000
# 4 0.000000 0.000000 0.000000 0.049512 0.000000 0.000000
# 5 0.000000 0.000000 0.000000 0.000000 0.035319 0.000000
# 6 0.000000 0.000000 0.000000 0.000000 0.000000 0.060880
#
#
# Mechanical properties :
#
#
# Convention : Reuss Voigt Hill
#
# Bulk Modulus (GPa) = 42.63043 56.33929 49.48486
# Shear Modulus (GPa) = 22.33125 25.85980 24.09552
#
# Velocity S-wave (km/s) = 3.36240 3.61830 3.49270
# Velocity P-wave (km/s) = 6.05450 6.78080 6.42792
#
# Compressibility (1/GPa) = 0.02345743
#
# Stress axis : x y z
#
# Youngs Moduli (GPa) = 94.91808 37.33747 104.20920
#
# Poissons Ratio (x) = 0.15731 0.28114
# Poissons Ratio (y) = 0.39990 0.50202
# Poissons Ratio (z) = 0.25607 0.17987
#
# Static dielectric constant tensor:
#      x y z
#    x 3.578730 0.000000 0.000000 
#    y 0.000000 3.424620 0.000000 
#    z 0.000000 0.000000 3.589680 
# 
# 
# High freq. dielectric constant tensor:
#      x y z
#    x 1.772050 0.000000 0.000000 
#    y 0.000000 1.755180 0.000000 
#    z 0.000000 0.000000 1.779690 
# 
# From -- ./inp_files/5798.got.cif
#   From: 2010.03.12/outbox.cif.g09.slc.cpg/sg39_3_cif.got.tgz:5798.got - 2010.04.14 02:53:20.
