data_PCOD8181998
_publ_section_title
;
Structure prediction by ZEFSAII (Michael W. Deem and Ramdas Pophale) SiO2 
 PCOD8181998
Probable space group: A B M 2
;
_chemical_formula_sum "Si O2"
_cell_formula_units_Z 60
_cell_length_a 6.697717
_cell_length_b 24.931579
_cell_length_c 16.909975
_cell_angle_alpha 90.000000
_cell_angle_beta 90.000000
_cell_angle_gamma 90.000000
_cell_volume 2823.706435
_symmetry_space_group_name_H-M "A B M 2"
_symmetry_group_IT_number 39
_symmetry_cell_setting 'orthorhombic'
loop_
_space_group_symop_operation_xyz
x,y,z
-x,-y,z
-x,1/2+y,z
x,1/2-y,z
x,1/2+y,1/2+z
-x,1/2-y,1/2+z
-x,y,1/2+z
x,-y,1/2+z
loop_
_atom_site_type_symbol
_atom_site_label
_atom_site_fract_x
_atom_site_fract_y
_atom_site_fract_z
Si Si1 0.652509 0.619354 0.424010
Si Si2 0.500000 0.000000 0.653341
Si Si3 0.978745 0.309243 0.381252
Si Si4 0.156127 0.458272 0.546847
Si Si5 0.332043 0.189357 0.016661
Si Si6 0.586089 0.895608 0.249160
Si Si7 0.923794 0.132296 0.642613
Si Si8 0.742506 0.688027 0.728688
O O1 0.836859 0.652593 0.391921
O O2 0.721274 0.569646 0.476959
O O3 0.510605 0.657273 0.475437
O O4 0.552552 0.597663 0.343513
O O5 0.304501 0.006157 0.599641
O O6 0.507462 0.051090 0.708967
O O7 0.058995 0.250000 0.358782
O O8 0.859777 0.307589 0.462044
O O9 0.832325 0.329608 0.312818
O O10 0.000000 0.500000 0.508070
O O11 0.032106 0.416295 0.598833
O O12 0.405999 0.250000 0.037165
O O13 0.258723 0.157626 0.093426
O O14 0.818050 0.886904 0.224196
O O15 0.456595 0.846083 0.215409
O O16 0.093674 0.176254 0.660943
O O17 0.680959 0.750000 0.725677
#
# Coordination Sequence:
#
# PCOD8181998 Si02
#       8
#     8   4   8   8   8   8   8   8
#     4  12  25  45  69 104 139 182 238 292 354 427
#     4  12  26  50  72 100 134 182 238 302 362 408
#     4  10  21  41  68  96 140 185 222 276 346 423
#     4  12  27  48  73  94 136 188 236 299 361 419
#     4  11  24  42  68 103 143 183 225 280 350 431
#     4  12  26  45  72 104 138 181 236 298 355 421
#     4  12  24  46  70 101 140 181 232 290 353 425
#     4  11  24  43  71 106 142 183 229 285 355 428
#
# _framework density 21.248667999999999
#
# number of rings (size 3 to 8) (size 9 to 14) (size 15 to 20)
#    0.000    0.533    6.667    1.600    0.000    2.133 
#    4.800    0.000    0.000    0.000    0.000    0.000 
#    0.000    0.000    0.000    0.000    0.000    0.000 
#
# Total GULP energy -372049.090480 kJ/mol
# GULP energy per Si atom -12401.636349 kJ/mol
# Density = 2.120031 g / cm^3
# Si number density = 21.248668 Si / 1000 Ang^3
#
#
#
# Elastic Constant Matrix: (Units=GPa)
#
#
# Indices 1 2 3 4 5 6 
#
# 1 78.4550 46.8892 35.3481 0.0000 0.0000 0.0000
# 2 46.8892 110.4703 44.2634 0.0000 0.0000 0.0000
# 3 35.3481 44.2634 87.9126 0.0000 0.0000 0.0000
# 4 0.0000 0.0000 0.0000 37.5450 0.0000 0.0000
# 5 0.0000 0.0000 0.0000 0.0000 41.2207 0.0000
# 6 0.0000 0.0000 0.0000 0.0000 0.0000 33.3202
#
#
#
# Elastic Compliance Matrix: (Units=1/GPa)
#
#
# Indices 1 2 3 4 5 6 
#
# 1 0.018300 -0.006037 -0.004318 0.000000 0.000000 0.000000
# 2 -0.006037 0.013332 -0.004285 0.000000 0.000000 0.000000
# 3 -0.004318 -0.004285 0.015269 0.000000 0.000000 0.000000
# 4 0.000000 0.000000 0.000000 0.026635 0.000000 0.000000
# 5 0.000000 0.000000 0.000000 0.000000 0.024260 0.000000
# 6 0.000000 0.000000 0.000000 0.000000 0.000000 0.030012
#
#
# Mechanical properties :
#
#
# Convention : Reuss Voigt Hill
#
# Bulk Modulus (GPa) = 56.75602 58.87105 57.81353
# Shear Modulus (GPa) = 30.68227 32.43965 31.56096
#
# Velocity S-wave (km/s) = 3.80407 3.91150 3.85816
# Velocity P-wave (km/s) = 6.78697 6.94015 6.86399
#
# Compressibility (1/GPa) = 0.01761928
#
# Stress axis : x y z
#
# Youngs Moduli (GPa) = 54.64491 75.00994 65.49329
#
# Poissons Ratio (x) = 0.45284 0.28283
# Poissons Ratio (y) = 0.32990 0.28064
# Poissons Ratio (z) = 0.23598 0.32141
#
# Static dielectric constant tensor:
#      x y z
#    x 3.944850 0.000000 0.000000 
#    y 0.000000 3.941570 0.000000 
#    z 0.000000 0.000000 4.084720 
# 
# 
# High freq. dielectric constant tensor:
#      x y z
#    x 1.843120 0.000000 0.000000 
#    y 0.000000 1.835810 0.000000 
#    z 0.000000 0.000000 1.839700 
# 
# From -- ./inp_files/11149.got.cif
#   From: 2010.03.12/outbox.cif.g09.slc.cpg/sg39_6_cif.got.tgz:11149.got - 2010.04.14 02:53:20.
