data_PCOD8181634
_publ_section_title
;
Structure prediction by ZEFSAII (Michael W. Deem and Ramdas Pophale) SiO2 
 PCOD8181634
Probable space group: A B M 2
;
_chemical_formula_sum "Si O2"
_cell_formula_units_Z 64
_cell_length_a 20.270173
_cell_length_b 18.487083
_cell_length_c 8.592995
_cell_angle_alpha 90.000000
_cell_angle_beta 90.000000
_cell_angle_gamma 90.000000
_cell_volume 3220.107760
_symmetry_space_group_name_H-M "A B M 2"
_symmetry_group_IT_number 39
_symmetry_cell_setting 'orthorhombic'
loop_
_space_group_symop_operation_xyz
x,y,z
-x,-y,z
-x,1/2+y,z
x,1/2-y,z
x,1/2+y,1/2+z
-x,1/2-y,1/2+z
-x,y,1/2+z
x,-y,1/2+z
loop_
_atom_site_type_symbol
_atom_site_label
_atom_site_fract_x
_atom_site_fract_y
_atom_site_fract_z
Si Si1 0.446804 0.667976 0.128490
Si Si2 0.676562 0.083918 0.082354
Si Si3 0.035269 0.421166 0.084492
Si Si4 0.306374 0.929653 0.441004
Si Si5 0.936725 0.833411 0.389237
Si Si6 0.163015 0.448468 0.884994
Si Si7 0.820076 0.902325 0.533227
Si Si8 0.580011 0.331785 0.491907
O O1 0.446422 0.750000 0.067976
O O2 0.387777 0.629244 0.033352
O O3 0.436315 0.662667 0.310854
O O4 0.517930 0.633697 0.084553
O O5 0.673243 0.070308 0.263675
O O6 0.744663 0.125777 0.040254
O O7 0.675724 0.008179 0.998834
O O8 0.058664 0.391320 0.250186
O O9 0.000000 0.500000 0.101308
O O10 0.097533 0.422624 0.970303
O O11 0.987312 0.359855 0.019641
O O12 0.228495 0.909956 0.458456
O O13 0.352133 0.873065 0.534135
O O14 0.950327 0.750000 0.339960
O O15 0.864842 0.836909 0.470904
O O16 0.155676 0.431785 0.701703
O O17 0.172802 0.533870 0.906704
O O18 0.592253 0.250000 0.545168
#
# Coordination Sequence:
#
# PCOD8181634 Si02
#       8
#     8   8   8   8   8   8   8   8
#     4   9  18  33  53  76 106 146 193 236 279 345
#     4   9  19  34  55  81 112 148 185 232 288 338
#     4  12  24  41  66  90 114 161 204 237 291 365
#     4   9  19  35  55  82 113 144 184 239 285 336
#     4  12  26  42  60  90 126 154 192 251 302 349
#     4  10  20  37  63  89 111 147 204 244 280 355
#     4  10  20  37  60  87 116 152 193 243 296 350
#     4   9  18  34  53  76 107 147 191 235 285 339
#
# _framework density 19.875111
#
# number of rings (size 3 to 8) (size 9 to 14) (size 15 to 20)
#    0.000    2.000    1.250    2.250    0.000    3.000 
#    0.000    6.250    0.000    1.500    0.000    0.000 
#    0.000    0.000    0.000    0.000    0.000    0.000 
#
# Total GULP energy -396645.334491 kJ/mol
# GULP energy per Si atom -12395.166703 kJ/mol
# Density = 1.982987 g / cm^3
# Si number density = 19.875111 Si / 1000 Ang^3
#
#
#
# Elastic Constant Matrix: (Units=GPa)
#
#
# Indices 1 2 3 4 5 6 
#
# 1 148.1964 55.7318 23.9668 0.0000 0.0000 0.0000
# 2 55.7318 80.7166 21.1889 0.0000 0.0000 0.0000
# 3 23.9668 21.1889 41.0302 0.0000 0.0000 0.0000
# 4 0.0000 0.0000 0.0000 24.4927 0.0000 0.0000
# 5 0.0000 0.0000 0.0000 0.0000 32.4320 0.0000
# 6 0.0000 0.0000 0.0000 0.0000 0.0000 32.3283
#
#
#
# Elastic Compliance Matrix: (Units=1/GPa)
#
#
# Indices 1 2 3 4 5 6 
#
# 1 0.009323 -0.005793 -0.002454 0.000000 0.000000 0.000000
# 2 -0.005793 0.017932 -0.005876 0.000000 0.000000 0.000000
# 3 -0.002454 -0.005876 0.028841 0.000000 0.000000 0.000000
# 4 0.000000 0.000000 0.000000 0.040829 0.000000 0.000000
# 5 0.000000 0.000000 0.000000 0.000000 0.030834 0.000000
# 6 0.000000 0.000000 0.000000 0.000000 0.000000 0.030933
#
#
# Mechanical properties :
#
#
# Convention : Reuss Voigt Hill
#
# Bulk Modulus (GPa) = 35.90930 52.41312 44.16121
# Shear Modulus (GPa) = 25.48154 29.12098 27.30126
#
# Velocity S-wave (km/s) = 3.58450 3.83194 3.71029
# Velocity P-wave (km/s) = 5.93618 6.78284 6.37358
#
# Compressibility (1/GPa) = 0.02784794
#
# Stress axis : x y z
#
# Youngs Moduli (GPa) = 107.25782 55.76760 34.67339
#
# Poissons Ratio (x) = 0.32307 0.08510
# Poissons Ratio (y) = 0.62136 0.20375
# Poissons Ratio (z) = 0.26324 0.32771
#
# Static dielectric constant tensor:
#      x y z
#    x 4.178900 0.000000 0.000000 
#    y 0.000000 3.366250 0.000000 
#    z 0.000000 0.000000 3.555690 
# 
# 
# High freq. dielectric constant tensor:
#      x y z
#    x 1.798470 0.000000 0.000000 
#    y 0.000000 1.747140 0.000000 
#    z 0.000000 0.000000 1.772390 
# 
# From -- ./inp_files/4027.got.cif
#   From: 2010.03.12/outbox.cif.g09.slc.cpg/sg39_3_cif.got.tgz:4027.got - 2010.04.14 02:53:20.
