data_PCOD8181917
_publ_section_title
;
Structure prediction by ZEFSAII (Michael W. Deem and Ramdas Pophale) SiO2 
 PCOD8181917
Probable space group: A B M 2
;
_chemical_formula_sum "Si O2"
_cell_formula_units_Z 60
_cell_length_a 10.964201
_cell_length_b 15.115375
_cell_length_c 17.901904
_cell_angle_alpha 90.000000
_cell_angle_beta 90.000000
_cell_angle_gamma 90.000000
_cell_volume 2966.846920
_symmetry_space_group_name_H-M "A B M 2"
_symmetry_group_IT_number 39
_symmetry_cell_setting 'orthorhombic'
loop_
_space_group_symop_operation_xyz
x,y,z
-x,-y,z
-x,1/2+y,z
x,1/2-y,z
x,1/2+y,1/2+z
-x,1/2-y,1/2+z
-x,y,1/2+z
x,-y,1/2+z
loop_
_atom_site_type_symbol
_atom_site_label
_atom_site_fract_x
_atom_site_fract_y
_atom_site_fract_z
Si Si1 0.838253 0.152977 0.750000
Si Si2 0.228403 0.649958 0.057969
Si Si3 0.756818 0.986692 0.827395
Si Si4 0.743740 0.352552 0.589650
Si Si5 0.139647 0.514768 0.480584
Si Si6 0.081400 0.913300 0.201208
Si Si7 0.500000 0.500000 0.390079
Si Si8 0.492116 0.149440 0.513748
O O1 0.798734 0.250000 0.776872
O O2 0.760208 0.125065 0.676756
O O3 0.983167 0.156526 0.732117
O O4 0.806128 0.086541 0.816577
O O5 0.192614 0.750000 0.034691
O O6 0.198951 0.581248 0.992764
O O7 0.150667 0.623053 0.129673
O O8 0.374809 0.642593 0.068519
O O9 0.810628 0.927911 0.760690
O O10 0.611008 0.985387 0.832617
O O11 0.805391 0.946056 0.904701
O O12 0.775673 0.250000 0.573778
O O13 0.838261 0.414774 0.546086
O O14 0.607423 0.377767 0.564452
O O15 0.000000 0.500000 0.469038
O O16 0.000000 0.000000 0.182689
O O17 0.519054 0.585677 0.442339
O O18 0.506565 0.250000 0.483732
#
# Coordination Sequence:
#
# PCOD8181917 Si02
#       8
#     8   8   8   8   8   8   4   8
#     4  10  21  39  62  88 123 159 197 248 302 358
#     4  11  22  37  63  92 120 158 201 250 304 354
#     4  11  24  39  60  87 119 164 202 242 299 362
#     4  10  21  40  66  90 116 157 203 251 306 354
#     4  12  22  37  60  88 122 157 204 253 294 355
#     4  10  21  40  58  86 126 161 199 247 299 357
#     4  12  22  42  64  84 122 164 198 246 306 354
#     4  10  21  39  63  92 122 151 198 257 303 351
#
# _framework density 20.223490000000002
#
# number of rings (size 3 to 8) (size 9 to 14) (size 15 to 20)
#    0.000    1.333    2.667    4.400    0.000    3.733 
#    0.000    4.000    0.000    0.000    0.000    0.000 
#    0.000    0.000    0.000    0.000    0.000    0.000 
#
# Total GULP energy -371935.249113 kJ/mol
# GULP energy per Si atom -12397.841637 kJ/mol
# Density = 2.017746 g / cm^3
# Si number density = 20.223490 Si / 1000 Ang^3
#
#
#
# Elastic Constant Matrix: (Units=GPa)
#
#
# Indices 1 2 3 4 5 6 
#
# 1 131.6418 5.6943 24.3103 0.0000 0.0000 0.0000
# 2 5.6943 73.2120 17.3785 0.0000 0.0000 0.0000
# 3 24.3103 17.3785 45.9376 0.0000 0.0000 0.0000
# 4 0.0000 0.0000 0.0000 20.5869 0.0000 0.0000
# 5 0.0000 0.0000 0.0000 0.0000 40.4277 0.0000
# 6 0.0000 0.0000 0.0000 0.0000 0.0000 15.3978
#
#
#
# Elastic Compliance Matrix: (Units=1/GPa)
#
#
# Indices 1 2 3 4 5 6 
#
# 1 0.008432 0.000443 -0.004630 0.000000 0.000000 0.000000
# 2 0.000443 0.015030 -0.005920 0.000000 0.000000 0.000000
# 3 -0.004630 -0.005920 0.026459 0.000000 0.000000 0.000000
# 4 0.000000 0.000000 0.000000 0.048575 0.000000 0.000000
# 5 0.000000 0.000000 0.000000 0.000000 0.024736 0.000000
# 6 0.000000 0.000000 0.000000 0.000000 0.000000 0.064944
#
#
# Mechanical properties :
#
#
# Convention : Reuss Voigt Hill
#
# Bulk Modulus (GPa) = 33.66304 38.39529 36.02916
# Shear Modulus (GPa) = 22.90512 28.84302 25.87407
#
# Velocity S-wave (km/s) = 3.36906 3.78062 3.58076
# Velocity P-wave (km/s) = 5.64055 6.17124 5.91185
#
# Compressibility (1/GPa) = 0.02970617
#
# Stress axis : x y z
#
# Youngs Moduli (GPa) = 118.59262 66.53428 37.79489
#
# Poissons Ratio (x) = -0.02949 0.17499
# Poissons Ratio (y) = -0.05256 0.22376
# Poissons Ratio (z) = 0.54909 0.39391
#
# Static dielectric constant tensor:
#      x y z
#    x 3.964060 0.000000 0.000000 
#    y 0.000000 3.882760 0.000000 
#    z 0.000000 0.000000 3.474290 
# 
# 
# High freq. dielectric constant tensor:
#      x y z
#    x 1.804610 0.000000 0.000000 
#    y 0.000000 1.793530 0.000000 
#    z 0.000000 0.000000 1.774080 
# 
# From -- ./inp_files/12311.got.cif
#   From: 2010.03.12/outbox.cif.g09.slc.cpg/sg39_7_cif.got.tgz:12311.got - 2010.04.14 02:53:20.
