data_PCOD8181916
_publ_section_title
;
Structure prediction by ZEFSAII (Michael W. Deem and Ramdas Pophale) SiO2 
 PCOD8181916
Probable space group: A B M 2
;
_chemical_formula_sum "Si O2"
_cell_formula_units_Z 64
_cell_length_a 23.906641
_cell_length_b 8.703258
_cell_length_c 15.393267
_cell_angle_alpha 90.000000
_cell_angle_beta 90.000000
_cell_angle_gamma 90.000000
_cell_volume 3202.810328
_symmetry_space_group_name_H-M "A B M 2"
_symmetry_group_IT_number 39
_symmetry_cell_setting 'orthorhombic'
loop_
_space_group_symop_operation_xyz
x,y,z
-x,-y,z
-x,1/2+y,z
x,1/2-y,z
x,1/2+y,1/2+z
-x,1/2-y,1/2+z
-x,y,1/2+z
x,-y,1/2+z
loop_
_atom_site_type_symbol
_atom_site_label
_atom_site_fract_x
_atom_site_fract_y
_atom_site_fract_z
Si Si1 0.632698 0.068226 0.488840
Si Si2 0.939335 0.429727 0.341494
Si Si3 0.242609 0.569789 0.749656
Si Si4 0.243394 0.070013 0.935153
Si Si5 0.864194 0.927160 0.683455
Si Si6 0.561093 0.067935 0.838008
Si Si7 0.133200 0.574352 0.989453
Si Si8 0.361805 0.568357 0.683202
O O1 0.625400 0.250000 0.477300
O O2 0.695298 0.016207 0.464797
O O3 0.619903 0.013242 0.587317
O O4 0.588926 0.982736 0.427869
O O5 0.946845 0.250000 0.338727
O O6 0.909042 0.487975 0.253727
O O7 0.903204 0.471756 0.425457
O O8 0.000000 0.500000 0.348776
O O9 0.245049 0.750000 0.772553
O O10 0.234031 0.469625 0.835196
O O11 0.190805 0.533163 0.687325
O O12 0.298909 0.513015 0.702405
O O13 0.234966 0.250000 0.951040
O O14 0.197667 0.978882 0.990855
O O15 0.847982 0.750000 0.702218
O O16 0.890320 0.944477 0.587306
O O17 0.557903 0.250000 0.835717
O O18 0.596599 0.001674 0.756504
O O19 0.500000 0.000000 0.830598
O O20 0.129617 0.750000 0.958028
O O21 0.363342 0.750000 0.686257
#
# Coordination Sequence:
#
# PCOD8181916 Si02
#       8
#     8   8   8   8   8   8   8   8
#     4  10  21  39  62  88 120 157 196 240 295 355
#     4  11  24  43  64  87 120 160 204 255 304 354
#     4  11  20  35  62  91 122 161 199 239 297 361
#     4  11  21  35  59  91 127 161 196 244 300 356
#     4  10  23  41  61  90 126 158 197 248 299 356
#     4  11  23  41  61  84 116 153 200 249 297 351
#     4  11  23  40  63  92 124 161 202 247 299 359
#     4   9  20  38  60  87 120 154 194 241 291 352
#
# _framework density 19.982451999999999
#
# number of rings (size 3 to 8) (size 9 to 14) (size 15 to 20)
#    0.000    1.500    2.500    2.625    0.000    4.000 
#    0.000    5.000    0.000    0.000    0.000    0.000 
#    0.000    0.000    0.000    0.000    0.000    0.000 
#
# Total GULP energy -396908.537737 kJ/mol
# GULP energy per Si atom -12403.391804 kJ/mol
# Density = 1.993697 g / cm^3
# Si number density = 19.982452 Si / 1000 Ang^3
#
#
#
# Elastic Constant Matrix: (Units=GPa)
#
#
# Indices 1 2 3 4 5 6 
#
# 1 119.7289 23.1891 40.0923 0.0000 0.0000 0.0000
# 2 23.1891 39.2731 16.8204 0.0000 0.0000 0.0000
# 3 40.0923 16.8204 126.8255 0.0000 0.0000 0.0000
# 4 0.0000 0.0000 0.0000 25.5634 0.0000 0.0000
# 5 0.0000 0.0000 0.0000 0.0000 -63.9995 0.0000
# 6 0.0000 0.0000 0.0000 0.0000 0.0000 32.9267
#
#
#
# Elastic Compliance Matrix: (Units=1/GPa)
#
#
# Indices 1 2 3 4 5 6 
#
# 1 0.010159 -0.004902 -0.002561 0.000000 0.000000 0.000000
# 2 -0.004902 0.029361 -0.002345 0.000000 0.000000 0.000000
# 3 -0.002561 -0.002345 0.009006 0.000000 0.000000 0.000000
# 4 0.000000 0.000000 0.000000 0.039118 0.000000 0.000000
# 5 0.000000 0.000000 0.000000 0.000000 -0.015625 0.000000
# 6 0.000000 0.000000 0.000000 0.000000 0.000000 0.030371
#
#
# Mechanical properties :
#
#
# Convention : Reuss Voigt Hill
#
# Bulk Modulus (GPa) = 34.58935 49.55903 42.07419
# Shear Modulus (GPa) = 37.98186 12.61316 25.29751
#
# Velocity S-wave (km/s) = 4.36450 2.51512 3.56193
# Velocity P-wave (km/s) = 6.53804 5.76971 6.16585
#
# Compressibility (1/GPa) = 0.02891063
#
# Stress axis : x y z
#
# Youngs Moduli (GPa) = 98.43217 34.05872 111.04270
#
# Poissons Ratio (x) = 0.16694 0.28443
# Poissons Ratio (y) = 0.48247 0.26035
# Poissons Ratio (z) = 0.25213 0.07985
#
# Static dielectric constant tensor:
#      x y z
#    x 3.714570 0.000000 0.000000 
#    y 0.000000 3.497900 0.000000 
#    z 0.000000 0.000000 3.859940 
# 
# 
# High freq. dielectric constant tensor:
#      x y z
#    x 1.777290 0.000000 0.000000 
#    y 0.000000 1.770710 0.000000 
#    z 0.000000 0.000000 1.794170 
# 
# From -- ./inp_files/10679.got.cif
#   From: 2010.03.12/outbox.cif.g09.slc.cpg/sg39_6_cif.got.tgz:10679.got - 2010.04.14 02:53:20.
