data_PCOD8181032
_publ_section_title
;
Structure prediction by ZEFSAII (Michael W. Deem and Ramdas Pophale) SiO2 
 PCOD8181032
Probable space group: A B M 2
;
_chemical_formula_sum "Si O2"
_cell_formula_units_Z 56
_cell_length_a 23.993422
_cell_length_b 8.621017
_cell_length_c 14.529817
_cell_angle_alpha 90.000000
_cell_angle_beta 90.000000
_cell_angle_gamma 90.000000
_cell_volume 3005.459213
_symmetry_space_group_name_H-M "A B M 2"
_symmetry_group_IT_number 39
_symmetry_cell_setting 'orthorhombic'
loop_
_space_group_symop_operation_xyz
x,y,z
-x,-y,z
-x,1/2+y,z
x,1/2-y,z
x,1/2+y,1/2+z
-x,1/2-y,1/2+z
-x,y,1/2+z
x,-y,1/2+z
loop_
_atom_site_type_symbol
_atom_site_label
_atom_site_fract_x
_atom_site_fract_y
_atom_site_fract_z
Si Si1 0.143197 0.066587 0.376590
Si Si2 0.353780 0.434501 0.732496
Si Si3 0.057749 0.566434 0.724516
Si Si4 0.058148 0.566162 0.025731
Si Si5 0.561287 0.433868 0.873005
Si Si6 0.647295 0.567179 0.524308
Si Si7 0.731842 0.065281 0.871760
O O1 0.147443 0.250000 0.381801
O O2 0.109495 0.014306 0.286647
O O3 0.109228 0.004137 0.464377
O O4 0.205466 0.997696 0.374834
O O5 0.355919 0.250000 0.733289
O O6 0.408482 0.499483 0.782765
O O7 0.352960 0.501895 0.627662
O O8 0.298166 0.491539 0.783488
O O9 0.051954 0.750000 0.716892
O O10 0.070438 0.493393 0.626738
O O11 0.000000 0.500000 0.765631
O O12 0.053834 0.750000 0.023793
O O13 0.000000 0.500000 0.986978
O O14 0.500000 0.500000 0.878793
O O15 0.560349 0.250000 0.864063
O O16 0.593296 0.487235 0.965950
O O17 0.647218 0.750000 0.533009
O O18 0.701889 0.513658 0.466859
O O19 0.729518 0.250000 0.860177
#
# Coordination Sequence:
#
# PCOD8181032 Si02
#       7
#     8   8   8   8   8   8   8
#     4   9  19  33  52  73  98 131 168 205 252 305
#     4  10  19  34  54  79 105 134 170 210 249 295
#     4  10  19  33  50  72  99 130 164 205 252 305
#     4  10  19  33  51  73  98 130 166 206 253 306
#     4  10  20  36  55  79 108 140 171 208 250 295
#     4   8  17  33  54  74 100 135 169 202 247 295
#     4   9  18  36  54  72  99 134 170 208 251 301
#
# _framework density 18.632760999999999
#
# number of rings (size 3 to 8) (size 9 to 14) (size 15 to 20)
#    0.000    2.571    0.000    3.857    0.000    1.714 
#    0.000   15.000    0.000    0.000    0.000    0.000 
#    0.000    0.000    0.000    0.000    0.000    0.000 
#
# Total GULP energy -347115.758261 kJ/mol
# GULP energy per Si atom -12396.991366 kJ/mol
# Density = 1.859035 g / cm^3
# Si number density = 18.632761 Si / 1000 Ang^3
#
#
#
# Elastic Constant Matrix: (Units=GPa)
#
#
# Indices 1 2 3 4 5 6 
#
# 1 199.4391 34.4098 96.6455 0.0000 0.0000 0.0000
# 2 34.4098 57.9487 30.6210 0.0000 0.0000 0.0000
# 3 96.6455 30.6210 155.4871 0.0000 0.0000 0.0000
# 4 0.0000 0.0000 0.0000 22.4536 0.0000 0.0000
# 5 0.0000 0.0000 0.0000 0.0000 8.9189 0.0000
# 6 0.0000 0.0000 0.0000 0.0000 0.0000 26.1458
#
#
#
# Elastic Compliance Matrix: (Units=1/GPa)
#
#
# Indices 1 2 3 4 5 6 
#
# 1 0.007418 -0.002197 -0.004178 0.000000 0.000000 0.000000
# 2 -0.002197 0.019912 -0.002556 0.000000 0.000000 0.000000
# 3 -0.004178 -0.002556 0.009532 0.000000 0.000000 0.000000
# 4 0.000000 0.000000 0.000000 0.044536 0.000000 0.000000
# 5 0.000000 0.000000 0.000000 0.000000 0.112121 0.000000
# 6 0.000000 0.000000 0.000000 0.000000 0.000000 0.038247
#
#
# Mechanical properties :
#
#
# Convention : Reuss Voigt Hill
#
# Bulk Modulus (GPa) = 52.63247 81.80306 67.21777
# Shear Modulus (GPa) = 19.53430 28.25023 23.89227
#
# Velocity S-wave (km/s) = 3.24139 3.89801 3.58477
# Velocity P-wave (km/s) = 6.50518 8.01608 7.29982
#
# Compressibility (1/GPa) = 0.01899968
#
# Stress axis : x y z
#
# Youngs Moduli (GPa) = 134.81337 50.22172 104.91444
#
# Poissons Ratio (x) = 0.11033 0.43832
# Poissons Ratio (y) = 0.29617 0.26814
# Poissons Ratio (z) = 0.56324 0.12836
#
# Static dielectric constant tensor:
#      x y z
#    x 3.636770 0.000000 0.000000 
#    y 0.000000 3.230150 0.000000 
#    z 0.000000 0.000000 3.937390 
# 
# 
# High freq. dielectric constant tensor:
#      x y z
#    x 1.727940 0.000000 0.000000 
#    y 0.000000 1.705990 0.000000 
#    z 0.000000 0.000000 1.730720 
# 
# From -- ./inp_files/10374.got.cif
#   From: 2010.03.12/outbox.cif.g09.slc.cpg/sg39_6_cif.got.tgz:10374.got - 2010.04.14 02:53:20.
