data_PCOD8181564
_publ_section_title
;
Structure prediction by ZEFSAII (Michael W. Deem and Ramdas Pophale) SiO2 
 PCOD8181564
Probable space group: A B M 2
;
_chemical_formula_sum "Si O2"
_cell_formula_units_Z 64
_cell_length_a 24.088288
_cell_length_b 8.685070
_cell_length_c 14.524292
_cell_angle_alpha 90.000000
_cell_angle_beta 90.000000
_cell_angle_gamma 90.000000
_cell_volume 3038.604870
_symmetry_space_group_name_H-M "A B M 2"
_symmetry_group_IT_number 39
_symmetry_cell_setting 'orthorhombic'
loop_
_space_group_symop_operation_xyz
x,y,z
-x,-y,z
-x,1/2+y,z
x,1/2-y,z
x,1/2+y,1/2+z
-x,1/2-y,1/2+z
-x,y,1/2+z
x,-y,1/2+z
loop_
_atom_site_type_symbol
_atom_site_label
_atom_site_fract_x
_atom_site_fract_y
_atom_site_fract_z
Si Si1 0.262600 0.922342 0.597030
Si Si2 0.059071 0.430806 0.431283
Si Si3 0.849548 0.068210 0.075157
Si Si4 0.129393 0.571395 0.282447
Si Si5 0.558540 0.431806 0.484604
Si Si6 0.238579 0.579330 0.812233
Si Si7 0.639527 0.568221 0.338224
Si Si8 0.627411 0.931228 0.639487
O O1 0.273611 0.750000 0.559763
O O2 0.250206 0.919267 0.704488
O O3 0.209410 0.994803 0.545183
O O4 0.317195 0.026146 0.581201
O O5 0.053700 0.250000 0.434693
O O6 0.103495 0.491731 0.505775
O O7 0.078621 0.482645 0.330096
O O8 0.000000 0.500000 0.457045
O O9 0.841944 0.250000 0.072070
O O10 0.867736 0.014749 0.177142
O O11 0.116756 0.750000 0.290272
O O12 0.187620 0.534200 0.334360
O O13 0.500000 0.500000 0.451927
O O14 0.554892 0.250000 0.500362
O O15 0.602598 0.467588 0.405387
O O16 0.574939 0.516551 0.579277
O O17 0.221002 0.750000 0.845634
O O18 0.295878 0.527002 0.861034
O O19 0.628840 0.750000 0.351858
O O20 0.624436 0.524010 0.234217
O O21 0.625757 0.750000 0.658777
#
# Coordination Sequence:
#
# PCOD8181564 Si02
#       8
#     8   8   8   8   8   8   8   8
#     4   9  17  32  57  89 120 151 190 237 287 346
#     4  11  24  41  58  79 110 147 191 237 283 337
#     4   9  20  38  59  84 115 150 186 231 286 344
#     4  10  20  36  59  86 115 147 186 230 280 336
#     4  12  26  44  63  87 118 156 204 252 297 351
#     4   8  16  32  56  86 119 151 185 228 282 341
#     4  10  21  40  64  92 124 158 196 242 296 354
#     4  11  22  39  63  91 123 160 198 243 297 351
#
# _framework density 21.062297999999998
#
# number of rings (size 3 to 8) (size 9 to 14) (size 15 to 20)
#    0.000    2.000    0.000    4.500    0.000    7.000 
#    0.000    5.000    0.000    0.000    0.000    0.000 
#    0.000    0.000    0.000    0.000    0.000    0.000 
#
# Total GULP energy -396868.379543 kJ/mol
# GULP energy per Si atom -12402.136861 kJ/mol
# Density = 2.101436 g / cm^3
# Si number density = 21.062298 Si / 1000 Ang^3
#
#
#
# Elastic Constant Matrix: (Units=GPa)
#
#
# Indices 1 2 3 4 5 6 
#
# 1 94.2342 27.0808 16.7132 0.0000 0.0000 0.0000
# 2 27.0808 78.1546 4.1188 0.0000 0.0000 0.0000
# 3 16.7132 4.1188 41.9683 0.0000 0.0000 0.0000
# 4 0.0000 0.0000 0.0000 28.2425 0.0000 0.0000
# 5 0.0000 0.0000 0.0000 0.0000 30.9696 0.0000
# 6 0.0000 0.0000 0.0000 0.0000 0.0000 40.1381
#
#
#
# Elastic Compliance Matrix: (Units=1/GPa)
#
#
# Indices 1 2 3 4 5 6 
#
# 1 0.012618 -0.004129 -0.004620 0.000000 0.000000 0.000000
# 2 -0.004129 0.014213 0.000249 0.000000 0.000000 0.000000
# 3 -0.004620 0.000249 0.025643 0.000000 0.000000 0.000000
# 4 0.000000 0.000000 0.000000 0.035408 0.000000 0.000000
# 5 0.000000 0.000000 0.000000 0.000000 0.032290 0.000000
# 6 0.000000 0.000000 0.000000 0.000000 0.000000 0.024914
#
#
# Mechanical properties :
#
#
# Convention : Reuss Voigt Hill
#
# Bulk Modulus (GPa) = 28.18871 34.46474 31.32672
# Shear Modulus (GPa) = 28.75098 30.96632 29.85865
#
# Velocity S-wave (km/s) = 3.69866 3.83851 3.76923
# Velocity P-wave (km/s) = 5.62607 6.00369 5.81795
#
# Compressibility (1/GPa) = 0.03547520
#
# Stress axis : x y z
#
# Youngs Moduli (GPa) = 79.25412 70.36019 38.99745
#
# Poissons Ratio (x) = 0.29049 0.18015
# Poissons Ratio (y) = 0.32721 -0.00972
# Poissons Ratio (z) = 0.36612 -0.01754
#
# Static dielectric constant tensor:
#      x y z
#    x 4.011080 0.000000 0.000000 
#    y 0.000000 3.774040 0.000000 
#    z 0.000000 0.000000 3.735900 
# 
# 
# High freq. dielectric constant tensor:
#      x y z
#    x 1.826550 0.000000 0.000000 
#    y 0.000000 1.827200 0.000000 
#    z 0.000000 0.000000 1.819590 
# 
# From -- ./inp_files/10681.got.cif
#   From: 2010.03.12/outbox.cif.g09.slc.cpg/sg39_6_cif.got.tgz:10681.got - 2010.04.14 02:53:20.
