data_PCOD8181460
_publ_section_title
;
Structure prediction by ZEFSAII (Michael W. Deem and Ramdas Pophale) SiO2 
 PCOD8181460
Probable space group: A B M 2
;
_chemical_formula_sum "Si O2"
_cell_formula_units_Z 64
_cell_length_a 24.039564
_cell_length_b 8.766384
_cell_length_c 15.319508
_cell_angle_alpha 90.000000
_cell_angle_beta 90.000000
_cell_angle_gamma 90.000000
_cell_volume 3228.433870
_symmetry_space_group_name_H-M "A B M 2"
_symmetry_group_IT_number 39
_symmetry_cell_setting 'orthorhombic'
loop_
_space_group_symop_operation_xyz
x,y,z
-x,-y,z
-x,1/2+y,z
x,1/2-y,z
x,1/2+y,1/2+z
-x,1/2-y,1/2+z
-x,y,1/2+z
x,-y,1/2+z
loop_
_atom_site_type_symbol
_atom_site_label
_atom_site_fract_x
_atom_site_fract_y
_atom_site_fract_z
Si Si1 0.441327 0.569830 0.706790
Si Si2 0.557831 0.070778 0.904375
Si Si3 0.166763 0.424121 0.901302
Si Si4 0.056005 0.429838 0.147642
Si Si5 0.837239 0.076110 0.207390
Si Si6 0.760865 0.570272 0.548776
Si Si7 0.634217 0.430170 0.061733
Si Si8 0.943081 0.069149 0.958091
O O1 0.500000 0.500000 0.676595
O O2 0.445681 0.750000 0.698820
O O3 0.427046 0.517684 0.806006
O O4 0.392866 0.509929 0.644986
O O5 0.550426 0.250000 0.907320
O O6 0.500000 0.000000 0.936034
O O7 0.605277 0.016525 0.971580
O O8 0.154441 0.250000 0.928103
O O9 0.212763 0.491610 0.964854
O O10 0.109337 0.517512 0.901616
O O11 0.190621 0.435828 0.802892
O O12 0.049009 0.250000 0.136808
O O13 0.108454 0.469219 0.207598
O O14 0.066819 0.507763 0.054941
O O15 0.000000 0.500000 0.190105
O O16 0.855255 0.250000 0.187014
O O17 0.792935 0.018488 0.136150
O O18 0.764508 0.750000 0.534488
O O19 0.697696 0.514753 0.557223
O O20 0.629452 0.250000 0.074820
O O21 0.947671 0.250000 0.958589
O O22 0.000000 0.000000 0.918277
#
# Coordination Sequence:
#
# PCOD8181460 Si02
#       8
#     8   8   8   8   8   8   8   8
#     4  10  20  35  56  84 117 152 187 232 285 336
#     4   9  19  35  55  82 117 151 187 231 281 339
#     4  11  23  39  60  86 114 149 195 243 290 344
#     4  11  21  35  59  88 117 150 188 233 288 349
#     4  10  22  40  60  83 115 153 192 239 293 348
#     4  10  22  41  61  81 113 155 194 240 293 342
#     4  10  21  37  58  84 114 152 196 237 285 340
#     4  11  21  36  59  86 117 150 185 231 291 350
#
# _framework density 19.823851999999999
#
# number of rings (size 3 to 8) (size 9 to 14) (size 15 to 20)
#    0.000    1.750    1.250    4.125    0.000    5.000 
#    0.000    0.000    0.000    0.000    0.000    0.000 
#    0.000    0.000    0.000    0.000    0.000    0.000 
#
# Total GULP energy -396884.385604 kJ/mol
# GULP energy per Si atom -12402.637050 kJ/mol
# Density = 1.977873 g / cm^3
# Si number density = 19.823852 Si / 1000 Ang^3
#
#
#
# Elastic Constant Matrix: (Units=GPa)
#
#
# Indices 1 2 3 4 5 6 
#
# 1 162.9579 53.4000 79.3907 0.0000 0.0000 0.0000
# 2 53.4000 88.2494 39.3667 0.0000 0.0000 0.0000
# 3 79.3907 39.3667 118.8957 0.0000 0.0000 0.0000
# 4 0.0000 0.0000 0.0000 24.1802 0.0000 0.0000
# 5 0.0000 0.0000 0.0000 0.0000 15.6827 0.0000
# 6 0.0000 0.0000 0.0000 0.0000 0.0000 30.7279
#
#
#
# Elastic Compliance Matrix: (Units=1/GPa)
#
#
# Indices 1 2 3 4 5 6 
#
# 1 0.009983 -0.003599 -0.005474 0.000000 0.000000 0.000000
# 2 -0.003599 0.014592 -0.002429 0.000000 0.000000 0.000000
# 3 -0.005474 -0.002429 0.012870 0.000000 0.000000 0.000000
# 4 0.000000 0.000000 0.000000 0.041356 0.000000 0.000000
# 5 0.000000 0.000000 0.000000 0.000000 0.063765 0.000000
# 6 0.000000 0.000000 0.000000 0.000000 0.000000 0.032544
#
#
# Mechanical properties :
#
#
# Convention : Reuss Voigt Hill
#
# Bulk Modulus (GPa) = 69.24126 79.37974 74.31050
# Shear Modulus (GPa) = 24.63933 27.31450 25.97692
#
# Velocity S-wave (km/s) = 3.52932 3.71598 3.62385
# Velocity P-wave (km/s) = 7.18417 7.65120 7.42136
#
# Compressibility (1/GPa) = 0.01444226
#
# Stress axis : x y z
#
# Youngs Moduli (GPa) = 100.17211 68.52851 77.69828
#
# Poissons Ratio (x) = 0.24661 0.42535
# Poissons Ratio (y) = 0.36048 0.18871
# Poissons Ratio (z) = 0.54838 0.16643
#
# Static dielectric constant tensor:
#      x y z
#    x 3.645840 0.000000 0.000000 
#    y 0.000000 3.584090 0.000000 
#    z 0.000000 0.000000 3.686410 
# 
# 
# High freq. dielectric constant tensor:
#      x y z
#    x 1.767830 0.000000 0.000000 
#    y 0.000000 1.773470 0.000000 
#    z 0.000000 0.000000 1.778060 
# 
# From -- ./inp_files/10560.got.cif
#   From: 2010.03.12/outbox.cif.g09.slc.cpg/sg39_6_cif.got.tgz:10560.got - 2010.04.14 02:53:20.
