data_PCOD8181965
_publ_section_title
;
Structure prediction by ZEFSAII (Michael W. Deem and Ramdas Pophale) SiO2 
 PCOD8181965
Probable space group: A B M 2
;
_chemical_formula_sum "Si O2"
_cell_formula_units_Z 64
_cell_length_a 20.405108
_cell_length_b 16.567931
_cell_length_c 9.378566
_cell_angle_alpha 90.000000
_cell_angle_beta 90.000000
_cell_angle_gamma 90.000000
_cell_volume 3170.615760
_symmetry_space_group_name_H-M "A B M 2"
_symmetry_group_IT_number 39
_symmetry_cell_setting 'orthorhombic'
loop_
_space_group_symop_operation_xyz
x,y,z
-x,-y,z
-x,1/2+y,z
x,1/2-y,z
x,1/2+y,1/2+z
-x,1/2-y,1/2+z
-x,y,1/2+z
x,-y,1/2+z
loop_
_atom_site_type_symbol
_atom_site_label
_atom_site_fract_x
_atom_site_fract_y
_atom_site_fract_z
Si Si1 0.561521 0.158253 0.726260
Si Si2 0.618579 0.060887 0.948855
Si Si3 0.042049 0.578161 0.587206
Si Si4 0.423746 0.418132 0.759525
Si Si5 0.062582 0.155172 0.780261
Si Si6 0.338643 0.158339 0.978216
Si Si7 0.157250 0.472998 0.661849
Si Si8 0.752257 0.987978 0.917375
O O1 0.540933 0.250000 0.706061
O O2 0.592978 0.145377 0.883366
O O3 0.496245 0.105703 0.711646
O O4 0.614171 0.131409 0.607946
O O5 0.575804 0.991774 0.870905
O O6 0.694762 0.053044 0.911477
O O7 0.612967 0.054894 0.117293
O O8 0.059935 0.625555 0.443354
O O9 0.106302 0.547621 0.672357
O O10 0.000000 0.500000 0.541852
O O11 0.004832 0.636453 0.697457
O O12 0.382217 0.346405 0.833749
O O13 0.076440 0.250000 0.777969
O O14 0.121526 0.111405 0.696233
O O15 0.313158 0.250000 0.997070
O O16 0.276217 0.098304 0.973375
O O17 0.220951 0.480646 0.758824
O O18 0.186327 0.476363 0.503497
#
# Coordination Sequence:
#
# PCOD8181965 Si02
#       8
#     8   8   8   8   8   8   8   8
#     4  11  23  39  59  86 119 153 197 257 329 391
#     4  11  23  39  60  86 119 156 206 254 312 369
#     4  10  21  40  66  95 129 169 203 247 308 369
#     4  11  22  38  61  88 115 152 200 262 321 390
#     4  11  23  40  65 101 133 159 201 261 312 354
#     4  10  22  40  61  88 123 163 205 262 326 379
#     4  11  22  40  65  90 122 171 217 247 295 372
#     4  11  22  40  61  86 121 167 215 254 291 363
#
# _framework density 20.185354
#
# number of rings (size 3 to 8) (size 9 to 14) (size 15 to 20)
#    0.000    1.250    1.250    6.750    1.750    4.500 
#    0.000    0.625    0.000    1.500    0.000    0.000 
#    0.000    0.000    0.000    0.000    0.000    0.000 
#
# Total GULP energy -396759.915204 kJ/mol
# GULP energy per Si atom -12398.747350 kJ/mol
# Density = 2.013941 g / cm^3
# Si number density = 20.185354 Si / 1000 Ang^3
#
#
#
# Elastic Constant Matrix: (Units=GPa)
#
#
# Indices 1 2 3 4 5 6 
#
# 1 101.5108 39.1762 19.2497 0.0000 0.0000 0.0000
# 2 39.1762 82.1100 40.9015 0.0000 0.0000 0.0000
# 3 19.2497 40.9015 89.1520 0.0000 0.0000 0.0000
# 4 0.0000 0.0000 0.0000 26.0089 0.0000 0.0000
# 5 0.0000 0.0000 0.0000 0.0000 44.7201 0.0000
# 6 0.0000 0.0000 0.0000 0.0000 0.0000 25.4072
#
#
#
# Elastic Compliance Matrix: (Units=1/GPa)
#
#
# Indices 1 2 3 4 5 6 
#
# 1 0.012075 -0.005784 0.000047 0.000000 0.000000 0.000000
# 2 -0.005784 0.018557 -0.007265 0.000000 0.000000 0.000000
# 3 0.000047 -0.007265 0.014540 0.000000 0.000000 0.000000
# 4 0.000000 0.000000 0.000000 0.038448 0.000000 0.000000
# 5 0.000000 0.000000 0.000000 0.000000 0.022361 0.000000
# 6 0.000000 0.000000 0.000000 0.000000 0.000000 0.039359
#
#
# Mechanical properties :
#
#
# Convention : Reuss Voigt Hill
#
# Bulk Modulus (GPa) = 52.17390 52.38083 52.27737
# Shear Modulus (GPa) = 28.13184 30.79025 29.46105
#
# Velocity S-wave (km/s) = 3.73725 3.90984 3.82452
# Velocity P-wave (km/s) = 6.67280 6.81093 6.74222
#
# Compressibility (1/GPa) = 0.01916667
#
# Stress axis : x y z
#
# Youngs Moduli (GPa) = 82.81806 53.88681 68.77687
#
# Poissons Ratio (x) = 0.31169 -0.00320
# Poissons Ratio (y) = 0.47904 0.49966
# Poissons Ratio (z) = -0.00386 0.39148
#
# Static dielectric constant tensor:
#      x y z
#    x 3.703600 0.000000 0.000000 
#    y 0.000000 3.575720 0.000000 
#    z 0.000000 0.000000 3.835910 
# 
# 
# High freq. dielectric constant tensor:
#      x y z
#    x 1.791660 0.000000 0.000000 
#    y 0.000000 1.774930 0.000000 
#    z 0.000000 0.000000 1.800060 
# 
# From -- ./inp_files/4029.got.cif
#   From: 2010.03.12/outbox.cif.g09.slc.cpg/sg39_3_cif.got.tgz:4029.got - 2010.04.14 02:53:20.
