data_PCOD8181745
_publ_section_title
;
Structure prediction by ZEFSAII (Michael W. Deem and Ramdas Pophale) SiO2 
 PCOD8181745
Probable space group: A B M 2
;
_chemical_formula_sum "Si O2"
_cell_formula_units_Z 64
_cell_length_a 8.576883
_cell_length_b 16.935118
_cell_length_c 23.347897
_cell_angle_alpha 90.000000
_cell_angle_beta 90.000000
_cell_angle_gamma 90.000000
_cell_volume 3391.294313
_symmetry_space_group_name_H-M "A B M 2"
_symmetry_group_IT_number 39
_symmetry_cell_setting 'orthorhombic'
loop_
_space_group_symop_operation_xyz
x,y,z
-x,-y,z
-x,1/2+y,z
x,1/2-y,z
x,1/2+y,1/2+z
-x,1/2-y,1/2+z
-x,y,1/2+z
x,-y,1/2+z
loop_
_atom_site_type_symbol
_atom_site_label
_atom_site_fract_x
_atom_site_fract_y
_atom_site_fract_z
Si Si1 0.811802 0.341131 0.937590
Si Si2 0.684989 0.659435 0.189174
Si Si3 0.711182 0.838970 0.056935
Si Si4 0.681494 0.485468 0.875564
Si Si5 0.106084 0.426648 0.962733
Si Si6 0.818275 0.984568 0.251640
Si Si7 0.610702 0.072722 0.165068
Si Si8 0.351788 0.340061 0.554686
O O1 0.777594 0.250000 0.922729
O O2 0.722396 0.395228 0.891789
O O3 0.997004 0.357995 0.935878
O O4 0.750673 0.364914 0.000551
O O5 0.709757 0.750000 0.207639
O O6 0.738371 0.644329 0.123894
O O7 0.788733 0.604915 0.230512
O O8 0.500622 0.638811 0.194286
O O9 0.762462 0.750000 0.041885
O O10 0.532414 0.852272 0.039472
O O11 0.813785 0.898861 0.020837
O O12 0.500000 0.500000 0.882316
O O13 0.768064 0.548845 0.915467
O O14 0.732622 0.500053 0.810993
O O15 0.000000 0.500000 0.980173
O O16 0.747205 0.047612 0.207620
O O17 0.000000 0.000000 0.258915
O O18 0.695296 0.105477 0.108324
O O19 0.500000 0.000000 0.147786
O O20 0.318655 0.250000 0.572383
#
# Coordination Sequence:
#
# PCOD8181745 Si02
#       8
#     8   8   8   8   8   8   8   8
#     4  10  21  36  56  84 116 146 177 221 277 328
#     4   9  19  36  58  83 111 146 186 225 266 316
#     4   9  17  32  54  80 111 145 182 222 264 317
#     4  11  23  41  61  78 103 143 190 232 269 319
#     4  10  21  34  53  80 112 145 178 221 275 326
#     4  11  23  39  57  80 111 143 180 228 279 327
#     4   9  18  33  56  80 108 146 185 223 265 316
#     4   9  18  33  54  81 112 144 179 220 265 317
#
# _framework density 18.871852000000001
#
# number of rings (size 3 to 8) (size 9 to 14) (size 15 to 20)
#    0.000    2.250    0.000    4.500    0.000    8.500 
#    0.000    3.125    0.000    5.250    0.000    0.000 
#    0.000    0.000    0.000    0.000    0.000    0.000 
#
# Total GULP energy -396847.993154 kJ/mol
# GULP energy per Si atom -12401.499786 kJ/mol
# Density = 1.882890 g / cm^3
# Si number density = 18.871852 Si / 1000 Ang^3
#
#
#
# Elastic Constant Matrix: (Units=GPa)
#
#
# Indices 1 2 3 4 5 6 
#
# 1 98.3102 30.6159 42.7276 0.0000 0.0000 0.0000
# 2 30.6159 63.5310 34.7827 0.0000 0.0000 0.0000
# 3 42.7276 34.7827 79.3956 0.0000 0.0000 0.0000
# 4 0.0000 0.0000 0.0000 22.2672 0.0000 0.0000
# 5 0.0000 0.0000 0.0000 0.0000 12.8113 0.0000
# 6 0.0000 0.0000 0.0000 0.0000 0.0000 23.6951
#
#
#
# Elastic Compliance Matrix: (Units=1/GPa)
#
#
# Indices 1 2 3 4 5 6 
#
# 1 0.013815 -0.003403 -0.005944 0.000000 0.000000 0.000000
# 2 -0.003403 0.021545 -0.007607 0.000000 0.000000 0.000000
# 3 -0.005944 -0.007607 0.019127 0.000000 0.000000 0.000000
# 4 0.000000 0.000000 0.000000 0.044909 0.000000 0.000000
# 5 0.000000 0.000000 0.000000 0.000000 0.078056 0.000000
# 6 0.000000 0.000000 0.000000 0.000000 0.000000 0.042203
#
#
# Mechanical properties :
#
#
# Convention : Reuss Voigt Hill
#
# Bulk Modulus (GPa) = 48.59528 50.83212 49.71370
# Shear Modulus (GPa) = 19.19955 20.62879 19.91417
#
# Velocity S-wave (km/s) = 3.19308 3.30979 3.25196
# Velocity P-wave (km/s) = 6.27697 6.44982 6.36398
#
# Compressibility (1/GPa) = 0.02057813
#
# Stress axis : x y z
#
# Youngs Moduli (GPa) = 72.38501 46.41362 52.28343
#
# Poissons Ratio (x) = 0.15796 0.31076
# Poissons Ratio (y) = 0.24635 0.39774
# Poissons Ratio (z) = 0.43023 0.35308
#
# Static dielectric constant tensor:
#      x y z
#    x 3.518220 0.000000 0.000000 
#    y 0.000000 3.632100 0.000000 
#    z 0.000000 0.000000 3.361000 
# 
# 
# High freq. dielectric constant tensor:
#      x y z
#    x 1.729560 0.000000 0.000000 
#    y 0.000000 1.739110 0.000000 
#    z 0.000000 0.000000 1.725990 
# 
# From -- ./inp_files/14234.got.cif
#   From: 2010.03.12/outbox.cif.g09.slc.cpg/sg39_8_cif.got.tgz:14234.got - 2010.04.14 02:53:20.
