data_PCOD8181330
_publ_section_title
;
Structure prediction by ZEFSAII (Michael W. Deem and Ramdas Pophale) SiO2 
 PCOD8181330
Probable space group: A B M 2
;
_chemical_formula_sum "Si O2"
_cell_formula_units_Z 64
_cell_length_a 16.708177
_cell_length_b 8.838793
_cell_length_c 22.412672
_cell_angle_alpha 90.000000
_cell_angle_beta 90.000000
_cell_angle_gamma 90.000000
_cell_volume 3309.906044
_symmetry_space_group_name_H-M "A B M 2"
_symmetry_group_IT_number 39
_symmetry_cell_setting 'orthorhombic'
loop_
_space_group_symop_operation_xyz
x,y,z
-x,-y,z
-x,1/2+y,z
x,1/2-y,z
x,1/2+y,1/2+z
-x,1/2-y,1/2+z
-x,y,1/2+z
x,-y,1/2+z
loop_
_atom_site_type_symbol
_atom_site_label
_atom_site_fract_x
_atom_site_fract_y
_atom_site_fract_z
Si Si1 0.771889 0.424310 0.516700
Si Si2 0.576020 0.921142 0.446513
Si Si3 0.276279 0.077983 0.891545
Si Si4 0.623198 0.580551 0.574518
Si Si5 0.744485 0.572417 0.267939
Si Si6 0.082837 0.570909 0.722537
Si Si7 0.415253 0.570602 0.696707
Si Si8 0.077437 0.426848 0.086901
O O1 0.751806 0.250000 0.532879
O O2 0.787623 0.441161 0.445302
O O3 0.706236 0.530576 0.545848
O O4 0.850903 0.485645 0.547244
O O5 0.589011 0.750000 0.422350
O O6 0.563282 0.920050 0.518186
O O7 0.500000 0.000000 0.416453
O O8 0.644096 0.034197 0.426100
O O9 0.279990 0.250000 0.867641
O O10 0.261645 0.965706 0.837390
O O11 0.630620 0.750000 0.601151
O O12 0.594039 0.470587 0.627053
O O13 0.745519 0.750000 0.257760
O O14 0.832080 0.507881 0.248525
O O15 0.664876 0.510743 0.232406
O O16 0.076935 0.750000 0.731598
O O17 0.088379 0.517914 0.654456
O O18 0.000000 0.500000 0.750567
O O19 0.500000 0.500000 0.720781
O O20 0.422694 0.750000 0.703290
O O21 0.068720 0.250000 0.084544
O O22 0.000000 0.500000 0.057489
#
# Coordination Sequence:
#
# PCOD8181330 Si02
#       8
#     8   8   8   8   8   8   8   8
#     4   9  18  34  54  76 106 142 176 215 268 324
#     4  10  20  34  53  77 105 137 174 218 268 320
#     4  10  21  36  55  77 102 137 181 225 266 313
#     4  10  20  33  53  81 109 138 175 220 269 322
#     4  10  22  40  58  76 106 148 187 227 277 326
#     4   9  18  34  57  83 108 138 176 220 272 326
#     4  11  23  38  56  79 110 147 184 224 273 328
#     4   9  17  31  52  79 109 137 168 209 261 321
#
# _framework density 19.335898
#
# number of rings (size 3 to 8) (size 9 to 14) (size 15 to 20)
#    0.000    2.250    0.000    2.625    0.000    7.500 
#    0.000    4.375    0.000    3.000    0.000    0.000 
#    0.000    0.000    0.000    0.000    0.000    0.000 
#
# Total GULP energy -396451.726434 kJ/mol
# GULP energy per Si atom -12389.116451 kJ/mol
# Density = 1.929189 g / cm^3
# Si number density = 19.335898 Si / 1000 Ang^3
#
#
#
# Elastic Constant Matrix: (Units=GPa)
#
#
# Indices 1 2 3 4 5 6 
#
# 1 125.9062 26.0597 38.5555 0.0000 0.0000 0.0000
# 2 26.0597 35.0406 12.1995 0.0000 0.0000 0.0000
# 3 38.5555 12.1995 64.5696 0.0000 0.0000 0.0000
# 4 0.0000 0.0000 0.0000 27.6515 0.0000 0.0000
# 5 0.0000 0.0000 0.0000 0.0000 9.2329 0.0000
# 6 0.0000 0.0000 0.0000 0.0000 0.0000 30.1845
#
#
#
# Elastic Compliance Matrix: (Units=1/GPa)
#
#
# Indices 1 2 3 4 5 6 
#
# 1 0.010856 -0.006226 -0.005306 0.000000 0.000000 0.000000
# 2 -0.006226 0.034119 -0.002728 0.000000 0.000000 0.000000
# 3 -0.005306 -0.002728 0.019171 0.000000 0.000000 0.000000
# 4 0.000000 0.000000 0.000000 0.036164 0.000000 0.000000
# 5 0.000000 0.000000 0.000000 0.000000 0.108308 0.000000
# 6 0.000000 0.000000 0.000000 0.000000 0.000000 0.033130
#
#
# Mechanical properties :
#
#
# Convention : Reuss Voigt Hill
#
# Bulk Modulus (GPa) = 28.07072 42.12732 35.09902
# Shear Modulus (GPa) = 17.72149 23.32723 20.52436
#
# Velocity S-wave (km/s) = 3.03067 3.47713 3.26155
# Velocity P-wave (km/s) = 5.17644 6.16076 5.68992
#
# Compressibility (1/GPa) = 0.03562431
#
# Stress axis : x y z
#
# Youngs Moduli (GPa) = 92.11587 29.30945 52.16242
#
# Poissons Ratio (x) = 0.18249 0.27677
# Poissons Ratio (y) = 0.57354 0.14232
# Poissons Ratio (z) = 0.48875 0.07997
#
# Static dielectric constant tensor:
#      x y z
#    x 3.898340 0.000000 0.000000 
#    y 0.000000 3.436570 0.000000 
#    z 0.000000 0.000000 3.514510 
# 
# 
# High freq. dielectric constant tensor:
#      x y z
#    x 1.757960 0.000000 0.000000 
#    y 0.000000 1.748270 0.000000 
#    z 0.000000 0.000000 1.736040 
# 
# From -- ./inp_files/16148.got.cif
#   From: 2010.03.12/outbox.cif.g09.slc.cpg/sg39_9_cif.got.tgz:16148.got - 2010.04.14 02:53:20.
