data_PCOD8181606
_publ_section_title
;
Structure prediction by ZEFSAII (Michael W. Deem and Ramdas Pophale) SiO2 
 PCOD8181606
Probable space group: A B M 2
;
_chemical_formula_sum "Si O2"
_cell_formula_units_Z 64
_cell_length_a 10.093446
_cell_length_b 18.054046
_cell_length_c 18.272943
_cell_angle_alpha 90.000000
_cell_angle_beta 90.000000
_cell_angle_gamma 90.000000
_cell_volume 3329.833422
_symmetry_space_group_name_H-M "A B M 2"
_symmetry_group_IT_number 39
_symmetry_cell_setting 'orthorhombic'
loop_
_space_group_symop_operation_xyz
x,y,z
-x,-y,z
-x,1/2+y,z
x,1/2-y,z
x,1/2+y,1/2+z
-x,1/2-y,1/2+z
-x,y,1/2+z
x,-y,1/2+z
loop_
_atom_site_type_symbol
_atom_site_label
_atom_site_fract_x
_atom_site_fract_y
_atom_site_fract_z
Si Si1 0.153918 0.577355 0.310610
Si Si2 0.140714 0.992590 0.081235
Si Si3 0.301234 0.049052 0.950694
Si Si4 0.415375 0.610096 0.937779
Si Si5 0.630167 0.667142 0.731209
Si Si6 0.134884 0.066278 0.240778
Si Si7 0.361485 0.665886 0.783735
Si Si8 0.733976 0.334141 0.075908
O O1 0.182757 0.580850 0.398326
O O2 0.238735 0.637535 0.268939
O O3 0.206964 0.496904 0.287719
O O4 0.002978 0.586736 0.282249
O O5 0.165569 0.903563 0.086670
O O6 0.121361 0.034311 0.158849
O O7 0.000000 0.000000 0.040070
O O8 0.249233 0.037312 0.033750
O O9 0.425039 0.105812 0.947825
O O10 0.352531 0.969890 0.923899
O O11 0.365865 0.659664 0.870788
O O12 0.357950 0.652686 0.006893
O O13 0.619629 0.750000 0.761080
O O14 0.494829 0.624873 0.753960
O O15 0.636886 0.663137 0.644452
O O16 0.230566 0.135808 0.244104
O O17 0.360130 0.750000 0.758695
O O18 0.799625 0.250000 0.071555
#
# Coordination Sequence:
#
# PCOD8181606 Si02
#       8
#     8   8   8   8   8   8   8   8
#     4  11  20  40  60  88 119 157 203 253 301 355
#     4  11  22  40  61  90 123 161 206 253 302 369
#     4  10  22  35  60  88 117 156 203 250 305 356
#     4  10  20  37  57  89 117 154 202 255 304 356
#     4  10  21  37  60  86 115 158 202 244 302 364
#     4  11  23  37  61  90 122 156 203 255 301 357
#     4  11  23  38  59  87 122 160 199 251 311 367
#     4  10  21  38  60  86 121 160 199 250 310 366
#
# _framework density 19.220181
#
# number of rings (size 3 to 8) (size 9 to 14) (size 15 to 20)
#    0.000    1.500    5.000    0.375    3.500    1.000 
#    0.000    0.625    0.000    3.000    0.000    0.000 
#    0.000    0.000    0.000    0.000    0.000    0.000 
#
# Total GULP energy -396418.415370 kJ/mol
# GULP energy per Si atom -12388.075480 kJ/mol
# Density = 1.917643 g / cm^3
# Si number density = 19.220181 Si / 1000 Ang^3
#
#
#
# Elastic Constant Matrix: (Units=GPa)
#
#
# Indices 1 2 3 4 5 6 
#
# 1 114.9271 56.1386 50.9318 0.0000 0.0000 0.0000
# 2 56.1386 79.6483 34.5810 0.0000 0.0000 0.0000
# 3 50.9318 34.5810 100.8398 0.0000 0.0000 0.0000
# 4 0.0000 0.0000 0.0000 18.4432 0.0000 0.0000
# 5 0.0000 0.0000 0.0000 0.0000 25.0258 0.0000
# 6 0.0000 0.0000 0.0000 0.0000 0.0000 26.1462
#
#
#
# Elastic Compliance Matrix: (Units=1/GPa)
#
#
# Indices 1 2 3 4 5 6 
#
# 1 0.014894 -0.008497 -0.004609 0.000000 0.000000 0.000000
# 2 -0.008497 0.019599 -0.002429 0.000000 0.000000 0.000000
# 3 -0.004609 -0.002429 0.013078 0.000000 0.000000 0.000000
# 4 0.000000 0.000000 0.000000 0.054221 0.000000 0.000000
# 5 0.000000 0.000000 0.000000 0.000000 0.039959 0.000000
# 6 0.000000 0.000000 0.000000 0.000000 0.000000 0.038246
#
#
# Mechanical properties :
#
#
# Convention : Reuss Voigt Hill
#
# Bulk Modulus (GPa) = 60.60487 64.30201 62.45344
# Shear Modulus (GPa) = 23.08756 24.17395 23.63076
#
# Velocity S-wave (km/s) = 3.46961 3.55031 3.51019
# Velocity P-wave (km/s) = 6.90299 7.09467 6.99949
#
# Compressibility (1/GPa) = 0.01650032
#
# Stress axis : x y z
#
# Youngs Moduli (GPa) = 67.14062 51.02351 76.46611
#
# Poissons Ratio (x) = 0.43354 0.35242
# Poissons Ratio (y) = 0.57048 0.18577
# Poissons Ratio (z) = 0.30944 0.12396
#
# Static dielectric constant tensor:
#      x y z
#    x 3.618300 0.000000 0.000000 
#    y 0.000000 3.568050 0.000000 
#    z 0.000000 0.000000 3.504650 
# 
# 
# High freq. dielectric constant tensor:
#      x y z
#    x 1.746200 0.000000 0.000000 
#    y 0.000000 1.736040 0.000000 
#    z 0.000000 0.000000 1.755720 
# 
# From -- ./inp_files/11934.got.cif
#   From: 2010.03.12/outbox.cif.g09.slc.cpg/sg39_6_cif.got.tgz:11934.got - 2010.04.14 02:53:20.
