data_PCOD8181128
_publ_section_title
;
Structure prediction by ZEFSAII (Michael W. Deem and Ramdas Pophale) SiO2 
 PCOD8181128
Probable space group: A B M 2
;
_chemical_formula_sum "Si O2"
_cell_formula_units_Z 64
_cell_length_a 14.756709
_cell_length_b 8.803744
_cell_length_c 24.800118
_cell_angle_alpha 90.000000
_cell_angle_beta 90.000000
_cell_angle_gamma 90.000000
_cell_volume 3221.889680
_symmetry_space_group_name_H-M "A B M 2"
_symmetry_group_IT_number 39
_symmetry_cell_setting 'orthorhombic'
loop_
_space_group_symop_operation_xyz
x,y,z
-x,-y,z
-x,1/2+y,z
x,1/2-y,z
x,1/2+y,1/2+z
-x,1/2-y,1/2+z
-x,y,1/2+z
x,-y,1/2+z
loop_
_atom_site_type_symbol
_atom_site_label
_atom_site_fract_x
_atom_site_fract_y
_atom_site_fract_z
Si Si1 0.688841 0.421714 0.368170
Si Si2 0.865562 0.072123 0.839997
Si Si3 0.411224 0.078486 0.766719
Si Si4 0.277029 0.929380 0.179561
Si Si5 0.091267 0.068941 0.725401
Si Si6 0.399331 0.929673 0.081622
Si Si7 0.089334 0.929711 0.451915
Si Si8 0.287982 0.924387 0.488340
O O1 0.729252 0.250000 0.360787
O O2 0.758720 0.545233 0.346241
O O3 0.600064 0.441647 0.331113
O O4 0.664080 0.446788 0.430307
O O5 0.887629 0.250000 0.838297
O O6 0.900744 0.994329 0.785824
O O7 0.912433 0.995858 0.891619
O O8 0.423963 0.250000 0.749286
O O9 0.324799 0.014486 0.734624
O O10 0.500000 0.000000 0.745061
O O11 0.274905 0.750000 0.173686
O O12 0.173346 0.986925 0.186069
O O13 0.334240 0.995432 0.129153
O O14 0.087348 0.250000 0.728334
O O15 0.000000 0.000000 0.699348
O O16 0.411481 0.750000 0.085418
O O17 0.500000 0.000000 0.083890
O O18 0.345788 0.969643 0.027231
O O19 0.081586 0.750000 0.449207
O O20 0.182000 0.975249 0.483599
O O21 0.000000 0.000000 0.481582
O O22 0.294449 0.750000 0.507671
#
# Coordination Sequence:
#
# PCOD8181128 Si02
#       8
#     8   8   8   8   8   8   8   8
#     4   9  18  35  56  78 114 157 189 230 289 340
#     4  11  20  31  51  82 117 155 198 236 279 334
#     4  10  19  34  55  81 111 147 183 228 286 344
#     4   9  20  39  61  81 111 150 190 235 290 343
#     4  11  21  37  57  81 115 153 194 236 285 342
#     4  11  23  41  65  89 111 147 194 243 294 347
#     4  10  20  35  56  83 118 158 198 237 285 338
#     4   9  20  38  59  85 115 151 193 239 290 342
#
# _framework density 19.864118999999999
#
# number of rings (size 3 to 8) (size 9 to 14) (size 15 to 20)
#    0.000    2.000    1.250    3.750    0.000    3.500 
#    0.000    5.000    0.000    3.000    0.000    0.000 
#    0.000    0.000    0.000    0.000    0.000    0.000 
#
# Total GULP energy -396569.322564 kJ/mol
# GULP energy per Si atom -12392.791330 kJ/mol
# Density = 1.981891 g / cm^3
# Si number density = 19.864119 Si / 1000 Ang^3
#
#
#
# Elastic Constant Matrix: (Units=GPa)
#
#
# Indices 1 2 3 4 5 6 
#
# 1 162.4897 49.6391 64.9431 0.0000 0.0000 0.0000
# 2 49.6391 78.1594 31.2764 0.0000 0.0000 0.0000
# 3 64.9431 31.2764 96.4260 0.0000 0.0000 0.0000
# 4 0.0000 0.0000 0.0000 17.6403 0.0000 0.0000
# 5 0.0000 0.0000 0.0000 0.0000 25.1173 0.0000
# 6 0.0000 0.0000 0.0000 0.0000 0.0000 35.0848
#
#
#
# Elastic Compliance Matrix: (Units=1/GPa)
#
#
# Indices 1 2 3 4 5 6 
#
# 1 0.009368 -0.003936 -0.005033 0.000000 0.000000 0.000000
# 2 -0.003936 0.016356 -0.002655 0.000000 0.000000 0.000000
# 3 -0.005033 -0.002655 0.014621 0.000000 0.000000 0.000000
# 4 0.000000 0.000000 0.000000 0.056689 0.000000 0.000000
# 5 0.000000 0.000000 0.000000 0.000000 0.039813 0.000000
# 6 0.000000 0.000000 0.000000 0.000000 0.000000 0.028502
#
#
# Mechanical properties :
#
#
# Convention : Reuss Voigt Hill
#
# Bulk Modulus (GPa) = 58.48165 69.86582 64.17373
# Shear Modulus (GPa) = 25.73399 28.31623 27.02511
#
# Velocity S-wave (km/s) = 3.60321 3.77967 3.69250
# Velocity P-wave (km/s) = 6.84219 7.36859 7.11026
#
# Compressibility (1/GPa) = 0.01709938
#
# Stress axis : x y z
#
# Youngs Moduli (GPa) = 106.74567 61.13902 68.39344
#
# Poissons Ratio (x) = 0.24063 0.34421
# Poissons Ratio (y) = 0.42012 0.18155
# Poissons Ratio (z) = 0.53723 0.16229
#
# Static dielectric constant tensor:
#      x y z
#    x 3.865530 0.000000 0.000000 
#    y 0.000000 3.486060 0.000000 
#    z 0.000000 0.000000 3.524540 
# 
# 
# High freq. dielectric constant tensor:
#      x y z
#    x 1.784380 0.000000 0.000000 
#    y 0.000000 1.761270 0.000000 
#    z 0.000000 0.000000 1.755990 
# 
# From -- ./inp_files/16234.got.cif
#   From: 2010.03.12/outbox.cif.g09.slc.cpg/sg39_9_cif.got.tgz:16234.got - 2010.04.14 02:53:20.
