data_PCOD8181788
_publ_section_title
;
Structure prediction by ZEFSAII (Michael W. Deem and Ramdas Pophale) SiO2 
 PCOD8181788
Probable space group: A B M 2
;
_chemical_formula_sum "Si O2"
_cell_formula_units_Z 40
_cell_length_a 11.266244
_cell_length_b 17.408185
_cell_length_c 9.081997
_cell_angle_alpha 90.000000
_cell_angle_beta 90.000000
_cell_angle_gamma 90.000000
_cell_volume 1781.205388
_symmetry_space_group_name_H-M "A B M 2"
_symmetry_group_IT_number 39
_symmetry_cell_setting 'orthorhombic'
loop_
_space_group_symop_operation_xyz
x,y,z
-x,-y,z
-x,1/2+y,z
x,1/2-y,z
x,1/2+y,1/2+z
-x,1/2-y,1/2+z
-x,y,1/2+z
x,-y,1/2+z
loop_
_atom_site_type_symbol
_atom_site_label
_atom_site_fract_x
_atom_site_fract_y
_atom_site_fract_z
Si Si1 0.367279 0.842585 0.830480
Si Si2 0.591605 0.334367 0.154214
Si Si3 0.159164 0.454611 0.262969
Si Si4 0.996618 0.895764 0.012239
Si Si5 0.835137 0.369447 0.261690
O O1 0.345174 0.750000 0.822994
O O2 0.484488 0.872415 0.745126
O O3 0.258324 0.888341 0.758970
O O4 0.380878 0.874291 0.997803
O O5 0.544896 0.250000 0.114770
O O6 0.710203 0.326111 0.253292
O O7 0.083128 0.449608 0.114754
O O8 0.206242 0.541291 0.265261
O O9 0.074839 0.446968 0.403260
O O10 0.084259 0.846794 0.118569
O O11 0.908545 0.844543 0.908391
#
# Coordination Sequence:
#
# PCOD8181788 Si02
#       5
#     8   8   8   8   8
#     4  10  23  43  62  83 116 156 197 243 295 346
#     4  10  23  43  62  83 116 156 197 243 295 346
#     4  11  20  37  61  89 118 154 194 237 286 348
#     4  10  21  36  59  88 125 156 185 232 297 350
#     4  11  20  37  61  89 118 154 194 237 286 348
#
# _framework density 22.456702
#
# number of rings (size 3 to 8) (size 9 to 14) (size 15 to 20)
#    0.000    1.600    2.000    4.800    2.800    0.800 
#    0.000    8.000    0.000    0.000    0.000    0.000 
#    0.000    0.000    0.000    0.000    0.000    0.000 
#
# Total GULP energy -247832.309399 kJ/mol
# GULP energy per Si atom -12391.615470 kJ/mol
# Density = 2.240559 g / cm^3
# Si number density = 22.456702 Si / 1000 Ang^3
#
#
#
# Elastic Constant Matrix: (Units=GPa)
#
#
# Indices 1 2 3 4 5 6 
#
# 1 163.1826 36.2283 64.5850 0.0000 0.0000 0.0000
# 2 36.2283 51.9249 17.7519 0.0000 0.0000 0.0000
# 3 64.5850 17.7519 144.6860 0.0000 0.0000 0.0000
# 4 0.0000 0.0000 0.0000 10.0777 0.0000 0.0000
# 5 0.0000 0.0000 0.0000 0.0000 112.7381 0.0000
# 6 0.0000 0.0000 0.0000 0.0000 0.0000 27.0850
#
#
#
# Elastic Compliance Matrix: (Units=1/GPa)
#
#
# Indices 1 2 3 4 5 6 
#
# 1 0.008457 -0.004812 -0.003185 0.000000 0.000000 0.000000
# 2 -0.004812 0.022839 -0.000654 0.000000 0.000000 0.000000
# 3 -0.003185 -0.000654 0.008413 0.000000 0.000000 0.000000
# 4 0.000000 0.000000 0.000000 0.099229 0.000000 0.000000
# 5 0.000000 0.000000 0.000000 0.000000 0.008870 0.000000
# 6 0.000000 0.000000 0.000000 0.000000 0.000000 0.036921
#
#
# Mechanical properties :
#
#
# Convention : Reuss Voigt Hill
#
# Bulk Modulus (GPa) = 44.62635 66.32489 55.47562
# Shear Modulus (GPa) = 23.86639 46.06205 34.96422
#
# Velocity S-wave (km/s) = 3.26356 4.53388 3.95012
# Velocity P-wave (km/s) = 5.84092 7.55028 6.74993
#
# Compressibility (1/GPa) = 0.02240829
#
# Stress axis : x y z
#
# Youngs Moduli (GPa) = 118.24894 43.78403 118.85879
#
# Poissons Ratio (x) = 0.21067 0.37851
# Poissons Ratio (y) = 0.56896 0.07778
# Poissons Ratio (z) = 0.37657 0.02865
#
# Static dielectric constant tensor:
#      x y z
#    x 4.124860 0.000000 0.000000 
#    y 0.000000 3.461290 0.000000 
#    z 0.000000 0.000000 4.479310 
# 
# 
# High freq. dielectric constant tensor:
#      x y z
#    x 1.889880 0.000000 0.000000 
#    y 0.000000 1.843290 0.000000 
#    z 0.000000 0.000000 1.903790 
# 
# From -- ./inp_files/2111.got.cif
#   From: 2010.03.12/outbox.cif.g09.slc.cpg/sg39_2_cif.got.tgz:2111.got - 2010.04.14 02:53:20.
