data_PCOD8181813
_publ_section_title
;
Structure prediction by ZEFSAII (Michael W. Deem and Ramdas Pophale) SiO2 
 PCOD8181813
Probable space group: A B M 2
;
_chemical_formula_sum "Si O2"
_cell_formula_units_Z 64
_cell_length_a 23.811827
_cell_length_b 9.159672
_cell_length_c 15.159091
_cell_angle_alpha 90.000000
_cell_angle_beta 90.000000
_cell_angle_gamma 90.000000
_cell_volume 3306.326979
_symmetry_space_group_name_H-M "A B M 2"
_symmetry_group_IT_number 39
_symmetry_cell_setting 'orthorhombic'
loop_
_space_group_symop_operation_xyz
x,y,z
-x,-y,z
-x,1/2+y,z
x,1/2-y,z
x,1/2+y,1/2+z
-x,1/2-y,1/2+z
-x,y,1/2+z
x,-y,1/2+z
loop_
_atom_site_type_symbol
_atom_site_label
_atom_site_fract_x
_atom_site_fract_y
_atom_site_fract_z
Si Si1 0.743291 0.415320 0.427280
Si Si2 0.441254 0.576818 0.294235
Si Si3 0.872867 0.076827 0.695255
Si Si4 0.941996 0.078248 0.528574
Si Si5 0.642881 0.580747 0.638398
Si Si6 0.135505 0.079325 0.867666
Si Si7 0.632263 0.077526 0.936589
Si Si8 0.246852 0.915213 0.633756
O O1 0.724907 0.250000 0.402515
O O2 0.798840 0.463369 0.374805
O O3 0.693282 0.525496 0.402503
O O4 0.758548 0.424851 0.529260
O O5 0.500000 0.500000 0.277190
O O6 0.448367 0.750000 0.307276
O O7 0.405071 0.538746 0.207657
O O8 0.414739 0.508568 0.382341
O O9 0.872229 0.250000 0.701267
O O10 0.917170 0.025064 0.621846
O O11 0.810483 0.018248 0.672566
O O12 0.892317 0.007365 0.787014
O O13 0.952397 0.250000 0.527755
O O14 0.897122 0.031353 0.455048
O O15 0.000000 0.000000 0.508585
O O16 0.656582 0.750000 0.639312
O O17 0.624296 0.533650 0.539565
O O18 0.699930 0.503730 0.669493
O O19 0.128602 0.250000 0.850591
O O20 0.625985 0.250000 0.921161
O O21 0.255365 0.750000 0.665326
#
# Coordination Sequence:
#
# PCOD8181813 Si02
#       8
#     8   8   8   8   8   8   8   8
#     4   9  17  34  58  83 115 154 190 230 286 347
#     4  11  24  42  61  84 116 155 197 239 286 342
#     4  10  21  37  57  85 117 150 190 238 289 343
#     4  10  22  42  62  81 114 156 197 241 288 344
#     4   9  21  39  58  84 118 152 189 236 286 338
#     4  10  21  37  58  84 115 152 192 236 289 345
#     4  10  21  38  59  87 119 152 191 238 287 340
#     4   9  17  33  58  84 114 151 189 230 284 344
#
# _framework density 19.356826000000002
#
# number of rings (size 3 to 8) (size 9 to 14) (size 15 to 20)
#    0.000    2.250    1.250    0.750    1.750    4.500 
#    0.000    3.750    0.000    0.000    0.000    0.000 
#    0.000    0.000    0.000    0.000    0.000    0.000 
#
# Total GULP energy -396865.620602 kJ/mol
# GULP energy per Si atom -12402.050644 kJ/mol
# Density = 1.931277 g / cm^3
# Si number density = 19.356826 Si / 1000 Ang^3
#
#
#
# Elastic Constant Matrix: (Units=GPa)
#
#
# Indices 1 2 3 4 5 6 
#
# 1 96.1635 40.7941 29.2306 0.0000 0.0000 0.0000
# 2 40.7941 55.1714 31.9842 0.0000 0.0000 0.0000
# 3 29.2306 31.9842 75.9722 0.0000 0.0000 0.0000
# 4 0.0000 0.0000 0.0000 30.4119 0.0000 0.0000
# 5 0.0000 0.0000 0.0000 0.0000 22.0296 0.0000
# 6 0.0000 0.0000 0.0000 0.0000 0.0000 34.4046
#
#
#
# Elastic Compliance Matrix: (Units=1/GPa)
#
#
# Indices 1 2 3 4 5 6 
#
# 1 0.015277 -0.010435 -0.001485 0.000000 0.000000 0.000000
# 2 -0.010435 0.031105 -0.009080 0.000000 0.000000 0.000000
# 3 -0.001485 -0.009080 0.017557 0.000000 0.000000 0.000000
# 4 0.000000 0.000000 0.000000 0.032882 0.000000 0.000000
# 5 0.000000 0.000000 0.000000 0.000000 0.045394 0.000000
# 6 0.000000 0.000000 0.000000 0.000000 0.000000 0.029066
#
#
# Mechanical properties :
#
#
# Convention : Reuss Voigt Hill
#
# Bulk Modulus (GPa) = 45.58164 47.92497 46.75331
# Shear Modulus (GPa) = 22.66610 25.72243 24.19426
#
# Velocity S-wave (km/s) = 3.42564 3.64930 3.53924
# Velocity P-wave (km/s) = 6.26466 6.52449 6.39589
#
# Compressibility (1/GPa) = 0.02193866
#
# Stress axis : x y z
#
# Youngs Moduli (GPa) = 65.45761 32.14883 56.95819
#
# Poissons Ratio (x) = 0.33548 0.08456
# Poissons Ratio (y) = 0.68307 0.51720
# Poissons Ratio (z) = 0.09718 0.29192
#
# Static dielectric constant tensor:
#      x y z
#    x 3.533270 0.000000 0.000000 
#    y 0.000000 3.441330 0.000000 
#    z 0.000000 0.000000 3.612130 
# 
# 
# High freq. dielectric constant tensor:
#      x y z
#    x 1.751520 0.000000 0.000000 
#    y 0.000000 1.745700 0.000000 
#    z 0.000000 0.000000 1.760260 
# 
# From -- ./inp_files/10584.got.cif
#   From: 2010.03.12/outbox.cif.g09.slc.cpg/sg39_6_cif.got.tgz:10584.got - 2010.04.14 02:53:20.
