data_PCOD8181276
_publ_section_title
;
Structure prediction by ZEFSAII (Michael W. Deem and Ramdas Pophale) SiO2 
 PCOD8181276
Probable space group: A B M 2
;
_chemical_formula_sum "Si O2"
_cell_formula_units_Z 56
_cell_length_a 6.095183
_cell_length_b 20.504048
_cell_length_c 22.580993
_cell_angle_alpha 90.000000
_cell_angle_beta 90.000000
_cell_angle_gamma 90.000000
_cell_volume 2822.080483
_symmetry_space_group_name_H-M "A B M 2"
_symmetry_group_IT_number 39
_symmetry_cell_setting 'orthorhombic'
loop_
_space_group_symop_operation_xyz
x,y,z
-x,-y,z
-x,1/2+y,z
x,1/2-y,z
x,1/2+y,1/2+z
-x,1/2-y,1/2+z
-x,y,1/2+z
x,-y,1/2+z
loop_
_atom_site_type_symbol
_atom_site_label
_atom_site_fract_x
_atom_site_fract_y
_atom_site_fract_z
Si Si1 0.884134 0.677323 0.686040
Si Si2 0.734409 0.910003 0.209896
Si Si3 0.447278 0.675987 0.286902
Si Si4 0.615123 0.589844 0.614475
Si Si5 0.648737 0.935238 0.872192
Si Si6 0.000000 0.000000 0.795874
Si Si7 0.642281 0.064198 0.505233
Si Si8 0.000000 0.500000 0.572935
O O1 0.971576 0.750000 0.673260
O O2 0.784816 0.672210 0.752271
O O3 0.699429 0.659501 0.637624
O O4 0.062486 0.621329 0.675238
O O5 0.639573 0.847769 0.244256
O O6 0.563154 0.938514 0.161810
O O7 0.814583 0.966794 0.254437
O O8 0.495044 0.750000 0.307528
O O9 0.458003 0.627616 0.342191
O O10 0.499939 0.607168 0.551559
O O11 0.808776 0.535127 0.611207
O O12 0.500000 0.000000 0.867323
O O13 0.678622 0.908978 0.939200
O O14 0.879445 0.948872 0.839283
O O15 0.500000 0.000000 0.498994
O O16 0.885080 0.053351 0.531066
#
# Coordination Sequence:
#
# PCOD8181276 Si02
#       8
#     8   8   8   8   8   4   8   4
#     4  10  21  38  57  81 118 160 200 245 301 367
#     4  11  22  37  59  89 124 156 196 253 305 370
#     4  10  21  39  59  85 121 162 201 242 303 370
#     4  10  22  38  57  88 115 157 197 246 300 362
#     4  11  21  40  60  90 122 158 203 255 307 364
#     4  12  23  35  58  94 126 160 194 258 316 366
#     4   9  20  36  59  83 118 157 200 246 299 359
#     4  10  19  39  56  86 118 156 192 240 304 364
#
# _framework density 19.843518
#
# number of rings (size 3 to 8) (size 9 to 14) (size 15 to 20)
#    0.000    1.714    2.857    1.714    0.000    5.143 
#    2.571    0.714    0.000    0.857    0.000    0.000 
#    0.000    0.000    0.000    0.000    0.000    0.000 
#
# Total GULP energy -346952.048386 kJ/mol
# GULP energy per Si atom -12391.144585 kJ/mol
# Density = 1.979835 g / cm^3
# Si number density = 19.843518 Si / 1000 Ang^3
#
#
#
# Elastic Constant Matrix: (Units=GPa)
#
#
# Indices 1 2 3 4 5 6 
#
# 1 92.1714 28.6726 51.0927 0.0000 0.0000 0.0000
# 2 28.6726 90.7069 52.4428 0.0000 0.0000 0.0000
# 3 51.0927 52.4428 147.6684 0.0000 0.0000 0.0000
# 4 0.0000 0.0000 0.0000 13.1386 0.0000 0.0000
# 5 0.0000 0.0000 0.0000 0.0000 26.3273 0.0000
# 6 0.0000 0.0000 0.0000 0.0000 0.0000 26.4118
#
#
#
# Elastic Compliance Matrix: (Units=1/GPa)
#
#
# Indices 1 2 3 4 5 6 
#
# 1 0.013707 -0.002002 -0.004032 0.000000 0.000000 0.000000
# 2 -0.002002 0.014165 -0.004338 0.000000 0.000000 0.000000
# 3 -0.004032 -0.004338 0.009707 0.000000 0.000000 0.000000
# 4 0.000000 0.000000 0.000000 0.076111 0.000000 0.000000
# 5 0.000000 0.000000 0.000000 0.000000 0.037983 0.000000
# 6 0.000000 0.000000 0.000000 0.000000 0.000000 0.037862
#
#
# Mechanical properties :
#
#
# Convention : Reuss Voigt Hill
#
# Bulk Modulus (GPa) = 59.39400 66.10698 62.75049
# Shear Modulus (GPa) = 23.15975 26.39811 24.77893
#
# Velocity S-wave (km/s) = 3.42002 3.65130 3.53755
# Velocity P-wave (km/s) = 6.75215 7.15280 6.95536
#
# Compressibility (1/GPa) = 0.01683672
#
# Stress axis : x y z
#
# Youngs Moduli (GPa) = 72.95599 70.59464 103.01363
#
# Poissons Ratio (x) = 0.14132 0.41531
# Poissons Ratio (y) = 0.14605 0.44688
# Poissons Ratio (z) = 0.29413 0.30624
#
# Static dielectric constant tensor:
#      x y z
#    x 3.816650 0.000000 0.000000 
#    y 0.000000 3.336470 0.000000 
#    z 0.000000 0.000000 3.938020 
# 
# 
# High freq. dielectric constant tensor:
#      x y z
#    x 1.785950 0.000000 0.000000 
#    y 0.000000 1.743160 0.000000 
#    z 0.000000 0.000000 1.769910 
# 
# From -- ./inp_files/15319.got.cif
#   From: 2010.03.12/outbox.cif.g09.slc.cpg/sg39_8_cif.got.tgz:15319.got - 2010.04.14 02:53:20.
