data_PCOD8181338
_publ_section_title
;
Structure prediction by ZEFSAII (Michael W. Deem and Ramdas Pophale) SiO2 
 PCOD8181338
Probable space group: A B M 2
;
_chemical_formula_sum "Si O2"
_cell_formula_units_Z 48
_cell_length_a 13.880660
_cell_length_b 17.477750
_cell_length_c 9.387104
_cell_angle_alpha 90.000000
_cell_angle_beta 90.000000
_cell_angle_gamma 90.000000
_cell_volume 2277.336825
_symmetry_space_group_name_H-M "A B M 2"
_symmetry_group_IT_number 39
_symmetry_cell_setting 'orthorhombic'
loop_
_space_group_symop_operation_xyz
x,y,z
-x,-y,z
-x,1/2+y,z
x,1/2-y,z
x,1/2+y,1/2+z
-x,1/2-y,1/2+z
-x,y,1/2+z
x,-y,1/2+z
loop_
_atom_site_type_symbol
_atom_site_label
_atom_site_fract_x
_atom_site_fract_y
_atom_site_fract_z
Si Si1 0.417747 0.917660 0.728680
Si Si2 0.787372 0.088083 0.786751
Si Si3 0.053945 0.920291 0.573550
Si Si4 0.205033 0.083459 0.825944
Si Si5 0.863645 0.337674 0.054897
Si Si6 0.412436 0.923684 0.399439
O O1 0.314653 0.873814 0.737925
O O2 0.444704 0.931646 0.563898
O O3 0.507257 0.874284 0.809296
O O4 0.406516 0.994578 0.821997
O O5 0.881018 0.115780 0.699812
O O6 0.779151 0.998025 0.750665
O O7 0.801294 0.108324 0.951653
O O8 0.121974 0.932546 0.439430
O O9 0.976118 0.855957 0.537768
O O10 0.000000 0.000000 0.615674
O O11 0.170477 0.146766 0.714988
O O12 0.305617 0.113602 0.893690
O O13 0.845633 0.250000 0.014534
#
# Coordination Sequence:
#
# PCOD8181338 Si02
#       6
#     8   8   8   8   8   8
#     4  10  20  33  57  95 132 163 206 272 328 372
#     4  11  22  39  65  95 129 169 222 265 315 386
#     4  12  22  40  63  97 128 169 221 270 308 380
#     4  11  22  39  65  95 129 169 222 265 315 386
#     4  12  28  42  63  97 135 173 209 268 333 379
#     4  10  20  33  57  95 132 163 206 272 328 372
#
# _framework density 21.077252999999999
#
# number of rings (size 3 to 8) (size 9 to 14) (size 15 to 20)
#    0.000    1.000    5.000    3.000    9.333    2.667 
#    0.000    0.000    0.000    1.000    0.000    0.000 
#    0.000    0.000    0.000    0.000    0.000    0.000 
#
# Total GULP energy -297408.200032 kJ/mol
# GULP energy per Si atom -12392.008335 kJ/mol
# Density = 2.102928 g / cm^3
# Si number density = 21.077253 Si / 1000 Ang^3
#
#
#
# Elastic Constant Matrix: (Units=GPa)
#
#
# Indices 1 2 3 4 5 6 
#
# 1 178.0191 16.3300 58.5345 0.0000 0.0000 0.0000
# 2 16.3300 49.9664 12.1903 0.0000 0.0000 0.0000
# 3 58.5345 12.1903 137.3752 0.0000 0.0000 0.0000
# 4 0.0000 0.0000 0.0000 13.9470 0.0000 0.0000
# 5 0.0000 0.0000 0.0000 0.0000 38.8783 0.0000
# 6 0.0000 0.0000 0.0000 0.0000 0.0000 6.6290
#
#
#
# Elastic Compliance Matrix: (Units=1/GPa)
#
#
# Indices 1 2 3 4 5 6 
#
# 1 0.006643 -0.001513 -0.002696 0.000000 0.000000 0.000000
# 2 -0.001513 0.020801 -0.001201 0.000000 0.000000 0.000000
# 3 -0.002696 -0.001201 0.008535 0.000000 0.000000 0.000000
# 4 0.000000 0.000000 0.000000 0.071700 0.000000 0.000000
# 5 0.000000 0.000000 0.000000 0.000000 0.025721 0.000000
# 6 0.000000 0.000000 0.000000 0.000000 0.000000 0.150852
#
#
# Mechanical properties :
#
#
# Convention : Reuss Voigt Hill
#
# Bulk Modulus (GPa) = 39.74932 59.94115 49.84523
# Shear Modulus (GPa) = 16.47672 30.44460 23.46066
#
# Velocity S-wave (km/s) = 2.79898 3.80469 3.33990
# Velocity P-wave (km/s) = 5.41715 6.91386 6.21075
#
# Compressibility (1/GPa) = 0.02515766
#
# Stress axis : x y z
#
# Youngs Moduli (GPa) = 150.54134 48.07457 117.16857
#
# Poissons Ratio (x) = 0.07275 0.31590
# Poissons Ratio (y) = 0.22780 0.14073
# Poissons Ratio (z) = 0.40588 0.05774
#
# Static dielectric constant tensor:
#      x y z
#    x 5.310260 0.000000 0.000000 
#    y 0.000000 3.060410 0.000000 
#    z 0.000000 0.000000 3.839470 
# 
# 
# High freq. dielectric constant tensor:
#      x y z
#    x 1.864720 0.000000 0.000000 
#    y 0.000000 1.738820 0.000000 
#    z 0.000000 0.000000 1.839070 
# 
# From -- ./inp_files/3224.got.cif
#   From: 2010.03.12/outbox.cif.g09.slc.cpg/sg39_2_cif.got.tgz:3224.got - 2010.04.14 02:53:20.
