data_PCOD8181822
_publ_section_title
;
Structure prediction by ZEFSAII (Michael W. Deem and Ramdas Pophale) SiO2 
 PCOD8181822
Probable space group: A B M 2
;
_chemical_formula_sum "Si O2"
_cell_formula_units_Z 56
_cell_length_a 21.808230
_cell_length_b 24.199770
_cell_length_c 5.139199
_cell_angle_alpha 90.000000
_cell_angle_beta 90.000000
_cell_angle_gamma 90.000000
_cell_volume 2712.233600
_symmetry_space_group_name_H-M "A B M 2"
_symmetry_group_IT_number 39
_symmetry_cell_setting 'orthorhombic'
loop_
_space_group_symop_operation_xyz
x,y,z
-x,-y,z
-x,1/2+y,z
x,1/2-y,z
x,1/2+y,1/2+z
-x,1/2-y,1/2+z
-x,y,1/2+z
x,-y,1/2+z
loop_
_atom_site_type_symbol
_atom_site_label
_atom_site_fract_x
_atom_site_fract_y
_atom_site_fract_z
Si Si1 0.932321 0.022819 0.900190
Si Si2 0.867287 0.378084 0.748172
Si Si3 0.753778 0.962428 0.252012
Si Si4 0.850744 0.311110 0.246963
Si Si5 0.460109 0.186882 0.234497
Si Si6 0.707927 0.310852 0.323251
Si Si7 0.335441 0.368054 0.321478
O O1 0.928619 0.086091 0.809131
O O2 0.898092 0.985940 0.677355
O O3 0.000000 0.000000 0.968737
O O4 0.808028 0.417438 0.780272
O O5 0.876255 0.353302 0.462023
O O6 0.867139 0.329287 0.956374
O O7 0.688192 0.930876 0.282040
O O8 0.758283 0.009240 0.471304
O O9 0.878528 0.250000 0.293091
O O10 0.778526 0.308983 0.261562
O O11 0.434430 0.250000 0.256230
O O12 0.510999 0.176729 0.452788
O O13 0.407142 0.140878 0.262531
O O14 0.678269 0.250000 0.295416
O O15 0.702186 0.330162 0.620422
O O16 0.674900 0.351235 0.121057
#
# Coordination Sequence:
#
# PCOD8181822 Si02
#       7
#     8   8   8   8   8   8   8
#     4  10  21  38  61  93 121 154 209 255 303 345
#     4  12  21  39  60  88 126 167 192 253 307 351
#     4  12  24  38  56  83 119 156 200 245 299 357
#     4  11  22  36  56  89 128 163 197 234 294 383
#     4  10  21  37  58  86 114 145 192 249 305 360
#     4  11  20  34  55  85 118 153 197 232 283 372
#     4  12  22  38  58  83 117 161 195 239 314 357
#
# _framework density 20.647188
#
# number of rings (size 3 to 8) (size 9 to 14) (size 15 to 20)
#    0.000    0.857    2.857    6.000    0.000    3.429 
#    0.000    0.000    0.000    2.571    0.000   40.000 
#    0.000    0.000    0.000    0.000    0.000    0.000 
#
# Total GULP energy -347114.452559 kJ/mol
# GULP energy per Si atom -12396.944734 kJ/mol
# Density = 2.060019 g / cm^3
# Si number density = 20.647188 Si / 1000 Ang^3
#
#
#
# Elastic Constant Matrix: (Units=GPa)
#
#
# Indices 1 2 3 4 5 6 
#
# 1 50.5486 19.4953 -9.2134 0.0000 0.0000 0.0000
# 2 19.4953 85.0578 9.8913 0.0000 0.0000 0.0000
# 3 -9.2134 9.8913 100.3500 0.0000 0.0000 0.0000
# 4 0.0000 0.0000 0.0000 42.4559 0.0000 0.0000
# 5 0.0000 0.0000 0.0000 0.0000 12.5932 0.0000
# 6 0.0000 0.0000 0.0000 0.0000 0.0000 29.2725
#
#
#
# Elastic Compliance Matrix: (Units=1/GPa)
#
#
# Indices 1 2 3 4 5 6 
#
# 1 0.022346 -0.005422 0.002586 0.000000 0.000000 0.000000
# 2 -0.005422 0.013209 -0.001800 0.000000 0.000000 0.000000
# 3 0.002586 -0.001800 0.010380 0.000000 0.000000 0.000000
# 4 0.000000 0.000000 0.000000 0.023554 0.000000 0.000000
# 5 0.000000 0.000000 0.000000 0.000000 0.079408 0.000000
# 6 0.000000 0.000000 0.000000 0.000000 0.000000 0.034162
#
#
# Mechanical properties :
#
#
# Convention : Reuss Voigt Hill
#
# Bulk Modulus (GPa) = 27.27608 30.70032 28.98820
# Shear Modulus (GPa) = 24.44381 31.24988 27.84685
#
# Velocity S-wave (km/s) = 3.44449 3.89462 3.67645
# Velocity P-wave (km/s) = 5.39060 5.92666 5.66498
#
# Compressibility (1/GPa) = 0.03666216
#
# Stress axis : x y z
#
# Youngs Moduli (GPa) = 44.75164 75.70699 96.33950
#
# Poissons Ratio (x) = 0.41051 -0.24914
# Poissons Ratio (y) = 0.24266 0.17339
# Poissons Ratio (z) = -0.11573 0.13626
#
# Static dielectric constant tensor:
#      x y z
#    x 3.638360 0.000000 0.000000 
#    y 0.000000 4.000080 0.000000 
#    z 0.000000 0.000000 4.450510 
# 
# 
# High freq. dielectric constant tensor:
#      x y z
#    x 1.777670 0.000000 0.000000 
#    y 0.000000 1.794960 0.000000 
#    z 0.000000 0.000000 1.840450 
# 
# From -- ./inp_files/1089.got.cif
#   From: 2010.03.12/outbox.cif.g09.slc.cpg/sg39_1_cif.got.tgz:1089.got - 2010.04.14 02:53:20.
