data_PCOD8181386
_publ_section_title
;
Structure prediction by ZEFSAII (Michael W. Deem and Ramdas Pophale) SiO2 
 PCOD8181386
Probable space group: A B M 2
;
_chemical_formula_sum "Si O2"
_cell_formula_units_Z 56
_cell_length_a 14.328190
_cell_length_b 8.585111
_cell_length_c 25.411267
_cell_angle_alpha 90.000000
_cell_angle_beta 90.000000
_cell_angle_gamma 90.000000
_cell_volume 3125.817124
_symmetry_space_group_name_H-M "A B M 2"
_symmetry_group_IT_number 39
_symmetry_cell_setting 'orthorhombic'
loop_
_space_group_symop_operation_xyz
x,y,z
-x,-y,z
-x,1/2+y,z
x,1/2-y,z
x,1/2+y,1/2+z
-x,1/2-y,1/2+z
-x,y,1/2+z
x,-y,1/2+z
loop_
_atom_site_type_symbol
_atom_site_label
_atom_site_fract_x
_atom_site_fract_y
_atom_site_fract_z
Si Si1 0.284111 0.433699 0.315580
Si Si2 0.901377 0.432925 0.355947
Si Si3 0.401153 0.433501 0.110259
Si Si4 0.284111 0.066301 0.518460
Si Si5 0.602988 0.434212 0.917020
Si Si6 0.401153 0.933501 0.223781
Si Si7 0.098623 0.567075 0.478093
O O1 0.294017 0.250000 0.308506
O O2 0.176682 0.479633 0.322260
O O3 0.342694 0.495182 0.365663
O O4 0.320824 0.519082 0.263944
O O5 0.897206 0.250000 0.345263
O O6 0.885582 0.473414 0.417020
O O7 0.000000 0.500000 0.336652
O O8 0.500000 0.500000 0.090234
O O9 0.409691 0.250000 0.114246
O O10 0.320824 0.480921 0.070097
O O11 0.374220 0.499999 0.167020
O O12 0.294017 0.250000 0.525533
O O13 0.342695 0.004816 0.468377
O O14 0.176682 0.020367 0.511780
O O15 0.500000 0.500000 0.917020
O O16 0.598742 0.250000 0.917020
O O17 0.409691 0.750000 0.219793
O O18 0.500000 0.000000 0.243806
O O19 0.102793 0.750000 0.488777
O O20 0.000000 0.500000 0.497388
#
# Coordination Sequence:
#
# PCOD8181386 Si02
#       7
#     8   8   8   8   8   8   8
#     4  11  21  36  55  80 111 147 184 227 275 328
#     4  10  20  34  54  80 110 146 185 228 274 327
#     4  11  22  38  58  82 109 145 188 232 276 325
#     4  11  21  36  55  80 111 147 184 227 275 328
#     4  10  22  34  49  74 109 146 179 216 268 324
#     4  11  22  38  58  82 109 145 188 232 276 325
#     4  10  20  34  54  80 110 146 185 228 274 327
#
# _framework density 17.915315
#
# number of rings (size 3 to 8) (size 9 to 14) (size 15 to 20)
#    0.000    1.429    1.429    6.000    0.000    5.714 
#    0.000    0.000    0.000    0.857    0.000    6.000 
#    0.000    0.000    0.000    0.000    0.000    0.000 
#
# Total GULP energy -347375.354571 kJ/mol
# GULP energy per Si atom -12406.262663 kJ/mol
# Density = 1.787454 g / cm^3
# Si number density = 17.915315 Si / 1000 Ang^3
#
#
#
# Elastic Constant Matrix: (Units=GPa)
#
#
# Indices 1 2 3 4 5 6 
#
# 1 135.8884 37.8912 62.6194 0.0000 0.0000 0.0000
# 2 37.8912 105.2009 41.2690 0.0000 0.0000 0.0000
# 3 62.6194 41.2690 93.1196 0.0000 0.0000 0.0000
# 4 0.0000 0.0000 0.0000 27.1021 0.0000 0.0000
# 5 0.0000 0.0000 0.0000 0.0000 13.1996 0.0000
# 6 0.0000 0.0000 0.0000 0.0000 0.0000 36.6571
#
#
#
# Elastic Compliance Matrix: (Units=1/GPa)
#
#
# Indices 1 2 3 4 5 6 
#
# 1 0.010800 -0.001260 -0.006704 0.000000 0.000000 0.000000
# 2 -0.001260 0.011653 -0.004317 0.000000 0.000000 0.000000
# 3 -0.006704 -0.004317 0.017160 0.000000 0.000000 0.000000
# 4 0.000000 0.000000 0.000000 0.036898 0.000000 0.000000
# 5 0.000000 0.000000 0.000000 0.000000 0.075760 0.000000
# 6 0.000000 0.000000 0.000000 0.000000 0.000000 0.027280
#
#
# Mechanical properties :
#
#
# Convention : Reuss Voigt Hill
#
# Bulk Modulus (GPa) = 66.44140 68.64090 67.54115
# Shear Modulus (GPa) = 23.90870 28.22039 26.06454
#
# Velocity S-wave (km/s) = 3.65710 3.97320 3.81842
# Velocity P-wave (km/s) = 7.41616 7.71010 7.56456
#
# Compressibility (1/GPa) = 0.01505086
#
# Stress axis : x y z
#
# Youngs Moduli (GPa) = 92.59639 85.81494 58.27405
#
# Poissons Ratio (x) = 0.10812 0.39066
# Poissons Ratio (y) = 0.11666 0.25158
# Poissons Ratio (z) = 0.62076 0.37048
#
# Static dielectric constant tensor:
#      x y z
#    x 3.303540 0.000000 0.000000 
#    y 0.000000 3.395980 0.000000 
#    z 0.000000 0.000000 3.264110 
# 
# 
# High freq. dielectric constant tensor:
#      x y z
#    x 1.696980 0.000000 0.000000 
#    y 0.000000 1.709470 0.000000 
#    z 0.000000 0.000000 1.677400 
# 
# From -- ./inp_files/14731.got.cif
#   From: 2010.03.12/outbox.cif.g09.slc.cpg/sg39_8_cif.got.tgz:14731.got - 2010.04.14 02:53:20.
