data_PCOD8181515
_publ_section_title
;
Structure prediction by ZEFSAII (Michael W. Deem and Ramdas Pophale) SiO2 
 PCOD8181515
Probable space group: A B M 2
;
_chemical_formula_sum "Si O2"
_cell_formula_units_Z 64
_cell_length_a 9.972047
_cell_length_b 15.939679
_cell_length_c 19.413200
_cell_angle_alpha 90.000000
_cell_angle_beta 90.000000
_cell_angle_gamma 90.000000
_cell_volume 3085.751982
_symmetry_space_group_name_H-M "A B M 2"
_symmetry_group_IT_number 39
_symmetry_cell_setting 'orthorhombic'
loop_
_space_group_symop_operation_xyz
x,y,z
-x,-y,z
-x,1/2+y,z
x,1/2-y,z
x,1/2+y,1/2+z
-x,1/2-y,1/2+z
-x,y,1/2+z
x,-y,1/2+z
loop_
_atom_site_type_symbol
_atom_site_label
_atom_site_fract_x
_atom_site_fract_y
_atom_site_fract_z
Si Si1 0.711178 0.152174 0.394410
Si Si2 0.985031 0.098769 0.055569
Si Si3 0.843475 0.151154 0.187789
Si Si4 0.281000 0.153398 0.045316
Si Si5 0.410796 0.083970 0.759823
Si Si6 0.891679 0.151969 0.765287
Si Si7 0.356900 0.345168 0.186454
Si Si8 0.008859 0.901603 0.901206
O O1 0.673423 0.250000 0.386791
O O2 0.684196 0.112089 0.470849
O O3 0.623478 0.099595 0.339784
O O4 0.869089 0.142399 0.380442
O O5 0.127775 0.141402 0.069262
O O6 0.872954 0.135950 0.106916
O O7 0.000000 0.000000 0.065604
O O8 0.940839 0.122495 0.977628
O O9 0.811513 0.250000 0.201092
O O10 0.722995 0.091027 0.213399
O O11 0.972230 0.118800 0.230386
O O12 0.309429 0.250000 0.031278
O O13 0.370400 0.116063 0.108516
O O14 0.506727 0.155553 0.729286
O O15 0.500000 0.000000 0.749261
O O16 0.882469 0.250000 0.755384
O O17 0.762508 0.108874 0.729016
O O18 0.882729 0.129760 0.846029
O O19 0.312470 0.250000 0.173180
O O20 0.000000 0.000000 0.894421
#
# Coordination Sequence:
#
# PCOD8181515 Si02
#       8
#     8   8   8   8   8   8   8   8
#     4  10  20  40  66  88 120 167 213 254 309 389
#     4  10  21  35  59  94 129 156 201 261 322 368
#     4  11  22  40  64  91 124 167 214 259 311 382
#     4   9  18  36  65  90 115 160 210 249 307 376
#     4  12  27  40  59  91 124 169 211 253 316 371
#     4  10  20  35  62  91 118 156 205 257 313 370
#     4  10  21  39  60  88 124 158 204 260 305 368
#     4  10  21  35  59  95 129 158 199 258 322 372
#
# _framework density 20.740487999999999
#
# number of rings (size 3 to 8) (size 9 to 14) (size 15 to 20)
#    0.000    1.750    2.500    1.875    3.500    2.000 
#    0.000    1.875    0.000    1.500    0.000    0.000 
#    0.000    0.000    0.000    0.000    0.000    0.000 
#
# Total GULP energy -396558.960074 kJ/mol
# GULP energy per Si atom -12392.467502 kJ/mol
# Density = 2.069328 g / cm^3
# Si number density = 20.740488 Si / 1000 Ang^3
#
#
#
# Elastic Constant Matrix: (Units=GPa)
#
#
# Indices 1 2 3 4 5 6 
#
# 1 96.7590 14.6532 71.7881 0.0000 0.0000 0.0000
# 2 14.6532 36.5096 14.1558 0.0000 0.0000 0.0000
# 3 71.7881 14.1558 183.5889 0.0000 0.0000 0.0000
# 4 0.0000 0.0000 0.0000 28.5399 0.0000 0.0000
# 5 0.0000 0.0000 0.0000 0.0000 38.7304 0.0000
# 6 0.0000 0.0000 0.0000 0.0000 0.0000 26.8107
#
#
#
# Elastic Compliance Matrix: (Units=1/GPa)
#
#
# Indices 1 2 3 4 5 6 
#
# 1 0.015074 -0.003881 -0.005595 0.000000 0.000000 0.000000
# 2 -0.003881 0.029233 -0.000737 0.000000 0.000000 0.000000
# 3 -0.005595 -0.000737 0.007692 0.000000 0.000000 0.000000
# 4 0.000000 0.000000 0.000000 0.035039 0.000000 0.000000
# 5 0.000000 0.000000 0.000000 0.000000 0.025819 0.000000
# 6 0.000000 0.000000 0.000000 0.000000 0.000000 0.037299
#
#
# Mechanical properties :
#
#
# Convention : Reuss Voigt Hill
#
# Bulk Modulus (GPa) = 31.67161 57.56129 44.61645
# Shear Modulus (GPa) = 27.60843 33.23357 30.42100
#
# Velocity S-wave (km/s) = 3.65243 4.00728 3.83397
# Velocity P-wave (km/s) = 5.75244 7.01601 6.41541
#
# Compressibility (1/GPa) = 0.03157401
#
# Stress axis : x y z
#
# Youngs Moduli (GPa) = 66.34070 34.20778 130.01277
#
# Poissons Ratio (x) = 0.13274 0.72742
# Poissons Ratio (y) = 0.25744 0.09578
# Poissons Ratio (z) = 0.37118 0.02520
#
# Static dielectric constant tensor:
#      x y z
#    x 3.547140 0.000000 0.000000 
#    y 0.000000 3.517370 0.000000 
#    z 0.000000 0.000000 4.251230 
# 
# 
# High freq. dielectric constant tensor:
#      x y z
#    x 1.780060 0.000000 0.000000 
#    y 0.000000 1.795540 0.000000 
#    z 0.000000 0.000000 1.837590 
# 
# From -- ./inp_files/14205.got.cif
#   From: 2010.03.12/outbox.cif.g09.slc.cpg/sg39_8_cif.got.tgz:14205.got - 2010.04.14 02:53:20.
