data_PCOD8181416
_publ_section_title
;
Structure prediction by ZEFSAII (Michael W. Deem and Ramdas Pophale) SiO2 
 PCOD8181416
Probable space group: A B M 2
;
_chemical_formula_sum "Si O2"
_cell_formula_units_Z 60
_cell_length_a 5.146949
_cell_length_b 20.069886
_cell_length_c 29.106791
_cell_angle_alpha 90.000000
_cell_angle_beta 90.000000
_cell_angle_gamma 90.000000
_cell_volume 3006.693080
_symmetry_space_group_name_H-M "A B M 2"
_symmetry_group_IT_number 39
_symmetry_cell_setting 'orthorhombic'
loop_
_space_group_symop_operation_xyz
x,y,z
-x,-y,z
-x,1/2+y,z
x,1/2-y,z
x,1/2+y,1/2+z
-x,1/2-y,1/2+z
-x,y,1/2+z
x,-y,1/2+z
loop_
_atom_site_type_symbol
_atom_site_label
_atom_site_fract_x
_atom_site_fract_y
_atom_site_fract_z
Si Si1 0.018167 0.172313 0.461050
Si Si2 0.987047 0.079954 0.047273
Si Si3 0.500000 0.500000 0.261104
Si Si4 0.832022 0.440036 0.684695
Si Si5 0.526575 0.673745 0.903220
Si Si6 0.485353 0.075382 0.097816
Si Si7 0.055120 0.324330 0.246323
Si Si8 0.431510 0.365286 0.800667
O O1 0.009284 0.250000 0.477498
O O2 0.077847 0.121361 0.501961
O O3 0.244655 0.161540 0.424283
O O4 0.747968 0.148985 0.438342
O O5 0.770758 0.103114 0.085439
O O6 0.257594 0.108355 0.067338
O O7 0.000000 0.000000 0.037901
O O8 0.266660 0.473524 0.230647
O O9 0.619736 0.442849 0.292309
O O10 0.593296 0.418358 0.651615
O O11 0.985072 0.374202 0.702397
O O12 0.000000 0.500000 0.659615
O O13 0.580410 0.750000 0.892184
O O14 0.543047 0.637135 0.855052
O O15 0.500000 0.000000 0.081909
O O16 0.074706 0.250000 0.225703
O O17 0.313472 0.339186 0.275087
O O18 0.814590 0.325615 0.281294
#
# Coordination Sequence:
#
# PCOD8181416 Si02
#       8
#     8   8   4   8   8   8   8   8
#     4  10  21  39  60  84 114 151 192 235 291 352
#     4  10  21  38  57  86 112 143 189 237 289 346
#     4  10  22  36  58  88 118 160 198 248 300 336
#     4  11  20  37  59  85 118 154 201 240 289 352
#     4  10  20  36  60  84 111 154 197 234 283 354
#     4  10  20  34  60  85 111 147 191 235 282 345
#     4  11  23  37  58  84 120 161 196 248 298 344
#     4  11  22  39  58  86 121 155 206 247 290 352
#
# _framework density 19.955477999999999
#
# number of rings (size 3 to 8) (size 9 to 14) (size 15 to 20)
#    0.000    1.600    2.000    4.000    0.000    1.067 
#    2.400    1.333    0.000    0.000    0.000    0.933 
#    0.000    0.000    0.000    0.000    0.000    0.000 
#
# Total GULP energy -371847.894775 kJ/mol
# GULP energy per Si atom -12394.929826 kJ/mol
# Density = 1.991006 g / cm^3
# Si number density = 19.955478 Si / 1000 Ang^3
#
#
#
# Elastic Constant Matrix: (Units=GPa)
#
#
# Indices 1 2 3 4 5 6 
#
# 1 105.6666 21.7980 20.9497 0.0000 0.0000 0.0000
# 2 21.7980 97.8747 50.6262 0.0000 0.0000 0.0000
# 3 20.9497 50.6262 100.0282 0.0000 0.0000 0.0000
# 4 0.0000 0.0000 0.0000 17.9133 0.0000 0.0000
# 5 0.0000 0.0000 0.0000 0.0000 20.4098 0.0000
# 6 0.0000 0.0000 0.0000 0.0000 0.0000 30.7991
#
#
#
# Elastic Compliance Matrix: (Units=1/GPa)
#
#
# Indices 1 2 3 4 5 6 
#
# 1 0.010046 -0.001557 -0.001316 0.000000 0.000000 0.000000
# 2 -0.001557 0.014082 -0.006801 0.000000 0.000000 0.000000
# 3 -0.001316 -0.006801 0.013715 0.000000 0.000000 0.000000
# 4 0.000000 0.000000 0.000000 0.055824 0.000000 0.000000
# 5 0.000000 0.000000 0.000000 0.000000 0.048996 0.000000
# 6 0.000000 0.000000 0.000000 0.000000 0.000000 0.032468
#
#
# Mechanical properties :
#
#
# Convention : Reuss Voigt Hill
#
# Bulk Modulus (GPa) = 54.06874 54.47970 54.27422
# Shear Modulus (GPa) = 24.91980 27.83749 26.37865
#
# Velocity S-wave (km/s) = 3.53763 3.73900 3.63970
# Velocity P-wave (km/s) = 6.62117 6.78233 6.70224
#
# Compressibility (1/GPa) = 0.01849497
#
# Stress axis : x y z
#
# Youngs Moduli (GPa) = 99.54436 71.01441 72.91314
#
# Poissons Ratio (x) = 0.11054 0.09597
# Poissons Ratio (y) = 0.15494 0.49588
# Poissons Ratio (z) = 0.13102 0.48297
#
# Static dielectric constant tensor:
#      x y z
#    x 3.956530 0.000000 0.000000 
#    y 0.000000 3.706180 0.000000 
#    z 0.000000 0.000000 3.468710 
# 
# 
# High freq. dielectric constant tensor:
#      x y z
#    x 1.798120 0.000000 0.000000 
#    y 0.000000 1.757730 0.000000 
#    z 0.000000 0.000000 1.770170 
# 
# From -- ./inp_files/17353.got.cif
#   From: 2010.03.12/outbox.cif.g09.slc.cpg/sg39_9_cif.got.tgz:17353.got - 2010.04.14 02:53:20.
