data_PCOD8181559
_publ_section_title
;
Structure prediction by ZEFSAII (Michael W. Deem and Ramdas Pophale) SiO2 
 PCOD8181559
Probable space group: A B M 2
;
_chemical_formula_sum "Si O2"
_cell_formula_units_Z 56
_cell_length_a 19.965248
_cell_length_b 15.854910
_cell_length_c 8.961926
_cell_angle_alpha 90.000000
_cell_angle_beta 90.000000
_cell_angle_gamma 90.000000
_cell_volume 2836.872673
_symmetry_space_group_name_H-M "A B M 2"
_symmetry_group_IT_number 39
_symmetry_cell_setting 'orthorhombic'
loop_
_space_group_symop_operation_xyz
x,y,z
-x,-y,z
-x,1/2+y,z
x,1/2-y,z
x,1/2+y,1/2+z
-x,1/2-y,1/2+z
-x,y,1/2+z
x,-y,1/2+z
loop_
_atom_site_type_symbol
_atom_site_label
_atom_site_fract_x
_atom_site_fract_y
_atom_site_fract_z
Si Si1 0.347650 0.977707 0.997640
Si Si2 0.472293 0.910174 0.143277
Si Si3 0.048532 0.154202 0.123639
Si Si4 0.254386 0.498395 0.751666
Si Si5 0.836385 0.557594 0.000231
Si Si6 0.587820 0.846515 0.946660
Si Si7 0.052381 0.567498 0.925851
O O1 0.304731 0.945935 0.855096
O O2 0.357360 0.080460 0.983865
O O3 0.417939 0.929751 0.012041
O O4 0.303365 0.949393 0.139598
O O5 0.440625 0.860492 0.280757
O O6 0.500000 0.000000 0.203064
O O7 0.528799 0.853176 0.068291
O O8 0.031536 0.250000 0.109126
O O9 0.110715 0.133476 0.012915
O O10 0.067207 0.132397 0.293224
O O11 0.980996 0.108365 0.071546
O O12 0.204815 0.556314 0.654863
O O13 0.212611 0.433468 0.857344
O O14 0.877513 0.470492 0.981964
O O15 0.616815 0.750000 0.956370
O O16 0.000000 0.500000 0.858776
#
# Coordination Sequence:
#
# PCOD8181559 Si02
#       7
#     8   8   8   8   8   8   8
#     4  10  20  37  62  84 107 150 195 234 263 343
#     4  10  20  36  59  85 110 151 191 227 274 342
#     4  11  22  36  57  88 119 143 177 240 297 329
#     4  10  20  36  60  86 104 146 202 234 266 312
#     4  10  20  37  62  84 107 150 195 234 263 343
#     4  11  22  36  57  88 119 143 177 240 297 329
#     4  10  20  36  59  85 110 151 191 227 274 342
#
# _framework density 19.740047000000001
#
# number of rings (size 3 to 8) (size 9 to 14) (size 15 to 20)
#    0.000    1.714    2.857    3.429    4.000    0.000 
#    0.000    2.857    0.000    5.143    0.000    0.000 
#    0.000    0.000    0.000    0.000    0.000    0.000 
#
# Total GULP energy -346986.559423 kJ/mol
# GULP energy per Si atom -12392.377122 kJ/mol
# Density = 1.969512 g / cm^3
# Si number density = 19.740047 Si / 1000 Ang^3
#
#
#
# Elastic Constant Matrix: (Units=GPa)
#
#
# Indices 1 2 3 4 5 6 
#
# 1 87.5015 17.7752 30.0265 0.0000 0.0000 0.0000
# 2 17.7752 78.6860 18.9421 0.0000 0.0000 0.0000
# 3 30.0265 18.9421 107.1316 0.0000 0.0000 0.0000
# 4 0.0000 0.0000 0.0000 15.8578 0.0000 0.0000
# 5 0.0000 0.0000 0.0000 0.0000 35.7442 0.0000
# 6 0.0000 0.0000 0.0000 0.0000 0.0000 6.7361
#
#
#
# Elastic Compliance Matrix: (Units=1/GPa)
#
#
# Indices 1 2 3 4 5 6 
#
# 1 0.012983 -0.002148 -0.003259 0.000000 0.000000 0.000000
# 2 -0.002148 0.013629 -0.001808 0.000000 0.000000 0.000000
# 3 -0.003259 -0.001808 0.010567 0.000000 0.000000 0.000000
# 4 0.000000 0.000000 0.000000 0.063061 0.000000 0.000000
# 5 0.000000 0.000000 0.000000 0.000000 0.027977 0.000000
# 6 0.000000 0.000000 0.000000 0.000000 0.000000 0.148455
#
#
# Mechanical properties :
#
#
# Convention : Reuss Voigt Hill
#
# Bulk Modulus (GPa) = 43.95674 45.20073 44.57873
# Shear Modulus (GPa) = 16.74004 25.43929 21.08967
#
# Velocity S-wave (km/s) = 2.91525 3.59376 3.27214
# Velocity P-wave (km/s) = 5.80066 6.33781 6.07518
#
# Compressibility (1/GPa) = 0.02274964
#
# Stress axis : x y z
#
# Youngs Moduli (GPa) = 77.02297 73.37177 94.63100
#
# Poissons Ratio (x) = 0.15763 0.30840
# Poissons Ratio (y) = 0.16547 0.17106
# Poissons Ratio (z) = 0.25102 0.13263
#
# Static dielectric constant tensor:
#      x y z
#    x 3.834060 0.000000 0.000000 
#    y 0.000000 3.195300 0.000000 
#    z 0.000000 0.000000 3.799190 
# 
# 
# High freq. dielectric constant tensor:
#      x y z
#    x 1.781420 0.000000 0.000000 
#    y 0.000000 1.712090 0.000000 
#    z 0.000000 0.000000 1.787000 
# 
# From -- ./inp_files/3960.got.cif
#   From: 2010.03.12/outbox.cif.g09.slc.cpg/sg39_2_cif.got.tgz:3960.got - 2010.04.14 02:53:20.
