data_PCOD8181207
_publ_section_title
;
Structure prediction by ZEFSAII (Michael W. Deem and Ramdas Pophale) SiO2 
 PCOD8181207
Probable space group: A B M 2
;
_chemical_formula_sum "Si O2"
_cell_formula_units_Z 48
_cell_length_a 8.797998
_cell_length_b 15.363430
_cell_length_c 18.199582
_cell_angle_alpha 90.000000
_cell_angle_beta 90.000000
_cell_angle_gamma 90.000000
_cell_volume 2459.990661
_symmetry_space_group_name_H-M "A B M 2"
_symmetry_group_IT_number 39
_symmetry_cell_setting 'orthorhombic'
loop_
_space_group_symop_operation_xyz
x,y,z
-x,-y,z
-x,1/2+y,z
x,1/2-y,z
x,1/2+y,1/2+z
-x,1/2-y,1/2+z
-x,y,1/2+z
x,-y,1/2+z
loop_
_atom_site_type_symbol
_atom_site_label
_atom_site_fract_x
_atom_site_fract_y
_atom_site_fract_z
Si Si1 0.591976 0.348180 0.791510
Si Si2 0.832184 0.494139 0.141199
Si Si3 0.168680 0.992246 0.808162
Si Si4 0.392901 0.846816 0.153277
Si Si5 0.317189 0.845739 0.565427
Si Si6 0.399092 0.418921 0.913965
O O1 0.634533 0.250000 0.770787
O O2 0.752769 0.397529 0.800277
O O3 0.482052 0.385012 0.725783
O O4 0.505765 0.351938 0.869626
O O5 0.845489 0.471343 0.226615
O O6 0.731901 0.411313 0.116770
O O7 0.757724 0.586230 0.121444
O O8 0.000000 0.500000 0.105077
O O9 0.272310 0.053080 0.856718
O O10 0.000000 0.000000 0.843643
O O11 0.324868 0.750000 0.171128
O O12 0.507880 0.837539 0.086160
O O13 0.238716 0.750000 0.572739
O O14 0.310199 0.875853 0.481198
O O15 0.500000 0.500000 0.941939
#
# Coordination Sequence:
#
# PCOD8181207 Si02
#       6
#     8   8   8   8   8   8
#     4  10  19  35  59  85 115 150 197 245 286 340
#     4  11  22  37  59  87 122 160 195 240 291 354
#     4  10  21  36  57  86 120 157 197 233 291 355
#     4  10  20  36  60  88 115 152 198 243 289 343
#     4  11  23  38  61  89 119 154 199 248 294 346
#     4  10  20  36  60  87 116 155 196 242 293 349
#
# _framework density 19.512269
#
# number of rings (size 3 to 8) (size 9 to 14) (size 15 to 20)
#    0.000    1.667    3.333    2.000    0.000    1.333 
#    0.000    4.167    0.000    0.000    0.000    0.000 
#    0.000    0.000    0.000    0.000    0.000    0.000 
#
# Total GULP energy -297368.553947 kJ/mol
# GULP energy per Si atom -12390.356414 kJ/mol
# Density = 1.946786 g / cm^3
# Si number density = 19.512269 Si / 1000 Ang^3
#
#
#
# Elastic Constant Matrix: (Units=GPa)
#
#
# Indices 1 2 3 4 5 6 
#
# 1 111.0705 58.8516 7.1405 0.0000 0.0000 0.0000
# 2 58.8516 129.2876 19.4835 0.0000 0.0000 0.0000
# 3 7.1405 19.4835 69.3343 0.0000 0.0000 0.0000
# 4 0.0000 0.0000 0.0000 24.0618 0.0000 0.0000
# 5 0.0000 0.0000 0.0000 0.0000 9.9920 0.0000
# 6 0.0000 0.0000 0.0000 0.0000 0.0000 15.1216
#
#
#
# Elastic Compliance Matrix: (Units=1/GPa)
#
#
# Indices 1 2 3 4 5 6 
#
# 1 0.011871 -0.005450 0.000309 0.000000 0.000000 0.000000
# 2 -0.005450 0.010579 -0.002412 0.000000 0.000000 0.000000
# 3 0.000309 -0.002412 0.015069 0.000000 0.000000 0.000000
# 4 0.000000 0.000000 0.000000 0.041560 0.000000 0.000000
# 5 0.000000 0.000000 0.000000 0.000000 0.100080 0.000000
# 6 0.000000 0.000000 0.000000 0.000000 0.000000 0.066131
#
#
# Mechanical properties :
#
#
# Convention : Reuss Voigt Hill
#
# Bulk Modulus (GPa) = 44.61615 53.40486 49.01050
# Shear Modulus (GPa) = 18.66599 24.78285 21.72442
#
# Velocity S-wave (km/s) = 3.09630 3.56774 3.34034
# Velocity P-wave (km/s) = 5.97479 6.66340 6.32847
#
# Compressibility (1/GPa) = 0.02241341
#
# Stress axis : x y z
#
# Youngs Moduli (GPa) = 84.23635 94.52575 66.36267
#
# Poissons Ratio (x) = 0.51520 -0.02051
# Poissons Ratio (y) = 0.45912 0.16003
# Poissons Ratio (z) = -0.02603 0.22795
#
# Static dielectric constant tensor:
#      x y z
#    x 3.716580 0.000000 0.000000 
#    y 0.000000 3.629610 0.000000 
#    z 0.000000 0.000000 3.429760 
# 
# 
# High freq. dielectric constant tensor:
#      x y z
#    x 1.742290 0.000000 0.000000 
#    y 0.000000 1.759270 0.000000 
#    z 0.000000 0.000000 1.754970 
# 
# From -- ./inp_files/11589.got.cif
#   From: 2010.03.12/outbox.cif.g09.slc.cpg/sg39_6_cif.got.tgz:11589.got - 2010.04.14 02:53:20.
