data_PCOD8181170
_publ_section_title
;
Structure prediction by ZEFSAII (Michael W. Deem and Ramdas Pophale) SiO2 
 PCOD8181170
Probable space group: A B M 2
;
_chemical_formula_sum "Si O2"
_cell_formula_units_Z 64
_cell_length_a 23.814760
_cell_length_b 8.984696
_cell_length_c 14.942486
_cell_angle_alpha 90.000000
_cell_angle_beta 90.000000
_cell_angle_gamma 90.000000
_cell_volume 3197.219506
_symmetry_space_group_name_H-M "A B M 2"
_symmetry_group_IT_number 39
_symmetry_cell_setting 'orthorhombic'
loop_
_space_group_symop_operation_xyz
x,y,z
-x,-y,z
-x,1/2+y,z
x,1/2-y,z
x,1/2+y,1/2+z
-x,1/2-y,1/2+z
-x,y,1/2+z
x,-y,1/2+z
loop_
_atom_site_type_symbol
_atom_site_label
_atom_site_fract_x
_atom_site_fract_y
_atom_site_fract_z
Si Si1 0.645889 0.576082 0.807290
Si Si2 0.242625 0.581187 0.817884
Si Si3 0.856540 0.420345 0.567951
Si Si4 0.058192 0.074036 0.915934
Si Si5 0.878611 0.078941 0.764649
Si Si6 0.633321 0.926374 0.011195
Si Si7 0.440719 0.073103 0.654885
Si Si8 0.253602 0.579955 0.027799
O O1 0.655089 0.750000 0.805926
O O2 0.705051 0.507020 0.776432
O O3 0.598566 0.525500 0.737759
O O4 0.628509 0.524364 0.907213
O O5 0.249662 0.750000 0.786120
O O6 0.184120 0.515991 0.781512
O O7 0.241243 0.564584 0.923702
O O8 0.838543 0.250000 0.550725
O O9 0.895242 0.478995 0.487395
O O10 0.892093 0.435033 0.659449
O O11 0.800337 0.516731 0.579004
O O12 0.050630 0.250000 0.915580
O O13 0.076363 0.019086 0.817784
O O14 0.000000 0.000000 0.944155
O O15 0.882856 0.250000 0.797584
O O16 0.629051 0.750000 0.023285
O O17 0.582543 0.005899 0.062490
O O18 0.691684 0.984355 0.053323
O O19 0.446256 0.250000 0.645613
O O20 0.500000 0.000000 0.676058
O O21 0.264257 0.750000 0.056835
#
# Coordination Sequence:
#
# PCOD8181170 Si02
#       8
#     8   8   8   8   8   8   8   8
#     4   9  21  39  59  85 119 155 197 244 293 350
#     4   9  18  33  57  87 120 155 192 238 295 350
#     4  10  22  38  59  89 121 156 197 242 296 354
#     4  11  24  42  63  86 117 159 202 248 297 350
#     4  10  21  39  60  88 121 155 197 244 294 354
#     4  10  21  39  61  87 119 158 198 245 297 351
#     4  11  24  42  61  87 119 157 202 248 296 354
#     4  10  19  34  58  89 122 157 196 243 295 352
#
# _framework density 20.017393999999999
#
# number of rings (size 3 to 8) (size 9 to 14) (size 15 to 20)
#    0.000    2.000    1.250    1.500    1.750    4.500 
#    0.000    2.500    0.000    0.000    0.000    0.000 
#    0.000    0.000    0.000    0.000    0.000    0.000 
#
# Total GULP energy -396926.594747 kJ/mol
# GULP energy per Si atom -12403.956086 kJ/mol
# Density = 1.997183 g / cm^3
# Si number density = 20.017394 Si / 1000 Ang^3
#
#
#
# Elastic Constant Matrix: (Units=GPa)
#
#
# Indices 1 2 3 4 5 6 
#
# 1 98.4311 34.0402 23.4843 0.0000 0.0000 0.0000
# 2 34.0402 66.3558 24.5045 0.0000 0.0000 0.0000
# 3 23.4843 24.5045 60.5215 0.0000 0.0000 0.0000
# 4 0.0000 0.0000 0.0000 26.3825 0.0000 0.0000
# 5 0.0000 0.0000 0.0000 0.0000 26.9301 0.0000
# 6 0.0000 0.0000 0.0000 0.0000 0.0000 39.1902
#
#
#
# Elastic Compliance Matrix: (Units=1/GPa)
#
#
# Indices 1 2 3 4 5 6 
#
# 1 0.012714 -0.005527 -0.002696 0.000000 0.000000 0.000000
# 2 -0.005527 0.020122 -0.006003 0.000000 0.000000 0.000000
# 3 -0.002696 -0.006003 0.020000 0.000000 0.000000 0.000000
# 4 0.000000 0.000000 0.000000 0.037904 0.000000 0.000000
# 5 0.000000 0.000000 0.000000 0.000000 0.037133 0.000000
# 6 0.000000 0.000000 0.000000 0.000000 0.000000 0.025517
#
#
# Mechanical properties :
#
#
# Convention : Reuss Voigt Hill
#
# Bulk Modulus (GPa) = 41.00822 43.26293 42.13558
# Shear Modulus (GPa) = 26.32025 28.05250 27.18637
#
# Velocity S-wave (km/s) = 3.63005 3.74760 3.68929
# Velocity P-wave (km/s) = 6.17255 6.35496 6.26442
#
# Compressibility (1/GPa) = 0.02438535
#
# Stress axis : x y z
#
# Youngs Moduli (GPa) = 78.65465 49.69649 50.00122
#
# Poissons Ratio (x) = 0.27465 0.13479
# Poissons Ratio (y) = 0.43469 0.30014
# Poissons Ratio (z) = 0.21203 0.29832
#
# Static dielectric constant tensor:
#      x y z
#    x 3.593950 0.000000 0.000000 
#    y 0.000000 3.585450 0.000000 
#    z 0.000000 0.000000 3.693110 
# 
# 
# High freq. dielectric constant tensor:
#      x y z
#    x 1.776980 0.000000 0.000000 
#    y 0.000000 1.779040 0.000000 
#    z 0.000000 0.000000 1.784790 
# 
# From -- ./inp_files/10601.got.cif
#   From: 2010.03.12/outbox.cif.g09.slc.cpg/sg39_6_cif.got.tgz:10601.got - 2010.04.14 02:53:20.
