data_PCOD8181300
_publ_section_title
;
Structure prediction by ZEFSAII (Michael W. Deem and Ramdas Pophale) SiO2 
 PCOD8181300
Probable space group: A B M 2
;
_chemical_formula_sum "Si O2"
_cell_formula_units_Z 48
_cell_length_a 15.456506
_cell_length_b 9.411289
_cell_length_c 19.353774
_cell_angle_alpha 90.000000
_cell_angle_beta 90.000000
_cell_angle_gamma 90.000000
_cell_volume 2815.309216
_symmetry_space_group_name_H-M "A B M 2"
_symmetry_group_IT_number 39
_symmetry_cell_setting 'orthorhombic'
loop_
_space_group_symop_operation_xyz
x,y,z
-x,-y,z
-x,1/2+y,z
x,1/2-y,z
x,1/2+y,1/2+z
-x,1/2-y,1/2+z
-x,y,1/2+z
x,-y,1/2+z
loop_
_atom_site_type_symbol
_atom_site_label
_atom_site_fract_x
_atom_site_fract_y
_atom_site_fract_z
Si Si1 0.771584 0.081435 0.955980
Si Si2 0.086297 0.083436 0.040643
Si Si3 0.083691 0.585794 0.701558
Si Si4 0.422827 0.592653 0.793443
Si Si5 0.422947 0.594084 0.957404
Si Si6 0.765277 0.081462 0.799352
O O1 0.787640 0.250000 0.967145
O O2 0.673203 0.038799 0.976359
O O3 0.790428 0.035919 0.876918
O O4 0.833152 0.986593 0.002704
O O5 0.076950 0.250000 0.021620
O O6 0.103991 0.062135 0.121508
O O7 0.000000 0.000000 0.017811
O O8 0.066963 0.750000 0.718819
O O9 0.163710 0.524542 0.745708
O O10 0.000000 0.500000 0.725545
O O11 0.500000 0.500000 0.760612
O O12 0.430565 0.750000 0.761285
O O13 0.432146 0.601270 0.875448
O O14 0.329182 0.521896 0.776723
O O15 0.500000 0.500000 0.989908
O O16 0.435325 0.750000 0.989268
O O17 0.756806 0.250000 0.797536
#
# Coordination Sequence:
#
# PCOD8181300 Si02
#       6
#     8   8   8   8   8   8
#     4   9  17  30  48  70  95 120 148 186 229 267
#     4  10  20  33  49  67  88 118 153 187 225 271
#     4   9  18  33  50  66  86 116 152 185 220 266
#     4   8  13  23  40  62  88 116 144 175 214 259
#     4   8  14  24  40  63  90 119 147 178 218 261
#     4   8  15  29  48  68  91 119 148 181 224 266
#
# _framework density 17.049637000000001
#
# number of rings (size 3 to 8) (size 9 to 14) (size 15 to 20)
#    0.000    3.333    0.000    2.500    0.000    2.000 
#    0.000    5.833    0.000    1.000    0.000    4.667 
#    0.000    0.000    0.000    0.000    0.000    0.000 
#
# Total GULP energy -297438.269699 kJ/mol
# GULP energy per Si atom -12393.261237 kJ/mol
# Density = 1.701083 g / cm^3
# Si number density = 17.049637 Si / 1000 Ang^3
#
#
#
# Elastic Constant Matrix: (Units=GPa)
#
#
# Indices 1 2 3 4 5 6 
#
# 1 175.2215 74.9361 58.4933 0.0000 0.0000 0.0000
# 2 74.9361 77.3052 31.2573 0.0000 0.0000 0.0000
# 3 58.4933 31.2573 42.3270 0.0000 0.0000 0.0000
# 4 0.0000 0.0000 0.0000 12.4530 0.0000 0.0000
# 5 0.0000 0.0000 0.0000 0.0000 1.5895 0.0000
# 6 0.0000 0.0000 0.0000 0.0000 0.0000 34.5127
#
#
#
# Elastic Compliance Matrix: (Units=1/GPa)
#
#
# Indices 1 2 3 4 5 6 
#
# 1 0.013191 -0.007722 -0.012527 0.000000 0.000000 0.000000
# 2 -0.007722 0.022963 -0.006286 0.000000 0.000000 0.000000
# 3 -0.012527 -0.006286 0.045580 0.000000 0.000000 0.000000
# 4 0.000000 0.000000 0.000000 0.080302 0.000000 0.000000
# 5 0.000000 0.000000 0.000000 0.000000 0.629137 0.000000
# 6 0.000000 0.000000 0.000000 0.000000 0.000000 0.028975
#
#
# Mechanical properties :
#
#
# Convention : Reuss Voigt Hill
#
# Bulk Modulus (GPa) = 34.88808 69.35857 52.12333
# Shear Modulus (GPa) = 5.66397 18.38883 12.02640
#
# Velocity S-wave (km/s) = 1.82463 3.28769 2.65877
# Velocity P-wave (km/s) = 4.99461 7.42836 6.32956
#
# Compressibility (1/GPa) = 0.02866308
#
# Stress axis : x y z
#
# Youngs Moduli (GPa) = 75.80742 43.54896 21.93968
#
# Poissons Ratio (x) = 0.33628 0.27484
# Poissons Ratio (y) = 0.58537 0.13792
# Poissons Ratio (z) = 0.94965 0.27376
#
# Static dielectric constant tensor:
#      x y z
#    x 3.528040 0.000000 0.000000 
#    y 0.000000 3.229260 0.000000 
#    z 0.000000 0.000000 2.868900 
# 
# 
# High freq. dielectric constant tensor:
#      x y z
#    x 1.673830 0.000000 0.000000 
#    y 0.000000 1.642330 0.000000 
#    z 0.000000 0.000000 1.615270 
# 
# From -- ./inp_files/12201.got.cif
#   From: 2010.03.12/outbox.cif.g09.slc.cpg/sg39_7_cif.got.tgz:12201.got - 2010.04.14 02:53:20.
