data_PCOD8181024
_publ_section_title
;
Structure prediction by ZEFSAII (Michael W. Deem and Ramdas Pophale) SiO2 
 PCOD8181024
Probable space group: A B M 2
;
_chemical_formula_sum "Si O2"
_cell_formula_units_Z 56
_cell_length_a 15.315918
_cell_length_b 8.732522
_cell_length_c 19.925731
_cell_angle_alpha 90.000000
_cell_angle_beta 90.000000
_cell_angle_gamma 90.000000
_cell_volume 2664.998592
_symmetry_space_group_name_H-M "A B M 2"
_symmetry_group_IT_number 39
_symmetry_cell_setting 'orthorhombic'
loop_
_space_group_symop_operation_xyz
x,y,z
-x,-y,z
-x,1/2+y,z
x,1/2-y,z
x,1/2+y,1/2+z
-x,1/2-y,1/2+z
-x,y,1/2+z
x,-y,1/2+z
loop_
_atom_site_type_symbol
_atom_site_label
_atom_site_fract_x
_atom_site_fract_y
_atom_site_fract_z
Si Si1 0.090433 0.426327 0.985450
Si Si2 0.729265 0.570504 0.448036
Si Si3 0.323891 0.929147 0.165431
Si Si4 0.410143 0.929991 0.546760
Si Si5 0.726102 0.426993 0.312285
Si Si6 0.916524 0.072205 0.263034
Si Si7 0.852942 0.924805 0.133926
O O1 0.094157 0.250000 0.961815
O O2 0.171427 0.513749 0.952189
O O3 0.000000 0.500000 0.960068
O O4 0.094051 0.441704 0.065473
O O5 0.723449 0.750000 0.460106
O O6 0.671219 0.487877 0.503669
O O7 0.691886 0.528267 0.374176
O O8 0.341803 0.750000 0.158299
O O9 0.322945 0.978487 0.243866
O O10 0.398150 0.019889 0.124605
O O11 0.231224 0.966122 0.131582
O O12 0.415327 0.750000 0.541342
O O13 0.500000 0.000000 0.518599
O O14 0.706428 0.250000 0.327421
O O15 0.829604 0.455574 0.305539
O O16 0.929614 0.250000 0.247463
O O17 0.914927 0.979164 0.193488
O O18 0.000000 0.000000 0.302526
O O19 0.821960 0.750000 0.145105
#
# Coordination Sequence:
#
# PCOD8181024 Si02
#       7
#     8   8   8   8   8   8   8
#     4  11  23  37  56  85 123 169 217 267 319 373
#     4  12  25  42  65  93 129 171 215 264 317 379
#     4  10  20  38  65  95 126 160 202 253 310 372
#     4  12  25  44  71 101 132 165 207 259 315 379
#     4   9  21  40  61  86 123 168 209 255 313 373
#     4  10  20  33  52  79 115 159 209 265 315 370
#     4  10  19  32  54  83 118 160 204 257 315 370
#
# _framework density 21.013145999999999
#
# number of rings (size 3 to 8) (size 9 to 14) (size 15 to 20)
#    0.000    1.429    1.429    5.571    0.000    6.857 
#    0.000    2.143    0.000    3.429    0.000    0.000 
#    0.000    0.000    0.000    0.000    0.000    0.000 
#
# Total GULP energy -347255.968290 kJ/mol
# GULP energy per Si atom -12401.998867 kJ/mol
# Density = 2.096532 g / cm^3
# Si number density = 21.013146 Si / 1000 Ang^3
#
#
#
# Elastic Constant Matrix: (Units=GPa)
#
#
# Indices 1 2 3 4 5 6 
#
# 1 81.7226 32.5269 29.8648 0.0000 0.0000 0.0000
# 2 32.5269 136.4432 53.0397 0.0000 0.0000 0.0000
# 3 29.8648 53.0397 98.9697 0.0000 0.0000 0.0000
# 4 0.0000 0.0000 0.0000 31.1332 0.0000 0.0000
# 5 0.0000 0.0000 0.0000 0.0000 7.0667 0.0000
# 6 0.0000 0.0000 0.0000 0.0000 0.0000 36.5520
#
#
#
# Elastic Compliance Matrix: (Units=1/GPa)
#
#
# Indices 1 2 3 4 5 6 
#
# 1 0.014248 -0.002179 -0.003132 0.000000 0.000000 0.000000
# 2 -0.002179 0.009591 -0.004482 0.000000 0.000000 0.000000
# 3 -0.003132 -0.004482 0.013451 0.000000 0.000000 0.000000
# 4 0.000000 0.000000 0.000000 0.032120 0.000000 0.000000
# 5 0.000000 0.000000 0.000000 0.000000 0.141508 0.000000
# 6 0.000000 0.000000 0.000000 0.000000 0.000000 0.027358
#
#
# Mechanical properties :
#
#
# Convention : Reuss Voigt Hill
#
# Bulk Modulus (GPa) = 56.48430 60.88870 58.68650
# Shear Modulus (GPa) = 18.95624 28.39731 23.67678
#
# Velocity S-wave (km/s) = 3.00678 3.68014 3.36037
# Velocity P-wave (km/s) = 6.24445 6.86274 6.56088
#
# Compressibility (1/GPa) = 0.01770404
#
# Stress axis : x y z
#
# Youngs Moduli (GPa) = 70.18358 104.26405 74.34237
#
# Poissons Ratio (x) = 0.22723 0.23281
# Poissons Ratio (y) = 0.15295 0.33323
# Poissons Ratio (z) = 0.21979 0.46735
#
# Static dielectric constant tensor:
#      x y z
#    x 3.664830 0.000000 0.000000 
#    y 0.000000 3.821250 0.000000 
#    z 0.000000 0.000000 3.854890 
# 
# 
# High freq. dielectric constant tensor:
#      x y z
#    x 1.804790 0.000000 0.000000 
#    y 0.000000 1.830630 0.000000 
#    z 0.000000 0.000000 1.824870 
# 
# From -- ./inp_files/14723.got.cif
#   From: 2010.03.12/outbox.cif.g09.slc.cpg/sg39_8_cif.got.tgz:14723.got - 2010.04.14 02:53:20.
