data_PCOD8181003
_publ_section_title
;
Structure prediction by ZEFSAII (Michael W. Deem and Ramdas Pophale) SiO2 
 PCOD8181003
Probable space group: A B M 2
;
_chemical_formula_sum "Si O2"
_cell_formula_units_Z 64
_cell_length_a 14.286333
_cell_length_b 9.417162
_cell_length_c 24.690292
_cell_angle_alpha 90.000000
_cell_angle_beta 90.000000
_cell_angle_gamma 90.000000
_cell_volume 3321.750710
_symmetry_space_group_name_H-M "A B M 2"
_symmetry_group_IT_number 39
_symmetry_cell_setting 'orthorhombic'
loop_
_space_group_symop_operation_xyz
x,y,z
-x,-y,z
-x,1/2+y,z
x,1/2-y,z
x,1/2+y,1/2+z
-x,1/2-y,1/2+z
-x,y,1/2+z
x,-y,1/2+z
loop_
_atom_site_type_symbol
_atom_site_label
_atom_site_fract_x
_atom_site_fract_y
_atom_site_fract_z
Si Si1 0.322007 0.587916 0.115350
Si Si2 0.913886 0.090824 0.539154
Si Si3 0.733151 0.584602 0.807769
Si Si4 0.908496 0.083232 0.775253
Si Si5 0.403148 0.415864 0.905997
Si Si6 0.294625 0.916857 0.514241
Si Si7 0.415191 0.908334 0.222908
Si Si8 0.845578 0.409178 0.655549
O O1 0.300829 0.750000 0.098858
O O2 0.348886 0.498597 0.062219
O O3 0.406989 0.578914 0.158010
O O4 0.233168 0.525651 0.146464
O O5 0.930347 0.250000 0.518507
O O6 0.814525 0.034990 0.515186
O O7 0.915812 0.083366 0.604554
O O8 0.000000 0.000000 0.515655
O O9 0.763532 0.750000 0.811117
O O10 0.823300 0.483760 0.809517
O O11 0.662678 0.544152 0.855904
O O12 0.681406 0.547208 0.751532
O O13 0.916493 0.250000 0.788767
O O14 0.898857 0.056041 0.710993
O O15 0.000000 0.000000 0.795214
O O16 0.500000 0.500000 0.903073
O O17 0.427782 0.250000 0.906781
O O18 0.344392 0.460334 0.958921
O O19 0.301068 0.750000 0.526372
O O20 0.439808 0.750000 0.241329
O O21 0.500000 0.000000 0.245311
O O22 0.801379 0.250000 0.658320
#
# Coordination Sequence:
#
# PCOD8181003 Si02
#       8
#     8   8   8   8   8   8   8   8
#     4  10  19  32  52  80 113 149 185 230 282 333
#     4   9  17  30  49  75 109 144 183 222 267 323
#     4  10  21  40  60  82 114 148 188 241 291 339
#     4  11  22  35  56  85 117 156 196 235 283 338
#     4  10  22  41  66  87 109 145 190 243 296 344
#     4   9  20  38  56  79 112 149 187 231 284 343
#     4  10  21  34  52  80 112 145 183 228 283 345
#     4   9  18  32  50  76 111 152 190 228 275 331
#
# _framework density 19.266946999999998
#
# number of rings (size 3 to 8) (size 9 to 14) (size 15 to 20)
#    0.000    2.250    1.250    2.250    0.000    5.500 
#    0.000    3.125    0.000    1.500    0.000    0.000 
#    0.000    0.000    0.000    0.000    0.000    0.000 
#
# Total GULP energy -396742.657704 kJ/mol
# GULP energy per Si atom -12398.208053 kJ/mol
# Density = 1.922309 g / cm^3
# Si number density = 19.266947 Si / 1000 Ang^3
#
#
#
# Elastic Constant Matrix: (Units=GPa)
#
#
# Indices 1 2 3 4 5 6 
#
# 1 121.5295 65.9226 48.8569 0.0000 0.0000 0.0000
# 2 65.9226 92.2095 41.2622 0.0000 0.0000 0.0000
# 3 48.8569 41.2622 97.5285 0.0000 0.0000 0.0000
# 4 0.0000 0.0000 0.0000 24.4559 0.0000 0.0000
# 5 0.0000 0.0000 0.0000 0.0000 19.1438 0.0000
# 6 0.0000 0.0000 0.0000 0.0000 0.0000 39.0849
#
#
#
# Elastic Compliance Matrix: (Units=1/GPa)
#
#
# Indices 1 2 3 4 5 6 
#
# 1 0.014355 -0.008690 -0.003515 0.000000 0.000000 0.000000
# 2 -0.008690 0.018638 -0.003532 0.000000 0.000000 0.000000
# 3 -0.003515 -0.003532 0.013508 0.000000 0.000000 0.000000
# 4 0.000000 0.000000 0.000000 0.040890 0.000000 0.000000
# 5 0.000000 0.000000 0.000000 0.000000 0.052236 0.000000
# 6 0.000000 0.000000 0.000000 0.000000 0.000000 0.025585
#
#
# Mechanical properties :
#
#
# Convention : Reuss Voigt Hill
#
# Bulk Modulus (GPa) = 66.54196 69.26120 67.90158
# Shear Modulus (GPa) = 24.78969 26.88529 25.83749
#
# Velocity S-wave (km/s) = 3.59087 3.73957 3.66598
# Velocity P-wave (km/s) = 7.19752 7.39406 7.29645
#
# Compressibility (1/GPa) = 0.01502811
#
# Stress axis : x y z
#
# Youngs Moduli (GPa) = 69.66055 53.65320 74.02783
#
# Poissons Ratio (x) = 0.46626 0.26018
# Poissons Ratio (y) = 0.60536 0.26147
# Poissons Ratio (z) = 0.24483 0.18951
#
# Static dielectric constant tensor:
#      x y z
#    x 3.307240 0.000000 0.000000 
#    y 0.000000 3.509530 0.000000 
#    z 0.000000 0.000000 3.469270 
# 
# 
# High freq. dielectric constant tensor:
#      x y z
#    x 1.740130 0.000000 0.000000 
#    y 0.000000 1.750150 0.000000 
#    z 0.000000 0.000000 1.736010 
# 
# From -- ./inp_files/16189.got.cif
#   From: 2010.03.12/outbox.cif.g09.slc.cpg/sg39_9_cif.got.tgz:16189.got - 2010.04.14 02:53:20.
