data_PCOD8181173
_publ_section_title
;
Structure prediction by ZEFSAII (Michael W. Deem and Ramdas Pophale) SiO2 
 PCOD8181173
Probable space group: A B M 2
;
_chemical_formula_sum "Si O2"
_cell_formula_units_Z 64
_cell_length_a 12.647377
_cell_length_b 17.714326
_cell_length_c 15.327986
_cell_angle_alpha 90.000000
_cell_angle_beta 90.000000
_cell_angle_gamma 90.000000
_cell_volume 3434.078293
_symmetry_space_group_name_H-M "A B M 2"
_symmetry_group_IT_number 39
_symmetry_cell_setting 'orthorhombic'
loop_
_space_group_symop_operation_xyz
x,y,z
-x,-y,z
-x,1/2+y,z
x,1/2-y,z
x,1/2+y,1/2+z
-x,1/2-y,1/2+z
-x,y,1/2+z
x,-y,1/2+z
loop_
_atom_site_type_symbol
_atom_site_label
_atom_site_fract_x
_atom_site_fract_y
_atom_site_fract_z
Si Si1 0.739943 0.665109 0.206770
Si Si2 0.966277 0.664000 0.123583
Si Si3 0.062861 0.575758 0.456698
Si Si4 0.072014 0.430724 0.762630
Si Si5 0.596379 0.550641 0.608355
Si Si6 0.563411 0.664680 0.061095
Si Si7 0.296396 0.005454 0.278601
Si Si8 0.692355 0.458353 0.468184
O O1 0.745280 0.750000 0.249868
O O2 0.847568 0.647493 0.155447
O O3 0.641588 0.662006 0.142564
O O4 0.723291 0.596101 0.273990
O O5 0.994218 0.750000 0.120170
O O6 0.054374 0.631275 0.188761
O O7 0.981436 0.635552 0.025173
O O8 0.038533 0.602248 0.357541
O O9 0.187368 0.567472 0.468575
O O10 0.000000 0.500000 0.476498
O O11 0.191411 0.457694 0.763629
O O12 0.000000 0.500000 0.734898
O O13 0.500000 0.500000 0.576589
O O14 0.553276 0.636070 0.593750
O O15 0.623522 0.529021 0.707617
O O16 0.688099 0.525241 0.541104
O O17 0.550354 0.750000 0.025672
O O18 0.615539 0.613047 0.986002
O O19 0.342691 0.990982 0.374484
#
# Coordination Sequence:
#
# PCOD8181173 Si02
#       8
#     8   8   8   8   8   8   8   8
#     4  10  19  34  59  86 110 144 191 238 288 336
#     4  11  21  34  56  82 113 152 188 232 288 339
#     4  10  21  35  57  84 113 148 190 237 279 337
#     4  10  21  35  55  86 115 148 192 234 280 340
#     4  10  20  36  56  83 112 145 189 239 288 337
#     4  10  20  39  59  83 115 148 192 244 290 336
#     4  11  20  37  61  85 117 150 194 238 284 348
#     4  10  21  36  60  90 110 152 196 234 285 351
#
# _framework density 18.636733
#
# number of rings (size 3 to 8) (size 9 to 14) (size 15 to 20)
#    0.000    1.750    5.000    0.375    1.750    2.000 
#    0.000    3.750    0.000    0.000    0.000    0.000 
#    0.000    0.000    0.000    0.000    0.000    0.000 
#
# Total GULP energy -396593.433193 kJ/mol
# GULP energy per Si atom -12393.544787 kJ/mol
# Density = 1.859432 g / cm^3
# Si number density = 18.636733 Si / 1000 Ang^3
#
#
#
# Elastic Constant Matrix: (Units=GPa)
#
#
# Indices 1 2 3 4 5 6 
#
# 1 34.2756 29.3152 15.2513 0.0000 0.0000 0.0000
# 2 29.3152 136.8613 69.8333 0.0000 0.0000 0.0000
# 3 15.2513 69.8333 119.8800 0.0000 0.0000 0.0000
# 4 0.0000 0.0000 0.0000 -9.4126 0.0000 0.0000
# 5 0.0000 0.0000 0.0000 0.0000 27.3526 0.0000
# 6 0.0000 0.0000 0.0000 0.0000 0.0000 25.5046
#
#
#
# Elastic Compliance Matrix: (Units=1/GPa)
#
#
# Indices 1 2 3 4 5 6 
#
# 1 0.035720 -0.007588 -0.000124 0.000000 0.000000 0.000000
# 2 -0.007588 0.012009 -0.006030 0.000000 0.000000 0.000000
# 3 -0.000124 -0.006030 0.011870 0.000000 0.000000 0.000000
# 4 0.000000 0.000000 0.000000 -0.106241 0.000000 0.000000
# 5 0.000000 0.000000 0.000000 0.000000 0.036560 0.000000
# 6 0.000000 0.000000 0.000000 0.000000 0.000000 0.039209
#
#
# Mechanical properties :
#
#
# Convention : Reuss Voigt Hill
#
# Bulk Modulus (GPa) = 31.13822 57.75740 44.44781
# Shear Modulus (GPa) = 74.27700 20.46341 47.37021
#
# Velocity S-wave (km/s) = 6.31994 3.31723 5.04706
# Velocity P-wave (km/s) = 8.36659 6.76243 7.60691
#
# Compressibility (1/GPa) = 0.03211487
#
# Stress axis : x y z
#
# Youngs Moduli (GPa) = 27.99537 83.27229 84.24459
#
# Poissons Ratio (x) = 0.63185 0.01047
# Poissons Ratio (y) = 0.21242 0.50801
# Poissons Ratio (z) = 0.00348 0.50214
#
# Static dielectric constant tensor:
#      x y z
#    x 3.522490 0.000000 0.000000 
#    y 0.000000 3.655920 0.000000 
#    z 0.000000 0.000000 3.533330 
# 
# 
# High freq. dielectric constant tensor:
#      x y z
#    x 1.720850 0.000000 0.000000 
#    y 0.000000 1.715050 0.000000 
#    z 0.000000 0.000000 1.719390 
# 
# From -- ./inp_files/9447.got.cif
#   From: 2010.03.12/outbox.cif.g09.slc.cpg/sg39_5_cif.got.tgz:9447.got - 2010.04.14 02:53:20.
