data_PCOD8181387
_publ_section_title
;
Structure prediction by ZEFSAII (Michael W. Deem and Ramdas Pophale) SiO2 
 PCOD8181387
Probable space group: A B M 2
;
_chemical_formula_sum "Si O2"
_cell_formula_units_Z 64
_cell_length_a 14.313527
_cell_length_b 9.023856
_cell_length_c 25.633378
_cell_angle_alpha 90.000000
_cell_angle_beta 90.000000
_cell_angle_gamma 90.000000
_cell_volume 3310.889296
_symmetry_space_group_name_H-M "A B M 2"
_symmetry_group_IT_number 39
_symmetry_cell_setting 'orthorhombic'
loop_
_space_group_symop_operation_xyz
x,y,z
-x,-y,z
-x,1/2+y,z
x,1/2-y,z
x,1/2+y,1/2+z
-x,1/2-y,1/2+z
-x,y,1/2+z
x,-y,1/2+z
loop_
_atom_site_type_symbol
_atom_site_label
_atom_site_fract_x
_atom_site_fract_y
_atom_site_fract_z
Si Si1 0.286317 0.926470 0.743810
Si Si2 0.399686 0.575514 0.644461
Si Si3 0.094147 0.081719 0.398819
Si Si4 0.400496 0.576553 0.957415
Si Si5 0.101010 0.926172 0.013081
Si Si6 0.098246 0.921334 0.785525
Si Si7 0.720837 0.925139 0.043613
Si Si8 0.402912 0.078822 0.339924
O O1 0.287790 0.750000 0.743352
O O2 0.340549 0.988143 0.693359
O O3 0.177454 0.978946 0.744957
O O4 0.334234 0.988052 0.796434
O O5 0.500000 0.500000 0.642016
O O6 0.415551 0.750000 0.649512
O O7 0.341757 0.534202 0.593230
O O8 0.066379 0.250000 0.406994
O O9 0.139111 0.032983 0.454118
O O10 0.147198 0.056812 0.343599
O O11 0.000000 0.000000 0.387949
O O12 0.500000 0.500000 0.965735
O O13 0.409175 0.750000 0.971716
O O14 0.363043 0.554906 0.898341
O O15 0.325746 0.497696 0.993387
O O16 0.095572 0.750000 0.023438
O O17 0.176587 0.001893 0.051334
O O18 0.000000 0.000000 0.022741
O O19 0.076399 0.750000 0.776672
O O20 0.000000 0.000000 0.775645
O O21 0.731114 0.750000 0.036152
O O22 0.421071 0.250000 0.329165
O O23 0.500000 0.000000 0.333159
#
# Coordination Sequence:
#
# PCOD8181387 Si02
#       8
#     8   8   8   8   8   8   8   8
#     4   9  18  34  57  80 105 142 181 221 275 332
#     4  10  22  40  61  83 107 140 184 233 282 332
#     4   8  15  27  47  73 103 139 176 214 258 312
#     4  10  20  34  54  80 111 144 180 224 281 344
#     4  10  20  35  56  82 114 149 189 231 278 329
#     4   9  17  31  52  76 108 142 178 217 263 318
#     4  11  23  37  55  80 111 147 191 233 276 330
#     4   9  18  32  53  78 107 139 173 217 274 337
#
# _framework density 19.330155000000001
#
# number of rings (size 3 to 8) (size 9 to 14) (size 15 to 20)
#    0.000    2.500    0.000    1.875    1.750    3.000 
#    0.000    1.875    0.000    1.500    0.000    0.000 
#    0.000    0.000    0.000    0.000    0.000    0.000 
#
# Total GULP energy -396471.016113 kJ/mol
# GULP energy per Si atom -12389.719254 kJ/mol
# Density = 1.928616 g / cm^3
# Si number density = 19.330155 Si / 1000 Ang^3
#
#
#
# Elastic Constant Matrix: (Units=GPa)
#
#
# Indices 1 2 3 4 5 6 
#
# 1 141.3452 54.2431 85.9299 0.0000 0.0000 0.0000
# 2 54.2431 63.6689 43.1899 0.0000 0.0000 0.0000
# 3 85.9299 43.1899 104.7753 0.0000 0.0000 0.0000
# 4 0.0000 0.0000 0.0000 20.1719 0.0000 0.0000
# 5 0.0000 0.0000 0.0000 0.0000 0.4835 0.0000
# 6 0.0000 0.0000 0.0000 0.0000 0.0000 30.8777
#
#
#
# Elastic Compliance Matrix: (Units=1/GPa)
#
#
# Indices 1 2 3 4 5 6 
#
# 1 0.015836 -0.006499 -0.010309 0.000000 0.000000 0.000000
# 2 -0.006499 0.024470 -0.004757 0.000000 0.000000 0.000000
# 3 -0.010309 -0.004757 0.019960 0.000000 0.000000 0.000000
# 4 0.000000 0.000000 0.000000 0.049574 0.000000 0.000000
# 5 0.000000 0.000000 0.000000 0.000000 2.068101 0.000000
# 6 0.000000 0.000000 0.000000 0.000000 0.000000 0.032386
#
#
# Mechanical properties :
#
#
# Convention : Reuss Voigt Hill
#
# Bulk Modulus (GPa) = 58.35480 75.16837 66.76159
# Shear Modulus (GPa) = 2.21320 18.73505 10.47412
#
# Velocity S-wave (km/s) = 1.07118 3.11660 2.33030
# Velocity P-wave (km/s) = 5.63772 7.20569 6.46938
#
# Compressibility (1/GPa) = 0.01713655
#
# Stress axis : x y z
#
# Youngs Moduli (GPa) = 63.14736 40.86689 50.10058
#
# Poissons Ratio (x) = 0.26557 0.51648
# Poissons Ratio (y) = 0.41036 0.23833
# Poissons Ratio (z) = 0.65098 0.19441
#
# Static dielectric constant tensor:
#      x y z
#    x 4.219850 0.000000 0.000000 
#    y 0.000000 3.367670 0.000000 
#    z 0.000000 0.000000 3.784600 
# 
# 
# High freq. dielectric constant tensor:
#      x y z
#    x 1.755600 0.000000 0.000000 
#    y 0.000000 1.738160 0.000000 
#    z 0.000000 0.000000 1.746530 
# 
# From -- ./inp_files/16268.got.cif
#   From: 2010.03.12/outbox.cif.g09.slc.cpg/sg39_9_cif.got.tgz:16268.got - 2010.04.14 02:53:20.
