data_PCOD8181610
_publ_section_title
;
Structure prediction by ZEFSAII (Michael W. Deem and Ramdas Pophale) SiO2 
 PCOD8181610
Probable space group: A B M 2
;
_chemical_formula_sum "Si O2"
_cell_formula_units_Z 64
_cell_length_a 24.455982
_cell_length_b 8.828972
_cell_length_c 15.032015
_cell_angle_alpha 90.000000
_cell_angle_beta 90.000000
_cell_angle_gamma 90.000000
_cell_volume 3245.730421
_symmetry_space_group_name_H-M "A B M 2"
_symmetry_group_IT_number 39
_symmetry_cell_setting 'orthorhombic'
loop_
_space_group_symop_operation_xyz
x,y,z
-x,-y,z
-x,1/2+y,z
x,1/2-y,z
x,1/2+y,1/2+z
-x,1/2-y,1/2+z
-x,y,1/2+z
x,-y,1/2+z
loop_
_atom_site_type_symbol
_atom_site_label
_atom_site_fract_x
_atom_site_fract_y
_atom_site_fract_z
Si Si1 0.558725 0.069718 0.344120
Si Si2 0.862654 0.924071 0.725024
Si Si3 0.128908 0.071343 0.522033
Si Si4 0.238596 0.925004 0.506610
Si Si5 0.641615 0.071132 0.492482
Si Si6 0.941438 0.569230 0.876479
Si Si7 0.747021 0.421620 0.185665
Si Si8 0.626981 0.423253 0.180460
O O1 0.555416 0.250000 0.346640
O O2 0.599050 0.007857 0.420525
O O3 0.582250 0.012809 0.249328
O O4 0.500000 0.000000 0.361177
O O5 0.878876 0.750000 0.723858
O O6 0.872410 0.986589 0.624718
O O7 0.901415 0.998693 0.799377
O O8 0.798278 0.947005 0.752920
O O9 0.121660 0.250000 0.514324
O O10 0.186462 0.023173 0.475424
O O11 0.079429 0.989359 0.471767
O O12 0.225568 0.750000 0.486716
O O13 0.296537 0.976730 0.462687
O O14 0.247960 0.950793 0.611095
O O15 0.639203 0.250000 0.498669
O O16 0.623857 0.011170 0.588546
O O17 0.944160 0.750000 0.878332
O O18 0.000000 0.500000 0.855777
O O19 0.753642 0.250000 0.144885
O O20 0.686889 0.437229 0.228814
O O21 0.614223 0.250000 0.158184
#
# Coordination Sequence:
#
# PCOD8181610 Si02
#       8
#     8   8   8   8   8   8   8   8
#     4  10  22  38  53  74 103 140 183 225 265 314
#     4   8  17  34  57  80 105 137 173 212 261 314
#     4  10  20  37  58  82 111 143 176 216 264 317
#     4   9  16  29  52  82 110 137 170 213 263 319
#     4   9  19  35  55  78 107 139 174 216 266 318
#     4  11  23  39  56  78 106 141 184 226 264 309
#     4   8  14  29  53  79 105 135 170 212 261 320
#     4   9  18  33  55  79 104 134 171 214 266 319
#
# _framework density 19.718212000000001
#
# number of rings (size 3 to 8) (size 9 to 14) (size 15 to 20)
#    0.000    2.750    0.000    1.875    0.000    3.500 
#    0.000   13.750    0.000    4.500    0.000    0.000 
#    0.000    0.000    0.000    0.000    0.000    0.000 
#
# Total GULP energy -396506.362987 kJ/mol
# GULP energy per Si atom -12390.823843 kJ/mol
# Density = 1.967333 g / cm^3
# Si number density = 19.718212 Si / 1000 Ang^3
#
#
#
# Elastic Constant Matrix: (Units=GPa)
#
#
# Indices 1 2 3 4 5 6 
#
# 1 105.5594 23.2388 24.2101 0.0000 0.0000 0.0000
# 2 23.2388 40.1887 13.0564 0.0000 0.0000 0.0000
# 3 24.2101 13.0564 53.9725 0.0000 0.0000 0.0000
# 4 0.0000 0.0000 0.0000 20.9784 0.0000 0.0000
# 5 0.0000 0.0000 0.0000 0.0000 36.2255 0.0000
# 6 0.0000 0.0000 0.0000 0.0000 0.0000 32.9139
#
#
#
# Elastic Compliance Matrix: (Units=1/GPa)
#
#
# Indices 1 2 3 4 5 6 
#
# 1 0.011555 -0.005424 -0.003871 0.000000 0.000000 0.000000
# 2 -0.005424 0.029551 -0.004716 0.000000 0.000000 0.000000
# 3 -0.003871 -0.004716 0.021405 0.000000 0.000000 0.000000
# 4 0.000000 0.000000 0.000000 0.047668 0.000000 0.000000
# 5 0.000000 0.000000 0.000000 0.000000 0.027605 0.000000
# 6 0.000000 0.000000 0.000000 0.000000 0.000000 0.030382
#
#
# Mechanical properties :
#
#
# Convention : Reuss Voigt Hill
#
# Bulk Modulus (GPa) = 28.99405 35.63678 32.31542
# Shear Modulus (GPa) = 24.07491 27.30458 25.68975
#
# Velocity S-wave (km/s) = 3.49800 3.72525 3.61341
# Velocity P-wave (km/s) = 5.57232 6.05108 5.81663
#
# Compressibility (1/GPa) = 0.03448983
#
# Stress axis : x y z
#
# Youngs Moduli (GPa) = 86.54035 33.83979 46.71769
#
# Poissons Ratio (x) = 0.18355 0.18085
# Poissons Ratio (y) = 0.46940 0.22030
# Poissons Ratio (z) = 0.33501 0.15957
#
# Static dielectric constant tensor:
#      x y z
#    x 3.916650 0.000000 0.000000 
#    y 0.000000 3.359560 0.000000 
#    z 0.000000 0.000000 3.506680 
# 
# 
# High freq. dielectric constant tensor:
#      x y z
#    x 1.780170 0.000000 0.000000 
#    y 0.000000 1.748070 0.000000 
#    z 0.000000 0.000000 1.748790 
# 
# From -- ./inp_files/10616.got.cif
#   From: 2010.03.12/outbox.cif.g09.slc.cpg/sg39_6_cif.got.tgz:10616.got - 2010.04.14 02:53:20.
