data_PCOD8181532
_publ_section_title
;
Structure prediction by ZEFSAII (Michael W. Deem and Ramdas Pophale) SiO2 
 PCOD8181532
Probable space group: A B M 2
;
_chemical_formula_sum "Si O2"
_cell_formula_units_Z 64
_cell_length_a 18.979124
_cell_length_b 9.282530
_cell_length_c 19.530950
_cell_angle_alpha 90.000000
_cell_angle_beta 90.000000
_cell_angle_gamma 90.000000
_cell_volume 3440.851208
_symmetry_space_group_name_H-M "A B M 2"
_symmetry_group_IT_number 39
_symmetry_cell_setting 'orthorhombic'
loop_
_space_group_symop_operation_xyz
x,y,z
-x,-y,z
-x,1/2+y,z
x,1/2-y,z
x,1/2+y,1/2+z
-x,1/2-y,1/2+z
-x,y,1/2+z
x,-y,1/2+z
loop_
_atom_site_type_symbol
_atom_site_label
_atom_site_fract_x
_atom_site_fract_y
_atom_site_fract_z
Si Si1 0.429604 0.581631 0.886670
Si Si2 0.158709 0.413638 0.175757
Si Si3 0.693607 0.921517 0.129758
Si Si4 0.695887 0.419326 0.986600
Si Si5 0.067003 0.413713 0.044547
Si Si6 0.071348 0.416053 0.299872
Si Si7 0.850095 0.586037 0.437344
Si Si8 0.430508 0.917933 0.730488
O O1 0.500000 0.500000 0.910504
O O2 0.444659 0.750000 0.894274
O O3 0.365146 0.532523 0.934322
O O4 0.409767 0.541515 0.808391
O O5 0.166991 0.250000 0.200705
O O6 0.236407 0.481537 0.168203
O O7 0.126564 0.425450 0.100972
O O8 0.108198 0.487171 0.232443
O O9 0.698620 0.750000 0.118283
O O10 0.630461 0.967218 0.179183
O O11 0.684266 0.995554 0.056626
O O12 0.692478 0.250000 0.002191
O O13 0.769789 0.461769 0.950977
O O14 0.045120 0.250000 0.029207
O O15 0.000000 0.500000 0.071937
O O16 0.095733 0.483009 0.975599
O O17 0.049694 0.250000 0.288123
O O18 0.130805 0.430488 0.357966
O O19 0.000000 0.500000 0.318103
O O20 0.861469 0.750000 0.462428
O O21 0.445749 0.750000 0.723667
O O22 0.500000 0.000000 0.706662
#
# Coordination Sequence:
#
# PCOD8181532 Si02
#       8
#     8   8   8   8   8   8   8   8
#     4   9  19  36  57  83 111 144 181 222 267 317
#     4   9  19  35  55  79 105 137 178 221 264 315
#     4  10  20  36  57  81 108 143 182 220 266 319
#     4  10  21  36  55  81 112 143 180 224 269 316
#     4  11  21  35  56  79 106 141 179 221 266 319
#     4  10  21  37  56  78 105 137 176 222 269 320
#     4  10  21  36  55  80 108 141 178 222 271 320
#     4   9  19  35  58  83 110 143 181 222 265 317
#
# _framework density 18.600048999999999
#
# number of rings (size 3 to 8) (size 9 to 14) (size 15 to 20)
#    0.000    2.250    1.250    1.125    1.750    3.000 
#    0.000    3.750    0.000    0.000    0.000    0.000 
#    0.000    0.000    0.000    0.000    0.000    0.000 
#
# Total GULP energy -396800.620411 kJ/mol
# GULP energy per Si atom -12400.019388 kJ/mol
# Density = 1.855771 g / cm^3
# Si number density = 18.600049 Si / 1000 Ang^3
#
#
#
# Elastic Constant Matrix: (Units=GPa)
#
#
# Indices 1 2 3 4 5 6 
#
# 1 147.5514 45.7753 60.4583 0.0000 0.0000 0.0000
# 2 45.7753 53.4910 34.0182 0.0000 0.0000 0.0000
# 3 60.4583 34.0182 99.6120 0.0000 0.0000 0.0000
# 4 0.0000 0.0000 0.0000 26.5477 0.0000 0.0000
# 5 0.0000 0.0000 0.0000 0.0000 35.5948 0.0000
# 6 0.0000 0.0000 0.0000 0.0000 0.0000 29.5042
#
#
#
# Elastic Compliance Matrix: (Units=1/GPa)
#
#
# Indices 1 2 3 4 5 6 
#
# 1 0.010441 -0.006266 -0.004197 0.000000 0.000000 0.000000
# 2 -0.006266 0.027641 -0.005637 0.000000 0.000000 0.000000
# 3 -0.004197 -0.005637 0.014511 0.000000 0.000000 0.000000
# 4 0.000000 0.000000 0.000000 0.037668 0.000000 0.000000
# 5 0.000000 0.000000 0.000000 0.000000 0.028094 0.000000
# 6 0.000000 0.000000 0.000000 0.000000 0.000000 0.033894
#
#
# Mechanical properties :
#
#
# Convention : Reuss Voigt Hill
#
# Bulk Modulus (GPa) = 49.03334 64.57311 56.80323
# Shear Modulus (GPa) = 26.14423 29.02285 27.58354
#
# Velocity S-wave (km/s) = 3.75320 3.95443 3.85513
# Velocity P-wave (km/s) = 6.72318 7.45936 7.10082
#
# Compressibility (1/GPa) = 0.02039429
#
# Stress axis : x y z
#
# Youngs Moduli (GPa) = 95.77746 36.17760 68.91110
#
# Poissons Ratio (x) = 0.22667 0.28923
# Poissons Ratio (y) = 0.60010 0.38845
# Poissons Ratio (z) = 0.40200 0.20393
#
# Static dielectric constant tensor:
#      x y z
#    x 3.554030 0.000000 0.000000 
#    y 0.000000 3.307450 0.000000 
#    z 0.000000 0.000000 3.413290 
# 
# 
# High freq. dielectric constant tensor:
#      x y z
#    x 1.733350 0.000000 0.000000 
#    y 0.000000 1.702180 0.000000 
#    z 0.000000 0.000000 1.727180 
# 
# From -- ./inp_files/10185.got.cif
#   From: 2010.03.12/outbox.cif.g09.slc.cpg/sg39_6_cif.got.tgz:10185.got - 2010.04.14 02:53:20.
