data_PCOD8181222
_publ_section_title
;
Structure prediction by ZEFSAII (Michael W. Deem and Ramdas Pophale) SiO2 
 PCOD8181222
Probable space group: A B M 2
;
_chemical_formula_sum "Si O2"
_cell_formula_units_Z 40
_cell_length_a 12.443267
_cell_length_b 17.814083
_cell_length_c 7.688758
_cell_angle_alpha 90.000000
_cell_angle_beta 90.000000
_cell_angle_gamma 90.000000
_cell_volume 1704.331549
_symmetry_space_group_name_H-M "A B M 2"
_symmetry_group_IT_number 39
_symmetry_cell_setting 'orthorhombic'
loop_
_space_group_symop_operation_xyz
x,y,z
-x,-y,z
-x,1/2+y,z
x,1/2-y,z
x,1/2+y,1/2+z
-x,1/2-y,1/2+z
-x,y,1/2+z
x,-y,1/2+z
loop_
_atom_site_type_symbol
_atom_site_label
_atom_site_fract_x
_atom_site_fract_y
_atom_site_fract_z
Si Si1 0.880347 0.837714 0.977490
Si Si2 0.601695 0.054836 0.318823
Si Si3 0.348886 0.337541 0.111907
Si Si4 0.311560 0.913735 0.948920
Si Si5 0.889700 0.660708 0.589321
O O1 0.900555 0.750000 0.970899
O O2 0.857167 0.865303 0.782270
O O3 0.777664 0.857358 0.093473
O O4 0.990725 0.871538 0.053792
O O5 0.583950 0.119680 0.462463
O O6 0.626588 0.092304 0.133209
O O7 0.500000 0.000000 0.307951
O O8 0.698353 0.000312 0.385864
O O9 0.373893 0.250000 0.091740
O O10 0.380861 0.366988 0.304011
O O11 0.192961 0.878855 0.958947
O O12 0.880372 0.750000 0.560721
#
# Coordination Sequence:
#
# PCOD8181222 Si02
#       5
#     8   8   8   8   8
#     4   9  18  35  63 104 148 190 234 293 363 429
#     4  12  27  48  76  99 141 197 244 303 381 438
#     4  11  24  45  76 112 144 184 248 310 359 437
#     4  12  24  43  74 102 142 194 242 295 366 441
#     4  10  19  35  65 103 147 193 241 293 354 432
#
# _framework density 23.469611
#
# number of rings (size 3 to 8) (size 9 to 14) (size 15 to 20)
#    0.000    1.200    4.000    2.400    0.000    4.800 
#    0.000    3.000    0.000    0.000    0.000    0.000 
#    0.000    0.000    0.000    0.000    0.000    0.000 
#
# Total GULP energy -247971.913323 kJ/mol
# GULP energy per Si atom -12398.595666 kJ/mol
# Density = 2.341619 g / cm^3
# Si number density = 23.469611 Si / 1000 Ang^3
#
#
#
# Elastic Constant Matrix: (Units=GPa)
#
#
# Indices 1 2 3 4 5 6 
#
# 1 68.9889 43.0551 47.2084 0.0000 0.0000 0.0000
# 2 43.0551 101.2811 42.1560 0.0000 0.0000 0.0000
# 3 47.2084 42.1560 163.0946 0.0000 0.0000 0.0000
# 4 0.0000 0.0000 0.0000 42.8396 0.0000 0.0000
# 5 0.0000 0.0000 0.0000 0.0000 36.5237 0.0000
# 6 0.0000 0.0000 0.0000 0.0000 0.0000 29.7943
#
#
#
# Elastic Compliance Matrix: (Units=1/GPa)
#
#
# Indices 1 2 3 4 5 6 
#
# 1 0.022325 -0.007621 -0.004492 0.000000 0.000000 0.000000
# 2 -0.007621 0.013665 -0.001326 0.000000 0.000000 0.000000
# 3 -0.004492 -0.001326 0.007775 0.000000 0.000000 0.000000
# 4 0.000000 0.000000 0.000000 0.023343 0.000000 0.000000
# 5 0.000000 0.000000 0.000000 0.000000 0.027380 0.000000
# 6 0.000000 0.000000 0.000000 0.000000 0.000000 0.033563
#
#
# Mechanical properties :
#
#
# Convention : Reuss Voigt Hill
#
# Bulk Modulus (GPa) = 59.21991 66.46707 62.84349
# Shear Modulus (GPa) = 31.14139 35.22785 33.18462
#
# Velocity S-wave (km/s) = 3.64659 3.87848 3.76432
# Velocity P-wave (km/s) = 6.55877 6.95979 6.76226
#
# Compressibility (1/GPa) = 0.01688621
#
# Stress axis : x y z
#
# Youngs Moduli (GPa) = 44.79256 73.17889 128.62488
#
# Poissons Ratio (x) = 0.55767 0.57783
# Poissons Ratio (y) = 0.34135 0.17059
# Poissons Ratio (z) = 0.20122 0.09705
#
# Static dielectric constant tensor:
#      x y z
#    x 4.244810 0.000000 0.000000 
#    y 0.000000 4.117960 0.000000 
#    z 0.000000 0.000000 4.443170 
# 
# 
# High freq. dielectric constant tensor:
#      x y z
#    x 1.928690 0.000000 0.000000 
#    y 0.000000 1.904490 0.000000 
#    z 0.000000 0.000000 1.948170 
# 
# From -- ./inp_files/2528.got.cif
#   From: 2010.03.12/outbox.cif.g09.slc.cpg/sg39_2_cif.got.tgz:2528.got - 2010.04.14 02:53:20.
