data_PCOD8181163
_publ_section_title
;
Structure prediction by ZEFSAII (Michael W. Deem and Ramdas Pophale) SiO2 
 PCOD8181163
Probable space group: A B M 2
;
_chemical_formula_sum "Si O2"
_cell_formula_units_Z 48
_cell_length_a 9.133104
_cell_length_b 8.448619
_cell_length_c 31.302173
_cell_angle_alpha 90.000000
_cell_angle_beta 90.000000
_cell_angle_gamma 90.000000
_cell_volume 2415.341904
_symmetry_space_group_name_H-M "A B M 2"
_symmetry_group_IT_number 39
_symmetry_cell_setting 'orthorhombic'
loop_
_space_group_symop_operation_xyz
x,y,z
-x,-y,z
-x,1/2+y,z
x,1/2-y,z
x,1/2+y,1/2+z
-x,1/2-y,1/2+z
-x,y,1/2+z
x,-y,1/2+z
loop_
_atom_site_type_symbol
_atom_site_label
_atom_site_fract_x
_atom_site_fract_y
_atom_site_fract_z
Si Si1 0.662707 0.935748 0.304150
Si Si2 0.339365 0.935631 0.647186
Si Si3 0.834886 0.562150 0.882378
Si Si4 0.838411 0.435260 0.225726
Si Si5 0.163553 0.062061 0.067087
Si Si6 0.159897 0.934774 0.475094
O O1 0.665449 0.750000 0.293874
O O2 0.500000 0.000000 0.304184
O O3 0.733044 0.968498 0.349998
O O4 0.751538 0.030864 0.268812
O O5 0.351267 0.750000 0.643358
O O6 0.270072 0.007714 0.603614
O O7 0.500000 0.000000 0.655463
O O8 0.236307 0.978107 0.686353
O O9 0.832102 0.750000 0.873404
O O10 0.765119 0.521365 0.929662
O O11 0.000000 0.500000 0.877841
O O12 0.841583 0.250000 0.216490
O O13 0.000000 0.500000 0.231890
O O14 0.157578 0.250000 0.070697
O O15 0.228892 0.005572 0.020380
O O16 0.000000 0.000000 0.074416
O O17 0.146189 0.750000 0.478677
O O18 0.000000 0.000000 0.471985
#
# Coordination Sequence:
#
# PCOD8181163 Si02
#       6
#     8   8   8   8   8   8
#     4  12  25  42  61  84 115 150 188 230 282 338
#     4  11  23  39  58  83 116 153 191 232 282 336
#     4  10  19  34  57  85 116 151 192 236 282 332
#     4  12  25  43  65  89 115 145 185 230 278 332
#     4   9  18  33  55  82 112 147 189 235 281 331
#     4   8  15  29  51  79 111 146 186 233 280 327
#
# _framework density 19.872964
#
# number of rings (size 3 to 8) (size 9 to 14) (size 15 to 20)
#    0.000    1.667    0.000    5.500    0.000    3.333 
#    0.000    0.833    0.000    2.000    0.000    0.000 
#    0.000    0.000    0.000    0.000    0.000    0.000 
#
# Total GULP energy -297425.665478 kJ/mol
# GULP energy per Si atom -12392.736062 kJ/mol
# Density = 1.982773 g / cm^3
# Si number density = 19.872964 Si / 1000 Ang^3
#
#
#
# Elastic Constant Matrix: (Units=GPa)
#
#
# Indices 1 2 3 4 5 6 
#
# 1 100.1781 9.4316 45.9513 0.0000 0.0000 0.0000
# 2 9.4316 37.6444 6.2194 0.0000 0.0000 0.0000
# 3 45.9513 6.2194 141.3807 0.0000 0.0000 0.0000
# 4 0.0000 0.0000 0.0000 25.8471 0.0000 0.0000
# 5 0.0000 0.0000 0.0000 0.0000 -18.0477 0.0000
# 6 0.0000 0.0000 0.0000 0.0000 0.0000 27.4949
#
#
#
# Elastic Compliance Matrix: (Units=1/GPa)
#
#
# Indices 1 2 3 4 5 6 
#
# 1 0.011937 -0.002367 -0.003776 0.000000 0.000000 0.000000
# 2 -0.002367 0.027228 -0.000428 0.000000 0.000000 0.000000
# 3 -0.003776 -0.000428 0.008319 0.000000 0.000000 0.000000
# 4 0.000000 0.000000 0.000000 0.038689 0.000000 0.000000
# 5 0.000000 0.000000 0.000000 0.000000 -0.055409 0.000000
# 6 0.000000 0.000000 0.000000 0.000000 0.000000 0.036370
#
#
# Mechanical properties :
#
#
# Convention : Reuss Voigt Hill
#
# Bulk Modulus (GPa) = 29.11873 44.71198 36.91535
# Shear Modulus (GPa) = 54.51101 21.56556 38.03829
#
# Velocity S-wave (km/s) = 5.24302 3.29777 4.37976
# Velocity P-wave (km/s) = 7.16496 6.08671 6.64773
#
# Compressibility (1/GPa) = 0.03434216
#
# Stress axis : x y z
#
# Youngs Moduli (GPa) = 83.77377 36.72662 120.20552
#
# Poissons Ratio (x) = 0.08693 0.45385
# Poissons Ratio (y) = 0.19829 0.05151
# Poissons Ratio (z) = 0.31630 0.01574
#
# Static dielectric constant tensor:
#      x y z
#    x 3.451570 0.000000 0.000000 
#    y 0.000000 3.746770 0.000000 
#    z 0.000000 0.000000 4.447560 
# 
# 
# High freq. dielectric constant tensor:
#      x y z
#    x 1.751330 0.000000 0.000000 
#    y 0.000000 1.780850 0.000000 
#    z 0.000000 0.000000 1.807970 
# 
# From -- ./inp_files/17584.got.cif
#   From: 2010.03.12/outbox.cif.g09.slc.cpg/sg39_9_cif.got.tgz:17584.got - 2010.04.14 02:53:20.
