data_PCOD8181624
_publ_section_title
;
Structure prediction by ZEFSAII (Michael W. Deem and Ramdas Pophale) SiO2 
 PCOD8181624
Probable space group: A B M 2
;
_chemical_formula_sum "Si O2"
_cell_formula_units_Z 64
_cell_length_a 24.013337
_cell_length_b 8.967740
_cell_length_c 15.301742
_cell_angle_alpha 90.000000
_cell_angle_beta 90.000000
_cell_angle_gamma 90.000000
_cell_volume 3295.159182
_symmetry_space_group_name_H-M "A B M 2"
_symmetry_group_IT_number 39
_symmetry_cell_setting 'orthorhombic'
loop_
_space_group_symop_operation_xyz
x,y,z
-x,-y,z
-x,1/2+y,z
x,1/2-y,z
x,1/2+y,1/2+z
-x,1/2-y,1/2+z
-x,y,1/2+z
x,-y,1/2+z
loop_
_atom_site_type_symbol
_atom_site_label
_atom_site_fract_x
_atom_site_fract_y
_atom_site_fract_z
Si Si1 0.636778 0.071720 0.965480
Si Si2 0.876889 0.575615 0.417471
Si Si3 0.941077 0.927674 0.069443
Si Si4 0.755284 0.918693 0.679008
Si Si5 0.366280 0.073615 0.662304
Si Si6 0.559743 0.427089 0.321820
Si Si7 0.239896 0.418336 0.475016
Si Si8 0.862539 0.078621 0.724034
O O1 0.631815 0.250000 0.953171
O O2 0.700072 0.011987 0.948906
O O3 0.596925 0.985191 0.900686
O O4 0.618621 0.023584 0.063840
O O5 0.878996 0.750000 0.444975
O O6 0.919879 0.482819 0.475442
O O7 0.814254 0.507837 0.430133
O O8 0.894020 0.554065 0.316314
O O9 0.946558 0.750000 0.069151
O O10 0.899826 0.987239 0.145609
O O11 0.000000 0.000000 0.090080
O O12 0.756788 0.750000 0.713152
O O13 0.693799 0.990653 0.693522
O O14 0.770053 0.928323 0.577625
O O15 0.801679 0.006891 0.732180
O O16 0.358984 0.250000 0.661356
O O17 0.413690 0.021146 0.729530
O O18 0.500000 0.500000 0.329513
O O19 0.554577 0.250000 0.327789
O O20 0.242830 0.250000 0.442185
O O21 0.851883 0.250000 0.704690
#
# Coordination Sequence:
#
# PCOD8181624 Si02
#       8
#     8   8   8   8   8   8   8   8
#     4   9  18  36  59  84 112 149 189 230 279 338
#     4  10  20  37  59  86 117 153 189 229 279 339
#     4  11  24  42  60  82 113 152 193 239 284 330
#     4   9  16  32  58  84 112 151 190 225 275 339
#     4   8  18  36  57  81 113 149 187 231 281 336
#     4  11  23  39  56  80 112 149 191 238 284 336
#     4   8  15  30  56  84 113 149 186 221 274 340
#     4  10  22  36  55  87 121 148 183 233 284 332
#
# _framework density 19.422431
#
# number of rings (size 3 to 8) (size 9 to 14) (size 15 to 20)
#    0.000    2.500    1.250    2.250    1.750    2.000 
#    0.000    7.500    0.000    0.000    0.000    0.000 
#    0.000    0.000    0.000    0.000    0.000    0.000 
#
# Total GULP energy -396648.615499 kJ/mol
# GULP energy per Si atom -12395.269234 kJ/mol
# Density = 1.937822 g / cm^3
# Si number density = 19.422431 Si / 1000 Ang^3
#
#
#
# Elastic Constant Matrix: (Units=GPa)
#
#
# Indices 1 2 3 4 5 6 
#
# 1 96.4952 30.7697 32.7503 0.0000 0.0000 0.0000
# 2 30.7697 49.3466 27.2145 0.0000 0.0000 0.0000
# 3 32.7503 27.2145 77.8222 0.0000 0.0000 0.0000
# 4 0.0000 0.0000 0.0000 23.5053 0.0000 0.0000
# 5 0.0000 0.0000 0.0000 0.0000 26.3162 0.0000
# 6 0.0000 0.0000 0.0000 0.0000 0.0000 25.0119
#
#
#
# Elastic Compliance Matrix: (Units=1/GPa)
#
#
# Indices 1 2 3 4 5 6 
#
# 1 0.013634 -0.006612 -0.003425 0.000000 0.000000 0.000000
# 2 -0.006612 0.028314 -0.007119 0.000000 0.000000 0.000000
# 3 -0.003425 -0.007119 0.016781 0.000000 0.000000 0.000000
# 4 0.000000 0.000000 0.000000 0.042544 0.000000 0.000000
# 5 0.000000 0.000000 0.000000 0.000000 0.037999 0.000000
# 6 0.000000 0.000000 0.000000 0.000000 0.000000 0.039981
#
#
# Mechanical properties :
#
#
# Convention : Reuss Voigt Hill
#
# Bulk Modulus (GPa) = 40.95692 45.01479 42.98585
# Shear Modulus (GPa) = 22.55254 23.82866 23.19060
#
# Velocity S-wave (km/s) = 3.41128 3.50646 3.45920
# Velocity P-wave (km/s) = 6.05384 6.29450 6.17534
#
# Compressibility (1/GPa) = 0.02441590
#
# Stress axis : x y z
#
# Youngs Moduli (GPa) = 73.34436 35.31838 59.59219
#
# Poissons Ratio (x) = 0.23354 0.20413
# Poissons Ratio (y) = 0.48499 0.42421
# Poissons Ratio (z) = 0.25123 0.25142
#
# Static dielectric constant tensor:
#      x y z
#    x 3.742110 0.000000 0.000000 
#    y 0.000000 3.229060 0.000000 
#    z 0.000000 0.000000 3.596620 
# 
# 
# High freq. dielectric constant tensor:
#      x y z
#    x 1.760210 0.000000 0.000000 
#    y 0.000000 1.723640 0.000000 
#    z 0.000000 0.000000 1.761000 
# 
# From -- ./inp_files/10586.got.cif
#   From: 2010.03.12/outbox.cif.g09.slc.cpg/sg39_6_cif.got.tgz:10586.got - 2010.04.14 02:53:20.
