data_PCOD8181830
_publ_section_title
;
Structure prediction by ZEFSAII (Michael W. Deem and Ramdas Pophale) SiO2 
 PCOD8181830
Probable space group: A B M 2
;
_chemical_formula_sum "Si O2"
_cell_formula_units_Z 64
_cell_length_a 14.862676
_cell_length_b 8.712075
_cell_length_c 24.514044
_cell_angle_alpha 90.000000
_cell_angle_beta 90.000000
_cell_angle_gamma 90.000000
_cell_volume 3174.194810
_symmetry_space_group_name_H-M "A B M 2"
_symmetry_group_IT_number 39
_symmetry_cell_setting 'orthorhombic'
loop_
_space_group_symop_operation_xyz
x,y,z
-x,-y,z
-x,1/2+y,z
x,1/2-y,z
x,1/2+y,1/2+z
-x,1/2-y,1/2+z
-x,y,1/2+z
x,-y,1/2+z
loop_
_atom_site_type_symbol
_atom_site_label
_atom_site_fract_x
_atom_site_fract_y
_atom_site_fract_z
Si Si1 0.401450 0.569985 0.662600
Si Si2 0.746493 0.568607 0.465143
Si Si3 0.098183 0.930481 0.765810
Si Si4 0.902737 0.430020 0.885723
Si Si5 0.401195 0.929898 0.390459
Si Si6 0.244441 0.069809 0.083042
Si Si7 0.402983 0.072612 0.770271
Si Si8 0.900976 0.569226 0.657884
O O1 0.500000 0.500000 0.652347
O O2 0.412509 0.750000 0.666046
O O3 0.336069 0.520403 0.613566
O O4 0.354797 0.511255 0.719276
O O5 0.748725 0.750000 0.475858
O O6 0.832921 0.511367 0.430842
O O7 0.657286 0.525464 0.432616
O O8 0.745478 0.475892 0.520698
O O9 0.095929 0.750000 0.755539
O O10 0.137951 0.972321 0.825560
O O11 0.147518 0.009291 0.714076
O O12 0.000000 0.000000 0.765207
O O13 0.915952 0.250000 0.889299
O O14 0.000000 0.500000 0.897365
O O15 0.404124 0.750000 0.405751
O O16 0.357659 0.951970 0.329656
O O17 0.500000 0.000000 0.393284
O O18 0.226884 0.250000 0.088848
O O19 0.159388 0.980511 0.107103
O O20 0.411332 0.250000 0.755433
O O21 0.500000 0.000000 0.774550
O O22 0.909126 0.750000 0.659828
O O23 0.000000 0.500000 0.650099
#
# Coordination Sequence:
#
# PCOD8181830 Si02
#       8
#     8   8   8   8   8   8   8   8
#     4  10  21  37  60  86 115 149 186 231 286 341
#     4  11  24  41  59  83 114 151 196 243 286 338
#     4   9  16  31  55  85 118 149 183 226 278 340
#     4   9  20  37  59  86 116 150 187 229 283 339
#     4  10  21  38  60  87 117 152 189 232 285 340
#     4  11  25  43  59  81 113 152 198 244 286 337
#     4   9  17  31  55  86 118 148 184 227 279 341
#     4  11  22  38  61  88 117 151 189 234 287 342
#
# _framework density 20.162593000000001
#
# number of rings (size 3 to 8) (size 9 to 14) (size 15 to 20)
#    0.000    2.000    0.000    4.875    0.000    7.000 
#    0.000    6.250    0.000    0.000    0.000    0.000 
#    0.000    0.000    0.000    0.000    0.000    0.000 
#
# Total GULP energy -396641.195593 kJ/mol
# GULP energy per Si atom -12395.037362 kJ/mol
# Density = 2.011670 g / cm^3
# Si number density = 20.162593 Si / 1000 Ang^3
#
#
#
# Elastic Constant Matrix: (Units=GPa)
#
#
# Indices 1 2 3 4 5 6 
#
# 1 88.3112 34.4905 55.9870 0.0000 0.0000 0.0000
# 2 34.4905 87.9720 34.9338 0.0000 0.0000 0.0000
# 3 55.9870 34.9338 145.8342 0.0000 0.0000 0.0000
# 4 0.0000 0.0000 0.0000 23.5939 0.0000 0.0000
# 5 0.0000 0.0000 0.0000 0.0000 29.7496 0.0000
# 6 0.0000 0.0000 0.0000 0.0000 0.0000 28.5827
#
#
#
# Elastic Compliance Matrix: (Units=1/GPa)
#
#
# Indices 1 2 3 4 5 6 
#
# 1 0.016330 -0.004324 -0.005234 0.000000 0.000000 0.000000
# 2 -0.004324 0.013707 -0.001623 0.000000 0.000000 0.000000
# 3 -0.005234 -0.001623 0.009255 0.000000 0.000000 0.000000
# 4 0.000000 0.000000 0.000000 0.042384 0.000000 0.000000
# 5 0.000000 0.000000 0.000000 0.000000 0.033614 0.000000
# 6 0.000000 0.000000 0.000000 0.000000 0.000000 0.034986
#
#
# Mechanical properties :
#
#
# Convention : Reuss Voigt Hill
#
# Bulk Modulus (GPa) = 59.06506 63.65998 61.36252
# Shear Modulus (GPa) = 28.04535 29.49897 28.77216
#
# Velocity S-wave (km/s) = 3.73360 3.82914 3.78167
# Velocity P-wave (km/s) = 6.92419 7.15483 7.04045
#
# Compressibility (1/GPa) = 0.01693048
#
# Stress axis : x y z
#
# Youngs Moduli (GPa) = 61.23551 72.95385 108.04776
#
# Poissons Ratio (x) = 0.31547 0.56547
# Poissons Ratio (y) = 0.26480 0.17540
# Poissons Ratio (z) = 0.32048 0.11843
#
# Static dielectric constant tensor:
#      x y z
#    x 3.512860 0.000000 0.000000 
#    y 0.000000 3.838430 0.000000 
#    z 0.000000 0.000000 4.380170 
# 
# 
# High freq. dielectric constant tensor:
#      x y z
#    x 1.770790 0.000000 0.000000 
#    y 0.000000 1.798750 0.000000 
#    z 0.000000 0.000000 1.799270 
# 
# From -- ./inp_files/16258.got.cif
#   From: 2010.03.12/outbox.cif.g09.slc.cpg/sg39_9_cif.got.tgz:16258.got - 2010.04.14 02:53:20.
