data_PCOD8181859
_publ_section_title
;
Structure prediction by ZEFSAII (Michael W. Deem and Ramdas Pophale) SiO2 
 PCOD8181859
Probable space group: A B M 2
;
_chemical_formula_sum "Si O2"
_cell_formula_units_Z 64
_cell_length_a 23.602926
_cell_length_b 8.771664
_cell_length_c 15.019916
_cell_angle_alpha 90.000000
_cell_angle_beta 90.000000
_cell_angle_gamma 90.000000
_cell_volume 3109.677392
_symmetry_space_group_name_H-M "A B M 2"
_symmetry_group_IT_number 39
_symmetry_cell_setting 'orthorhombic'
loop_
_space_group_symop_operation_xyz
x,y,z
-x,-y,z
-x,1/2+y,z
x,1/2-y,z
x,1/2+y,1/2+z
-x,1/2-y,1/2+z
-x,y,1/2+z
x,-y,1/2+z
loop_
_atom_site_type_symbol
_atom_site_label
_atom_site_fract_x
_atom_site_fract_y
_atom_site_fract_z
Si Si1 0.615774 0.568769 0.804020
Si Si2 0.261743 0.423937 0.743992
Si Si3 0.867317 0.428605 0.554890
Si Si4 0.939190 0.069408 0.906047
Si Si5 0.853362 0.070328 0.755832
Si Si6 0.631255 0.070316 0.985451
Si Si7 0.440486 0.931292 0.638490
Si Si8 0.246242 0.577535 0.037606
O O1 0.608953 0.750000 0.795881
O O2 0.679492 0.513177 0.782768
O O3 0.600571 0.510601 0.902599
O O4 0.571968 0.487616 0.738259
O O5 0.252863 0.250000 0.771707
O O6 0.209046 0.516120 0.784934
O O7 0.265059 0.445474 0.638770
O O8 0.878352 0.250000 0.548759
O O9 0.916507 0.513591 0.501324
O O10 0.869472 0.489515 0.656878
O O11 0.805812 0.467188 0.512719
O O12 0.943349 0.250000 0.906743
O O13 0.898469 0.008534 0.827199
O O14 0.000000 0.000000 0.886688
O O15 0.852722 0.250000 0.754988
O O16 0.618576 0.250000 0.986972
O O17 0.698792 0.038146 0.978612
O O18 0.608320 0.995238 0.075085
O O19 0.442302 0.750000 0.634653
O O20 0.500000 0.000000 0.606346
O O21 0.225532 0.750000 0.020273
#
# Coordination Sequence:
#
# PCOD8181859 Si02
#       8
#     8   8   8   8   8   8   8   8
#     4  11  23  41  63  96 132 167 212 261 313 377
#     4   9  18  35  60  89 124 162 201 249 306 364
#     4  10  21  38  60  89 121 157 201 250 302 363
#     4  11  24  42  61  85 118 159 204 252 304 365
#     4   9  21  39  59  86 120 157 200 248 301 362
#     4  11  23  41  64  95 131 169 212 261 315 375
#     4  12  26  46  70  94 125 170 215 264 319 375
#     4   9  18  36  60  88 125 165 202 249 307 366
#
# _framework density 20.580912999999999
#
# number of rings (size 3 to 8) (size 9 to 14) (size 15 to 20)
#    0.000    1.750    1.250    2.625    1.750    4.500 
#    0.000    3.750    0.000    0.000    0.000    0.000 
#    0.000    0.000    0.000    0.000    0.000    0.000 
#
# Total GULP energy -396929.302598 kJ/mol
# GULP energy per Si atom -12404.040706 kJ/mol
# Density = 2.053407 g / cm^3
# Si number density = 20.580913 Si / 1000 Ang^3
#
#
#
# Elastic Constant Matrix: (Units=GPa)
#
#
# Indices 1 2 3 4 5 6 
#
# 1 88.2013 34.2932 17.5380 0.0000 0.0000 0.0000
# 2 34.2932 83.0349 21.0352 0.0000 0.0000 0.0000
# 3 17.5380 21.0352 61.6562 0.0000 0.0000 0.0000
# 4 0.0000 0.0000 0.0000 30.3989 0.0000 0.0000
# 5 0.0000 0.0000 0.0000 0.0000 28.2060 0.0000
# 6 0.0000 0.0000 0.0000 0.0000 0.0000 37.2194
#
#
#
# Elastic Compliance Matrix: (Units=1/GPa)
#
#
# Indices 1 2 3 4 5 6 
#
# 1 0.013765 -0.005137 -0.002163 0.000000 0.000000 0.000000
# 2 -0.005137 0.015100 -0.003690 0.000000 0.000000 0.000000
# 3 -0.002163 -0.003690 0.018093 0.000000 0.000000 0.000000
# 4 0.000000 0.000000 0.000000 0.032896 0.000000 0.000000
# 5 0.000000 0.000000 0.000000 0.000000 0.035453 0.000000
# 6 0.000000 0.000000 0.000000 0.000000 0.000000 0.026868
#
#
# Mechanical properties :
#
#
# Convention : Reuss Voigt Hill
#
# Bulk Modulus (GPa) = 40.03601 42.06945 41.05273
# Shear Modulus (GPa) = 28.98869 29.83326 29.41097
#
# Velocity S-wave (km/s) = 3.75710 3.81144 3.78437
# Velocity P-wave (km/s) = 6.19002 6.31307 6.25184
#
# Compressibility (1/GPa) = 0.02497751
#
# Stress axis : x y z
#
# Youngs Moduli (GPa) = 72.64769 66.22705 55.26940
#
# Poissons Ratio (x) = 0.34021 0.11954
# Poissons Ratio (y) = 0.37319 0.20396
# Poissons Ratio (z) = 0.15713 0.24440
#
# Static dielectric constant tensor:
#      x y z
#    x 3.770630 0.000000 0.000000 
#    y 0.000000 3.629490 0.000000 
#    z 0.000000 0.000000 3.818840 
# 
# 
# High freq. dielectric constant tensor:
#      x y z
#    x 1.802460 0.000000 0.000000 
#    y 0.000000 1.803570 0.000000 
#    z 0.000000 0.000000 1.808850 
# 
# From -- ./inp_files/10600.got.cif
#   From: 2010.03.12/outbox.cif.g09.slc.cpg/sg39_6_cif.got.tgz:10600.got - 2010.04.14 02:53:20.
