data_PCOD8181665
_publ_section_title
;
Structure prediction by ZEFSAII (Michael W. Deem and Ramdas Pophale) SiO2 
 PCOD8181665
Probable space group: A B M 2
;
_chemical_formula_sum "Si O2"
_cell_formula_units_Z 52
_cell_length_a 14.254387
_cell_length_b 20.165173
_cell_length_c 9.218918
_cell_angle_alpha 90.000000
_cell_angle_beta 90.000000
_cell_angle_gamma 90.000000
_cell_volume 2649.905886
_symmetry_space_group_name_H-M "A B M 2"
_symmetry_group_IT_number 39
_symmetry_cell_setting 'orthorhombic'
loop_
_space_group_symop_operation_xyz
x,y,z
-x,-y,z
-x,1/2+y,z
x,1/2-y,z
x,1/2+y,1/2+z
-x,1/2-y,1/2+z
-x,y,1/2+z
x,-y,1/2+z
loop_
_atom_site_type_symbol
_atom_site_label
_atom_site_fract_x
_atom_site_fract_y
_atom_site_fract_z
Si Si1 0.613921 0.327863 0.441490
Si Si2 0.927364 0.750000 0.042680
Si Si3 0.125433 0.523270 0.960624
Si Si4 0.561022 0.172391 0.763860
Si Si5 0.244517 0.372847 0.341831
Si Si6 0.117222 0.750000 0.875556
Si Si7 0.192685 0.622262 0.508560
Si Si8 0.000000 0.000000 0.712548
O O1 0.635805 0.250000 0.432628
O O2 0.568043 0.345715 0.595832
O O3 0.540133 0.352112 0.320454
O O4 0.711590 0.366267 0.417854
O O5 0.875790 0.815604 0.982540
O O6 0.034571 0.750000 0.992527
O O7 0.927069 0.750000 0.216063
O O8 0.221382 0.564179 0.945249
O O9 0.142986 0.444481 0.953499
O O10 0.062931 0.545251 0.819997
O O11 0.068671 0.542782 0.107143
O O12 0.571909 0.250000 0.791574
O O13 0.644537 0.138880 0.856034
O O14 0.183732 0.312541 0.402919
O O15 0.219362 0.386131 0.175508
#
# Coordination Sequence:
#
# PCOD8181665 Si02
#       8
#     8   4   8   8   8   4   8   4
#     4   9  17  34  59  84 111 145 184 229 282 338
#     4  10  22  36  55  80 112 144 183 232 283 330
#     4  11  22  38  59  80 114 150 199 228 279 334
#     4   9  17  34  59  84 111 145 184 229 282 338
#     4  10  20  38  59  83 111 151 187 230 282 341
#     4  10  22  36  55  80 112 144 183 232 283 330
#     4  10  20  38  59  83 111 151 187 230 282 341
#     4  10  24  38  56  80 110 162 192 232 264 346
#
# _framework density 19.623338
#
# number of rings (size 3 to 8) (size 9 to 14) (size 15 to 20)
#    0.000    2.154    3.077    0.000    4.308    0.000 
#    2.769    0.769    0.000    3.692    0.000    0.000 
#    0.000    0.000    0.000    0.000    0.000    0.000 
#
# Total GULP energy -322295.313607 kJ/mol
# GULP energy per Si atom -12395.973600 kJ/mol
# Density = 1.957867 g / cm^3
# Si number density = 19.623338 Si / 1000 Ang^3
#
#
#
# Elastic Constant Matrix: (Units=GPa)
#
#
# Indices 1 2 3 4 5 6 
#
# 1 79.1346 19.7028 14.7188 0.0000 0.0000 0.0000
# 2 19.7028 84.3302 8.5679 0.0000 0.0000 0.0000
# 3 14.7188 8.5679 51.1578 0.0000 0.0000 0.0000
# 4 0.0000 0.0000 0.0000 18.0677 0.0000 0.0000
# 5 0.0000 0.0000 0.0000 0.0000 35.7498 0.0000
# 6 0.0000 0.0000 0.0000 0.0000 0.0000 26.9137
#
#
#
# Elastic Compliance Matrix: (Units=1/GPa)
#
#
# Indices 1 2 3 4 5 6 
#
# 1 0.014022 -0.002916 -0.003546 0.000000 0.000000 0.000000
# 2 -0.002916 0.012670 -0.001283 0.000000 0.000000 0.000000
# 3 -0.003546 -0.001283 0.020782 0.000000 0.000000 0.000000
# 4 0.000000 0.000000 0.000000 0.055347 0.000000 0.000000
# 5 0.000000 0.000000 0.000000 0.000000 0.027972 0.000000
# 6 0.000000 0.000000 0.000000 0.000000 0.000000 0.037156
#
#
# Mechanical properties :
#
#
# Convention : Reuss Voigt Hill
#
# Bulk Modulus (GPa) = 31.26496 33.40018 32.33257
# Shear Modulus (GPa) = 25.75976 27.58844 26.67410
#
# Velocity S-wave (km/s) = 3.62707 3.75360 3.69088
# Velocity P-wave (km/s) = 5.78860 5.98695 5.88861
#
# Compressibility (1/GPa) = 0.03198468
#
# Stress axis : x y z
#
# Youngs Moduli (GPa) = 71.31524 78.92808 48.11742
#
# Poissons Ratio (x) = 0.23014 0.17063
# Poissons Ratio (y) = 0.20795 0.06173
# Poissons Ratio (z) = 0.25289 0.10126
#
# Static dielectric constant tensor:
#      x y z
#    x 3.765670 0.000000 0.000000 
#    y 0.000000 3.359710 0.000000 
#    z 0.000000 0.000000 3.485330 
# 
# 
# High freq. dielectric constant tensor:
#      x y z
#    x 1.775500 0.000000 0.000000 
#    y 0.000000 1.737370 0.000000 
#    z 0.000000 0.000000 1.751200 
# 
# From -- ./inp_files/3364.got.cif
#   From: 2010.03.12/outbox.cif.g09.slc.cpg/sg39_2_cif.got.tgz:3364.got - 2010.04.14 02:53:20.
