data_PCOD8181053
_publ_section_title
;
Structure prediction by ZEFSAII (Michael W. Deem and Ramdas Pophale) SiO2 
 PCOD8181053
Probable space group: A B M 2
;
_chemical_formula_sum "Si O2"
_cell_formula_units_Z 56
_cell_length_a 15.418409
_cell_length_b 8.842592
_cell_length_c 20.209062
_cell_angle_alpha 90.000000
_cell_angle_beta 90.000000
_cell_angle_gamma 90.000000
_cell_volume 2755.277243
_symmetry_space_group_name_H-M "A B M 2"
_symmetry_group_IT_number 39
_symmetry_cell_setting 'orthorhombic'
loop_
_space_group_symop_operation_xyz
x,y,z
-x,-y,z
-x,1/2+y,z
x,1/2-y,z
x,1/2+y,1/2+z
-x,1/2-y,1/2+z
-x,y,1/2+z
x,-y,1/2+z
loop_
_atom_site_type_symbol
_atom_site_label
_atom_site_fract_x
_atom_site_fract_y
_atom_site_fract_z
Si Si1 0.085074 0.580338 0.946580
Si Si2 0.857449 0.576259 0.591792
Si Si3 0.912797 0.930317 0.222950
Si Si4 0.261950 0.074593 0.768724
Si Si5 0.740585 0.923315 0.915106
Si Si6 0.319798 0.427814 0.053640
Si Si7 0.588749 0.571620 0.668593
O O1 0.080740 0.750000 0.920988
O O2 0.169845 0.511105 0.914587
O O3 0.000000 0.500000 0.918629
O O4 0.085841 0.569239 0.025825
O O5 0.832710 0.750000 0.609327
O O6 0.912188 0.499880 0.649468
O O7 0.770931 0.478946 0.584199
O O8 0.918678 0.750000 0.220895
O O9 0.826318 0.979750 0.261889
O O10 0.000000 0.000000 0.256907
O O11 0.239805 0.250000 0.756180
O O12 0.301717 0.051672 0.842807
O O13 0.333693 0.016957 0.716786
O O14 0.764353 0.750000 0.928505
O O15 0.677361 0.975592 0.975423
O O16 0.332697 0.250000 0.063678
O O17 0.395075 0.513629 0.093670
O O18 0.500000 0.500000 0.695581
O O19 0.579426 0.750000 0.668835
#
# Coordination Sequence:
#
# PCOD8181053 Si02
#       7
#     8   8   8   8   8   8   8
#     4  10  20  32  50  77 111 152 200 250 297 350
#     4  10  19  33  53  80 115 153 196 247 302 353
#     4  12  24  36  55  83 118 161 208 254 303 355
#     4  10  22  42  63  86 121 162 202 247 300 356
#     4   9  20  38  60  83 114 157 197 240 296 356
#     4  10  19  35  61  91 120 151 193 240 297 358
#     4  11  23  40  66  94 123 156 197 247 304 363
#
# _framework density 20.324632999999999
#
# number of rings (size 3 to 8) (size 9 to 14) (size 15 to 20)
#    0.000    1.714    1.429    3.429    0.000    5.143 
#    0.000    0.714    0.000    1.714    0.000    0.000 
#    0.000    0.000    0.000    0.000    0.000    0.000 
#
# Total GULP energy -347163.701272 kJ/mol
# GULP energy per Si atom -12398.703617 kJ/mol
# Density = 2.027837 g / cm^3
# Si number density = 20.324633 Si / 1000 Ang^3
#
#
#
# Elastic Constant Matrix: (Units=GPa)
#
#
# Indices 1 2 3 4 5 6 
#
# 1 90.7636 32.2037 41.6996 0.0000 0.0000 0.0000
# 2 32.2037 82.6770 37.2896 0.0000 0.0000 0.0000
# 3 41.6996 37.2896 115.1105 0.0000 0.0000 0.0000
# 4 0.0000 0.0000 0.0000 23.3197 0.0000 0.0000
# 5 0.0000 0.0000 0.0000 0.0000 15.7423 0.0000
# 6 0.0000 0.0000 0.0000 0.0000 0.0000 33.5049
#
#
#
# Elastic Compliance Matrix: (Units=1/GPa)
#
#
# Indices 1 2 3 4 5 6 
#
# 1 0.014143 -0.003745 -0.003910 0.000000 0.000000 0.000000
# 2 -0.003745 0.015157 -0.003553 0.000000 0.000000 0.000000
# 3 -0.003910 -0.003553 0.011255 0.000000 0.000000 0.000000
# 4 0.000000 0.000000 0.000000 0.042882 0.000000 0.000000
# 5 0.000000 0.000000 0.000000 0.000000 0.063523 0.000000
# 6 0.000000 0.000000 0.000000 0.000000 0.000000 0.029846
#
#
# Mechanical properties :
#
#
# Convention : Reuss Voigt Hill
#
# Bulk Modulus (GPa) = 55.13516 56.77080 55.95298
# Shear Modulus (GPa) = 24.35829 26.33726 25.34778
#
# Velocity S-wave (km/s) = 3.46564 3.60367 3.53533
# Velocity P-wave (km/s) = 6.57270 6.73111 6.65238
#
# Compressibility (1/GPa) = 0.01813725
#
# Stress axis : x y z
#
# Youngs Moduli (GPa) = 70.70683 65.97752 88.85091
#
# Poissons Ratio (x) = 0.24710 0.34742
# Poissons Ratio (y) = 0.26482 0.31570
# Poissons Ratio (z) = 0.27647 0.23443
#
# Static dielectric constant tensor:
#      x y z
#    x 3.434910 0.000000 0.000000 
#    y 0.000000 3.716040 0.000000 
#    z 0.000000 0.000000 3.897950 
# 
# 
# High freq. dielectric constant tensor:
#      x y z
#    x 1.769770 0.000000 0.000000 
#    y 0.000000 1.799560 0.000000 
#    z 0.000000 0.000000 1.799770 
# 
# From -- ./inp_files/14721.got.cif
#   From: 2010.03.12/outbox.cif.g09.slc.cpg/sg39_8_cif.got.tgz:14721.got - 2010.04.14 02:53:20.
