data_PCOD8181435
_publ_section_title
;
Structure prediction by ZEFSAII (Michael W. Deem and Ramdas Pophale) SiO2 
 PCOD8181435
Probable space group: A B M 2
;
_chemical_formula_sum "Si O2"
_cell_formula_units_Z 48
_cell_length_a 16.663193
_cell_length_b 8.757815
_cell_length_c 18.132860
_cell_angle_alpha 90.000000
_cell_angle_beta 90.000000
_cell_angle_gamma 90.000000
_cell_volume 2646.185589
_symmetry_space_group_name_H-M "A B M 2"
_symmetry_group_IT_number 39
_symmetry_cell_setting 'orthorhombic'
loop_
_space_group_symop_operation_xyz
x,y,z
-x,-y,z
-x,1/2+y,z
x,1/2-y,z
x,1/2+y,1/2+z
-x,1/2-y,1/2+z
-x,y,1/2+z
x,-y,1/2+z
loop_
_atom_site_type_symbol
_atom_site_label
_atom_site_fract_x
_atom_site_fract_y
_atom_site_fract_z
Si Si1 0.232405 0.928602 0.547170
Si Si2 0.584922 0.068542 0.305920
Si Si3 0.084546 0.069058 0.630375
Si Si4 0.826321 0.581501 0.769764
Si Si5 0.673202 0.582444 0.666324
Si Si6 0.733497 0.570628 0.390586
O O1 0.217714 0.750000 0.546779
O O2 0.151796 0.008920 0.574816
O O3 0.308569 0.965854 0.600119
O O4 0.252617 0.986115 0.466652
O O5 0.587734 0.250000 0.318564
O O6 0.600366 0.027800 0.219267
O O7 0.500000 0.000000 0.329591
O O8 0.650778 0.989859 0.357261
O O9 0.082601 0.250000 0.623313
O O10 0.103281 0.020461 0.715509
O O11 0.000000 0.000000 0.606107
O O12 0.847395 0.750000 0.801619
O O13 0.748622 0.596002 0.719555
O O14 0.809136 0.466353 0.836925
O O15 0.654936 0.750000 0.632222
O O16 0.728668 0.750000 0.403298
#
# Coordination Sequence:
#
# PCOD8181435 Si02
#       6
#     8   8   8   8   8   8
#     4  11  21  34  54  78 106 140 179 218 261 314
#     4  10  20  35  55  79 107 137 172 216 264 312
#     4  10  20  35  55  79 107 137 172 216 264 312
#     4   8  16  32  52  74 101 132 168 209 253 304
#     4   8  16  32  52  74 101 132 168 209 253 304
#     4  11  21  34  54  78 106 140 179 218 261 314
#
# _framework density 18.139317999999999
#
# number of rings (size 3 to 8) (size 9 to 14) (size 15 to 20)
#    0.000    2.333    0.000    6.000    0.000    7.333 
#    0.000    1.667    0.000    4.000    0.000    0.000 
#    0.000    0.000    0.000    0.000    0.000    0.000 
#
# Total GULP energy -297485.070673 kJ/mol
# GULP energy per Si atom -12395.211278 kJ/mol
# Density = 1.809803 g / cm^3
# Si number density = 18.139318 Si / 1000 Ang^3
#
#
#
# Elastic Constant Matrix: (Units=GPa)
#
#
# Indices 1 2 3 4 5 6 
#
# 1 68.6056 14.9234 22.1203 0.0000 0.0000 0.0000
# 2 14.9234 69.9250 18.1089 0.0000 0.0000 0.0000
# 3 22.1203 18.1089 84.0239 0.0000 0.0000 0.0000
# 4 0.0000 0.0000 0.0000 31.7636 0.0000 0.0000
# 5 0.0000 0.0000 0.0000 0.0000 26.3253 0.0000
# 6 0.0000 0.0000 0.0000 0.0000 0.0000 28.2885
#
#
#
# Elastic Compliance Matrix: (Units=1/GPa)
#
#
# Indices 1 2 3 4 5 6 
#
# 1 0.016335 -0.002513 -0.003759 0.000000 0.000000 0.000000
# 2 -0.002513 0.015533 -0.002686 0.000000 0.000000 0.000000
# 3 -0.003759 -0.002686 0.013470 0.000000 0.000000 0.000000
# 4 0.000000 0.000000 0.000000 0.031483 0.000000 0.000000
# 5 0.000000 0.000000 0.000000 0.000000 0.037986 0.000000
# 6 0.000000 0.000000 0.000000 0.000000 0.000000 0.035350
#
#
# Mechanical properties :
#
#
# Convention : Reuss Voigt Hill
#
# Bulk Modulus (GPa) = 36.46689 36.98440 36.72564
# Shear Modulus (GPa) = 28.21476 28.43560 28.32518
#
# Velocity S-wave (km/s) = 3.94820 3.96362 3.95591
# Velocity P-wave (km/s) = 6.39779 6.43276 6.41530
#
# Compressibility (1/GPa) = 0.02742214
#
# Stress axis : x y z
#
# Youngs Moduli (GPa) = 61.21990 64.37922 74.24003
#
# Poissons Ratio (x) = 0.16177 0.27905
# Poissons Ratio (y) = 0.15383 0.19942
# Poissons Ratio (z) = 0.23011 0.17293
#
# Static dielectric constant tensor:
#      x y z
#    x 3.560020 0.000000 0.000000 
#    y 0.000000 3.420300 0.000000 
#    z 0.000000 0.000000 3.468830 
# 
# 
# High freq. dielectric constant tensor:
#      x y z
#    x 1.683270 0.000000 0.000000 
#    y 0.000000 1.711580 0.000000 
#    z 0.000000 0.000000 1.694950 
# 
# From -- ./inp_files/12846.got.cif
#   From: 2010.03.12/outbox.cif.g09.slc.cpg/sg39_7_cif.got.tgz:12846.got - 2010.04.14 02:53:20.
