data_PCOD8181288
_publ_section_title
;
Structure prediction by ZEFSAII (Michael W. Deem and Ramdas Pophale) SiO2 
 PCOD8181288
Probable space group: A B M 2
;
_chemical_formula_sum "Si O2"
_cell_formula_units_Z 64
_cell_length_a 17.603794
_cell_length_b 9.239093
_cell_length_c 22.715958
_cell_angle_alpha 90.000000
_cell_angle_beta 90.000000
_cell_angle_gamma 90.000000
_cell_volume 3694.593600
_symmetry_space_group_name_H-M "A B M 2"
_symmetry_group_IT_number 39
_symmetry_cell_setting 'orthorhombic'
loop_
_space_group_symop_operation_xyz
x,y,z
-x,-y,z
-x,1/2+y,z
x,1/2-y,z
x,1/2+y,1/2+z
-x,1/2-y,1/2+z
-x,y,1/2+z
x,-y,1/2+z
loop_
_atom_site_type_symbol
_atom_site_label
_atom_site_fract_x
_atom_site_fract_y
_atom_site_fract_z
Si Si1 0.357315 0.589430 0.140120
Si Si2 0.268940 0.580206 0.961045
Si Si3 0.298347 0.588395 0.739316
Si Si4 0.768311 0.419321 0.343029
Si Si5 0.927574 0.919406 0.784041
Si Si6 0.135613 0.088244 0.179044
Si Si7 0.425428 0.920299 0.019982
Si Si8 0.194642 0.590320 0.080768
O O1 0.384083 0.750000 0.159363
O O2 0.361386 0.484311 0.196689
O O3 0.409619 0.528669 0.087226
O O4 0.272194 0.600430 0.116688
O O5 0.263260 0.750000 0.945688
O O6 0.243023 0.483366 0.907178
O O7 0.354958 0.538206 0.978285
O O8 0.212060 0.539848 0.014331
O O9 0.325843 0.750000 0.755653
O O10 0.290416 0.495507 0.798641
O O11 0.219212 0.594251 0.705683
O O12 0.750098 0.250000 0.342554
O O13 0.854965 0.450368 0.324633
O O14 0.944030 0.750000 0.777779
O O15 0.916526 0.986444 0.719185
O O16 0.000000 0.000000 0.813306
O O17 0.101093 0.250000 0.175826
O O18 0.138268 0.021782 0.113091
O O19 0.438891 0.750000 0.018682
O O20 0.500000 0.000000 0.995681
O O21 0.156953 0.750000 0.080340
#
# Coordination Sequence:
#
# PCOD8181288 Si02
#       8
#     8   8   8   8   8   8   8   8
#     4   8  14  26  43  64  91 119 147 182 228 279
#     4   9  18  32  49  70  97 130 168 206 243 286
#     4   9  16  26  43  67  92 118 149 186 229 276
#     4  10  20  32  48  71  97 127 164 205 246 289
#     4  10  20  33  49  70  96 125 158 197 244 295
#     4   9  16  26  43  68  94 118 146 183 228 277
#     4   9  18  31  48  71  98 128 160 198 246 296
#     4   8  14  26  44  65  90 119 149 185 229 274
#
# _framework density 17.322610000000001
#
# number of rings (size 3 to 8) (size 9 to 14) (size 15 to 20)
#    0.000    3.000    0.000    3.000    0.000    6.000 
#    0.000    2.500    0.000    1.500    0.000    7.000 
#    0.000    0.000    0.000    0.000    0.000    0.000 
#
# Total GULP energy -396669.085805 kJ/mol
# GULP energy per Si atom -12395.908931 kJ/mol
# Density = 1.728318 g / cm^3
# Si number density = 17.322610 Si / 1000 Ang^3
#
#
#
# Elastic Constant Matrix: (Units=GPa)
#
#
# Indices 1 2 3 4 5 6 
#
# 1 53.2155 40.1554 33.2988 0.0000 0.0000 0.0000
# 2 40.1554 118.5765 71.4732 0.0000 0.0000 0.0000
# 3 33.2988 71.4732 121.2727 0.0000 0.0000 0.0000
# 4 0.0000 0.0000 0.0000 32.1367 0.0000 0.0000
# 5 0.0000 0.0000 0.0000 0.0000 14.1338 0.0000
# 6 0.0000 0.0000 0.0000 0.0000 0.0000 23.9301
#
#
#
# Elastic Compliance Matrix: (Units=1/GPa)
#
#
# Indices 1 2 3 4 5 6 
#
# 1 0.025934 -0.006964 -0.003016 0.000000 0.000000 0.000000
# 2 -0.006964 0.014950 -0.006899 0.000000 0.000000 0.000000
# 3 -0.003016 -0.006899 0.013140 0.000000 0.000000 0.000000
# 4 0.000000 0.000000 0.000000 0.031117 0.000000 0.000000
# 5 0.000000 0.000000 0.000000 0.000000 0.070752 0.000000
# 6 0.000000 0.000000 0.000000 0.000000 0.000000 0.041788
#
#
# Mechanical properties :
#
#
# Convention : Reuss Voigt Hill
#
# Bulk Modulus (GPa) = 49.34561 64.76883 57.05722
# Shear Modulus (GPa) = 20.99113 23.91595 22.45354
#
# Velocity S-wave (km/s) = 3.48483 3.71970 3.60418
# Velocity P-wave (km/s) = 6.68881 7.47791 7.09434
#
# Compressibility (1/GPa) = 0.02026523
#
# Stress axis : x y z
#
# Youngs Moduli (GPa) = 38.55918 66.88925 76.10360
#
# Poissons Ratio (x) = 0.46584 0.22957
# Poissons Ratio (y) = 0.26854 0.52502
# Poissons Ratio (z) = 0.11631 0.46145
#
# Static dielectric constant tensor:
#      x y z
#    x 2.976210 0.000000 0.000000 
#    y 0.000000 3.425170 0.000000 
#    z 0.000000 0.000000 3.164750 
# 
# 
# High freq. dielectric constant tensor:
#      x y z
#    x 1.629710 0.000000 0.000000 
#    y 0.000000 1.677880 0.000000 
#    z 0.000000 0.000000 1.655290 
# 
# From -- ./inp_files/16354.got.cif
#   From: 2010.03.12/outbox.cif.g09.slc.cpg/sg39_9_cif.got.tgz:16354.got - 2010.04.14 02:53:20.
