data_PCOD8181687
_publ_section_title
;
Structure prediction by ZEFSAII (Michael W. Deem and Ramdas Pophale) SiO2 
 PCOD8181687
Probable space group: A B M 2
;
_chemical_formula_sum "Si O2"
_cell_formula_units_Z 40
_cell_length_a 12.766609
_cell_length_b 16.739449
_cell_length_c 10.240666
_cell_angle_alpha 90.000000
_cell_angle_beta 90.000000
_cell_angle_gamma 90.000000
_cell_volume 2188.491771
_symmetry_space_group_name_H-M "A B M 2"
_symmetry_group_IT_number 39
_symmetry_cell_setting 'orthorhombic'
loop_
_space_group_symop_operation_xyz
x,y,z
-x,-y,z
-x,1/2+y,z
x,1/2-y,z
x,1/2+y,1/2+z
-x,1/2-y,1/2+z
-x,y,1/2+z
x,-y,1/2+z
loop_
_atom_site_type_symbol
_atom_site_label
_atom_site_fract_x
_atom_site_fract_y
_atom_site_fract_z
Si Si1 0.765390 0.486065 0.156390
Si Si2 0.476189 0.839102 0.873305
Si Si3 0.118626 0.521083 0.909842
Si Si4 0.558951 0.923183 0.115321
Si Si5 0.248758 0.841393 0.989418
O O1 0.810837 0.478822 0.300648
O O2 0.677303 0.553953 0.149052
O O3 0.853394 0.515382 0.051865
O O4 0.726540 0.396285 0.117290
O O5 0.507237 0.750000 0.833320
O O6 0.498956 0.892835 0.746341
O O7 0.352895 0.843724 0.903311
O O8 0.550228 0.861267 0.995777
O O9 0.150651 0.616277 0.911975
O O10 0.000000 0.500000 0.875989
O O11 0.500000 0.000000 0.060662
O O12 0.218720 0.750000 0.026406
#
# Coordination Sequence:
#
# PCOD8181687 Si02
#       5
#     8   8   8   8   8
#     4  10  21  36  61  88 111 152 197 244 285 350
#     4  11  23  37  56  84 121 158 193 240 291 345
#     4  10  20  38  63  86 111 152 201 245 295 352
#     4  12  21  36  58  86 117 155 199 231 288 353
#     4   9  20  38  58  83 117 155 190 238 303 345
#
# _framework density 18.277428
#
# number of rings (size 3 to 8) (size 9 to 14) (size 15 to 20)
#    1.200    0.400    4.000    1.800    2.800    0.000 
#    0.000    1.000    0.000    3.600    0.000    0.000 
#    0.000    0.000    0.000    0.000    0.000    0.000 
#
# Total GULP energy -247785.277494 kJ/mol
# GULP energy per Si atom -12389.263875 kJ/mol
# Density = 1.823583 g / cm^3
# Si number density = 18.277428 Si / 1000 Ang^3
#
#
#
# Elastic Constant Matrix: (Units=GPa)
#
#
# Indices 1 2 3 4 5 6 
#
# 1 67.1786 21.8776 -1.4330 0.0000 0.0000 0.0000
# 2 21.8776 106.0606 29.5579 0.0000 0.0000 0.0000
# 3 -1.4330 29.5579 84.0103 0.0000 0.0000 0.0000
# 4 0.0000 0.0000 0.0000 23.1419 0.0000 0.0000
# 5 0.0000 0.0000 0.0000 0.0000 29.0436 0.0000
# 6 0.0000 0.0000 0.0000 0.0000 0.0000 20.8845
#
#
#
# Elastic Compliance Matrix: (Units=1/GPa)
#
#
# Indices 1 2 3 4 5 6 
#
# 1 0.016151 -0.003779 0.001605 0.000000 0.000000 0.000000
# 2 -0.003779 0.011338 -0.004053 0.000000 0.000000 0.000000
# 3 0.001605 -0.004053 0.013357 0.000000 0.000000 0.000000
# 4 0.000000 0.000000 0.000000 0.043212 0.000000 0.000000
# 5 0.000000 0.000000 0.000000 0.000000 0.034431 0.000000
# 6 0.000000 0.000000 0.000000 0.000000 0.000000 0.047882
#
#
# Mechanical properties :
#
#
# Convention : Reuss Voigt Hill
#
# Bulk Modulus (GPa) = 35.22292 39.69494 37.45893
# Shear Modulus (GPa) = 26.55506 28.43047 27.49277
#
# Velocity S-wave (km/s) = 3.81581 3.94826 3.88260
# Velocity P-wave (km/s) = 6.22310 6.52305 6.37484
#
# Compressibility (1/GPa) = 0.02839061
#
# Stress axis : x y z
#
# Youngs Moduli (GPa) = 61.91751 88.20153 74.86807
#
# Poissons Ratio (x) = 0.33329 -0.12016
# Poissons Ratio (y) = 0.23397 0.30347
# Poissons Ratio (z) = -0.09938 0.35752
#
# Static dielectric constant tensor:
#      x y z
#    x 3.185800 0.000000 0.000000 
#    y 0.000000 3.400720 0.000000 
#    z 0.000000 0.000000 3.268810 
# 
# 
# High freq. dielectric constant tensor:
#      x y z
#    x 1.688560 0.000000 0.000000 
#    y 0.000000 1.696770 0.000000 
#    z 0.000000 0.000000 1.712740 
# 
# From -- ./inp_files/2612.got.cif
#   From: 2010.03.12/outbox.cif.g09.slc.cpg/sg39_2_cif.got.tgz:2612.got - 2010.04.14 02:53:20.
