data_PCOD8181533
_publ_section_title
;
Structure prediction by ZEFSAII (Michael W. Deem and Ramdas Pophale) SiO2 
 PCOD8181533
Probable space group: A B M 2
;
_chemical_formula_sum "Si O2"
_cell_formula_units_Z 48
_cell_length_a 18.880129
_cell_length_b 8.709517
_cell_length_c 15.216538
_cell_angle_alpha 90.000000
_cell_angle_beta 90.000000
_cell_angle_gamma 90.000000
_cell_volume 2502.158884
_symmetry_space_group_name_H-M "A B M 2"
_symmetry_group_IT_number 39
_symmetry_cell_setting 'orthorhombic'
loop_
_space_group_symop_operation_xyz
x,y,z
-x,-y,z
-x,1/2+y,z
x,1/2-y,z
x,1/2+y,1/2+z
-x,1/2-y,1/2+z
-x,y,1/2+z
x,-y,1/2+z
loop_
_atom_site_type_symbol
_atom_site_label
_atom_site_fract_x
_atom_site_fract_y
_atom_site_fract_z
Si Si1 0.334129 0.568520 0.525160
Si Si2 0.576749 0.432381 0.874600
Si Si3 0.834837 0.931806 0.199971
Si Si4 0.076415 0.569194 0.865248
Si Si5 0.676897 0.069476 0.722364
Si Si6 0.817956 0.431465 0.016647
O O1 0.338819 0.750000 0.512351
O O2 0.393829 0.486281 0.468141
O O3 0.349503 0.519182 0.625792
O O4 0.256264 0.513593 0.497334
O O5 0.500000 0.500000 0.858035
O O6 0.572958 0.250000 0.872878
O O7 0.627165 0.501789 0.797798
O O8 0.835433 0.750000 0.181725
O O9 0.892998 0.983212 0.270950
O O10 0.757933 0.983916 0.236183
O O11 0.851544 0.019254 0.109642
O O12 0.070024 0.750000 0.868641
O O13 0.128162 0.511536 0.941983
O O14 0.000000 0.500000 0.880796
O O15 0.672963 0.250000 0.731710
O O16 0.805723 0.250000 0.013389
#
# Coordination Sequence:
#
# PCOD8181533 Si02
#       6
#     8   8   8   8   8   8
#     4  10  20  37  59  83 108 140 180 224 270 320
#     4  11  22  37  55  79 111 146 180 219 266 320
#     4   9  18  36  58  79 103 138 180 225 271 319
#     4  10  22  37  54  77 111 148 182 220 270 324
#     4   8  17  35  58  78 103 138 177 219 267 317
#     4  10  20  36  57  82 108 140 180 225 271 320
#
# _framework density 19.183433999999998
#
# number of rings (size 3 to 8) (size 9 to 14) (size 15 to 20)
#    0.000    2.333    0.000    3.500    0.000    6.000 
#    0.000   16.667    0.000    0.000    0.000    0.000 
#    0.000    0.000    0.000    0.000    0.000    0.000 
#
# Total GULP energy -297620.410626 kJ/mol
# GULP energy per Si atom -12400.850443 kJ/mol
# Density = 1.913977 g / cm^3
# Si number density = 19.183434 Si / 1000 Ang^3
#
#
#
# Elastic Constant Matrix: (Units=GPa)
#
#
# Indices 1 2 3 4 5 6 
#
# 1 82.9533 23.7281 39.4531 0.0000 0.0000 0.0000
# 2 23.7281 47.5177 20.9311 0.0000 0.0000 0.0000
# 3 39.4531 20.9311 78.5590 0.0000 0.0000 0.0000
# 4 0.0000 0.0000 0.0000 29.0801 0.0000 0.0000
# 5 0.0000 0.0000 0.0000 0.0000 23.7537 0.0000
# 6 0.0000 0.0000 0.0000 0.0000 0.0000 31.3268
#
#
#
# Elastic Compliance Matrix: (Units=1/GPa)
#
#
# Indices 1 2 3 4 5 6 
#
# 1 0.016956 -0.005343 -0.007092 0.000000 0.000000 0.000000
# 2 -0.005343 0.025527 -0.004118 0.000000 0.000000 0.000000
# 3 -0.007092 -0.004118 0.017388 0.000000 0.000000 0.000000
# 4 0.000000 0.000000 0.000000 0.034388 0.000000 0.000000
# 5 0.000000 0.000000 0.000000 0.000000 0.042099 0.000000
# 6 0.000000 0.000000 0.000000 0.000000 0.000000 0.031922
#
#
# Mechanical properties :
#
#
# Convention : Reuss Voigt Hill
#
# Bulk Modulus (GPa) = 37.36217 41.91719 39.63968
# Shear Modulus (GPa) = 23.77472 25.15996 24.46734
#
# Velocity S-wave (km/s) = 3.52424 3.62546 3.57521
# Velocity P-wave (km/s) = 6.00657 6.27881 6.14420
#
# Compressibility (1/GPa) = 0.02676504
#
# Stress axis : x y z
#
# Youngs Moduli (GPa) = 58.97485 39.17440 57.51056
#
# Poissons Ratio (x) = 0.20932 0.40786
# Poissons Ratio (y) = 0.31512 0.23682
# Poissons Ratio (z) = 0.41825 0.16132
#
# Static dielectric constant tensor:
#      x y z
#    x 3.621820 0.000000 0.000000 
#    y 0.000000 3.331130 0.000000 
#    z 0.000000 0.000000 3.799840 
# 
# 
# High freq. dielectric constant tensor:
#      x y z
#    x 1.743500 0.000000 0.000000 
#    y 0.000000 1.732350 0.000000 
#    z 0.000000 0.000000 1.760100 
# 
# From -- ./inp_files/10037.got.cif
#   From: 2010.03.12/outbox.cif.g09.slc.cpg/sg39_6_cif.got.tgz:10037.got - 2010.04.14 02:53:20.
