data_PCOD8181961
_publ_section_title
;
Structure prediction by ZEFSAII (Michael W. Deem and Ramdas Pophale) SiO2 
 PCOD8181961
Probable space group: A B M 2
;
_chemical_formula_sum "Si O2"
_cell_formula_units_Z 40
_cell_length_a 6.875837
_cell_length_b 18.742376
_cell_length_c 15.038767
_cell_angle_alpha 90.000000
_cell_angle_beta 90.000000
_cell_angle_gamma 90.000000
_cell_volume 1938.038720
_symmetry_space_group_name_H-M "A B M 2"
_symmetry_group_IT_number 39
_symmetry_cell_setting 'orthorhombic'
loop_
_space_group_symop_operation_xyz
x,y,z
-x,-y,z
-x,1/2+y,z
x,1/2-y,z
x,1/2+y,1/2+z
-x,1/2-y,1/2+z
-x,y,1/2+z
x,-y,1/2+z
loop_
_atom_site_type_symbol
_atom_site_label
_atom_site_fract_x
_atom_site_fract_y
_atom_site_fract_z
Si Si1 0.462349 0.615994 0.800520
Si Si2 0.793050 0.977841 0.829713
Si Si3 0.939364 0.572791 0.015068
Si Si4 0.305207 0.168875 0.477394
Si Si5 0.363500 0.331599 0.110854
O O1 0.341419 0.545480 0.818354
O O2 0.688149 0.591447 0.785624
O O3 0.431026 0.665429 0.886678
O O4 0.394844 0.659804 0.715401
O O5 0.813285 0.956446 0.932829
O O6 0.000000 0.000000 0.786464
O O7 0.000000 0.500000 0.067427
O O8 0.119954 0.617314 0.975847
O O9 0.817217 0.620346 0.082212
O O10 0.233176 0.250000 0.490362
O O11 0.442906 0.144976 0.558764
O O12 0.311319 0.250000 0.089042
#
# Coordination Sequence:
#
# PCOD8181961 Si02
#       5
#     8   8   8   8   8
#     4  11  22  41  68  94 133 174 220 272 326 395
#     4  10  21  40  65  98 128 164 221 272 328 385
#     4  11  22  42  69  95 131 171 222 277 337 394
#     4  11  23  42  65  93 134 180 220 270 333 398
#     4  11  26  44  65  98 134 177 225 270 330 403
#
# _framework density 20.639424000000002
#
# number of rings (size 3 to 8) (size 9 to 14) (size 15 to 20)
#    0.000    1.200    6.000    1.200    0.000    6.400 
#    0.000    0.000    0.000    0.000    0.000    0.000 
#    0.000    0.000    0.000    0.000    0.000    0.000 
#
# Total GULP energy -247923.980196 kJ/mol
# GULP energy per Si atom -12396.199010 kJ/mol
# Density = 2.059245 g / cm^3
# Si number density = 20.639424 Si / 1000 Ang^3
#
#
#
# Elastic Constant Matrix: (Units=GPa)
#
#
# Indices 1 2 3 4 5 6 
#
# 1 90.4750 36.6295 26.9747 0.0000 0.0000 0.0000
# 2 36.6295 93.4064 25.2900 0.0000 0.0000 0.0000
# 3 26.9747 25.2900 101.7679 0.0000 0.0000 0.0000
# 4 0.0000 0.0000 0.0000 80.0131 0.0000 0.0000
# 5 0.0000 0.0000 0.0000 0.0000 48.0752 0.0000
# 6 0.0000 0.0000 0.0000 0.0000 0.0000 30.2082
#
#
#
# Elastic Compliance Matrix: (Units=1/GPa)
#
#
# Indices 1 2 3 4 5 6 
#
# 1 0.013690 -0.004703 -0.002460 0.000000 0.000000 0.000000
# 2 -0.004703 0.013094 -0.002007 0.000000 0.000000 0.000000
# 3 -0.002460 -0.002007 0.010977 0.000000 0.000000 0.000000
# 4 0.000000 0.000000 0.000000 0.012498 0.000000 0.000000
# 5 0.000000 0.000000 0.000000 0.000000 0.020801 0.000000
# 6 0.000000 0.000000 0.000000 0.000000 0.000000 0.033104
#
#
# Mechanical properties :
#
#
# Convention : Reuss Voigt Hill
#
# Bulk Modulus (GPa) = 51.49110 51.49306 51.49208
# Shear Modulus (GPa) = 38.76668 44.77631 41.77149
#
# Velocity S-wave (km/s) = 4.33862 4.66279 4.50362
# Velocity P-wave (km/s) = 7.07815 7.34792 7.21430
#
# Compressibility (1/GPa) = 0.01942083
#
# Stress axis : x y z
#
# Youngs Moduli (GPa) = 73.04551 76.37371 91.09789
#
# Poissons Ratio (x) = 0.35915 0.22411
# Poissons Ratio (y) = 0.34350 0.18287
# Poissons Ratio (z) = 0.17970 0.15331
#
# Static dielectric constant tensor:
#      x y z
#    x 2.440060 0.000000 0.000000 
#    y 0.000000 3.653770 0.000000 
#    z 0.000000 0.000000 3.567550 
# 
# 
# High freq. dielectric constant tensor:
#      x y z
#    x 1.809830 0.000000 0.000000 
#    y 0.000000 1.819670 0.000000 
#    z 0.000000 0.000000 1.793980 
# 
# From -- ./inp_files/10918.got.cif
#   From: 2010.03.12/outbox.cif.g09.slc.cpg/sg39_6_cif.got.tgz:10918.got - 2010.04.14 02:53:20.
