data_PCOD8181660
_publ_section_title
;
Structure prediction by ZEFSAII (Michael W. Deem and Ramdas Pophale) SiO2 
 PCOD8181660
Probable space group: A B M 2
;
_chemical_formula_sum "Si O2"
_cell_formula_units_Z 48
_cell_length_a 18.940109
_cell_length_b 18.997191
_cell_length_c 5.366239
_cell_angle_alpha 90.000000
_cell_angle_beta 90.000000
_cell_angle_gamma 90.000000
_cell_volume 1930.820381
_symmetry_space_group_name_H-M "A B M 2"
_symmetry_group_IT_number 39
_symmetry_cell_setting 'orthorhombic'
loop_
_space_group_symop_operation_xyz
x,y,z
-x,-y,z
-x,1/2+y,z
x,1/2-y,z
x,1/2+y,1/2+z
-x,1/2-y,1/2+z
-x,y,1/2+z
x,-y,1/2+z
loop_
_atom_site_type_symbol
_atom_site_label
_atom_site_fract_x
_atom_site_fract_y
_atom_site_fract_z
Si Si1 0.033127 0.831519 0.381120
Si Si2 0.214057 0.532046 0.745732
Si Si3 0.630780 0.975192 0.652780
Si Si4 0.467980 0.170028 0.051646
Si Si5 0.188468 0.671674 0.537310
Si Si6 0.332942 0.172267 0.773109
O O1 0.011013 0.750000 0.379035
O O2 0.117146 0.841719 0.384356
O O3 0.998304 0.866717 0.629153
O O4 0.178816 0.497791 0.990803
O O5 0.297295 0.515899 0.736010
O O6 0.198671 0.615748 0.759629
O O7 0.590202 0.986931 0.920994
O O8 0.644459 0.892220 0.593120
O O9 0.496297 0.250000 0.067652
O O10 0.505513 0.133069 0.807847
O O11 0.383076 0.167396 0.018969
O O12 0.189484 0.750000 0.656448
O O13 0.252017 0.661070 0.343777
O O14 0.343527 0.250000 0.646849
#
# Coordination Sequence:
#
# PCOD8181660 Si02
#       6
#     8   8   8   8   8   8
#     4   9  19  37  57  82 121 162 193 241 314 368
#     4  10  20  38  57  83 119 166 190 237 309 373
#     4  10  20  38  57  83 119 166 190 237 309 373
#     4   9  19  37  57  82 121 162 193 241 314 368
#     4  10  20  37  64  98 122 152 213 267 294 352
#     4  10  20  37  64  98 122 152 213 267 294 352
#
# _framework density 24.859898000000001
#
# number of rings (size 3 to 8) (size 9 to 14) (size 15 to 20)
#    0.000    2.333    3.333    0.000    0.000    2.667 
#    0.000    8.333    0.000    6.000    0.000    0.000 
#    0.000    0.000    0.000    0.000    0.000    0.000 
#
# Total GULP energy -297329.002545 kJ/mol
# GULP energy per Si atom -12388.708439 kJ/mol
# Density = 2.480332 g / cm^3
# Si number density = 24.859898 Si / 1000 Ang^3
#
#
#
# Elastic Constant Matrix: (Units=GPa)
#
#
# Indices 1 2 3 4 5 6 
#
# 1 105.5769 -3.2351 22.3601 0.0000 0.0000 0.0000
# 2 -3.2351 102.5568 18.2195 0.0000 0.0000 0.0000
# 3 22.3601 18.2195 158.8186 0.0000 0.0000 0.0000
# 4 0.0000 0.0000 0.0000 16.1007 0.0000 0.0000
# 5 0.0000 0.0000 0.0000 0.0000 20.5592 0.0000
# 6 0.0000 0.0000 0.0000 0.0000 0.0000 7.0920
#
#
#
# Elastic Compliance Matrix: (Units=1/GPa)
#
#
# Indices 1 2 3 4 5 6 
#
# 1 0.009795 0.000565 -0.001444 0.000000 0.000000 0.000000
# 2 0.000565 0.009986 -0.001225 0.000000 0.000000 0.000000
# 3 -0.001444 -0.001225 0.006640 0.000000 0.000000 0.000000
# 4 0.000000 0.000000 0.000000 0.062109 0.000000 0.000000
# 5 0.000000 0.000000 0.000000 0.000000 0.048640 0.000000
# 6 0.000000 0.000000 0.000000 0.000000 0.000000 0.141003
#
#
# Mechanical properties :
#
#
# Convention : Reuss Voigt Hill
#
# Bulk Modulus (GPa) = 45.01632 49.07126 47.04379
# Shear Modulus (GPa) = 17.25412 30.72424 23.98918
#
# Velocity S-wave (km/s) = 2.63735 3.51934 3.10977
# Velocity P-wave (km/s) = 5.23655 6.02465 5.64437
#
# Compressibility (1/GPa) = 0.02221417
#
# Stress axis : x y z
#
# Youngs Moduli (GPa) = 102.09397 100.13819 150.59482
#
# Poissons Ratio (x) = -0.05663 0.21744
# Poissons Ratio (y) = -0.05773 0.18451
# Poissons Ratio (z) = 0.14741 0.12269
#
# Static dielectric constant tensor:
#      x y z
#    x 4.171320 0.000000 0.000000 
#    y 0.000000 4.577790 0.000000 
#    z 0.000000 0.000000 5.096550 
# 
# 
# High freq. dielectric constant tensor:
#      x y z
#    x 1.959150 0.000000 0.000000 
#    y 0.000000 1.975900 0.000000 
#    z 0.000000 0.000000 1.978260 
# 
# From -- ./inp_files/1031.got.cif
#   From: 2010.03.12/outbox.cif.g09.slc.cpg/sg39_1_cif.got.tgz:1031.got - 2010.04.14 02:53:20.
