data_PCOD8181715
_publ_section_title
;
Structure prediction by ZEFSAII (Michael W. Deem and Ramdas Pophale) SiO2 
 PCOD8181715
Probable space group: A B M 2
;
_chemical_formula_sum "Si O2"
_cell_formula_units_Z 64
_cell_length_a 9.270434
_cell_length_b 18.549573
_cell_length_c 18.675363
_cell_angle_alpha 90.000000
_cell_angle_beta 90.000000
_cell_angle_gamma 90.000000
_cell_volume 3211.463832
_symmetry_space_group_name_H-M "A B M 2"
_symmetry_group_IT_number 39
_symmetry_cell_setting 'orthorhombic'
loop_
_space_group_symop_operation_xyz
x,y,z
-x,-y,z
-x,1/2+y,z
x,1/2-y,z
x,1/2+y,1/2+z
-x,1/2-y,1/2+z
-x,y,1/2+z
x,-y,1/2+z
loop_
_atom_site_type_symbol
_atom_site_label
_atom_site_fract_x
_atom_site_fract_y
_atom_site_fract_z
Si Si1 0.912986 0.572250 0.354630
Si Si2 0.602916 0.667306 0.833658
Si Si3 0.748271 0.334050 0.584896
Si Si4 0.724799 0.167014 0.180968
Si Si5 0.864374 0.164843 0.431942
Si Si6 0.946462 0.165999 0.717783
Si Si7 0.540792 0.418405 0.074584
Si Si8 0.599446 0.432486 0.910250
O O1 0.889631 0.617227 0.282262
O O2 0.762252 0.549029 0.389603
O O3 0.000000 0.500000 0.337166
O O4 0.990982 0.622665 0.412675
O O5 0.584446 0.750000 0.852732
O O6 0.624125 0.654237 0.749724
O O7 0.740668 0.638144 0.877564
O O8 0.455523 0.631079 0.859099
O O9 0.716659 0.250000 0.582821
O O10 0.821224 0.359511 0.511346
O O11 0.854228 0.355493 0.648725
O O12 0.596071 0.371276 0.595422
O O13 0.713284 0.250000 0.154169
O O14 0.675302 0.111144 0.120330
O O15 0.887787 0.148379 0.201808
O O16 0.893927 0.250000 0.425777
O O17 0.927738 0.250000 0.738308
O O18 0.500000 0.500000 0.094146
O O19 0.586510 0.409130 0.992552
O O20 0.500000 0.500000 0.893353
#
# Coordination Sequence:
#
# PCOD8181715 Si02
#       8
#     8   8   8   8   8   8   8   8
#     4  12  26  41  66  95 128 172 216 268 321 385
#     4  10  20  39  68  92 122 167 212 263 319 374
#     4  10  22  42  68  94 127 168 214 265 321 378
#     4  10  22  41  65  94 129 168 212 264 321 379
#     4  10  20  41  68  93 124 169 216 263 322 379
#     4  10  23  44  66  95 130 164 210 268 319 379
#     4  11  25  42  63  92 131 173 212 260 316 383
#     4  11  26  44  62  91 131 169 214 269 317 381
#
# _framework density 19.928607
#
# number of rings (size 3 to 8) (size 9 to 14) (size 15 to 20)
#    0.000    1.500    2.500    1.500    5.250    3.000 
#    0.000    0.625    0.000    0.000    0.000    0.000 
#    0.000    0.000    0.000    0.000    0.000    0.000 
#
# Total GULP energy -396960.934291 kJ/mol
# GULP energy per Si atom -12405.029197 kJ/mol
# Density = 1.988325 g / cm^3
# Si number density = 19.928607 Si / 1000 Ang^3
#
#
#
# Elastic Constant Matrix: (Units=GPa)
#
#
# Indices 1 2 3 4 5 6 
#
# 1 88.1330 31.9010 30.2319 0.0000 0.0000 0.0000
# 2 31.9010 55.0378 36.3200 0.0000 0.0000 0.0000
# 3 30.2319 36.3200 79.8864 0.0000 0.0000 0.0000
# 4 0.0000 0.0000 0.0000 23.2673 0.0000 0.0000
# 5 0.0000 0.0000 0.0000 0.0000 35.7020 0.0000
# 6 0.0000 0.0000 0.0000 0.0000 0.0000 35.0510
#
#
#
# Elastic Compliance Matrix: (Units=1/GPa)
#
#
# Indices 1 2 3 4 5 6 
#
# 1 0.014677 -0.006917 -0.002409 0.000000 0.000000 0.000000
# 2 -0.006917 0.029217 -0.010666 0.000000 0.000000 0.000000
# 3 -0.002409 -0.010666 0.018279 0.000000 0.000000 0.000000
# 4 0.000000 0.000000 0.000000 0.042979 0.000000 0.000000
# 5 0.000000 0.000000 0.000000 0.000000 0.028010 0.000000
# 6 0.000000 0.000000 0.000000 0.000000 0.000000 0.028530
#
#
# Mechanical properties :
#
#
# Convention : Reuss Voigt Hill
#
# Bulk Modulus (GPa) = 45.06905 46.66255 45.86580
# Shear Modulus (GPa) = 23.91536 27.11102 25.51319
#
# Velocity S-wave (km/s) = 3.46793 3.69237 3.58191
# Velocity P-wave (km/s) = 6.22091 6.45320 6.33812
#
# Compressibility (1/GPa) = 0.02218818
#
# Stress axis : x y z
#
# Youngs Moduli (GPa) = 68.13542 34.22676 54.70840
#
# Poissons Ratio (x) = 0.23674 0.13182
# Poissons Ratio (y) = 0.47128 0.58351
# Poissons Ratio (z) = 0.16417 0.36505
#
# Static dielectric constant tensor:
#      x y z
#    x 3.649760 0.000000 0.000000 
#    y 0.000000 3.640490 0.000000 
#    z 0.000000 0.000000 3.711900 
# 
# 
# High freq. dielectric constant tensor:
#      x y z
#    x 1.780230 0.000000 0.000000 
#    y 0.000000 1.778340 0.000000 
#    z 0.000000 0.000000 1.785030 
# 
# From -- ./inp_files/11926.got.cif
#   From: 2010.03.12/outbox.cif.g09.slc.cpg/sg39_6_cif.got.tgz:11926.got - 2010.04.14 02:53:20.
