data_PCOD8181367
_publ_section_title
;
Structure prediction by ZEFSAII (Michael W. Deem and Ramdas Pophale) SiO2 
 PCOD8181367
Probable space group: A B M 2
;
_chemical_formula_sum "Si O2"
_cell_formula_units_Z 56
_cell_length_a 15.392432
_cell_length_b 8.842367
_cell_length_c 19.972656
_cell_angle_alpha 90.000000
_cell_angle_beta 90.000000
_cell_angle_gamma 90.000000
_cell_volume 2718.388986
_symmetry_space_group_name_H-M "A B M 2"
_symmetry_group_IT_number 39
_symmetry_cell_setting 'orthorhombic'
loop_
_space_group_symop_operation_xyz
x,y,z
-x,-y,z
-x,1/2+y,z
x,1/2-y,z
x,1/2+y,1/2+z
-x,1/2-y,1/2+z
-x,y,1/2+z
x,-y,1/2+z
loop_
_atom_site_type_symbol
_atom_site_label
_atom_site_fract_x
_atom_site_fract_y
_atom_site_fract_z
Si Si1 0.322866 0.071991 0.343100
Si Si2 0.867980 0.580629 0.296362
Si Si3 0.086469 0.073626 0.665181
Si Si4 0.588484 0.571620 0.722593
Si Si5 0.913948 0.577351 0.445135
Si Si6 0.271618 0.928269 0.111492
Si Si7 0.267030 0.071089 0.975125
O O1 0.338132 0.250000 0.350173
O O2 0.230661 0.032658 0.310297
O O3 0.395483 0.998494 0.296016
O O4 0.326993 0.999294 0.416911
O O5 0.872337 0.750000 0.266334
O O6 0.909287 0.465394 0.243879
O O7 0.920991 0.571894 0.365062
O O8 0.076891 0.250000 0.657247
O O9 0.173751 0.016401 0.628629
O O10 0.000000 0.000000 0.632833
O O11 0.500000 0.500000 0.693862
O O12 0.578669 0.750000 0.729308
O O13 0.666142 0.526475 0.672716
O O14 0.906541 0.750000 0.470911
O O15 0.831333 0.487151 0.471265
O O16 0.000000 0.500000 0.475413
O O17 0.274763 0.750000 0.097721
O O18 0.305287 0.017065 0.046243
O O19 0.269256 0.250000 0.968879
#
# Coordination Sequence:
#
# PCOD8181367 Si02
#       7
#     8   8   8   8   8   8   8
#     4  10  20  38  64  92 123 158 200 254 307 365
#     4   9  18  32  53  81 114 153 197 250 306 357
#     4  11  22  35  54  82 118 162 208 256 306 361
#     4  11  23  42  69 100 129 161 202 252 311 374
#     4  10  20  34  52  79 115 158 207 260 313 367
#     4  10  23  43  62  86 126 169 208 257 311 369
#     4  11  23  38  61  88 119 163 208 255 312 373
#
# _framework density 20.600435999999998
#
# number of rings (size 3 to 8) (size 9 to 14) (size 15 to 20)
#    0.000    1.714    1.429    4.286    0.000    6.857 
#    0.000    2.143    0.000    1.714    0.000    0.000 
#    0.000    0.000    0.000    0.000    0.000    0.000 
#
# Total GULP energy -347284.877185 kJ/mol
# GULP energy per Si atom -12403.031328 kJ/mol
# Density = 2.055355 g / cm^3
# Si number density = 20.600436 Si / 1000 Ang^3
#
#
#
# Elastic Constant Matrix: (Units=GPa)
#
#
# Indices 1 2 3 4 5 6 
#
# 1 96.0501 47.1926 36.4878 0.0000 0.0000 0.0000
# 2 47.1926 115.3456 54.5382 0.0000 0.0000 0.0000
# 3 36.4878 54.5382 116.5333 0.0000 0.0000 0.0000
# 4 0.0000 0.0000 0.0000 32.4104 0.0000 0.0000
# 5 0.0000 0.0000 0.0000 0.0000 5.3077 0.0000
# 6 0.0000 0.0000 0.0000 0.0000 0.0000 33.5548
#
#
#
# Elastic Compliance Matrix: (Units=1/GPa)
#
#
# Indices 1 2 3 4 5 6 
#
# 1 0.013418 -0.004499 -0.002096 0.000000 0.000000 0.000000
# 2 -0.004499 0.012642 -0.004508 0.000000 0.000000 0.000000
# 3 -0.002096 -0.004508 0.011347 0.000000 0.000000 0.000000
# 4 0.000000 0.000000 0.000000 0.030854 0.000000 0.000000
# 5 0.000000 0.000000 0.000000 0.000000 0.188407 0.000000
# 6 0.000000 0.000000 0.000000 0.000000 0.000000 0.029802
#
#
# Mechanical properties :
#
#
# Convention : Reuss Voigt Hill
#
# Bulk Modulus (GPa) = 65.78144 67.15179 66.46661
# Shear Modulus (GPa) = 15.93666 26.90193 21.41930
#
# Velocity S-wave (km/s) = 2.78440 3.61763 3.22801
# Velocity P-wave (km/s) = 6.50681 7.07939 6.79913
#
# Compressibility (1/GPa) = 0.01520186
#
# Stress axis : x y z
#
# Youngs Moduli (GPa) = 74.52775 79.10378 88.12843
#
# Poissons Ratio (x) = 0.35588 0.18470
# Poissons Ratio (y) = 0.33529 0.39726
# Poissons Ratio (z) = 0.15619 0.35658
#
# Static dielectric constant tensor:
#      x y z
#    x 3.698080 0.000000 0.000000 
#    y 0.000000 3.704980 0.000000 
#    z 0.000000 0.000000 3.737110 
# 
# 
# High freq. dielectric constant tensor:
#      x y z
#    x 1.790340 0.000000 0.000000 
#    y 0.000000 1.809250 0.000000 
#    z 0.000000 0.000000 1.805060 
# 
# From -- ./inp_files/14766.got.cif
#   From: 2010.03.12/outbox.cif.g09.slc.cpg/sg39_8_cif.got.tgz:14766.got - 2010.04.14 02:53:20.
