data_PCOD8181681
_publ_section_title
;
Structure prediction by ZEFSAII (Michael W. Deem and Ramdas Pophale) SiO2 
 PCOD8181681
Probable space group: A B M 2
;
_chemical_formula_sum "Si O2"
_cell_formula_units_Z 56
_cell_length_a 11.816015
_cell_length_b 15.533669
_cell_length_c 13.629528
_cell_angle_alpha 90.000000
_cell_angle_beta 90.000000
_cell_angle_gamma 90.000000
_cell_volume 2501.646245
_symmetry_space_group_name_H-M "A B M 2"
_symmetry_group_IT_number 39
_symmetry_cell_setting 'orthorhombic'
loop_
_space_group_symop_operation_xyz
x,y,z
-x,-y,z
-x,1/2+y,z
x,1/2-y,z
x,1/2+y,1/2+z
-x,1/2-y,1/2+z
-x,y,1/2+z
x,-y,1/2+z
loop_
_atom_site_type_symbol
_atom_site_label
_atom_site_fract_x
_atom_site_fract_y
_atom_site_fract_z
Si Si1 0.287018 0.935506 0.481760
Si Si2 0.840791 0.651314 0.151423
Si Si3 0.210112 0.013124 0.778369
Si Si4 0.693777 0.620122 0.533229
Si Si5 0.901929 0.344510 0.148439
Si Si6 0.437321 0.420381 0.700403
Si Si7 0.496500 0.346519 0.391810
O O1 0.231896 0.864557 0.552857
O O2 0.200826 0.970428 0.396156
O O3 0.410802 0.904584 0.446844
O O4 0.303051 0.017841 0.550932
O O5 0.818024 0.750000 0.187147
O O6 0.816596 0.584422 0.241374
O O7 0.969954 0.639768 0.115297
O O8 0.129037 0.081412 0.724977
O O9 0.338615 0.037260 0.763043
O O10 0.819679 0.656669 0.551541
O O11 0.609180 0.649300 0.621771
O O12 0.633023 0.645849 0.432220
O O13 0.890567 0.250000 0.198727
O O14 0.500000 0.500000 0.647773
O O15 0.517555 0.371506 0.777962
O O16 0.540885 0.250000 0.401388
#
# Coordination Sequence:
#
# PCOD8181681 Si02
#       7
#     8   8   8   8   8   8   8
#     4  11  22  41  68  96 125 177 224 279 337 416
#     4  11  23  44  68  99 136 177 230 292 346 406
#     4  10  22  40  67  94 132 174 222 278 344 409
#     4  11  22  40  67  91 128 174 225 268 334 398
#     4  10  22  42  66  92 132 177 225 277 341 408
#     4  10  20  38  62  87 124 169 214 261 332 399
#     4  11  23  37  59  97 132 165 219 274 329 403
#
# _framework density 22.385259999999999
#
# number of rings (size 3 to 8) (size 9 to 14) (size 15 to 20)
#    0.000    1.429    2.857    4.286    0.000    6.286 
#    5.143    3.571    0.000    0.000    0.000    0.000 
#    0.000    0.000    0.000    0.000    0.000    0.000 
#
# Total GULP energy -346870.030558 kJ/mol
# GULP energy per Si atom -12388.215377 kJ/mol
# Density = 2.233431 g / cm^3
# Si number density = 22.385260 Si / 1000 Ang^3
#
#
#
# Elastic Constant Matrix: (Units=GPa)
#
#
# Indices 1 2 3 4 5 6 
#
# 1 60.6396 2.6525 13.2121 0.0000 0.0000 0.0000
# 2 2.6525 121.6664 16.3976 0.0000 0.0000 0.0000
# 3 13.2121 16.3976 72.9184 0.0000 0.0000 0.0000
# 4 0.0000 0.0000 0.0000 17.0920 0.0000 0.0000
# 5 0.0000 0.0000 0.0000 0.0000 28.2243 0.0000
# 6 0.0000 0.0000 0.0000 0.0000 0.0000 25.0692
#
#
#
# Elastic Compliance Matrix: (Units=1/GPa)
#
#
# Indices 1 2 3 4 5 6 
#
# 1 0.017169 0.000046 -0.003121 0.000000 0.000000 0.000000
# 2 0.000046 0.008476 -0.001914 0.000000 0.000000 0.000000
# 3 -0.003121 -0.001914 0.014710 0.000000 0.000000 0.000000
# 4 0.000000 0.000000 0.000000 0.058507 0.000000 0.000000
# 5 0.000000 0.000000 0.000000 0.000000 0.035431 0.000000
# 6 0.000000 0.000000 0.000000 0.000000 0.000000 0.039890
#
#
# Mechanical properties :
#
#
# Convention : Reuss Voigt Hill
#
# Bulk Modulus (GPa) = 32.92035 35.52764 34.22399
# Shear Modulus (GPa) = 25.73520 28.94124 27.33822
#
# Velocity S-wave (km/s) = 3.39433 3.59955 3.49844
# Velocity P-wave (km/s) = 5.48636 5.76031 5.62500
#
# Compressibility (1/GPa) = 0.03037635
#
# Stress axis : x y z
#
# Youngs Moduli (GPa) = 58.24487 117.97720 67.98089
#
# Poissons Ratio (x) = -0.00547 0.21219
# Poissons Ratio (y) = -0.00270 0.13015
# Poissons Ratio (z) = 0.18180 0.22587
#
# Static dielectric constant tensor:
#      x y z
#    x 4.029350 0.000000 0.000000 
#    y 0.000000 4.139580 0.000000 
#    z 0.000000 0.000000 4.001650 
# 
# 
# High freq. dielectric constant tensor:
#      x y z
#    x 1.878220 0.000000 0.000000 
#    y 0.000000 1.885920 0.000000 
#    z 0.000000 0.000000 1.871010 
# 
# From -- ./inp_files/9297.got.cif
#   From: 2010.03.12/outbox.cif.g09.slc.cpg/sg39_5_cif.got.tgz:9297.got - 2010.04.14 02:53:20.
