data_PCOD8181948
_publ_section_title
;
Structure prediction by ZEFSAII (Michael W. Deem and Ramdas Pophale) SiO2 
 PCOD8181948
Probable space group: A B M 2
;
_chemical_formula_sum "Si O2"
_cell_formula_units_Z 64
_cell_length_a 9.261950
_cell_length_b 31.595775
_cell_length_c 10.590922
_cell_angle_alpha 90.000000
_cell_angle_beta 90.000000
_cell_angle_gamma 90.000000
_cell_volume 3099.311403
_symmetry_space_group_name_H-M "A B M 2"
_symmetry_group_IT_number 39
_symmetry_cell_setting 'orthorhombic'
loop_
_space_group_symop_operation_xyz
x,y,z
-x,-y,z
-x,1/2+y,z
x,1/2-y,z
x,1/2+y,1/2+z
-x,1/2-y,1/2+z
-x,y,1/2+z
x,-y,1/2+z
loop_
_atom_site_type_symbol
_atom_site_label
_atom_site_fract_x
_atom_site_fract_y
_atom_site_fract_z
Si Si1 0.148688 0.372608 0.504150
Si Si2 0.645137 0.915430 0.072912
Si Si3 0.650441 0.482239 0.354103
Si Si4 0.847664 0.144243 0.425550
Si Si5 0.119396 0.572029 0.228933
Si Si6 0.596547 0.700285 0.863446
Si Si7 0.192365 0.439836 0.313184
Si Si8 0.437619 0.841168 0.097431
O O1 0.102561 0.414244 0.583964
O O2 0.208627 0.393523 0.375572
O O3 0.266488 0.343405 0.571289
O O4 0.007485 0.343944 0.475933
O O5 0.701071 0.940276 0.193842
O O6 0.498757 0.889114 0.100092
O O7 0.614177 0.950282 0.966887
O O8 0.765838 0.881391 0.034642
O O9 0.500000 0.500000 0.297898
O O10 0.742525 0.458404 0.245674
O O11 0.749351 0.521764 0.400923
O O12 0.855147 0.115657 0.302181
O O13 0.762085 0.186748 0.388965
O O14 0.972763 0.549787 0.275661
O O15 0.588815 0.750000 0.847137
O O16 0.534804 0.679733 0.734265
O O17 0.503161 0.686355 0.984029
#
# Coordination Sequence:
#
# PCOD8181948 Si02
#       8
#     8   8   8   8   8   8   8   8
#     4  11  21  38  68  94 119 172 223 262 324 392
#     4  10  22  40  60  90 124 170 218 265 329 397
#     4  11  25  39  56  86 124 163 217 278 331 370
#     4   9  20  41  65  88 124 164 212 262 318 404
#     4  10  21  40  60  88 119 168 217 264 326 391
#     4  11  23  43  68 101 136 173 211 271 339 400
#     4  11  23  38  60  87 125 167 218 279 327 383
#     4  11  23  41  71  98 136 174 222 268 328 412
#
# _framework density 20.649749
#
# number of rings (size 3 to 8) (size 9 to 14) (size 15 to 20)
#    0.000    1.500    2.500    2.250    3.500    0.500 
#    0.000    1.250    0.000    0.000    0.000    0.000 
#    0.000    0.000    0.000    0.000    0.000    0.000 
#
# Total GULP energy -396764.581982 kJ/mol
# GULP energy per Si atom -12398.893187 kJ/mol
# Density = 2.060275 g / cm^3
# Si number density = 20.649749 Si / 1000 Ang^3
#
#
#
# Elastic Constant Matrix: (Units=GPa)
#
#
# Indices 1 2 3 4 5 6 
#
# 1 133.8352 52.9053 37.7782 0.0000 0.0000 0.0000
# 2 52.9053 101.3307 33.5637 0.0000 0.0000 0.0000
# 3 37.7782 33.5637 94.7125 0.0000 0.0000 0.0000
# 4 0.0000 0.0000 0.0000 26.0217 0.0000 0.0000
# 5 0.0000 0.0000 0.0000 0.0000 29.3972 0.0000
# 6 0.0000 0.0000 0.0000 0.0000 0.0000 27.5223
#
#
#
# Elastic Compliance Matrix: (Units=1/GPa)
#
#
# Indices 1 2 3 4 5 6 
#
# 1 0.009871 -0.004362 -0.002392 0.000000 0.000000 0.000000
# 2 -0.004362 0.013108 -0.002906 0.000000 0.000000 0.000000
# 3 -0.002392 -0.002906 0.012542 0.000000 0.000000 0.000000
# 4 0.000000 0.000000 0.000000 0.038429 0.000000 0.000000
# 5 0.000000 0.000000 0.000000 0.000000 0.034017 0.000000
# 6 0.000000 0.000000 0.000000 0.000000 0.000000 0.036334
#
#
# Mechanical properties :
#
#
# Convention : Reuss Voigt Hill
#
# Bulk Modulus (GPa) = 61.71425 64.26365 62.98895
# Shear Modulus (GPa) = 29.58219 30.29698 29.93959
#
# Velocity S-wave (km/s) = 3.78904 3.83454 3.81186
# Velocity P-wave (km/s) = 7.00667 7.12694 7.06706
#
# Compressibility (1/GPa) = 0.01620371
#
# Stress axis : x y z
#
# Youngs Moduli (GPa) = 101.30559 76.28773 79.73281
#
# Poissons Ratio (x) = 0.33273 0.19070
# Poissons Ratio (y) = 0.44185 0.23167
# Poissons Ratio (z) = 0.24229 0.22166
#
# Static dielectric constant tensor:
#      x y z
#    x 3.900590 0.000000 0.000000 
#    y 0.000000 3.440710 0.000000 
#    z 0.000000 0.000000 3.725410 
# 
# 
# High freq. dielectric constant tensor:
#      x y z
#    x 1.819370 0.000000 0.000000 
#    y 0.000000 1.777370 0.000000 
#    z 0.000000 0.000000 1.811620 
# 
# From -- ./inp_files/5389.got.cif
#   From: 2010.03.12/outbox.cif.g09.slc.cpg/sg39_3_cif.got.tgz:5389.got - 2010.04.14 02:53:20.
