data_PCOD8181229
_publ_section_title
;
Structure prediction by ZEFSAII (Michael W. Deem and Ramdas Pophale) SiO2 
 PCOD8181229
Probable space group: A B M 2
;
_chemical_formula_sum "Si O2"
_cell_formula_units_Z 64
_cell_length_a 14.506634
_cell_length_b 8.625778
_cell_length_c 24.677231
_cell_angle_alpha 90.000000
_cell_angle_beta 90.000000
_cell_angle_gamma 90.000000
_cell_volume 3087.886701
_symmetry_space_group_name_H-M "A B M 2"
_symmetry_group_IT_number 39
_symmetry_cell_setting 'orthorhombic'
loop_
_space_group_symop_operation_xyz
x,y,z
-x,-y,z
-x,1/2+y,z
x,1/2-y,z
x,1/2+y,1/2+z
-x,1/2-y,1/2+z
-x,y,1/2+z
x,-y,1/2+z
loop_
_atom_site_type_symbol
_atom_site_label
_atom_site_fract_x
_atom_site_fract_y
_atom_site_fract_z
Si Si1 0.712738 0.568552 0.159560
Si Si2 0.706836 0.066054 0.460029
Si Si3 0.865496 0.574105 0.320984
Si Si4 0.397527 0.067643 0.561992
Si Si5 0.345049 0.925256 0.850856
Si Si6 0.094315 0.067574 0.201224
Si Si7 0.907933 0.929806 0.930523
Si Si8 0.406326 0.568186 0.247295
O O1 0.698411 0.750000 0.146754
O O2 0.657849 0.464588 0.116925
O O3 0.821304 0.523690 0.161110
O O4 0.675811 0.526611 0.219078
O O5 0.704217 0.250000 0.454649
O O6 0.813197 0.004878 0.457328
O O7 0.660498 0.013614 0.515168
O O8 0.648204 0.993191 0.411180
O O9 0.901373 0.750000 0.328244
O O10 0.756861 0.568253 0.327625
O O11 0.891189 0.502826 0.262315
O O12 0.911513 0.467220 0.366593
O O13 0.403779 0.250000 0.551574
O O14 0.500000 0.000000 0.565372
O O15 0.383581 0.750000 0.851059
O O16 0.406047 0.032042 0.811415
O O17 0.087765 0.250000 0.205444
O O18 0.000000 0.000000 0.176240
O O19 0.911952 0.750000 0.940504
O O20 0.000000 0.000000 0.958521
O O21 0.500000 0.500000 0.221728
O O22 0.398162 0.750000 0.235806
#
# Coordination Sequence:
#
# PCOD8181229 Si02
#       8
#     8   8   8   8   8   8   8   8
#     4  11  23  44  66  89 124 162 203 257 311 363
#     4  10  22  41  63  92 125 161 205 256 309 363
#     4   9  17  32  53  81 119 164 206 247 297 353
#     4  12  26  46  71  97 119 154 203 256 313 372
#     4  10  19  36  59  87 125 164 202 250 307 365
#     4  10  21  36  57  87 123 164 205 249 301 359
#     4  10  20  33  54  86 124 165 208 251 300 357
#     4  12  24  38  59  89 123 162 204 250 306 374
#
# _framework density 20.726150000000001
#
# number of rings (size 3 to 8) (size 9 to 14) (size 15 to 20)
#    0.000    1.500    1.250    4.500    0.000    5.000 
#    0.000    3.125    0.000    0.000    0.000    0.000 
#    0.000    0.000    0.000    0.000    0.000    0.000 
#
# Total GULP energy -396811.926539 kJ/mol
# GULP energy per Si atom -12400.372704 kJ/mol
# Density = 2.067898 g / cm^3
# Si number density = 20.726150 Si / 1000 Ang^3
#
#
#
# Elastic Constant Matrix: (Units=GPa)
#
#
# Indices 1 2 3 4 5 6 
#
# 1 122.0543 28.0140 36.1380 0.0000 0.0000 0.0000
# 2 28.0140 63.1848 8.1760 0.0000 0.0000 0.0000
# 3 36.1380 8.1760 77.1238 0.0000 0.0000 0.0000
# 4 0.0000 0.0000 0.0000 34.4050 0.0000 0.0000
# 5 0.0000 0.0000 0.0000 0.0000 22.0993 0.0000
# 6 0.0000 0.0000 0.0000 0.0000 0.0000 34.3745
#
#
#
# Elastic Compliance Matrix: (Units=1/GPa)
#
#
# Indices 1 2 3 4 5 6 
#
# 1 0.010445 -0.004053 -0.004465 0.000000 0.000000 0.000000
# 2 -0.004053 0.017620 0.000031 0.000000 0.000000 0.000000
# 3 -0.004465 0.000031 0.015055 0.000000 0.000000 0.000000
# 4 0.000000 0.000000 0.000000 0.029066 0.000000 0.000000
# 5 0.000000 0.000000 0.000000 0.000000 0.045250 0.000000
# 6 0.000000 0.000000 0.000000 0.000000 0.000000 0.029091
#
#
# Mechanical properties :
#
#
# Convention : Reuss Voigt Hill
#
# Bulk Modulus (GPa) = 38.24596 45.22433 41.73515
# Shear Modulus (GPa) = 29.03336 30.84477 29.93906
#
# Velocity S-wave (km/s) = 3.74680 3.86191 3.80479
# Velocity P-wave (km/s) = 6.10009 6.46167 6.28348
#
# Compressibility (1/GPa) = 0.02614655
#
# Stress axis : x y z
#
# Youngs Moduli (GPa) = 95.73658 56.75482 66.42370
#
# Poissons Ratio (x) = 0.23005 0.29656
# Poissons Ratio (y) = 0.38806 -0.00209
# Poissons Ratio (z) = 0.42743 -0.00178
#
# Static dielectric constant tensor:
#      x y z
#    x 4.090420 0.000000 0.000000 
#    y 0.000000 3.679010 0.000000 
#    z 0.000000 0.000000 3.555200 
# 
# 
# High freq. dielectric constant tensor:
#      x y z
#    x 1.824950 0.000000 0.000000 
#    y 0.000000 1.811450 0.000000 
#    z 0.000000 0.000000 1.788870 
# 
# From -- ./inp_files/16244.got.cif
#   From: 2010.03.12/outbox.cif.g09.slc.cpg/sg39_9_cif.got.tgz:16244.got - 2010.04.14 02:53:20.
