data_PCOD8181136
_publ_section_title
;
Structure prediction by ZEFSAII (Michael W. Deem and Ramdas Pophale) SiO2 
 PCOD8181136
Probable space group: A B M 2
;
_chemical_formula_sum "Si O2"
_cell_formula_units_Z 64
_cell_length_a 20.561228
_cell_length_b 8.827954
_cell_length_c 18.507466
_cell_angle_alpha 90.000000
_cell_angle_beta 90.000000
_cell_angle_gamma 90.000000
_cell_volume 3359.356317
_symmetry_space_group_name_H-M "A B M 2"
_symmetry_group_IT_number 39
_symmetry_cell_setting 'orthorhombic'
loop_
_space_group_symop_operation_xyz
x,y,z
-x,-y,z
-x,1/2+y,z
x,1/2-y,z
x,1/2+y,1/2+z
-x,1/2-y,1/2+z
-x,y,1/2+z
x,-y,1/2+z
loop_
_atom_site_type_symbol
_atom_site_label
_atom_site_fract_x
_atom_site_fract_y
_atom_site_fract_z
Si Si1 0.566987 0.071563 0.994260
Si Si2 0.189045 0.429737 0.155567
Si Si3 0.068144 0.569439 0.748380
Si Si4 0.691135 0.071020 0.907504
Si Si5 0.066603 0.072452 0.901383
Si Si6 0.314283 0.429564 0.242364
Si Si7 0.567164 0.571484 0.659478
Si Si8 0.807986 0.426611 0.492955
O O1 0.560228 0.250000 0.986663
O O2 0.626243 0.007735 0.946241
O O3 0.500000 0.000000 0.965529
O O4 0.580597 0.022719 0.076797
O O5 0.188547 0.250000 0.154981
O O6 0.123136 0.488072 0.193065
O O7 0.250871 0.489566 0.200270
O O8 0.192915 0.492959 0.074150
O O9 0.063250 0.750000 0.751350
O O10 0.087167 0.508035 0.827142
O O11 0.000000 0.500000 0.721855
O O12 0.692909 0.250000 0.913538
O O13 0.691749 0.017082 0.824918
O O14 0.754686 0.009666 0.945882
O O15 0.056404 0.250000 0.886711
O O16 0.121146 0.040726 0.960773
O O17 0.000000 0.000000 0.931311
O O18 0.322021 0.250000 0.235827
O O19 0.376601 0.508150 0.209223
O O20 0.500000 0.500000 0.687033
O O21 0.562894 0.750000 0.667895
O O22 0.791401 0.250000 0.492435
#
# Coordination Sequence:
#
# PCOD8181136 Si02
#       8
#     8   8   8   8   8   8   8   8
#     4   9  19  35  54  77 105 136 172 212 254 305
#     4   9  19  35  54  76 104 139 175 213 261 311
#     4  10  19  34  56  79 106 139 174 213 258 310
#     4  10  21  36  54  79 108 137 172 214 261 310
#     4  10  20  34  53  77 105 136 172 214 258 308
#     4  10  20  35  55  77 104 138 174 213 258 311
#     4  10  20  35  55  78 105 137 172 212 257 305
#     4  10  21  36  54  77 104 136 177 219 257 306
#
# _framework density 19.051269000000001
#
# number of rings (size 3 to 8) (size 9 to 14) (size 15 to 20)
#    0.000    2.250    0.000    3.375    0.000    4.500 
#    0.000    3.750    0.000    0.000    0.000    0.000 
#    0.000    0.000    0.000    0.000    0.000    0.000 
#
# Total GULP energy -396881.923990 kJ/mol
# GULP energy per Si atom -12402.560125 kJ/mol
# Density = 1.900791 g / cm^3
# Si number density = 19.051269 Si / 1000 Ang^3
#
#
#
# Elastic Constant Matrix: (Units=GPa)
#
#
# Indices 1 2 3 4 5 6 
#
# 1 159.4238 40.4461 99.4805 0.0000 0.0000 0.0000
# 2 40.4461 44.5664 37.2778 0.0000 0.0000 0.0000
# 3 99.4805 37.2778 148.5871 0.0000 0.0000 0.0000
# 4 0.0000 0.0000 0.0000 14.2621 0.0000 0.0000
# 5 0.0000 0.0000 0.0000 0.0000 45.2462 0.0000
# 6 0.0000 0.0000 0.0000 0.0000 0.0000 30.2498
#
#
#
# Elastic Compliance Matrix: (Units=1/GPa)
#
#
# Indices 1 2 3 4 5 6 
#
# 1 0.011627 -0.005114 -0.006501 0.000000 0.000000 0.000000
# 2 -0.005114 0.030647 -0.004265 0.000000 0.000000 0.000000
# 3 -0.006501 -0.004265 0.012153 0.000000 0.000000 0.000000
# 4 0.000000 0.000000 0.000000 0.070116 0.000000 0.000000
# 5 0.000000 0.000000 0.000000 0.000000 0.022101 0.000000
# 6 0.000000 0.000000 0.000000 0.000000 0.000000 0.033058
#
#
# Mechanical properties :
#
#
# Convention : Reuss Voigt Hill
#
# Bulk Modulus (GPa) = 44.11840 78.55401 61.33621
# Shear Modulus (GPa) = 22.82923 29.64314 26.23619
#
# Velocity S-wave (km/s) = 3.46541 3.94885 3.71500
# Velocity P-wave (km/s) = 6.26259 7.88123 7.11807
#
# Compressibility (1/GPa) = 0.02266628
#
# Stress axis : x y z
#
# Youngs Moduli (GPa) = 86.00842 32.62965 82.28600
#
# Poissons Ratio (x) = 0.16686 0.53496
# Poissons Ratio (y) = 0.43983 0.35095
# Poissons Ratio (z) = 0.55916 0.13917
#
# Static dielectric constant tensor:
#      x y z
#    x 3.652280 0.000000 0.000000 
#    y 0.000000 3.335560 0.000000 
#    z 0.000000 0.000000 3.658710 
# 
# 
# High freq. dielectric constant tensor:
#      x y z
#    x 1.756610 0.000000 0.000000 
#    y 0.000000 1.726820 0.000000 
#    z 0.000000 0.000000 1.743460 
# 
# From -- ./inp_files/13158.got.cif
#   From: 2010.03.12/outbox.cif.g09.slc.cpg/sg39_7_cif.got.tgz:13158.got - 2010.04.14 02:53:20.
