data_PCOD8181458
_publ_section_title
;
Structure prediction by ZEFSAII (Michael W. Deem and Ramdas Pophale) SiO2 
 PCOD8181458
Probable space group: A B M 2
;
_chemical_formula_sum "Si O2"
_cell_formula_units_Z 64
_cell_length_a 24.132362
_cell_length_b 9.113342
_cell_length_c 14.640343
_cell_angle_alpha 90.000000
_cell_angle_beta 90.000000
_cell_angle_gamma 90.000000
_cell_volume 3219.798929
_symmetry_space_group_name_H-M "A B M 2"
_symmetry_group_IT_number 39
_symmetry_cell_setting 'orthorhombic'
loop_
_space_group_symop_operation_xyz
x,y,z
-x,-y,z
-x,1/2+y,z
x,1/2-y,z
x,1/2+y,1/2+z
-x,1/2-y,1/2+z
-x,y,1/2+z
x,-y,1/2+z
loop_
_atom_site_type_symbol
_atom_site_label
_atom_site_fract_x
_atom_site_fract_y
_atom_site_fract_z
Si Si1 0.755092 0.585965 0.550220
Si Si2 0.857461 0.576509 0.775339
Si Si3 0.629614 0.578486 0.244397
Si Si4 0.557025 0.922752 0.884946
Si Si5 0.861461 0.920382 0.086373
Si Si6 0.352310 0.419583 0.035287
Si Si7 0.263936 0.087464 0.765126
Si Si8 0.057427 0.581255 0.427716
O O1 0.761476 0.750000 0.510333
O O2 0.810645 0.493928 0.531323
O O3 0.702038 0.508944 0.503720
O O4 0.745869 0.590752 0.657714
O O5 0.860927 0.750000 0.756155
O O6 0.873508 0.493162 0.683265
O O7 0.794732 0.537795 0.809194
O O8 0.899545 0.521589 0.852392
O O9 0.622155 0.750000 0.262902
O O10 0.579508 0.490433 0.290551
O O11 0.628174 0.538814 0.137364
O O12 0.687628 0.526315 0.289907
O O13 0.548073 0.750000 0.872099
O O14 0.500000 0.000000 0.911236
O O15 0.598424 0.959972 0.967313
O O16 0.846864 0.750000 0.099501
O O17 0.916949 0.943097 0.027631
O O18 0.335917 0.250000 0.030929
O O19 0.281775 0.250000 0.799681
O O20 0.045492 0.750000 0.408425
O O21 0.000000 0.500000 0.418692
#
# Coordination Sequence:
#
# PCOD8181458 Si02
#       8
#     8   8   8   8   8   8   8   8
#     4   9  17  31  55  86 115 143 178 221 270 325
#     4   9  19  37  58  80 109 145 182 222 272 327
#     4  10  20  36  58  85 114 143 179 223 270 322
#     4  11  24  41  58  79 109 146 188 230 272 321
#     4  10  20  35  56  83 113 144 179 223 275 327
#     4   9  20  38  59  83 113 147 181 222 273 326
#     4   8  15  30  53  81 111 142 175 214 267 327
#     4  10  23  40  56  77 107 144 187 231 274 325
#
# _framework density 19.877016999999999
#
# number of rings (size 3 to 8) (size 9 to 14) (size 15 to 20)
#    0.000    2.500    0.000    2.250    0.000    8.000 
#    0.000    6.250    0.000    0.000    0.000    0.000 
#    0.000    0.000    0.000    0.000    0.000    0.000 
#
# Total GULP energy -396829.785982 kJ/mol
# GULP energy per Si atom -12400.930812 kJ/mol
# Density = 1.983178 g / cm^3
# Si number density = 19.877017 Si / 1000 Ang^3
#
#
#
# Elastic Constant Matrix: (Units=GPa)
#
#
# Indices 1 2 3 4 5 6 
#
# 1 98.5376 36.4997 17.8412 0.0000 0.0000 0.0000
# 2 36.4997 80.9253 21.4655 0.0000 0.0000 0.0000
# 3 17.8412 21.4655 50.1112 0.0000 0.0000 0.0000
# 4 0.0000 0.0000 0.0000 24.4208 0.0000 0.0000
# 5 0.0000 0.0000 0.0000 0.0000 28.9160 0.0000
# 6 0.0000 0.0000 0.0000 0.0000 0.0000 42.3152
#
#
#
# Elastic Compliance Matrix: (Units=1/GPa)
#
#
# Indices 1 2 3 4 5 6 
#
# 1 0.012411 -0.004993 -0.002280 0.000000 0.000000 0.000000
# 2 -0.004993 0.015950 -0.005055 0.000000 0.000000 0.000000
# 3 -0.002280 -0.005055 0.022933 0.000000 0.000000 0.000000
# 4 0.000000 0.000000 0.000000 0.040949 0.000000 0.000000
# 5 0.000000 0.000000 0.000000 0.000000 0.034583 0.000000
# 6 0.000000 0.000000 0.000000 0.000000 0.000000 0.023632
#
#
# Mechanical properties :
#
#
# Convention : Reuss Voigt Hill
#
# Bulk Modulus (GPa) = 37.53991 42.35409 39.94700
# Shear Modulus (GPa) = 27.17530 29.38157 28.27844
#
# Velocity S-wave (km/s) = 3.70154 3.84887 3.77592
# Velocity P-wave (km/s) = 6.09882 6.41140 6.25706
#
# Compressibility (1/GPa) = 0.02663832
#
# Stress axis : x y z
#
# Youngs Moduli (GPa) = 80.57618 62.69706 43.60622
#
# Poissons Ratio (x) = 0.31304 0.09942
# Poissons Ratio (y) = 0.40230 0.22041
# Poissons Ratio (z) = 0.18370 0.31691
#
# Static dielectric constant tensor:
#      x y z
#    x 3.694730 0.000000 0.000000 
#    y 0.000000 3.675570 0.000000 
#    z 0.000000 0.000000 3.479590 
# 
# 
# High freq. dielectric constant tensor:
#      x y z
#    x 1.774640 0.000000 0.000000 
#    y 0.000000 1.776970 0.000000 
#    z 0.000000 0.000000 1.767960 
# 
# From -- ./inp_files/10573.got.cif
#   From: 2010.03.12/outbox.cif.g09.slc.cpg/sg39_6_cif.got.tgz:10573.got - 2010.04.14 02:53:20.
