data_PCOD8181058
_publ_section_title
;
Structure prediction by ZEFSAII (Michael W. Deem and Ramdas Pophale) SiO2 
 PCOD8181058
Probable space group: A B M 2
;
_chemical_formula_sum "Si O2"
_cell_formula_units_Z 48
_cell_length_a 16.535900
_cell_length_b 9.015879
_cell_length_c 18.334219
_cell_angle_alpha 90.000000
_cell_angle_beta 90.000000
_cell_angle_gamma 90.000000
_cell_volume 2733.369389
_symmetry_space_group_name_H-M "A B M 2"
_symmetry_group_IT_number 39
_symmetry_cell_setting 'orthorhombic'
loop_
_space_group_symop_operation_xyz
x,y,z
-x,-y,z
-x,1/2+y,z
x,1/2-y,z
x,1/2+y,1/2+z
-x,1/2-y,1/2+z
-x,y,1/2+z
x,-y,1/2+z
loop_
_atom_site_type_symbol
_atom_site_label
_atom_site_fract_x
_atom_site_fract_y
_atom_site_fract_z
Si Si1 0.821857 0.419987 0.139270
Si Si2 0.689788 0.583113 0.222715
Si Si3 0.084103 0.075276 0.777510
Si Si4 0.581037 0.582271 0.099143
Si Si5 0.227667 0.079523 0.364449
Si Si6 0.257099 0.424381 0.015480
O O1 0.818753 0.250000 0.114493
O O2 0.745677 0.455832 0.189996
O O3 0.899394 0.452175 0.190883
O O4 0.817829 0.519824 0.066147
O O5 0.720628 0.750000 0.199640
O O6 0.601131 0.561700 0.186087
O O7 0.693856 0.569175 0.310351
O O8 0.082129 0.250000 0.794969
O O9 0.151169 0.999443 0.828071
O O10 0.000000 0.000000 0.798121
O O11 0.500000 0.500000 0.076641
O O12 0.563257 0.750000 0.078862
O O13 0.658357 0.526665 0.052665
O O14 0.205095 0.250000 0.380205
O O15 0.253233 0.999731 0.437630
O O16 0.249198 0.250000 0.005787
#
# Coordination Sequence:
#
# PCOD8181058 Si02
#       6
#     8   8   8   8   8   8
#     4   9  17  30  50  74  96 124 165 204 240 291
#     4   8  16  31  49  70  96 126 160 200 245 294
#     4  10  20  34  53  77 104 132 166 208 252 298
#     4   9  18  32  50  72  98 129 166 209 255 301
#     4  10  19  33  54  76 101 134 171 208 251 304
#     4  10  20  34  51  73 103 135 169 209 253 302
#
# _framework density 17.560744
#
# number of rings (size 3 to 8) (size 9 to 14) (size 15 to 20)
#    0.000    2.667    0.000    3.000    0.000    6.000 
#    0.000    1.667    0.000    6.000    0.000    0.000 
#    0.000    0.000    0.000    0.000    0.000    0.000 
#
# Total GULP energy -297355.551172 kJ/mol
# GULP energy per Si atom -12389.814632 kJ/mol
# Density = 1.752077 g / cm^3
# Si number density = 17.560744 Si / 1000 Ang^3
#
#
#
# Elastic Constant Matrix: (Units=GPa)
#
#
# Indices 1 2 3 4 5 6 
#
# 1 79.3769 45.5521 44.4853 0.0000 0.0000 0.0000
# 2 45.5521 101.0672 60.2262 0.0000 0.0000 0.0000
# 3 44.4853 60.2262 128.5920 0.0000 0.0000 0.0000
# 4 0.0000 0.0000 0.0000 31.8875 0.0000 0.0000
# 5 0.0000 0.0000 0.0000 0.0000 16.8019 0.0000
# 6 0.0000 0.0000 0.0000 0.0000 0.0000 25.7885
#
#
#
# Elastic Compliance Matrix: (Units=1/GPa)
#
#
# Indices 1 2 3 4 5 6 
#
# 1 0.017985 -0.006101 -0.003364 0.000000 0.000000 0.000000
# 2 -0.006101 0.015795 -0.005287 0.000000 0.000000 0.000000
# 3 -0.003364 -0.005287 0.011416 0.000000 0.000000 0.000000
# 4 0.000000 0.000000 0.000000 0.031360 0.000000 0.000000
# 5 0.000000 0.000000 0.000000 0.000000 0.059517 0.000000
# 6 0.000000 0.000000 0.000000 0.000000 0.000000 0.038777
#
#
# Mechanical properties :
#
#
# Convention : Reuss Voigt Hill
#
# Bulk Modulus (GPa) = 63.72863 67.72927 65.72895
# Shear Modulus (GPa) = 23.85666 25.48043 24.66855
#
# Velocity S-wave (km/s) = 3.68981 3.81332 3.75207
# Velocity P-wave (km/s) = 7.38391 7.61845 7.50210
#
# Compressibility (1/GPa) = 0.01569153
#
# Stress axis : x y z
#
# Youngs Moduli (GPa) = 55.60238 63.31231 87.59317
#
# Poissons Ratio (x) = 0.38628 0.29468
# Poissons Ratio (y) = 0.33924 0.46309
# Poissons Ratio (z) = 0.18706 0.33472
#
# Static dielectric constant tensor:
#      x y z
#    x 3.085410 0.000000 0.000000 
#    y 0.000000 3.361830 0.000000 
#    z 0.000000 0.000000 3.365110 
# 
# 
# High freq. dielectric constant tensor:
#      x y z
#    x 1.645740 0.000000 0.000000 
#    y 0.000000 1.693250 0.000000 
#    z 0.000000 0.000000 1.675840 
# 
# From -- ./inp_files/12650.got.cif
#   From: 2010.03.12/outbox.cif.g09.slc.cpg/sg39_7_cif.got.tgz:12650.got - 2010.04.14 02:53:20.
