data_PCOD8181005
_publ_section_title
;
Structure prediction by ZEFSAII (Michael W. Deem and Ramdas Pophale) SiO2 
 PCOD8181005
Probable space group: A B M 2
;
_chemical_formula_sum "Si O2"
_cell_formula_units_Z 64
_cell_length_a 14.478247
_cell_length_b 9.021992
_cell_length_c 24.504534
_cell_angle_alpha 90.000000
_cell_angle_beta 90.000000
_cell_angle_gamma 90.000000
_cell_volume 3200.846644
_symmetry_space_group_name_H-M "A B M 2"
_symmetry_group_IT_number 39
_symmetry_cell_setting 'orthorhombic'
loop_
_space_group_symop_operation_xyz
x,y,z
-x,-y,z
-x,1/2+y,z
x,1/2-y,z
x,1/2+y,1/2+z
-x,1/2-y,1/2+z
-x,y,1/2+z
x,-y,1/2+z
loop_
_atom_site_type_symbol
_atom_site_label
_atom_site_fract_x
_atom_site_fract_y
_atom_site_fract_z
Si Si1 0.132616 0.418818 0.959380
Si Si2 0.707891 0.577068 0.319058
Si Si3 0.340841 0.083663 0.926384
Si Si4 0.909131 0.074375 0.073016
Si Si5 0.282711 0.581936 0.120605
Si Si6 0.400168 0.575742 0.710339
Si Si7 0.584394 0.917874 0.524490
Si Si8 0.088694 0.575536 0.848631
O O1 0.094567 0.250000 0.959435
O O2 0.241903 0.418448 0.954549
O O3 0.090653 0.509682 0.909344
O O4 0.103999 0.500772 0.014259
O O5 0.696844 0.750000 0.331656
O O6 0.658382 0.488399 0.366929
O O7 0.656717 0.529517 0.263961
O O8 0.817084 0.535819 0.315959
O O9 0.378554 0.250000 0.920386
O O10 0.407102 0.991142 0.965272
O O11 0.920360 0.250000 0.065713
O O12 0.824710 0.038259 0.114242
O O13 0.000000 0.000000 0.099940
O O14 0.294354 0.750000 0.142399
O O15 0.336289 0.471823 0.160110
O O16 0.323546 0.567265 0.059885
O O17 0.500000 0.500000 0.709240
O O18 0.416617 0.750000 0.706924
O O19 0.555490 0.750000 0.515509
O O20 0.500000 0.000000 0.555655
O O21 0.073487 0.750000 0.851673
O O22 0.000000 0.500000 0.818612
#
# Coordination Sequence:
#
# PCOD8181005 Si02
#       8
#     8   8   8   8   8   8   8   8
#     4  10  19  32  52  81 117 158 201 240 285 342
#     4   9  21  40  60  84 117 157 196 241 296 354
#     4  10  20  34  56  86 119 156 195 240 293 348
#     4  11  22  37  57  85 119 158 200 241 292 348
#     4  10  23  42  63  87 118 155 197 246 298 350
#     4  11  24  43  68  92 115 149 197 249 303 358
#     4  11  22  37  57  84 118 155 193 237 294 358
#     4  10  19  33  54  81 117 157 199 241 288 345
#
# _framework density 19.994710000000001
#
# number of rings (size 3 to 8) (size 9 to 14) (size 15 to 20)
#    0.000    1.750    1.250    3.000    0.000    6.000 
#    0.000    1.875    0.000    3.000    0.000    0.000 
#    0.000    0.000    0.000    0.000    0.000    0.000 
#
# Total GULP energy -396802.643867 kJ/mol
# GULP energy per Si atom -12400.082621 kJ/mol
# Density = 1.994920 g / cm^3
# Si number density = 19.994710 Si / 1000 Ang^3
#
#
#
# Elastic Constant Matrix: (Units=GPa)
#
#
# Indices 1 2 3 4 5 6 
#
# 1 131.8890 59.8645 53.3948 0.0000 0.0000 0.0000
# 2 59.8645 118.1400 54.9552 0.0000 0.0000 0.0000
# 3 53.3948 54.9552 88.0631 0.0000 0.0000 0.0000
# 4 0.0000 0.0000 0.0000 26.2744 0.0000 0.0000
# 5 0.0000 0.0000 0.0000 0.0000 21.5850 0.0000
# 6 0.0000 0.0000 0.0000 0.0000 0.0000 36.4714
#
#
#
# Elastic Compliance Matrix: (Units=1/GPa)
#
#
# Indices 1 2 3 4 5 6 
#
# 1 0.010976 -0.003475 -0.004486 0.000000 0.000000 0.000000
# 2 -0.003475 0.013027 -0.006022 0.000000 0.000000 0.000000
# 3 -0.004486 -0.006022 0.017834 0.000000 0.000000 0.000000
# 4 0.000000 0.000000 0.000000 0.038060 0.000000 0.000000
# 5 0.000000 0.000000 0.000000 0.000000 0.046328 0.000000
# 6 0.000000 0.000000 0.000000 0.000000 0.000000 0.027419
#
#
# Mechanical properties :
#
#
# Convention : Reuss Voigt Hill
#
# Bulk Modulus (GPa) = 72.10219 74.94678 73.52448
# Shear Modulus (GPa) = 26.84803 28.19134 27.51969
#
# Velocity S-wave (km/s) = 3.66834 3.75899 3.71394
# Velocity P-wave (km/s) = 7.35399 7.51031 7.43256
#
# Compressibility (1/GPa) = 0.01386920
#
# Stress axis : x y z
#
# Youngs Moduli (GPa) = 91.11112 76.76541 56.07267
#
# Poissons Ratio (x) = 0.26673 0.25157
# Poissons Ratio (y) = 0.31658 0.33769
# Poissons Ratio (z) = 0.40876 0.46232
#
# Static dielectric constant tensor:
#      x y z
#    x 4.053870 0.000000 0.000000 
#    y 0.000000 3.742320 0.000000 
#    z 0.000000 0.000000 3.325390 
# 
# 
# High freq. dielectric constant tensor:
#      x y z
#    x 1.798280 0.000000 0.000000 
#    y 0.000000 1.791970 0.000000 
#    z 0.000000 0.000000 1.750830 
# 
# From -- ./inp_files/16205.got.cif
#   From: 2010.03.12/outbox.cif.g09.slc.cpg/sg39_9_cif.got.tgz:16205.got - 2010.04.14 02:53:20.
