data_PCOD8181475
_publ_section_title
;
Structure prediction by ZEFSAII (Michael W. Deem and Ramdas Pophale) SiO2 
 PCOD8181475
Probable space group: A B M 2
;
_chemical_formula_sum "Si O2"
_cell_formula_units_Z 64
_cell_length_a 20.022058
_cell_length_b 18.262917
_cell_length_c 9.084644
_cell_angle_alpha 90.000000
_cell_angle_beta 90.000000
_cell_angle_gamma 90.000000
_cell_volume 3321.901676
_symmetry_space_group_name_H-M "A B M 2"
_symmetry_group_IT_number 39
_symmetry_cell_setting 'orthorhombic'
loop_
_space_group_symop_operation_xyz
x,y,z
-x,-y,z
-x,1/2+y,z
x,1/2-y,z
x,1/2+y,1/2+z
-x,1/2-y,1/2+z
-x,y,1/2+z
x,-y,1/2+z
loop_
_atom_site_type_symbol
_atom_site_label
_atom_site_fract_x
_atom_site_fract_y
_atom_site_fract_z
Si Si1 0.447219 0.163411 0.026110
Si Si2 0.945060 0.666603 0.185627
Si Si3 0.334291 0.584000 0.695540
Si Si4 0.969316 0.080792 0.970155
Si Si5 0.680316 0.931517 0.536842
Si Si6 0.577346 0.836806 0.695206
Si Si7 0.187200 0.094426 0.160220
Si Si8 0.825832 0.458712 0.978360
O O1 0.446788 0.250000 0.025906
O O2 0.390493 0.138123 0.138170
O O3 0.517976 0.135083 0.089036
O O4 0.435756 0.133503 0.860792
O O5 0.961334 0.750000 0.230640
O O6 0.967285 0.606028 0.302314
O O7 0.865129 0.661315 0.157289
O O8 0.986839 0.643907 0.043615
O O9 0.339797 0.508512 0.607348
O O10 0.263166 0.623639 0.662810
O O11 0.344780 0.570226 0.868715
O O12 0.893795 0.080030 0.036044
O O13 0.000000 0.000000 0.981648
O O14 0.646593 0.867920 0.632625
O O15 0.760472 0.918940 0.546287
O O16 0.583255 0.750000 0.695316
O O17 0.176465 0.042601 0.302028
O O18 0.173947 0.044362 0.018012
#
# Coordination Sequence:
#
# PCOD8181475 Si02
#       8
#     8   8   8   8   8   8   8   8
#     4  10  21  37  58  83 112 149 194 237 284 353
#     4  11  23  37  54  85 120 148 187 248 301 344
#     4  10  20  35  57  83 112 148 186 235 285 338
#     4  11  21  37  61  83 108 155 202 235 286 357
#     4  10  20  36  56  84 114 146 187 238 289 335
#     4  10  21  38  58  82 113 150 191 238 290 347
#     4   9  19  35  55  79 109 146 184 233 284 344
#     4   9  19  34  56  84 105 141 195 235 271 341
#
# _framework density 19.266072000000001
#
# number of rings (size 3 to 8) (size 9 to 14) (size 15 to 20)
#    0.000    2.000    1.250    2.250    1.750    3.500 
#    0.000    8.125    0.000    1.500    0.000    0.000 
#    0.000    0.000    0.000    0.000    0.000    0.000 
#
# Total GULP energy -396735.246368 kJ/mol
# GULP energy per Si atom -12397.976449 kJ/mol
# Density = 1.922222 g / cm^3
# Si number density = 19.266072 Si / 1000 Ang^3
#
#
#
# Elastic Constant Matrix: (Units=GPa)
#
#
# Indices 1 2 3 4 5 6 
#
# 1 124.6686 36.5835 45.9797 0.0000 0.0000 0.0000
# 2 36.5835 49.6841 26.1026 0.0000 0.0000 0.0000
# 3 45.9797 26.1026 90.8430 0.0000 0.0000 0.0000
# 4 0.0000 0.0000 0.0000 28.8129 0.0000 0.0000
# 5 0.0000 0.0000 0.0000 0.0000 30.2655 0.0000
# 6 0.0000 0.0000 0.0000 0.0000 0.0000 30.1678
#
#
#
# Elastic Compliance Matrix: (Units=1/GPa)
#
#
# Indices 1 2 3 4 5 6 
#
# 1 0.011306 -0.006264 -0.003923 0.000000 0.000000 0.000000
# 2 -0.006264 0.027176 -0.004638 0.000000 0.000000 0.000000
# 3 -0.003923 -0.004638 0.014326 0.000000 0.000000 0.000000
# 4 0.000000 0.000000 0.000000 0.034707 0.000000 0.000000
# 5 0.000000 0.000000 0.000000 0.000000 0.033041 0.000000
# 6 0.000000 0.000000 0.000000 0.000000 0.000000 0.033148
#
#
# Mechanical properties :
#
#
# Convention : Reuss Voigt Hill
#
# Bulk Modulus (GPa) = 43.18032 53.61415 48.39723
# Shear Modulus (GPa) = 26.16789 28.28458 27.22623
#
# Velocity S-wave (km/s) = 3.68942 3.83574 3.76329
# Velocity P-wave (km/s) = 6.37263 6.89245 6.63763
#
# Compressibility (1/GPa) = 0.02315870
#
# Stress axis : x y z
#
# Youngs Moduli (GPa) = 88.44706 36.79661 69.80237
#
# Poissons Ratio (x) = 0.23050 0.27381
# Poissons Ratio (y) = 0.55405 0.32376
# Poissons Ratio (z) = 0.34695 0.17067
#
# Static dielectric constant tensor:
#      x y z
#    x 3.856820 0.000000 0.000000 
#    y 0.000000 3.127560 0.000000 
#    z 0.000000 0.000000 3.642050 
# 
# 
# High freq. dielectric constant tensor:
#      x y z
#    x 1.766260 0.000000 0.000000 
#    y 0.000000 1.719800 0.000000 
#    z 0.000000 0.000000 1.756730 
# 
# From -- ./inp_files/4012.got.cif
#   From: 2010.03.12/outbox.cif.g09.slc.cpg/sg39_3_cif.got.tgz:4012.got - 2010.04.14 02:53:20.
