data_PCOD8181402
_publ_section_title
;
Structure prediction by ZEFSAII (Michael W. Deem and Ramdas Pophale) SiO2 
 PCOD8181402
Probable space group: A B M 2
;
_chemical_formula_sum "Si O2"
_cell_formula_units_Z 64
_cell_length_a 14.150349
_cell_length_b 9.005681
_cell_length_c 25.387792
_cell_angle_alpha 90.000000
_cell_angle_beta 90.000000
_cell_angle_gamma 90.000000
_cell_volume 3235.255931
_symmetry_space_group_name_H-M "A B M 2"
_symmetry_group_IT_number 39
_symmetry_cell_setting 'orthorhombic'
loop_
_space_group_symop_operation_xyz
x,y,z
-x,-y,z
-x,1/2+y,z
x,1/2-y,z
x,1/2+y,1/2+z
-x,1/2-y,1/2+z
-x,y,1/2+z
x,-y,1/2+z
loop_
_atom_site_type_symbol
_atom_site_label
_atom_site_fract_x
_atom_site_fract_y
_atom_site_fract_z
Si Si1 0.217053 0.919811 0.637190
Si Si2 0.776584 0.424099 0.948304
Si Si3 0.400144 0.423387 0.193431
Si Si4 0.600597 0.576604 0.912011
Si Si5 0.600606 0.076252 0.294365
Si Si6 0.094587 0.421816 0.235798
Si Si7 0.898134 0.575195 0.548240
Si Si8 0.903824 0.424231 0.853074
O O1 0.194680 0.750000 0.620892
O O2 0.329797 0.945909 0.643534
O O3 0.175938 0.957274 0.694612
O O4 0.171941 0.028878 0.594928
O O5 0.755409 0.250000 0.951657
O O6 0.676784 0.509776 0.952796
O O7 0.822211 0.472494 0.893007
O O8 0.847530 0.474448 0.994356
O O9 0.500000 0.500000 0.179524
O O10 0.416363 0.250000 0.204573
O O11 0.347723 0.495489 0.245210
O O12 0.500000 0.500000 0.921237
O O13 0.587118 0.750000 0.922817
O O14 0.641441 0.546759 0.852795
O O15 0.593192 0.250000 0.282532
O O16 0.500000 0.000000 0.292717
O O17 0.070441 0.250000 0.238994
O O18 0.124902 0.478206 0.294228
O O19 0.000000 0.500000 0.215768
O O20 0.914278 0.750000 0.550656
O O21 0.000000 0.500000 0.553570
O O22 0.920696 0.250000 0.856205
O O23 0.000000 0.500000 0.871733
#
# Coordination Sequence:
#
# PCOD8181402 Si02
#       8
#     8   8   8   8   8   8   8   8
#     4  10  22  38  58  84 112 150 198 239 289 346
#     4  10  22  38  59  85 113 150 195 238 289 344
#     4  10  20  34  55  82 115 154 195 239 288 342
#     4  10  21  36  56  84 118 156 196 239 285 339
#     4   9  17  30  49  77 112 151 192 231 278 333
#     4   9  18  33  52  78 109 142 180 224 282 344
#     4  11  24  42  64  89 115 149 192 241 293 345
#     4   9  18  33  54  79 111 146 180 229 285 343
#
# _framework density 19.782052
#
# number of rings (size 3 to 8) (size 9 to 14) (size 15 to 20)
#    0.000    2.250    0.000    3.000    1.750    5.500 
#    0.000    0.625    0.000    1.500    0.000    0.000 
#    0.000    0.000    0.000    0.000    0.000    0.000 
#
# Total GULP energy -396653.898040 kJ/mol
# GULP energy per Si atom -12395.434314 kJ/mol
# Density = 1.973703 g / cm^3
# Si number density = 19.782052 Si / 1000 Ang^3
#
#
#
# Elastic Constant Matrix: (Units=GPa)
#
#
# Indices 1 2 3 4 5 6 
#
# 1 109.8919 50.5185 50.0778 0.0000 0.0000 0.0000
# 2 50.5185 81.9745 44.9571 0.0000 0.0000 0.0000
# 3 50.0778 44.9571 75.2447 0.0000 0.0000 0.0000
# 4 0.0000 0.0000 0.0000 27.1087 0.0000 0.0000
# 5 0.0000 0.0000 0.0000 0.0000 53.5206 0.0000
# 6 0.0000 0.0000 0.0000 0.0000 0.0000 31.0404
#
#
#
# Elastic Compliance Matrix: (Units=1/GPa)
#
#
# Indices 1 2 3 4 5 6 
#
# 1 0.014521 -0.005427 -0.006422 0.000000 0.000000 0.000000
# 2 -0.005427 0.020173 -0.008441 0.000000 0.000000 0.000000
# 3 -0.006422 -0.008441 0.022607 0.000000 0.000000 0.000000
# 4 0.000000 0.000000 0.000000 0.036888 0.000000 0.000000
# 5 0.000000 0.000000 0.000000 0.000000 0.018684 0.000000
# 6 0.000000 0.000000 0.000000 0.000000 0.000000 0.032216
#
#
# Mechanical properties :
#
#
# Convention : Reuss Voigt Hill
#
# Bulk Modulus (GPa) = 59.80299 62.02419 60.91359
# Shear Modulus (GPa) = 26.14477 30.43780 28.29129
#
# Velocity S-wave (km/s) = 3.63938 3.92683 3.78583
# Velocity P-wave (km/s) = 6.92508 7.20984 7.06889
#
# Compressibility (1/GPa) = 0.01672157
#
# Stress axis : x y z
#
# Youngs Moduli (GPa) = 68.86523 49.57204 44.23401
#
# Poissons Ratio (x) = 0.26903 0.28406
# Poissons Ratio (y) = 0.37374 0.37337
# Poissons Ratio (z) = 0.44223 0.41843
#
# Static dielectric constant tensor:
#      x y z
#    x 1.676360 0.000000 0.000000 
#    y 0.000000 3.593580 0.000000 
#    z 0.000000 0.000000 3.923560 
# 
# 
# High freq. dielectric constant tensor:
#      x y z
#    x 1.769400 0.000000 0.000000 
#    y 0.000000 1.771910 0.000000 
#    z 0.000000 0.000000 1.760110 
# 
# From -- ./inp_files/16225.got.cif
#   From: 2010.03.12/outbox.cif.g09.slc.cpg/sg39_9_cif.got.tgz:16225.got - 2010.04.14 02:53:20.
