data_PCOD8181476
_publ_section_title
;
Structure prediction by ZEFSAII (Michael W. Deem and Ramdas Pophale) SiO2 
 PCOD8181476
Probable space group: A B M 2
;
_chemical_formula_sum "Si O2"
_cell_formula_units_Z 64
_cell_length_a 9.053840
_cell_length_b 18.584397
_cell_length_c 20.373660
_cell_angle_alpha 90.000000
_cell_angle_beta 90.000000
_cell_angle_gamma 90.000000
_cell_volume 3428.075229
_symmetry_space_group_name_H-M "A B M 2"
_symmetry_group_IT_number 39
_symmetry_cell_setting 'orthorhombic'
loop_
_space_group_symop_operation_xyz
x,y,z
-x,-y,z
-x,1/2+y,z
x,1/2-y,z
x,1/2+y,1/2+z
-x,1/2-y,1/2+z
-x,y,1/2+z
x,-y,1/2+z
loop_
_atom_site_type_symbol
_atom_site_label
_atom_site_fract_x
_atom_site_fract_y
_atom_site_fract_z
Si Si1 0.080524 0.922297 0.727050
Si Si2 0.692589 0.931956 0.112501
Si Si3 0.818938 0.589836 0.475274
Si Si4 0.360605 0.901295 0.102894
Si Si5 0.802362 0.166054 0.219006
Si Si6 0.137133 0.169616 0.349755
Si Si7 0.207691 0.828776 0.363494
Si Si8 0.832953 0.575089 0.979248
O O1 0.218089 0.916413 0.678330
O O2 0.150909 0.890832 0.793573
O O3 0.955598 0.870266 0.698553
O O4 0.000000 0.000000 0.736726
O O5 0.536370 0.892375 0.104214
O O6 0.681461 0.017106 0.114249
O O7 0.780683 0.901894 0.050738
O O8 0.723365 0.622502 0.535922
O O9 0.774377 0.638060 0.412464
O O10 0.783027 0.506230 0.463620
O O11 0.994512 0.592162 0.484579
O O12 0.315025 0.851377 0.163497
O O13 0.833402 0.250000 0.224530
O O14 0.747687 0.139288 0.291552
O O15 0.199413 0.250000 0.331390
O O16 0.967359 0.178334 0.367218
O O17 0.280368 0.750000 0.374074
O O18 0.254374 0.880833 0.422821
#
# Coordination Sequence:
#
# PCOD8181476 Si02
#       8
#     8   8   8   8   8   8   8   8
#     4  11  20  33  60  86 111 146 189 240 287 339
#     4  10  21  35  54  81 113 143 189 243 278 328
#     4   9  18  30  55  78 106 143 182 221 278 338
#     4  10  20  37  53  78 113 151 188 231 284 337
#     4  10  20  35  57  83 114 148 186 231 284 346
#     4   9  19  33  51  82 115 139 177 236 286 333
#     4   8  16  31  51  78 107 136 174 228 281 325
#     4   9  17  30  52  80 106 134 182 230 272 332
#
# _framework density 18.669370000000001
#
# number of rings (size 3 to 8) (size 9 to 14) (size 15 to 20)
#    0.000    2.500    1.250    1.875    7.000    0.500 
#    0.000    6.875    0.000    4.500    0.000    0.000 
#    0.000    0.000    0.000    0.000    0.000    0.000 
#
# Total GULP energy -396448.507650 kJ/mol
# GULP energy per Si atom -12389.015864 kJ/mol
# Density = 1.862688 g / cm^3
# Si number density = 18.669370 Si / 1000 Ang^3
#
#
#
# Elastic Constant Matrix: (Units=GPa)
#
#
# Indices 1 2 3 4 5 6 
#
# 1 47.4876 32.7123 43.4684 0.0000 0.0000 0.0000
# 2 32.7123 75.8688 68.5251 0.0000 0.0000 0.0000
# 3 43.4684 68.5251 154.3000 0.0000 0.0000 0.0000
# 4 0.0000 0.0000 0.0000 24.8287 0.0000 0.0000
# 5 0.0000 0.0000 0.0000 0.0000 5.4879 0.0000
# 6 0.0000 0.0000 0.0000 0.0000 0.0000 13.9605
#
#
#
# Elastic Compliance Matrix: (Units=1/GPa)
#
#
# Indices 1 2 3 4 5 6 
#
# 1 0.031964 -0.009432 -0.004816 0.000000 0.000000 0.000000
# 2 -0.009432 0.024792 -0.008353 0.000000 0.000000 0.000000
# 3 -0.004816 -0.008353 0.011547 0.000000 0.000000 0.000000
# 4 0.000000 0.000000 0.000000 0.040276 0.000000 0.000000
# 5 0.000000 0.000000 0.000000 0.000000 0.182219 0.000000
# 6 0.000000 0.000000 0.000000 0.000000 0.000000 0.071631
#
#
# Mechanical properties :
#
#
# Convention : Reuss Voigt Hill
#
# Bulk Modulus (GPa) = 43.28817 63.00754 53.14785
# Shear Modulus (GPa) = 12.03858 17.71878 14.87868
#
# Velocity S-wave (km/s) = 2.54211 3.08406 2.82610
# Velocity P-wave (km/s) = 5.64389 6.81941 6.25931
#
# Compressibility (1/GPa) = 0.02310100
#
# Stress axis : x y z
#
# Youngs Moduli (GPa) = 31.28545 40.33562 86.60133
#
# Poissons Ratio (x) = 0.38045 0.41705
# Poissons Ratio (y) = 0.29509 0.72338
# Poissons Ratio (z) = 0.15066 0.33692
#
# Static dielectric constant tensor:
#      x y z
#    x 3.145650 0.000000 0.000000 
#    y 0.000000 3.567530 0.000000 
#    z 0.000000 0.000000 3.692800 
# 
# 
# High freq. dielectric constant tensor:
#      x y z
#    x 1.687160 0.000000 0.000000 
#    y 0.000000 1.719130 0.000000 
#    z 0.000000 0.000000 1.737570 
# 
# From -- ./inp_files/14211.got.cif
#   From: 2010.03.12/outbox.cif.g09.slc.cpg/sg39_8_cif.got.tgz:14211.got - 2010.04.14 02:53:20.
