data_PCOD8181899
_publ_section_title
;
Structure prediction by ZEFSAII (Michael W. Deem and Ramdas Pophale) SiO2 
 PCOD8181899
Probable space group: A B M 2
;
_chemical_formula_sum "Si O2"
_cell_formula_units_Z 64
_cell_length_a 9.604251
_cell_length_b 24.339303
_cell_length_c 13.885136
_cell_angle_alpha 90.000000
_cell_angle_beta 90.000000
_cell_angle_gamma 90.000000
_cell_volume 3245.800155
_symmetry_space_group_name_H-M "A B M 2"
_symmetry_group_IT_number 39
_symmetry_cell_setting 'orthorhombic'
loop_
_space_group_symop_operation_xyz
x,y,z
-x,-y,z
-x,1/2+y,z
x,1/2-y,z
x,1/2+y,1/2+z
-x,1/2-y,1/2+z
-x,y,1/2+z
x,-y,1/2+z
loop_
_atom_site_type_symbol
_atom_site_label
_atom_site_fract_x
_atom_site_fract_y
_atom_site_fract_z
Si Si1 0.105817 0.311581 0.965640
Si Si2 0.253069 0.899663 0.158844
Si Si3 0.320320 0.890535 0.375418
Si Si4 0.614831 0.380319 0.963254
Si Si5 0.167083 0.312885 0.349589
Si Si6 0.343700 0.510366 0.866164
Si Si7 0.848748 0.483856 0.694911
Si Si8 0.062012 0.368896 0.157765
O O1 0.163442 0.250000 0.953283
O O2 0.194231 0.351111 0.898514
O O3 0.947474 0.316461 0.932727
O O4 0.115889 0.327751 0.076751
O O5 0.337286 0.891381 0.258932
O O6 0.105449 0.868576 0.161898
O O7 0.221976 0.964726 0.139267
O O8 0.350772 0.872444 0.076479
O O9 0.454700 0.870119 0.434614
O O10 0.283309 0.952984 0.407674
O O11 0.694708 0.337766 0.895788
O O12 0.657874 0.443566 0.947641
O O13 0.194614 0.250000 0.318503
O O14 0.120500 0.348108 0.258561
O O15 0.500000 0.500000 0.826884
O O16 0.249547 0.534200 0.781660
O O17 0.873767 0.429096 0.631016
O O18 0.000000 0.500000 0.737691
#
# Coordination Sequence:
#
# PCOD8181899 Si02
#       8
#     8   8   8   8   8   8   8   8
#     4  11  24  41  63  89 120 164 214 257 303 369
#     4  10  21  39  60  94 131 160 201 254 314 379
#     4  10  23  42  62  90 129 165 203 251 314 370
#     4  11  22  40  63  93 126 165 207 249 310 375
#     4  11  23  40  64  90 122 162 211 262 305 362
#     4   9  19  37  58  89 125 161 196 244 308 368
#     4   9  19  34  58  89 122 161 202 246 304 366
#     4  11  20  39  64  92 123 162 207 264 307 358
#
# _framework density 19.717787000000001
#
# number of rings (size 3 to 8) (size 9 to 14) (size 15 to 20)
#    0.000    1.750    3.750    0.375    1.750    1.500 
#    2.250    3.750    0.000    0.000    0.000    0.000 
#    0.000    0.000    0.000    0.000    0.000    0.000 
#
# Total GULP energy -396680.359592 kJ/mol
# GULP energy per Si atom -12396.261237 kJ/mol
# Density = 1.967291 g / cm^3
# Si number density = 19.717787 Si / 1000 Ang^3
#
#
#
# Elastic Constant Matrix: (Units=GPa)
#
#
# Indices 1 2 3 4 5 6 
#
# 1 63.2891 28.5606 16.4268 0.0000 0.0000 0.0000
# 2 28.5606 92.8282 13.9845 0.0000 0.0000 0.0000
# 3 16.4268 13.9845 78.7526 0.0000 0.0000 0.0000
# 4 0.0000 0.0000 0.0000 27.0119 0.0000 0.0000
# 5 0.0000 0.0000 0.0000 0.0000 29.5165 0.0000
# 6 0.0000 0.0000 0.0000 0.0000 0.0000 25.7335
#
#
#
# Elastic Compliance Matrix: (Units=1/GPa)
#
#
# Indices 1 2 3 4 5 6 
#
# 1 0.019017 -0.005398 -0.003008 0.000000 0.000000 0.000000
# 2 -0.005398 0.012601 -0.001112 0.000000 0.000000 0.000000
# 3 -0.003008 -0.001112 0.013523 0.000000 0.000000 0.000000
# 4 0.000000 0.000000 0.000000 0.037021 0.000000 0.000000
# 5 0.000000 0.000000 0.000000 0.000000 0.033879 0.000000
# 6 0.000000 0.000000 0.000000 0.000000 0.000000 0.038860
#
#
# Mechanical properties :
#
#
# Convention : Reuss Voigt Hill
#
# Bulk Modulus (GPa) = 38.30626 39.20152 38.75389
# Shear Modulus (GPa) = 27.37651 28.17889 27.77770
#
# Velocity S-wave (km/s) = 3.73019 3.78446 3.75742
# Velocity P-wave (km/s) = 6.16619 6.24665 6.20655
#
# Compressibility (1/GPa) = 0.02610539
#
# Stress axis : x y z
#
# Youngs Moduli (GPa) = 52.58395 79.35985 73.94872
#
# Poissons Ratio (x) = 0.42837 0.22246
# Poissons Ratio (y) = 0.28384 0.08221
# Poissons Ratio (z) = 0.15819 0.08822
#
# Static dielectric constant tensor:
#      x y z
#    x 3.506330 0.000000 0.000000 
#    y 0.000000 3.721120 0.000000 
#    z 0.000000 0.000000 3.355290 
# 
# 
# High freq. dielectric constant tensor:
#      x y z
#    x 1.763210 0.000000 0.000000 
#    y 0.000000 1.770830 0.000000 
#    z 0.000000 0.000000 1.756560 
# 
# From -- ./inp_files/8785.got.cif
#   From: 2010.03.12/outbox.cif.g09.slc.cpg/sg39_5_cif.got.tgz:8785.got - 2010.04.14 02:53:20.
