data_PCOD8181172
_publ_section_title
;
Structure prediction by ZEFSAII (Michael W. Deem and Ramdas Pophale) SiO2 
 PCOD8181172
Probable space group: A B M 2
;
_chemical_formula_sum "Si O2"
_cell_formula_units_Z 64
_cell_length_a 10.692792
_cell_length_b 18.634597
_cell_length_c 16.397986
_cell_angle_alpha 90.000000
_cell_angle_beta 90.000000
_cell_angle_gamma 90.000000
_cell_volume 3267.394962
_symmetry_space_group_name_H-M "A B M 2"
_symmetry_group_IT_number 39
_symmetry_cell_setting 'orthorhombic'
loop_
_space_group_symop_operation_xyz
x,y,z
-x,-y,z
-x,1/2+y,z
x,1/2-y,z
x,1/2+y,1/2+z
-x,1/2-y,1/2+z
-x,y,1/2+z
x,-y,1/2+z
loop_
_atom_site_type_symbol
_atom_site_label
_atom_site_fract_x
_atom_site_fract_y
_atom_site_fract_z
Si Si1 0.933124 0.571360 0.430770
Si Si2 0.742456 0.406521 0.251148
Si Si3 0.349843 0.328883 0.055525
Si Si4 0.067869 0.928455 0.112115
Si Si5 0.120855 0.328087 0.169561
Si Si6 0.521498 0.083821 0.688082
Si Si7 0.238488 0.071127 0.289601
Si Si8 0.172495 0.334366 0.912004
O O1 0.882508 0.555269 0.521528
O O2 0.805264 0.590208 0.381511
O O3 0.000000 0.500000 0.394441
O O4 0.036174 0.633754 0.430184
O O5 0.820274 0.402381 0.168556
O O6 0.602446 0.383022 0.227591
O O7 0.756948 0.486136 0.284792
O O8 0.789014 0.351580 0.319507
O O9 0.409316 0.250000 0.035387
O O10 0.250213 0.316755 0.125691
O O11 0.450419 0.382024 0.098338
O O12 0.281452 0.362420 0.975052
O O13 0.976444 0.860114 0.104903
O O14 0.000000 0.000000 0.146747
O O15 0.076930 0.250000 0.204086
O O16 0.129289 0.389141 0.238846
O O17 0.628073 0.099820 0.756832
O O18 0.500000 0.000000 0.671739
O O19 0.160769 0.250000 0.925111
#
# Coordination Sequence:
#
# PCOD8181172 Si02
#       8
#     8   8   8   8   8   8   8   8
#     4  11  22  35  58  89 119 157 200 244 313 373
#     4  11  22  39  58  89 122 159 206 256 300 359
#     4   9  19  39  62  86 120 161 201 248 305 366
#     4  11  22  35  57  86 125 158 192 251 313 367
#     4  10  19  34  59  85 112 154 200 241 306 373
#     4   9  21  39  61  87 121 160 212 253 292 360
#     4  10  20  38  58  83 122 158 198 250 301 356
#     4  11  23  39  62  91 123 157 201 255 311 373
#
# _framework density 19.587468999999999
#
# number of rings (size 3 to 8) (size 9 to 14) (size 15 to 20)
#    0.000    1.750    3.750    0.750    0.000    2.500 
#    2.250    0.625    0.000    0.000    0.000    0.000 
#    0.000    0.000    0.000    0.000    0.000    0.000 
#
# Total GULP energy -396474.288741 kJ/mol
# GULP energy per Si atom -12389.821523 kJ/mol
# Density = 1.954289 g / cm^3
# Si number density = 19.587469 Si / 1000 Ang^3
#
#
#
# Elastic Constant Matrix: (Units=GPa)
#
#
# Indices 1 2 3 4 5 6 
#
# 1 80.8609 41.3263 52.0095 0.0000 0.0000 0.0000
# 2 41.3263 72.2858 26.3385 0.0000 0.0000 0.0000
# 3 52.0095 26.3385 116.1102 0.0000 0.0000 0.0000
# 4 0.0000 0.0000 0.0000 26.4049 0.0000 0.0000
# 5 0.0000 0.0000 0.0000 0.0000 33.7613 0.0000
# 6 0.0000 0.0000 0.0000 0.0000 0.0000 22.2231
#
#
#
# Elastic Compliance Matrix: (Units=1/GPa)
#
#
# Indices 1 2 3 4 5 6 
#
# 1 0.022515 -0.010026 -0.007811 0.000000 0.000000 0.000000
# 2 -0.010026 0.019545 0.000057 0.000000 0.000000 0.000000
# 3 -0.007811 0.000057 0.012098 0.000000 0.000000 0.000000
# 4 0.000000 0.000000 0.000000 0.037872 0.000000 0.000000
# 5 0.000000 0.000000 0.000000 0.000000 0.029620 0.000000
# 6 0.000000 0.000000 0.000000 0.000000 0.000000 0.044998
#
#
# Mechanical properties :
#
#
# Convention : Reuss Voigt Hill
#
# Bulk Modulus (GPa) = 53.76569 56.51173 55.13871
# Shear Modulus (GPa) = 23.99159 26.45002 25.22080
#
# Velocity S-wave (km/s) = 3.50357 3.67870 3.59221
# Velocity P-wave (km/s) = 6.62384 6.85255 6.73917
#
# Compressibility (1/GPa) = 0.01859922
#
# Stress axis : x y z
#
# Youngs Moduli (GPa) = 44.41517 51.16406 82.65674
#
# Poissons Ratio (x) = 0.51297 0.64562
# Poissons Ratio (y) = 0.44530 -0.00474
# Poissons Ratio (z) = 0.34692 -0.00293
#
# Static dielectric constant tensor:
#      x y z
#    x 3.514570 0.000000 0.000000 
#    y 0.000000 3.840330 0.000000 
#    z 0.000000 0.000000 3.580910 
# 
# 
# High freq. dielectric constant tensor:
#      x y z
#    x 1.742440 0.000000 0.000000 
#    y 0.000000 1.759750 0.000000 
#    z 0.000000 0.000000 1.761620 
# 
# From -- ./inp_files/9448.got.cif
#   From: 2010.03.12/outbox.cif.g09.slc.cpg/sg39_5_cif.got.tgz:9448.got - 2010.04.14 02:53:20.
