data_PCOD8181361
_publ_section_title
;
Structure prediction by ZEFSAII (Michael W. Deem and Ramdas Pophale) SiO2 
 PCOD8181361
Probable space group: A B M 2
;
_chemical_formula_sum "Si O2"
_cell_formula_units_Z 64
_cell_length_a 20.038441
_cell_length_b 16.833557
_cell_length_c 9.964115
_cell_angle_alpha 90.000000
_cell_angle_beta 90.000000
_cell_angle_gamma 90.000000
_cell_volume 3361.077723
_symmetry_space_group_name_H-M "A B M 2"
_symmetry_group_IT_number 39
_symmetry_cell_setting 'orthorhombic'
loop_
_space_group_symop_operation_xyz
x,y,z
-x,-y,z
-x,1/2+y,z
x,1/2-y,z
x,1/2+y,1/2+z
-x,1/2-y,1/2+z
-x,y,1/2+z
x,-y,1/2+z
loop_
_atom_site_type_symbol
_atom_site_label
_atom_site_fract_x
_atom_site_fract_y
_atom_site_fract_z
Si Si1 0.447958 0.158415 0.820570
Si Si2 0.049381 0.155084 0.883602
Si Si3 0.468248 0.586699 0.599784
Si Si4 0.181663 0.438230 0.868526
Si Si5 0.194493 0.083128 0.179897
Si Si6 0.697845 0.663226 0.833201
Si Si7 0.057267 0.658679 0.679109
Si Si8 0.671438 0.339108 0.641871
O O1 0.445148 0.250000 0.867870
O O2 0.491313 0.149569 0.688147
O O3 0.373344 0.129255 0.783456
O O4 0.477741 0.106990 0.943259
O O5 0.058746 0.250000 0.876902
O O6 0.118225 0.115995 0.836387
O O7 0.989033 0.119467 0.793899
O O8 0.033390 0.126409 0.034677
O O9 0.500000 0.500000 0.628310
O O10 0.391328 0.599583 0.646336
O O11 0.174137 0.520518 0.792678
O O12 0.244132 0.396757 0.793896
O O13 0.194200 0.451797 0.027871
O O14 0.136417 0.148125 0.195644
O O15 0.266038 0.121518 0.220090
O O16 0.711895 0.750000 0.768893
O O17 0.696329 0.672575 0.992309
O O18 0.040775 0.750000 0.690017
O O19 0.654126 0.250000 0.699609
#
# Coordination Sequence:
#
# PCOD8181361 Si02
#       8
#     8   8   8   8   8   8   8   8
#     4  10  20  37  57  79 110 148 185 223 275 340
#     4   9  18  33  55  78 103 136 176 221 266 317
#     4  11  22  35  56  85 113 141 181 233 283 330
#     4  10  20  34  52  77 108 136 175 219 269 320
#     4  10  21  35  54  78 106 141 179 224 266 318
#     4   8  16  32  56  76  99 138 183 218 256 320
#     4   9  18  34  55  79 103 136 182 223 263 316
#     4   9  18  36  58  77 103 145 188 222 265 327
#
# _framework density 19.041512000000001
#
# number of rings (size 3 to 8) (size 9 to 14) (size 15 to 20)
#    0.000    2.500    0.000    3.000    1.750    4.500 
#    2.250    2.500    0.000    2.250    0.000    0.000 
#    0.000    0.000    0.000    0.000    0.000    0.000 
#
# Total GULP energy -396573.541537 kJ/mol
# GULP energy per Si atom -12392.923173 kJ/mol
# Density = 1.899817 g / cm^3
# Si number density = 19.041512 Si / 1000 Ang^3
#
#
#
# Elastic Constant Matrix: (Units=GPa)
#
#
# Indices 1 2 3 4 5 6 
#
# 1 122.4230 31.0320 42.2916 0.0000 0.0000 0.0000
# 2 31.0320 57.6993 20.3439 0.0000 0.0000 0.0000
# 3 42.2916 20.3439 52.6248 0.0000 0.0000 0.0000
# 4 0.0000 0.0000 0.0000 15.7549 0.0000 0.0000
# 5 0.0000 0.0000 0.0000 0.0000 27.5819 0.0000
# 6 0.0000 0.0000 0.0000 0.0000 0.0000 25.9060
#
#
#
# Elastic Compliance Matrix: (Units=1/GPa)
#
#
# Indices 1 2 3 4 5 6 
#
# 1 0.011889 -0.003503 -0.008201 0.000000 0.000000 0.000000
# 2 -0.003503 0.021098 -0.005341 0.000000 0.000000 0.000000
# 3 -0.008201 -0.005341 0.027658 0.000000 0.000000 0.000000
# 4 0.000000 0.000000 0.000000 0.063472 0.000000 0.000000
# 5 0.000000 0.000000 0.000000 0.000000 0.036256 0.000000
# 6 0.000000 0.000000 0.000000 0.000000 0.000000 0.038601
#
#
# Mechanical properties :
#
#
# Convention : Reuss Voigt Hill
#
# Bulk Modulus (GPa) = 37.65642 46.67580 42.16611
# Shear Modulus (GPa) = 20.66835 23.12052 21.89444
#
# Velocity S-wave (km/s) = 3.29817 3.48834 3.39459
# Velocity P-wave (km/s) = 5.85857 6.38675 6.12835
#
# Compressibility (1/GPa) = 0.02655590
#
# Stress axis : x y z
#
# Youngs Moduli (GPa) = 84.10967 47.39697 36.15644
#
# Poissons Ratio (x) = 0.16603 0.29650
# Poissons Ratio (y) = 0.29463 0.19312
# Poissons Ratio (z) = 0.68975 0.25316
#
# Static dielectric constant tensor:
#      x y z
#    x 3.755540 0.000000 0.000000 
#    y 0.000000 3.386110 0.000000 
#    z 0.000000 0.000000 3.302560 
# 
# 
# High freq. dielectric constant tensor:
#      x y z
#    x 1.753790 0.000000 0.000000 
#    y 0.000000 1.730270 0.000000 
#    z 0.000000 0.000000 1.713230 
# 
# From -- ./inp_files/4013.got.cif
#   From: 2010.03.12/outbox.cif.g09.slc.cpg/sg39_3_cif.got.tgz:4013.got - 2010.04.14 02:53:20.
