data_PCOD8181513
_publ_section_title
;
Structure prediction by ZEFSAII (Michael W. Deem and Ramdas Pophale) SiO2 
 PCOD8181513
Probable space group: A B M 2
;
_chemical_formula_sum "Si O2"
_cell_formula_units_Z 64
_cell_length_a 23.899047
_cell_length_b 8.423530
_cell_length_c 15.402993
_cell_angle_alpha 90.000000
_cell_angle_beta 90.000000
_cell_angle_gamma 90.000000
_cell_volume 3100.843360
_symmetry_space_group_name_H-M "A B M 2"
_symmetry_group_IT_number 39
_symmetry_cell_setting 'orthorhombic'
loop_
_space_group_symop_operation_xyz
x,y,z
-x,-y,z
-x,1/2+y,z
x,1/2-y,z
x,1/2+y,1/2+z
-x,1/2-y,1/2+z
-x,y,1/2+z
x,-y,1/2+z
loop_
_atom_site_type_symbol
_atom_site_label
_atom_site_fract_x
_atom_site_fract_y
_atom_site_fract_z
Si Si1 0.239919 0.934968 0.589070
Si Si2 0.061625 0.437153 0.488341
Si Si3 0.878349 0.938557 0.153479
Si Si4 0.135218 0.563150 0.333587
Si Si5 0.562028 0.563116 0.492259
Si Si6 0.244646 0.563744 0.900989
Si Si7 0.635989 0.561911 0.336343
Si Si8 0.639464 0.061109 0.642744
O O1 0.242365 0.750000 0.606624
O O2 0.185082 0.002237 0.637513
O O3 0.298166 0.008152 0.624628
O O4 0.232664 0.968771 0.488175
O O5 0.064518 0.250000 0.473895
O O6 0.079955 0.480650 0.585471
O O7 0.101988 0.522421 0.420391
O O8 0.000000 0.500000 0.470802
O O9 0.883352 0.750000 0.143894
O O10 0.897039 0.995845 0.249095
O O11 0.143305 0.750000 0.326536
O O12 0.195411 0.476417 0.334116
O O13 0.500000 0.500000 0.499560
O O14 0.560287 0.750000 0.486339
O O15 0.591477 0.492116 0.405538
O O16 0.596056 0.514419 0.576876
O O17 0.246825 0.750000 0.921127
O O18 0.302349 0.500419 0.860442
O O19 0.636107 0.750000 0.340626
O O20 0.620780 0.506199 0.239104
O O21 0.638223 0.250000 0.632306
#
# Coordination Sequence:
#
# PCOD8181513 Si02
#       8
#     8   8   8   8   8   8   8   8
#     4  10  20  35  61  93 129 163 200 247 308 372
#     4  12  26  46  69  95 126 167 214 265 318 374
#     4  11  23  42  67  97 131 169 209 257 314 375
#     4  12  25  42  64  96 132 169 213 261 311 374
#     4  11  23  41  60  84 115 154 203 254 304 362
#     4  11  20  36  63  92 126 166 204 250 310 372
#     4   9  20  38  61  88 121 158 198 246 303 364
#     4  10  20  38  62  89 121 159 197 244 302 362
#
# _framework density 20.639547
#
# number of rings (size 3 to 8) (size 9 to 14) (size 15 to 20)
#    0.000    1.250    2.500    4.125    0.000    3.500 
#    0.000    7.500    0.000    0.000    0.000    0.000 
#    0.000    0.000    0.000    0.000    0.000    0.000 
#
# Total GULP energy -396887.916588 kJ/mol
# GULP energy per Si atom -12402.747393 kJ/mol
# Density = 2.059257 g / cm^3
# Si number density = 20.639547 Si / 1000 Ang^3
#
#
#
# Elastic Constant Matrix: (Units=GPa)
#
#
# Indices 1 2 3 4 5 6 
#
# 1 97.4484 32.6296 14.9437 0.0000 0.0000 0.0000
# 2 32.6296 34.2775 11.4277 0.0000 0.0000 0.0000
# 3 14.9437 11.4277 110.1559 0.0000 0.0000 0.0000
# 4 0.0000 0.0000 0.0000 31.2196 0.0000 0.0000
# 5 0.0000 0.0000 0.0000 0.0000 19.2036 0.0000
# 6 0.0000 0.0000 0.0000 0.0000 0.0000 18.8439
#
#
#
# Elastic Compliance Matrix: (Units=1/GPa)
#
#
# Indices 1 2 3 4 5 6 
#
# 1 0.015098 -0.014180 -0.000577 0.000000 0.000000 0.000000
# 2 -0.014180 0.043536 -0.002593 0.000000 0.000000 0.000000
# 3 -0.000577 -0.002593 0.009425 0.000000 0.000000 0.000000
# 4 0.000000 0.000000 0.000000 0.032031 0.000000 0.000000
# 5 0.000000 0.000000 0.000000 0.000000 0.052074 0.000000
# 6 0.000000 0.000000 0.000000 0.000000 0.000000 0.053068
#
#
# Mechanical properties :
#
#
# Convention : Reuss Voigt Hill
#
# Bulk Modulus (GPa) = 29.97610 39.98707 34.98159
# Shear Modulus (GPa) = 19.91612 26.04546 22.98079
#
# Velocity S-wave (km/s) = 3.10973 3.55621 3.34044
# Velocity P-wave (km/s) = 5.23919 6.02314 5.64479
#
# Compressibility (1/GPa) = 0.03335991
#
# Stress axis : x y z
#
# Youngs Moduli (GPa) = 66.23214 22.96926 106.09711
#
# Poissons Ratio (x) = 0.32571 0.06124
# Poissons Ratio (y) = 0.93918 0.27509
# Poissons Ratio (z) = 0.03823 0.05956
#
# Static dielectric constant tensor:
#      x y z
#    x 3.917970 0.000000 0.000000 
#    y 0.000000 3.557740 0.000000 
#    z 0.000000 0.000000 3.920970 
# 
# 
# High freq. dielectric constant tensor:
#      x y z
#    x 1.808560 0.000000 0.000000 
#    y 0.000000 1.795070 0.000000 
#    z 0.000000 0.000000 1.822770 
# 
# From -- ./inp_files/10631.got.cif
#   From: 2010.03.12/outbox.cif.g09.slc.cpg/sg39_6_cif.got.tgz:10631.got - 2010.04.14 02:53:20.
