data_PCOD8181677
_publ_section_title
;
Structure prediction by ZEFSAII (Michael W. Deem and Ramdas Pophale) SiO2 
 PCOD8181677
Probable space group: A B M 2
;
_chemical_formula_sum "Si O2"
_cell_formula_units_Z 56
_cell_length_a 20.309259
_cell_length_b 9.358134
_cell_length_c 14.803913
_cell_angle_alpha 90.000000
_cell_angle_beta 90.000000
_cell_angle_gamma 90.000000
_cell_volume 2813.583846
_symmetry_space_group_name_H-M "A B M 2"
_symmetry_group_IT_number 39
_symmetry_cell_setting 'orthorhombic'
loop_
_space_group_symop_operation_xyz
x,y,z
-x,-y,z
-x,1/2+y,z
x,1/2-y,z
x,1/2+y,1/2+z
-x,1/2-y,1/2+z
-x,y,1/2+z
x,-y,1/2+z
loop_
_atom_site_type_symbol
_atom_site_label
_atom_site_fract_x
_atom_site_fract_y
_atom_site_fract_z
Si Si1 0.164031 0.911386 0.836090
Si Si2 0.286219 0.592820 0.567449
Si Si3 0.856657 0.419032 0.635661
Si Si4 0.441066 0.588626 0.826260
Si Si5 0.367602 0.091359 0.697917
Si Si6 0.933080 0.577470 0.489846
Si Si7 0.693561 0.008838 0.372048
O O1 0.141614 0.750000 0.828209
O O2 0.148143 0.979053 0.738199
O O3 0.120139 0.978195 0.915955
O O4 0.241317 0.914652 0.859373
O O5 0.299438 0.750000 0.610096
O O6 0.211881 0.546694 0.586331
O O7 0.334802 0.477771 0.610328
O O8 0.298408 0.604727 0.460589
O O9 0.873536 0.250000 0.630152
O O10 0.912114 0.513677 0.586877
O O11 0.500000 0.500000 0.875511
O O12 0.464785 0.750000 0.810486
O O13 0.428538 0.507999 0.730017
O O14 0.372911 0.587600 0.883740
O O15 0.391947 0.250000 0.672179
O O16 0.315419 0.103608 0.781405
O O17 0.939876 0.750000 0.495397
O O18 0.000000 0.500000 0.460627
#
# Coordination Sequence:
#
# PCOD8181677 Si02
#       7
#     8   8   8   8   8   8   8
#     4  10  20  38  63  91 121 156 202 250 302 358
#     4  11  21  36  61  92 124 158 199 251 308 359
#     4  10  20  38  61  88 120 155 195 246 300 357
#     4  10  21  38  63  87 121 166 204 252 311 367
#     4  10  22  37  57  87 123 157 201 249 297 360
#     4  11  24  42  61  87 119 158 199 247 301 365
#     4  10  21  37  62  91 125 158 204 250 307 354
#
# _framework density 19.903441000000001
#
# number of rings (size 3 to 8) (size 9 to 14) (size 15 to 20)
#    0.857    0.857    2.857    2.143    0.000    2.286 
#    0.000    3.571    0.000    1.714    0.000    0.000 
#    0.000    0.000    0.000    0.000    0.000    0.000 
#
# Total GULP energy -346945.500539 kJ/mol
# GULP energy per Si atom -12390.910734 kJ/mol
# Density = 1.985814 g / cm^3
# Si number density = 19.903441 Si / 1000 Ang^3
#
#
#
# Elastic Constant Matrix: (Units=GPa)
#
#
# Indices 1 2 3 4 5 6 
#
# 1 125.0825 38.8999 37.3189 0.0000 0.0000 0.0000
# 2 38.8999 109.7278 22.3676 0.0000 0.0000 0.0000
# 3 37.3189 22.3676 104.7401 0.0000 0.0000 0.0000
# 4 0.0000 0.0000 0.0000 24.6865 0.0000 0.0000
# 5 0.0000 0.0000 0.0000 0.0000 24.4645 0.0000
# 6 0.0000 0.0000 0.0000 0.0000 0.0000 28.8179
#
#
#
# Elastic Compliance Matrix: (Units=1/GPa)
#
#
# Indices 1 2 3 4 5 6 
#
# 1 0.009740 -0.002870 -0.002857 0.000000 0.000000 0.000000
# 2 -0.002870 0.010374 -0.001193 0.000000 0.000000 0.000000
# 3 -0.002857 -0.001193 0.010820 0.000000 0.000000 0.000000
# 4 0.000000 0.000000 0.000000 0.040508 0.000000 0.000000
# 5 0.000000 0.000000 0.000000 0.000000 0.040876 0.000000
# 6 0.000000 0.000000 0.000000 0.000000 0.000000 0.034701
#
#
# Mechanical properties :
#
#
# Convention : Reuss Voigt Hill
#
# Bulk Modulus (GPa) = 58.50234 59.63592 59.06913
# Shear Modulus (GPa) = 30.01970 31.65804 30.83887
#
# Velocity S-wave (km/s) = 3.88785 3.99254 3.94054
# Velocity P-wave (km/s) = 7.04349 7.16111 7.10254
#
# Compressibility (1/GPa) = 0.01709333
#
# Stress axis : x y z
#
# Youngs Moduli (GPa) = 102.67018 96.39288 92.41957
#
# Poissons Ratio (x) = 0.27669 0.26407
# Poissons Ratio (y) = 0.29471 0.11023
# Poissons Ratio (z) = 0.29336 0.11497
#
# Static dielectric constant tensor:
#      x y z
#    x 3.530080 0.000000 0.000000 
#    y 0.000000 3.332080 0.000000 
#    z 0.000000 0.000000 3.602540 
# 
# 
# High freq. dielectric constant tensor:
#      x y z
#    x 1.770450 0.000000 0.000000 
#    y 0.000000 1.764300 0.000000 
#    z 0.000000 0.000000 1.766220 
# 
# From -- ./inp_files/10398.got.cif
#   From: 2010.03.12/outbox.cif.g09.slc.cpg/sg39_6_cif.got.tgz:10398.got - 2010.04.14 02:53:20.
