data_PCOD8181902
_publ_section_title
;
Structure prediction by ZEFSAII (Michael W. Deem and Ramdas Pophale) SiO2 
 PCOD8181902
Probable space group: A B M 2
;
_chemical_formula_sum "Si O2"
_cell_formula_units_Z 64
_cell_length_a 7.954257
_cell_length_b 13.929670
_cell_length_c 27.077819
_cell_angle_alpha 90.000000
_cell_angle_beta 90.000000
_cell_angle_gamma 90.000000
_cell_volume 3000.227087
_symmetry_space_group_name_H-M "A B M 2"
_symmetry_group_IT_number 39
_symmetry_cell_setting 'orthorhombic'
loop_
_space_group_symop_operation_xyz
x,y,z
-x,-y,z
-x,1/2+y,z
x,1/2-y,z
x,1/2+y,1/2+z
-x,1/2-y,1/2+z
-x,y,1/2+z
x,-y,1/2+z
loop_
_atom_site_type_symbol
_atom_site_label
_atom_site_fract_x
_atom_site_fract_y
_atom_site_fract_z
Si Si1 0.195592 0.520675 0.179280
Si Si2 0.787370 0.140662 0.084210
Si Si3 0.313402 0.137980 0.766816
Si Si4 0.878352 0.145435 0.522929
Si Si5 0.324281 0.032542 0.498144
Si Si6 0.009165 0.863140 0.820591
Si Si7 0.096471 0.141995 0.428868
Si Si8 0.311760 0.636941 0.748143
O O1 0.245287 0.559397 0.125329
O O2 0.249048 0.609014 0.213262
O O3 0.293692 0.423730 0.196972
O O4 0.000000 0.500000 0.182380
O O5 0.755711 0.250000 0.102946
O O6 0.662988 0.118392 0.038308
O O7 0.975430 0.130298 0.062915
O O8 0.301854 0.250000 0.771740
O O9 0.509750 0.107772 0.774101
O O10 0.174097 0.093531 0.804845
O O11 0.792872 0.250000 0.532407
O O12 0.941986 0.143554 0.466555
O O13 0.753963 0.056985 0.528237
O O14 0.231050 0.067029 0.449204
O O15 0.500000 0.000000 0.476957
O O16 0.002460 0.750000 0.819028
O O17 0.040989 0.899177 0.875944
O O18 0.161070 0.896165 0.784368
O O19 0.172223 0.250000 0.423831
O O20 0.306081 0.750000 0.735091
#
# Coordination Sequence:
#
# PCOD8181902 Si02
#       8
#     8   8   8   8   8   8   8   8
#     4  12  22  37  61  90 120 164 212 264 320 385
#     4  10  22  41  66  90 119 163 211 257 309 375
#     4  10  21  39  61  86 122 163 211 264 315 369
#     4   9  19  39  62  87 118 155 205 256 300 367
#     4  11  22  38  59  94 130 161 200 252 317 381
#     4   9  18  38  63  88 119 165 213 256 316 371
#     4   9  18  37  64  87 117 161 207 256 309 368
#     4  10  22  40  60  88 128 167 212 268 315 371
#
# _framework density 21.331719
#
# number of rings (size 3 to 8) (size 9 to 14) (size 15 to 20)
#    0.000    2.000    1.250    4.125    0.000    2.500 
#    6.750    0.625    0.000    0.000    0.000    0.000 
#    0.000    0.000    0.000    0.000    0.000    0.000 
#
# Total GULP energy -396445.737101 kJ/mol
# GULP energy per Si atom -12388.929284 kJ/mol
# Density = 2.128317 g / cm^3
# Si number density = 21.331719 Si / 1000 Ang^3
#
#
#
# Elastic Constant Matrix: (Units=GPa)
#
#
# Indices 1 2 3 4 5 6 
#
# 1 109.4197 40.4847 33.5249 0.0000 0.0000 0.0000
# 2 40.4847 101.3664 44.5582 0.0000 0.0000 0.0000
# 3 33.5249 44.5582 121.9165 0.0000 0.0000 0.0000
# 4 0.0000 0.0000 0.0000 22.5183 0.0000 0.0000
# 5 0.0000 0.0000 0.0000 0.0000 10.6959 0.0000
# 6 0.0000 0.0000 0.0000 0.0000 0.0000 11.7759
#
#
#
# Elastic Compliance Matrix: (Units=1/GPa)
#
#
# Indices 1 2 3 4 5 6 
#
# 1 0.011009 -0.003653 -0.001692 0.000000 0.000000 0.000000
# 2 -0.003653 0.012966 -0.003734 0.000000 0.000000 0.000000
# 3 -0.001692 -0.003734 0.010032 0.000000 0.000000 0.000000
# 4 0.000000 0.000000 0.000000 0.044408 0.000000 0.000000
# 5 0.000000 0.000000 0.000000 0.000000 0.093494 0.000000
# 6 0.000000 0.000000 0.000000 0.000000 0.000000 0.084919
#
#
# Mechanical properties :
#
#
# Convention : Reuss Voigt Hill
#
# Bulk Modulus (GPa) = 63.09802 63.31534 63.20668
# Shear Modulus (GPa) = 17.83989 23.27367 20.55678
#
# Velocity S-wave (km/s) = 2.89504 3.30667 3.10767
# Velocity P-wave (km/s) = 6.38895 6.65766 6.52469
#
# Compressibility (1/GPa) = 0.01584836
#
# Stress axis : x y z
#
# Youngs Moduli (GPa) = 90.83289 77.12678 99.67678
#
# Poissons Ratio (x) = 0.28175 0.16867
# Poissons Ratio (y) = 0.33182 0.37221
# Poissons Ratio (z) = 0.15371 0.28800
#
# Static dielectric constant tensor:
#      x y z
#    x 4.074000 0.000000 0.000000 
#    y 0.000000 4.210140 0.000000 
#    z 0.000000 0.000000 3.825760 
# 
# 
# High freq. dielectric constant tensor:
#      x y z
#    x 1.816110 0.000000 0.000000 
#    y 0.000000 1.857800 0.000000 
#    z 0.000000 0.000000 1.822920 
# 
# From -- ./inp_files/15700.got.cif
#   From: 2010.03.12/outbox.cif.g09.slc.cpg/sg39_8_cif.got.tgz:15700.got - 2010.04.14 02:53:20.
