data_PCOD8181354
_publ_section_title
;
Structure prediction by ZEFSAII (Michael W. Deem and Ramdas Pophale) SiO2 
 PCOD8181354
Probable space group: A B M 2
;
_chemical_formula_sum "Si O2"
_cell_formula_units_Z 56
_cell_length_a 19.339174
_cell_length_b 9.308197
_cell_length_c 15.554332
_cell_angle_alpha 90.000000
_cell_angle_beta 90.000000
_cell_angle_gamma 90.000000
_cell_volume 2799.979500
_symmetry_space_group_name_H-M "A B M 2"
_symmetry_group_IT_number 39
_symmetry_cell_setting 'orthorhombic'
loop_
_space_group_symop_operation_xyz
x,y,z
-x,-y,z
-x,1/2+y,z
x,1/2-y,z
x,1/2+y,1/2+z
-x,1/2-y,1/2+z
-x,y,1/2+z
x,-y,1/2+z
loop_
_atom_site_type_symbol
_atom_site_label
_atom_site_fract_x
_atom_site_fract_y
_atom_site_fract_z
Si Si1 0.660497 0.915145 0.853760
Si Si2 0.198068 0.411001 0.103107
Si Si3 0.788816 0.086147 0.799215
Si Si4 0.934705 0.412260 0.057059
Si Si5 0.572395 0.420833 0.189570
Si Si6 0.935863 0.911492 0.353250
Si Si7 0.653526 0.414550 0.545419
O O1 0.680017 0.750000 0.839383
O O2 0.608066 0.965958 0.779444
O O3 0.731395 0.001891 0.851482
O O4 0.626246 0.939407 0.947847
O O5 0.169350 0.250000 0.086610
O O6 0.227379 0.426659 0.198978
O O7 0.137178 0.522174 0.088043
O O8 0.263890 0.443569 0.043014
O O9 0.787263 0.250000 0.831923
O O10 0.864451 0.019764 0.819140
O O11 0.939499 0.250000 0.091595
O O12 0.000000 0.500000 0.094947
O O13 0.936431 0.416873 0.955162
O O14 0.500000 0.500000 0.186262
O O15 0.562341 0.250000 0.182212
O O16 0.616989 0.474140 0.108737
O O17 0.943430 0.750000 0.318224
O O18 0.000000 0.000000 0.314582
O O19 0.638803 0.250000 0.575082
#
# Coordination Sequence:
#
# PCOD8181354 Si02
#       7
#     8   8   8   8   8   8   8
#     4  10  22  39  62  92 123 157 201 245 291 351
#     4  10  20  34  55  82 114 151 191 241 296 352
#     4  10  20  35  56  83 115 152 195 243 296 354
#     4  10  20  34  52  74 105 146 192 246 298 354
#     4  11  24  42  64  92 125 158 196 242 291 351
#     4   9  19  34  51  74 105 143 192 242 294 351
#     4  10  21  40  64  91 124 161 200 245 297 353
#
# _framework density 20.000146999999998
#
# number of rings (size 3 to 8) (size 9 to 14) (size 15 to 20)
#    0.000    2.000    1.429    1.714    0.000    4.571 
#    0.000    2.857    0.000    0.000    0.000    0.000 
#    0.000    0.000    0.000    0.000    0.000    0.000 
#
# Total GULP energy -347241.871818 kJ/mol
# GULP energy per Si atom -12401.495422 kJ/mol
# Density = 1.995463 g / cm^3
# Si number density = 20.000147 Si / 1000 Ang^3
#
#
#
# Elastic Constant Matrix: (Units=GPa)
#
#
# Indices 1 2 3 4 5 6 
#
# 1 112.6453 61.2730 39.2111 0.0000 0.0000 0.0000
# 2 61.2730 100.6100 42.9508 0.0000 0.0000 0.0000
# 3 39.2111 42.9508 77.8500 0.0000 0.0000 0.0000
# 4 0.0000 0.0000 0.0000 26.0678 0.0000 0.0000
# 5 0.0000 0.0000 0.0000 0.0000 24.5054 0.0000
# 6 0.0000 0.0000 0.0000 0.0000 0.0000 40.0637
#
#
#
# Elastic Compliance Matrix: (Units=1/GPa)
#
#
# Indices 1 2 3 4 5 6 
#
# 1 0.013800 -0.007112 -0.003027 0.000000 0.000000 0.000000
# 2 -0.007112 0.016667 -0.005613 0.000000 0.000000 0.000000
# 3 -0.003027 -0.005613 0.017467 0.000000 0.000000 0.000000
# 4 0.000000 0.000000 0.000000 0.038362 0.000000 0.000000
# 5 0.000000 0.000000 0.000000 0.000000 0.040807 0.000000
# 6 0.000000 0.000000 0.000000 0.000000 0.000000 0.024960
#
#
# Mechanical properties :
#
#
# Convention : Reuss Voigt Hill
#
# Bulk Modulus (GPa) = 60.86718 64.21943 62.54331
# Shear Modulus (GPa) = 26.44906 27.97206 27.21056
#
# Velocity S-wave (km/s) = 3.64049 3.74383 3.69252
# Velocity P-wave (km/s) = 6.94048 7.13215 7.03697
#
# Compressibility (1/GPa) = 0.01642922
#
# Stress axis : x y z
#
# Youngs Moduli (GPa) = 72.46606 59.99880 57.25218
#
# Poissons Ratio (x) = 0.42671 0.17329
# Poissons Ratio (y) = 0.51538 0.32137
# Poissons Ratio (z) = 0.21933 0.33679
#
# Static dielectric constant tensor:
#      x y z
#    x 3.566290 0.000000 0.000000 
#    y 0.000000 3.698840 0.000000 
#    z 0.000000 0.000000 3.634720 
# 
# 
# High freq. dielectric constant tensor:
#      x y z
#    x 1.778580 0.000000 0.000000 
#    y 0.000000 1.776810 0.000000 
#    z 0.000000 0.000000 1.781290 
# 
# From -- ./inp_files/10322.got.cif
#   From: 2010.03.12/outbox.cif.g09.slc.cpg/sg39_6_cif.got.tgz:10322.got - 2010.04.14 02:53:20.
