data_PCOD8181446
_publ_section_title
;
Structure prediction by ZEFSAII (Michael W. Deem and Ramdas Pophale) SiO2 
 PCOD8181446
Probable space group: A B M 2
;
_chemical_formula_sum "Si O2"
_cell_formula_units_Z 64
_cell_length_a 9.687044
_cell_length_b 17.217826
_cell_length_c 20.148444
_cell_angle_alpha 90.000000
_cell_angle_beta 90.000000
_cell_angle_gamma 90.000000
_cell_volume 3360.555712
_symmetry_space_group_name_H-M "A B M 2"
_symmetry_group_IT_number 39
_symmetry_cell_setting 'orthorhombic'
loop_
_space_group_symop_operation_xyz
x,y,z
-x,-y,z
-x,1/2+y,z
x,1/2-y,z
x,1/2+y,1/2+z
-x,1/2-y,1/2+z
-x,y,1/2+z
x,-y,1/2+z
loop_
_atom_site_type_symbol
_atom_site_label
_atom_site_fract_x
_atom_site_fract_y
_atom_site_fract_z
Si Si1 0.405292 0.072498 0.565400
Si Si2 0.468261 0.908527 0.923682
Si Si3 0.312626 0.341516 0.830006
Si Si4 0.093035 0.074037 0.537542
Si Si5 0.945091 0.836516 0.665276
Si Si6 0.978289 0.908983 0.804053
Si Si7 0.182762 0.158508 0.406278
Si Si8 0.377317 0.834369 0.188485
O O1 0.446644 0.121036 0.499576
O O2 0.244494 0.047889 0.562992
O O3 0.450935 0.114832 0.632747
O O4 0.500000 0.000000 0.563290
O O5 0.594925 0.860671 0.893383
O O6 0.324679 0.886516 0.888320
O O7 0.500000 0.000000 0.917308
O O8 0.279013 0.250000 0.826005
O O9 0.170989 0.388382 0.833702
O O10 0.393504 0.368376 0.762922
O O11 0.015948 0.121522 0.596109
O O12 0.108440 0.127362 0.472732
O O13 0.000000 0.000000 0.518950
O O14 0.011367 0.750000 0.666640
O O15 0.999030 0.887477 0.726853
O O16 0.781989 0.828046 0.669684
O O17 0.086752 0.857475 0.843776
O O18 0.000000 0.000000 0.814626
O O19 0.210329 0.250000 0.414453
O O20 0.447461 0.750000 0.185737
#
# Coordination Sequence:
#
# PCOD8181446 Si02
#       8
#     8   8   8   8   8   8   8   8
#     4   9  19  34  53  77 103 132 171 216 261 310
#     4  10  21  36  54  79 108 139 178 223 271 323
#     4  10  20  36  56  79 106 141 180 219 263 319
#     4  10  20  35  56  79 106 141 180 222 269 320
#     4   9  17  33  55  80 106 137 180 224 263 316
#     4  11  21  35  56  81 110 144 181 225 272 323
#     4  11  22  36  55  81 110 144 182 225 274 325
#     4   8  16  31  53  76 100 132 173 212 253 308
#
# _framework density 19.044468999999999
#
# number of rings (size 3 to 8) (size 9 to 14) (size 15 to 20)
#    0.000    2.250    0.000    4.125    0.000    6.000 
#    0.000    2.500    0.000    3.000    0.000    0.000 
#    0.000    0.000    0.000    0.000    0.000    0.000 
#
# Total GULP energy -396672.550263 kJ/mol
# GULP energy per Si atom -12396.017196 kJ/mol
# Density = 1.900112 g / cm^3
# Si number density = 19.044469 Si / 1000 Ang^3
#
#
#
# Elastic Constant Matrix: (Units=GPa)
#
#
# Indices 1 2 3 4 5 6 
#
# 1 77.9639 36.8610 49.8347 0.0000 0.0000 0.0000
# 2 36.8610 80.2673 34.7121 0.0000 0.0000 0.0000
# 3 49.8347 34.7121 84.4162 0.0000 0.0000 0.0000
# 4 0.0000 0.0000 0.0000 -0.6554 0.0000 0.0000
# 5 0.0000 0.0000 0.0000 0.0000 21.5179 0.0000
# 6 0.0000 0.0000 0.0000 0.0000 0.0000 6.0728
#
#
#
# Elastic Compliance Matrix: (Units=1/GPa)
#
#
# Indices 1 2 3 4 5 6 
#
# 1 0.022480 -0.005576 -0.010978 0.000000 0.000000 0.000000
# 2 -0.005576 0.016536 -0.003508 0.000000 0.000000 0.000000
# 3 -0.010978 -0.003508 0.019769 0.000000 0.000000 0.000000
# 4 0.000000 0.000000 0.000000 -1.525856 0.000000 0.000000
# 5 0.000000 0.000000 0.000000 0.000000 0.046473 0.000000
# 6 0.000000 0.000000 0.000000 0.000000 0.000000 0.164668
#
#
# Mechanical properties :
#
#
# Convention : Reuss Voigt Hill
#
# Bulk Modulus (GPa) = 53.58626 53.94032 53.76329
# Shear Modulus (GPa) = -4.13365 13.46971 4.66803
#
# Velocity S-wave (km/s) = -1.47487 2.66235 1.56730
# Velocity P-wave (km/s) = 5.02973 6.15107 5.61845
#
# Compressibility (1/GPa) = 0.01866150
#
# Stress axis : x y z
#
# Youngs Moduli (GPa) = 44.48413 60.47414 50.58322
#
# Poissons Ratio (x) = 0.33720 0.55531
# Poissons Ratio (y) = 0.24804 0.17744
# Poissons Ratio (z) = 0.48835 0.21214
#
# Static dielectric constant tensor:
#      x y z
#    x 3.273250 0.000000 0.000000 
#    y 0.000000 5.563010 0.000000 
#    z 0.000000 0.000000 4.027350 
# 
# 
# High freq. dielectric constant tensor:
#      x y z
#    x 1.714940 0.000000 0.000000 
#    y 0.000000 1.740320 0.000000 
#    z 0.000000 0.000000 1.754750 
# 
# From -- ./inp_files/14227.got.cif
#   From: 2010.03.12/outbox.cif.g09.slc.cpg/sg39_8_cif.got.tgz:14227.got - 2010.04.14 02:53:20.
