data_PCOD8181762
_publ_section_title
;
Structure prediction by ZEFSAII (Michael W. Deem and Ramdas Pophale) SiO2 
 PCOD8181762
Probable space group: A B M 2
;
_chemical_formula_sum "Si O2"
_cell_formula_units_Z 48
_cell_length_a 15.371921
_cell_length_b 13.927546
_cell_length_c 10.776917
_cell_angle_alpha 90.000000
_cell_angle_beta 90.000000
_cell_angle_gamma 90.000000
_cell_volume 2307.263966
_symmetry_space_group_name_H-M "A B M 2"
_symmetry_group_IT_number 39
_symmetry_cell_setting 'orthorhombic'
loop_
_space_group_symop_operation_xyz
x,y,z
-x,-y,z
-x,1/2+y,z
x,1/2-y,z
x,1/2+y,1/2+z
-x,1/2-y,1/2+z
-x,y,1/2+z
x,-y,1/2+z
loop_
_atom_site_type_symbol
_atom_site_label
_atom_site_fract_x
_atom_site_fract_y
_atom_site_fract_z
Si Si1 0.819425 0.354863 0.405720
Si Si2 0.045425 0.856910 0.186745
Si Si3 0.877089 0.045830 0.642343
Si Si4 0.572770 0.860815 0.646912
Si Si5 0.296202 0.493734 0.770424
Si Si6 0.435306 0.360279 0.363544
O O1 0.779681 0.250000 0.430039
O O2 0.894527 0.351465 0.305562
O O3 0.871203 0.391676 0.521743
O O4 0.736707 0.420506 0.375023
O O5 0.040087 0.750000 0.125143
O O6 0.950262 0.898446 0.224055
O O7 0.092917 0.937788 0.101803
O O8 0.785612 0.047703 0.712042
O O9 0.603063 0.750000 0.658910
O O10 0.653906 0.932355 0.664562
O O11 0.532867 0.877745 0.507390
O O12 0.507225 0.886704 0.759772
O O13 0.352940 0.573756 0.838022
O O14 0.407072 0.250000 0.346785
#
# Coordination Sequence:
#
# PCOD8181762 Si02
#       6
#     8   8   8   8   8   8
#     4  10  21  38  59  84 115 153 195 241 296 353
#     4   9  20  38  57  79 111 152 196 242 292 346
#     4  10  21  35  57  86 115 149 197 245 292 351
#     4  10  22  42  64  87 118 157 199 244 298 360
#     4  11  22  37  59  88 119 152 193 243 298 356
#     4  10  23  41  62  89 121 157 199 246 299 361
#
# _framework density 20.803863
#
# number of rings (size 3 to 8) (size 9 to 14) (size 15 to 20)
#    0.000    2.000    0.000    2.500    0.000   11.333 
#    0.000    2.500    0.000    3.000    0.000    0.000 
#    0.000    0.000    0.000    0.000    0.000    0.000 
#
# Total GULP energy -297383.368777 kJ/mol
# GULP energy per Si atom -12390.973699 kJ/mol
# Density = 2.075651 g / cm^3
# Si number density = 20.803863 Si / 1000 Ang^3
#
#
#
# Elastic Constant Matrix: (Units=GPa)
#
#
# Indices 1 2 3 4 5 6 
#
# 1 108.5195 54.2834 38.8042 0.0000 0.0000 0.0000
# 2 54.2834 116.2578 30.1637 0.0000 0.0000 0.0000
# 3 38.8042 30.1637 84.0700 0.0000 0.0000 0.0000
# 4 0.0000 0.0000 0.0000 21.2201 0.0000 0.0000
# 5 0.0000 0.0000 0.0000 0.0000 -9.4270 0.0000
# 6 0.0000 0.0000 0.0000 0.0000 0.0000 15.2419
#
#
#
# Elastic Compliance Matrix: (Units=1/GPa)
#
#
# Indices 1 2 3 4 5 6 
#
# 1 0.013305 -0.005093 -0.004314 0.000000 0.000000 0.000000
# 2 -0.005093 0.011434 -0.001752 0.000000 0.000000 0.000000
# 3 -0.004314 -0.001752 0.014514 0.000000 0.000000 0.000000
# 4 0.000000 0.000000 0.000000 0.047125 0.000000 0.000000
# 5 0.000000 0.000000 0.000000 0.000000 -0.106078 0.000000
# 6 0.000000 0.000000 0.000000 0.000000 0.000000 0.065608
#
#
# Mechanical properties :
#
#
# Convention : Reuss Voigt Hill
#
# Bulk Modulus (GPa) = 59.04438 61.70554 60.37496
# Shear Modulus (GPa) = 67.68411 17.78007 42.73209
#
# Velocity S-wave (km/s) = 5.71008 2.92661 4.53707
# Velocity P-wave (km/s) = 8.48036 6.41445 7.51869
#
# Compressibility (1/GPa) = 0.01693641
#
# Stress axis : x y z
#
# Youngs Moduli (GPa) = 75.15856 87.45696 68.89682
#
# Poissons Ratio (x) = 0.44544 0.29721
# Poissons Ratio (y) = 0.38280 0.12068
# Poissons Ratio (z) = 0.32422 0.15319
#
# Static dielectric constant tensor:
#      x y z
#    x 3.723350 0.000000 0.000000 
#    y 0.000000 4.972350 0.000000 
#    z 0.000000 0.000000 3.695460 
# 
# 
# High freq. dielectric constant tensor:
#      x y z
#    x 1.811860 0.000000 0.000000 
#    y 0.000000 1.839880 0.000000 
#    z 0.000000 0.000000 1.794910 
# 
# From -- ./inp_files/6395.got.cif
#   From: 2010.03.12/outbox.cif.g09.slc.cpg/sg39_4_cif.got.tgz:6395.got - 2010.04.14 02:53:20.
