data_PCOD8181307
_publ_section_title
;
Structure prediction by ZEFSAII (Michael W. Deem and Ramdas Pophale) SiO2 
 PCOD8181307
Probable space group: A B M 2
;
_chemical_formula_sum "Si O2"
_cell_formula_units_Z 64
_cell_length_a 17.629359
_cell_length_b 8.886431
_cell_length_c 22.917256
_cell_angle_alpha 90.000000
_cell_angle_beta 90.000000
_cell_angle_gamma 90.000000
_cell_volume 3590.265046
_symmetry_space_group_name_H-M "A B M 2"
_symmetry_group_IT_number 39
_symmetry_cell_setting 'orthorhombic'
loop_
_space_group_symop_operation_xyz
x,y,z
-x,-y,z
-x,1/2+y,z
x,1/2-y,z
x,1/2+y,1/2+z
-x,1/2-y,1/2+z
-x,y,1/2+z
x,-y,1/2+z
loop_
_atom_site_type_symbol
_atom_site_label
_atom_site_fract_x
_atom_site_fract_y
_atom_site_fract_z
Si Si1 0.361678 0.581510 0.137280
Si Si2 0.278378 0.570993 0.968562
Si Si3 0.301190 0.580748 0.741573
Si Si4 0.767215 0.427429 0.348519
Si Si5 0.924724 0.925340 0.790042
Si Si6 0.138001 0.083589 0.183116
Si Si7 0.422044 0.070687 0.025604
Si Si8 0.197547 0.584475 0.081545
O O1 0.396281 0.750000 0.142611
O O2 0.363479 0.499601 0.200279
O O3 0.410260 0.484104 0.091960
O O4 0.276113 0.593881 0.115826
O O5 0.292134 0.750000 0.970511
O O6 0.247635 0.518683 0.906882
O O7 0.356729 0.487774 0.982599
O O8 0.214735 0.523621 0.016424
O O9 0.328347 0.750000 0.756954
O O10 0.292792 0.483163 0.800292
O O11 0.222309 0.587228 0.707921
O O12 0.756772 0.250000 0.358034
O O13 0.852484 0.469378 0.329128
O O14 0.937485 0.750000 0.788605
O O15 0.914243 0.980157 0.723582
O O16 0.000000 0.000000 0.817537
O O17 0.102607 0.250000 0.181974
O O18 0.139558 0.022128 0.116628
O O19 0.424836 0.250000 0.023856
O O20 0.500000 0.000000 0.001793
O O21 0.160569 0.750000 0.078570
#
# Coordination Sequence:
#
# PCOD8181307 Si02
#       8
#     8   8   8   8   8   8   8   8
#     4   9  16  28  46  70  98 126 157 196 243 293
#     4  10  20  34  52  75 102 135 175 218 258 302
#     4   9  16  27  45  70  97 126 159 198 242 290
#     4  10  20  33  50  74 102 135 174 218 260 304
#     4  10  20  33  50  72 100 131 166 208 258 310
#     4   9  16  26  44  69  95 122 154 192 239 291
#     4  11  21  34  52  75 103 134 169 211 259 311
#     4   8  15  27  44  67  95 123 153 193 241 287
#
# _framework density 17.825983000000001
#
# number of rings (size 3 to 8) (size 9 to 14) (size 15 to 20)
#    0.000    2.500    0.000    4.125    0.000    8.000 
#    0.000    0.000    0.000    1.500    0.000    7.000 
#    0.000    0.000    0.000    0.000    0.000    0.000 
#
# Total GULP energy -396720.950576 kJ/mol
# GULP energy per Si atom -12397.529706 kJ/mol
# Density = 1.778541 g / cm^3
# Si number density = 17.825983 Si / 1000 Ang^3
#
#
#
# Elastic Constant Matrix: (Units=GPa)
#
#
# Indices 1 2 3 4 5 6 
#
# 1 57.1438 40.5880 35.4125 0.0000 0.0000 0.0000
# 2 40.5880 123.4853 48.0256 0.0000 0.0000 0.0000
# 3 35.4125 48.0256 113.9779 0.0000 0.0000 0.0000
# 4 0.0000 0.0000 0.0000 32.2219 0.0000 0.0000
# 5 0.0000 0.0000 0.0000 0.0000 12.2743 0.0000
# 6 0.0000 0.0000 0.0000 0.0000 0.0000 24.5686
#
#
#
# Elastic Compliance Matrix: (Units=1/GPa)
#
#
# Indices 1 2 3 4 5 6 
#
# 1 0.025150 -0.006252 -0.005180 0.000000 0.000000 0.000000
# 2 -0.006252 0.011240 -0.002793 0.000000 0.000000 0.000000
# 3 -0.005180 -0.002793 0.011560 0.000000 0.000000 0.000000
# 4 0.000000 0.000000 0.000000 0.031035 0.000000 0.000000
# 5 0.000000 0.000000 0.000000 0.000000 0.081471 0.000000
# 6 0.000000 0.000000 0.000000 0.000000 0.000000 0.040702
#
#
# Mechanical properties :
#
#
# Convention : Reuss Voigt Hill
#
# Bulk Modulus (GPa) = 51.28355 60.29546 55.78950
# Shear Modulus (GPa) = 21.17671 25.18500 23.18086
#
# Velocity S-wave (km/s) = 3.45043 3.76283 3.61001
# Velocity P-wave (km/s) = 6.68621 7.26474 6.98147
#
# Compressibility (1/GPa) = 0.01949943
#
# Stress axis : x y z
#
# Youngs Moduli (GPa) = 39.76079 88.97186 86.50544
#
# Poissons Ratio (x) = 0.55626 0.44808
# Poissons Ratio (y) = 0.24859 0.24164
# Poissons Ratio (z) = 0.20595 0.24853
#
# Static dielectric constant tensor:
#      x y z
#    x 3.035590 0.000000 0.000000 
#    y 0.000000 3.534470 0.000000 
#    z 0.000000 0.000000 3.300350 
# 
# 
# High freq. dielectric constant tensor:
#      x y z
#    x 1.648770 0.000000 0.000000 
#    y 0.000000 1.708510 0.000000 
#    z 0.000000 0.000000 1.677610 
# 
# From -- ./inp_files/16355.got.cif
#   From: 2010.03.12/outbox.cif.g09.slc.cpg/sg39_9_cif.got.tgz:16355.got - 2010.04.14 02:53:20.
