data_PCOD8181008
_publ_section_title
;
Structure prediction by ZEFSAII (Michael W. Deem and Ramdas Pophale) SiO2 
 PCOD8181008
Probable space group: A B M 2
;
_chemical_formula_sum "Si O2"
_cell_formula_units_Z 64
_cell_length_a 19.109454
_cell_length_b 9.038454
_cell_length_c 20.300562
_cell_angle_alpha 90.000000
_cell_angle_beta 90.000000
_cell_angle_gamma 90.000000
_cell_volume 3506.311464
_symmetry_space_group_name_H-M "A B M 2"
_symmetry_group_IT_number 39
_symmetry_cell_setting 'orthorhombic'
loop_
_space_group_symop_operation_xyz
x,y,z
-x,-y,z
-x,1/2+y,z
x,1/2-y,z
x,1/2+y,1/2+z
-x,1/2-y,1/2+z
-x,y,1/2+z
x,-y,1/2+z
loop_
_atom_site_type_symbol
_atom_site_label
_atom_site_fract_x
_atom_site_fract_y
_atom_site_fract_z
Si Si1 0.297950 0.922914 0.785580
Si Si2 0.930691 0.422026 0.354196
Si Si3 0.219499 0.078481 0.900546
Si Si4 0.428720 0.923730 0.227125
Si Si5 0.571515 0.923392 0.574876
Si Si6 0.293550 0.578775 0.536787
Si Si7 0.203840 0.577873 0.661088
Si Si8 0.070023 0.076075 0.702908
O O1 0.315427 0.750000 0.789083
O O2 0.243725 0.959526 0.728087
O O3 0.265842 0.976485 0.853894
O O4 0.368665 0.011970 0.773176
O O5 0.945788 0.250000 0.359129
O O6 0.862182 0.467850 0.395899
O O7 0.917477 0.470551 0.278773
O O8 0.000000 0.500000 0.383244
O O9 0.228283 0.250000 0.879511
O O10 0.244717 0.049239 0.974295
O O11 0.435127 0.750000 0.238529
O O12 0.413097 0.962462 0.151022
O O13 0.500000 0.000000 0.250155
O O14 0.563995 0.750000 0.562919
O O15 0.500000 0.000000 0.551234
O O16 0.635091 0.985692 0.531139
O O17 0.314519 0.750000 0.543383
O O18 0.250958 0.524842 0.600370
O O19 0.184754 0.750000 0.655382
O O20 0.133314 0.483441 0.658875
O O21 0.063508 0.250000 0.694012
O O22 0.000000 0.000000 0.675887
#
# Coordination Sequence:
#
# PCOD8181008 Si02
#       8
#     8   8   8   8   8   8   8   8
#     4  11  21  34  56  83 112 143 181 229 274 325
#     4   9  18  32  52  78 105 137 180 224 271 325
#     4  10  21  38  57  80 112 150 187 227 277 331
#     4  10  20  34  55  83 114 146 182 229 279 330
#     4  10  20  34  56  83 112 144 184 229 274 330
#     4  10  21  38  58  80 113 151 186 227 275 330
#     4  10  20  34  54  81 110 143 182 223 272 327
#     4  10  19  32  53  80 110 142 181 230 278 328
#
# _framework density 18.252799
#
# number of rings (size 3 to 8) (size 9 to 14) (size 15 to 20)
#    0.000    2.000    2.500    1.500    0.000    3.500 
#    0.000    1.250    0.000    4.500    0.000    0.000 
#    0.000    0.000    0.000    0.000    0.000    0.000 
#
# Total GULP energy -396939.282355 kJ/mol
# GULP energy per Si atom -12404.352574 kJ/mol
# Density = 1.821125 g / cm^3
# Si number density = 18.252799 Si / 1000 Ang^3
#
#
#
# Elastic Constant Matrix: (Units=GPa)
#
#
# Indices 1 2 3 4 5 6 
#
# 1 152.3090 64.0263 33.5053 0.0000 0.0000 0.0000
# 2 64.0263 76.3537 27.2417 0.0000 0.0000 0.0000
# 3 33.5053 27.2417 51.2795 0.0000 0.0000 0.0000
# 4 0.0000 0.0000 0.0000 22.2856 0.0000 0.0000
# 5 0.0000 0.0000 0.0000 0.0000 26.8981 0.0000
# 6 0.0000 0.0000 0.0000 0.0000 0.0000 40.5311
#
#
#
# Elastic Compliance Matrix: (Units=1/GPa)
#
#
# Indices 1 2 3 4 5 6 
#
# 1 0.010429 -0.007791 -0.002675 0.000000 0.000000 0.000000
# 2 -0.007791 0.021980 -0.006586 0.000000 0.000000 0.000000
# 3 -0.002675 -0.006586 0.024748 0.000000 0.000000 0.000000
# 4 0.000000 0.000000 0.000000 0.044872 0.000000 0.000000
# 5 0.000000 0.000000 0.000000 0.000000 0.037177 0.000000
# 6 0.000000 0.000000 0.000000 0.000000 0.000000 0.024672
#
#
# Mechanical properties :
#
#
# Convention : Reuss Voigt Hill
#
# Bulk Modulus (GPa) = 43.38021 58.83210 51.10615
# Shear Modulus (GPa) = 24.31110 28.28755 26.29933
#
# Velocity S-wave (km/s) = 3.65349 3.94098 3.79996
# Velocity P-wave (km/s) = 6.45099 7.28081 6.87843
#
# Compressibility (1/GPa) = 0.02305199
#
# Stress axis : x y z
#
# Youngs Moduli (GPa) = 95.88470 45.49650 40.40752
#
# Poissons Ratio (x) = 0.35445 0.10811
# Poissons Ratio (y) = 0.74702 0.26613
# Poissons Ratio (z) = 0.25654 0.29964
#
# Static dielectric constant tensor:
#      x y z
#    x 3.502070 0.000000 0.000000 
#    y 0.000000 3.325500 0.000000 
#    z 0.000000 0.000000 3.105310 
# 
# 
# High freq. dielectric constant tensor:
#      x y z
#    x 1.721420 0.000000 0.000000 
#    y 0.000000 1.711560 0.000000 
#    z 0.000000 0.000000 1.675790 
# 
# From -- ./inp_files/13217.got.cif
#   From: 2010.03.12/outbox.cif.g09.slc.cpg/sg39_7_cif.got.tgz:13217.got - 2010.04.14 02:53:20.
