data_PCOD8181464
_publ_section_title
;
Structure prediction by ZEFSAII (Michael W. Deem and Ramdas Pophale) SiO2 
 PCOD8181464
Probable space group: A B M 2
;
_chemical_formula_sum "Si O2"
_cell_formula_units_Z 64
_cell_length_a 14.540472
_cell_length_b 8.898811
_cell_length_c 24.637499
_cell_angle_alpha 90.000000
_cell_angle_beta 90.000000
_cell_angle_gamma 90.000000
_cell_volume 3187.917744
_symmetry_space_group_name_H-M "A B M 2"
_symmetry_group_IT_number 39
_symmetry_cell_setting 'orthorhombic'
loop_
_space_group_symop_operation_xyz
x,y,z
-x,-y,z
-x,1/2+y,z
x,1/2-y,z
x,1/2+y,1/2+z
-x,1/2-y,1/2+z
-x,y,1/2+z
x,-y,1/2+z
loop_
_atom_site_type_symbol
_atom_site_label
_atom_site_fract_x
_atom_site_fract_y
_atom_site_fract_z
Si Si1 0.899319 0.428078 0.823910
Si Si2 0.406629 0.928376 0.695386
Si Si3 0.213172 0.575644 0.931086
Si Si4 0.410017 0.574899 0.964669
Si Si5 0.160042 0.083834 0.611329
Si Si6 0.910164 0.575854 0.014226
Si Si7 0.368488 0.919137 0.085044
Si Si8 0.219192 0.571366 0.229075
O O1 0.908976 0.250000 0.815572
O O2 0.839809 0.469290 0.876679
O O3 0.843740 0.500147 0.774856
O O4 0.000000 0.500000 0.828870
O O5 0.406254 0.750000 0.703131
O O6 0.500000 0.000000 0.720197
O O7 0.403767 0.968701 0.631490
O O8 0.320503 0.998169 0.728077
O O9 0.198791 0.750000 0.945272
O O10 0.321757 0.536725 0.927041
O O11 0.177415 0.479007 0.981132
O O12 0.500000 0.500000 0.938024
O O13 0.426705 0.750000 0.966350
O O14 0.398837 0.516508 0.026655
O O15 0.115590 0.250000 0.607301
O O16 0.259307 0.086767 0.584134
O O17 0.166397 0.031637 0.673473
O O18 0.097797 0.968104 0.577693
O O19 0.921877 0.750000 0.007916
O O20 0.000000 0.500000 0.988117
O O21 0.406281 0.750000 0.096581
O O22 0.230183 0.750000 0.236520
#
# Coordination Sequence:
#
# PCOD8181464 Si02
#       8
#     8   8   8   8   8   8   8   8
#     4  11  24  43  69  93 116 152 201 254 310 367
#     4  11  21  34  55  86 125 164 208 251 298 359
#     4  10  22  43  64  85 120 160 200 251 303 354
#     4  10  20  35  56  84 120 160 200 244 293 352
#     4   9  18  36  58  82 118 159 193 237 297 355
#     4  12  24  36  57  87 119 156 197 243 299 363
#     4   9  17  32  54  80 117 163 203 244 296 350
#     4  10  22  41  64  89 121 158 200 252 308 362
#
# _framework density 20.075800000000001
#
# number of rings (size 3 to 8) (size 9 to 14) (size 15 to 20)
#    0.000    1.750    1.250    4.500    0.000    7.000 
#    0.000    0.625    0.000    1.500    0.000    0.000 
#    0.000    0.000    0.000    0.000    0.000    0.000 
#
# Total GULP energy -396785.377022 kJ/mol
# GULP energy per Si atom -12399.543032 kJ/mol
# Density = 2.003011 g / cm^3
# Si number density = 20.075800 Si / 1000 Ang^3
#
#
#
# Elastic Constant Matrix: (Units=GPa)
#
#
# Indices 1 2 3 4 5 6 
#
# 1 147.2793 66.4002 67.1134 0.0000 0.0000 0.0000
# 2 66.4002 114.1150 54.4781 0.0000 0.0000 0.0000
# 3 67.1134 54.4781 98.5387 0.0000 0.0000 0.0000
# 4 0.0000 0.0000 0.0000 15.2086 0.0000 0.0000
# 5 0.0000 0.0000 0.0000 0.0000 21.4729 0.0000
# 6 0.0000 0.0000 0.0000 0.0000 0.0000 37.9525
#
#
#
# Elastic Compliance Matrix: (Units=1/GPa)
#
#
# Indices 1 2 3 4 5 6 
#
# 1 0.010947 -0.003818 -0.005345 0.000000 0.000000 0.000000
# 2 -0.003818 0.013237 -0.004718 0.000000 0.000000 0.000000
# 3 -0.005345 -0.004718 0.016397 0.000000 0.000000 0.000000
# 4 0.000000 0.000000 0.000000 0.065752 0.000000 0.000000
# 5 0.000000 0.000000 0.000000 0.000000 0.046570 0.000000
# 6 0.000000 0.000000 0.000000 0.000000 0.000000 0.026349
#
#
# Mechanical properties :
#
#
# Convention : Reuss Voigt Hill
#
# Bulk Modulus (GPa) = 78.00754 81.76850 79.88802
# Shear Modulus (GPa) = 23.66458 26.38956 25.02707
#
# Velocity S-wave (km/s) = 3.43703 3.62953 3.53459
# Velocity P-wave (km/s) = 7.39539 7.64087 7.51913
#
# Compressibility (1/GPa) = 0.01281927
#
# Stress axis : x y z
#
# Youngs Moduli (GPa) = 91.35153 75.54633 60.98715
#
# Poissons Ratio (x) = 0.28843 0.32597
# Poissons Ratio (y) = 0.34878 0.28773
# Poissons Ratio (z) = 0.48826 0.35641
#
# Static dielectric constant tensor:
#      x y z
#    x 3.849800 0.000000 0.000000 
#    y 0.000000 3.597680 0.000000 
#    z 0.000000 0.000000 3.521440 
# 
# 
# High freq. dielectric constant tensor:
#      x y z
#    x 1.796310 0.000000 0.000000 
#    y 0.000000 1.782450 0.000000 
#    z 0.000000 0.000000 1.762260 
# 
# From -- ./inp_files/16183.got.cif
#   From: 2010.03.12/outbox.cif.g09.slc.cpg/sg39_9_cif.got.tgz:16183.got - 2010.04.14 02:53:20.
