data_PCOD8181501
_publ_section_title
;
Structure prediction by ZEFSAII (Michael W. Deem and Ramdas Pophale) SiO2 
 PCOD8181501
Probable space group: A B M 2
;
_chemical_formula_sum "Si O2"
_cell_formula_units_Z 52
_cell_length_a 10.943145
_cell_length_b 16.552234
_cell_length_c 14.321518
_cell_angle_alpha 90.000000
_cell_angle_beta 90.000000
_cell_angle_gamma 90.000000
_cell_volume 2594.106634
_symmetry_space_group_name_H-M "A B M 2"
_symmetry_group_IT_number 39
_symmetry_cell_setting 'orthorhombic'
loop_
_space_group_symop_operation_xyz
x,y,z
-x,-y,z
-x,1/2+y,z
x,1/2-y,z
x,1/2+y,1/2+z
-x,1/2-y,1/2+z
-x,y,1/2+z
x,-y,1/2+z
loop_
_atom_site_type_symbol
_atom_site_label
_atom_site_fract_x
_atom_site_fract_y
_atom_site_fract_z
Si Si1 0.635208 0.841869 0.897720
Si Si2 0.953004 0.160372 0.730037
Si Si3 0.774972 0.842331 0.710037
Si Si4 0.051877 0.410814 0.424528
Si Si5 0.500000 0.500000 0.442085
Si Si6 0.832456 0.622181 0.044068
Si Si7 0.261624 0.049691 0.548728
O O1 0.577459 0.750000 0.889948
O O2 0.732272 0.856738 0.815568
O O3 0.537569 0.916419 0.886957
O O4 0.708239 0.845376 0.996093
O O5 0.971062 0.250000 0.768954
O O6 0.910510 0.109516 0.818785
O O7 0.856982 0.162349 0.644710
O O8 0.085316 0.128536 0.697173
O O9 0.754718 0.750000 0.679498
O O10 0.700352 0.899873 0.640238
O O11 0.178551 0.396947 0.479520
O O12 0.000000 0.500000 0.424740
O O13 0.945320 0.357724 0.473826
O O14 0.612588 0.524472 0.504110
O O15 0.819932 0.528464 0.070888
#
# Coordination Sequence:
#
# PCOD8181501 Si02
#       7
#     8   8   8   8   4   8   8
#     4  10  21  41  64  88 122 159 203 255 300 359
#     4  11  22  33  54  90 124 154 186 229 298 372
#     4  10  21  35  59  90 119 155 194 240 305 365
#     4  10  21  34  56  84 117 153 190 241 294 351
#     4  10  24  42  62  86 112 166 218 246 304 348
#     4  10  20  35  59  88 118 154 195 238 304 360
#     4  10  22  39  58  85 116 155 203 252 289 349
#
# _framework density 20.045435999999999
#
# number of rings (size 3 to 8) (size 9 to 14) (size 15 to 20)
#    0.000    1.846    3.077    0.462    2.154    2.462 
#    0.000    1.538    0.000    3.692    0.000    0.000 
#    0.000    0.000    0.000    0.000    0.000    0.000 
#
# Total GULP energy -322177.166052 kJ/mol
# GULP energy per Si atom -12391.429464 kJ/mol
# Density = 1.999981 g / cm^3
# Si number density = 20.045436 Si / 1000 Ang^3
#
#
#
# Elastic Constant Matrix: (Units=GPa)
#
#
# Indices 1 2 3 4 5 6 
#
# 1 73.1628 31.2534 17.3416 0.0000 0.0000 0.0000
# 2 31.2534 97.4200 38.0019 0.0000 0.0000 0.0000
# 3 17.3416 38.0019 103.8589 0.0000 0.0000 0.0000
# 4 0.0000 0.0000 0.0000 7.8366 0.0000 0.0000
# 5 0.0000 0.0000 0.0000 0.0000 16.4746 0.0000
# 6 0.0000 0.0000 0.0000 0.0000 0.0000 24.5839
#
#
#
# Elastic Compliance Matrix: (Units=1/GPa)
#
#
# Indices 1 2 3 4 5 6 
#
# 1 0.015914 -0.004746 -0.000921 0.000000 0.000000 0.000000
# 2 -0.004746 0.013389 -0.004107 0.000000 0.000000 0.000000
# 3 -0.000921 -0.004107 0.011285 0.000000 0.000000 0.000000
# 4 0.000000 0.000000 0.000000 0.127606 0.000000 0.000000
# 5 0.000000 0.000000 0.000000 0.000000 0.060700 0.000000
# 6 0.000000 0.000000 0.000000 0.000000 0.000000 0.040677
#
#
# Mechanical properties :
#
#
# Convention : Reuss Voigt Hill
#
# Bulk Modulus (GPa) = 47.52599 49.73727 48.63163
# Shear Modulus (GPa) = 16.88442 22.30201 19.59321
#
# Velocity S-wave (km/s) = 2.90540 3.33914 3.12980
# Velocity P-wave (km/s) = 5.91741 6.30338 6.11344
#
# Compressibility (1/GPa) = 0.02104112
#
# Stress axis : x y z
#
# Youngs Moduli (GPa) = 62.83846 74.68582 88.61489
#
# Poissons Ratio (x) = 0.35448 0.08157
# Poissons Ratio (y) = 0.29825 0.36391
# Poissons Ratio (z) = 0.05784 0.30671
#
# Static dielectric constant tensor:
#      x y z
#    x 3.487410 0.000000 0.000000 
#    y 0.000000 3.928120 0.000000 
#    z 0.000000 0.000000 3.511250 
# 
# 
# High freq. dielectric constant tensor:
#      x y z
#    x 1.754440 0.000000 0.000000 
#    y 0.000000 1.788430 0.000000 
#    z 0.000000 0.000000 1.779680 
# 
# From -- ./inp_files/9372.got.cif
#   From: 2010.03.12/outbox.cif.g09.slc.cpg/sg39_5_cif.got.tgz:9372.got - 2010.04.14 02:53:20.
