data_PCOD8181889
_publ_section_title
;
Structure prediction by ZEFSAII (Michael W. Deem and Ramdas Pophale) SiO2 
 PCOD8181889
Probable space group: A B M 2
;
_chemical_formula_sum "Si O2"
_cell_formula_units_Z 40
_cell_length_a 5.746321
_cell_length_b 23.819390
_cell_length_c 13.185420
_cell_angle_alpha 90.000000
_cell_angle_beta 90.000000
_cell_angle_gamma 90.000000
_cell_volume 1804.739344
_symmetry_space_group_name_H-M "A B M 2"
_symmetry_group_IT_number 39
_symmetry_cell_setting 'orthorhombic'
loop_
_space_group_symop_operation_xyz
x,y,z
-x,-y,z
-x,1/2+y,z
x,1/2-y,z
x,1/2+y,1/2+z
-x,1/2-y,1/2+z
-x,y,1/2+z
x,-y,1/2+z
loop_
_atom_site_type_symbol
_atom_site_label
_atom_site_fract_x
_atom_site_fract_y
_atom_site_fract_z
Si Si1 0.577105 0.686422 0.970030
Si Si2 0.096685 0.187747 0.788840
Si Si3 0.579706 0.375742 0.152860
Si Si4 0.246326 0.031394 0.515302
Si Si5 0.286258 0.607710 0.833715
O O1 0.501575 0.750000 0.993653
O O2 0.811678 0.684624 0.904617
O O3 0.375070 0.657508 0.905445
O O4 0.607574 0.651206 0.074196
O O5 0.990068 0.250000 0.769535
O O6 0.291106 0.177486 0.703195
O O7 0.927687 0.135321 0.774729
O O8 0.753005 0.417732 0.094931
O O9 0.460625 0.410766 0.244072
O O10 0.226370 0.052973 0.399475
O O11 0.500000 0.000000 0.526589
O O12 0.000000 0.000000 0.537504
#
# Coordination Sequence:
#
# PCOD8181889 Si02
#       5
#     8   8   8   8   8
#     4   9  19  37  61  93 137 179 218 270 341 415
#     4  10  21  38  66 101 138 180 220 278 353 422
#     4  10  23  41  66  99 134 175 231 289 339 418
#     4  11  28  49  73  99 136 184 238 293 353 401
#     4  10  23  41  66  93 139 173 229 286 347 411
#
# _framework density 22.163865000000001
#
# number of rings (size 3 to 8) (size 9 to 14) (size 15 to 20)
#    0.000    2.000    0.000    1.200   11.200    4.800 
#    0.000    4.000    0.000    0.000    0.000    0.000 
#    0.000    0.000    0.000    0.000    0.000    0.000 
#
# Total GULP energy -247784.964116 kJ/mol
# GULP energy per Si atom -12389.248206 kJ/mol
# Density = 2.211342 g / cm^3
# Si number density = 22.163865 Si / 1000 Ang^3
#
#
#
# Elastic Constant Matrix: (Units=GPa)
#
#
# Indices 1 2 3 4 5 6 
#
# 1 86.0905 29.8720 24.2185 0.0000 0.0000 0.0000
# 2 29.8720 87.8734 44.5543 0.0000 0.0000 0.0000
# 3 24.2185 44.5543 133.6956 0.0000 0.0000 0.0000
# 4 0.0000 0.0000 0.0000 29.1369 0.0000 0.0000
# 5 0.0000 0.0000 0.0000 0.0000 16.8243 0.0000
# 6 0.0000 0.0000 0.0000 0.0000 0.0000 36.6391
#
#
#
# Elastic Compliance Matrix: (Units=1/GPa)
#
#
# Indices 1 2 3 4 5 6 
#
# 1 0.013299 -0.003970 -0.001086 0.000000 0.000000 0.000000
# 2 -0.003970 0.014879 -0.004239 0.000000 0.000000 0.000000
# 3 -0.001086 -0.004239 0.009089 0.000000 0.000000 0.000000
# 4 0.000000 0.000000 0.000000 0.034321 0.000000 0.000000
# 5 0.000000 0.000000 0.000000 0.000000 0.059438 0.000000
# 6 0.000000 0.000000 0.000000 0.000000 0.000000 0.027293
#
#
# Mechanical properties :
#
#
# Convention : Reuss Voigt Hill
#
# Bulk Modulus (GPa) = 53.54438 56.10545 54.82491
# Shear Modulus (GPa) = 27.30226 30.45438 28.87832
#
# Velocity S-wave (km/s) = 3.51356 3.71085 3.61355
# Velocity P-wave (km/s) = 6.37738 6.61282 6.49617
#
# Compressibility (1/GPa) = 0.01867610
#
# Stress axis : x y z
#
# Youngs Moduli (GPa) = 75.19486 67.20834 110.02132
#
# Poissons Ratio (x) = 0.26683 0.11948
# Poissons Ratio (y) = 0.29854 0.46641
# Poissons Ratio (z) = 0.08166 0.28492
#
# Static dielectric constant tensor:
#      x y z
#    x 3.762340 0.000000 0.000000 
#    y 0.000000 3.888730 0.000000 
#    z 0.000000 0.000000 4.182100 
# 
# 
# High freq. dielectric constant tensor:
#      x y z
#    x 1.852260 0.000000 0.000000 
#    y 0.000000 1.866180 0.000000 
#    z 0.000000 0.000000 1.887790 
# 
# From -- ./inp_files/4509.got.cif
#   From: 2010.03.12/outbox.cif.g09.slc.cpg/sg39_3_cif.got.tgz:4509.got - 2010.04.14 02:53:20.
