data_PCOD8181180
_publ_section_title
;
Structure prediction by ZEFSAII (Michael W. Deem and Ramdas Pophale) SiO2 
 PCOD8181180
Probable space group: A B M 2
;
_chemical_formula_sum "Si O2"
_cell_formula_units_Z 48
_cell_length_a 10.008082
_cell_length_b 15.594948
_cell_length_c 14.166385
_cell_angle_alpha 90.000000
_cell_angle_beta 90.000000
_cell_angle_gamma 90.000000
_cell_volume 2211.025882
_symmetry_space_group_name_H-M "A B M 2"
_symmetry_group_IT_number 39
_symmetry_cell_setting 'orthorhombic'
loop_
_space_group_symop_operation_xyz
x,y,z
-x,-y,z
-x,1/2+y,z
x,1/2-y,z
x,1/2+y,1/2+z
-x,1/2-y,1/2+z
-x,y,1/2+z
x,-y,1/2+z
loop_
_atom_site_type_symbol
_atom_site_label
_atom_site_fract_x
_atom_site_fract_y
_atom_site_fract_z
Si Si1 0.656042 0.845578 0.619560
Si Si2 0.895287 0.647499 0.739937
Si Si3 0.166468 0.148798 0.144106
Si Si4 0.780984 0.850718 0.934930
Si Si5 0.478590 0.352449 0.434869
Si Si6 0.569146 0.590782 0.234918
O O1 0.700490 0.750000 0.592799
O O2 0.783861 0.891384 0.668064
O O3 0.603531 0.891381 0.523971
O O4 0.534333 0.839615 0.694076
O O5 0.887767 0.750000 0.739172
O O6 0.864983 0.611941 0.845789
O O7 0.039244 0.616389 0.703766
O O8 0.193116 0.250000 0.159000
O O9 0.291764 0.094760 0.180133
O O10 0.144194 0.127873 0.033148
O O11 0.768926 0.750000 0.920961
O O12 0.630309 0.888363 0.936100
O O13 0.477709 0.250000 0.438924
O O14 0.402652 0.388180 0.343753
O O15 0.500000 0.500000 0.217857
#
# Coordination Sequence:
#
# PCOD8181180 Si02
#       6
#     8   8   8   8   8   8
#     4  10  19  36  61  86 109 147 198 245 289 343
#     4   9  18  32  57  90 121 147 189 250 305 353
#     4  10  20  36  58  88 121 153 195 245 299 356
#     4   9  16  30  56  86 114 148 186 240 301 343
#     4  10  19  34  60  85 110 148 198 248 290 342
#     4  12  24  36  54  85 117 158 194 239 288 349
#
# _framework density 21.709379999999999
#
# number of rings (size 3 to 8) (size 9 to 14) (size 15 to 20)
#    0.000    2.000    3.333    1.500    0.000    2.000 
#    0.000    5.833    0.000    0.000    4.333    0.000 
#    0.000    0.000    0.000    0.000    0.000    0.000 
#
# Total GULP energy -297520.963770 kJ/mol
# GULP energy per Si atom -12396.706824 kJ/mol
# Density = 2.165997 g / cm^3
# Si number density = 21.709380 Si / 1000 Ang^3
#
#
#
# Elastic Constant Matrix: (Units=GPa)
#
#
# Indices 1 2 3 4 5 6 
#
# 1 160.8106 20.1223 82.2339 0.0000 0.0000 0.0000
# 2 20.1223 22.0687 24.5670 0.0000 0.0000 0.0000
# 3 82.2339 24.5670 181.5101 0.0000 0.0000 0.0000
# 4 0.0000 0.0000 0.0000 7.5108 0.0000 0.0000
# 5 0.0000 0.0000 0.0000 0.0000 44.4329 0.0000
# 6 0.0000 0.0000 0.0000 0.0000 0.0000 14.9260
#
#
#
# Elastic Compliance Matrix: (Units=1/GPa)
#
#
# Indices 1 2 3 4 5 6 
#
# 1 0.008386 -0.004023 -0.003255 0.000000 0.000000 0.000000
# 2 -0.004023 0.055282 -0.005659 0.000000 0.000000 0.000000
# 3 -0.003255 -0.005659 0.007750 0.000000 0.000000 0.000000
# 4 0.000000 0.000000 0.000000 0.133142 0.000000 0.000000
# 5 0.000000 0.000000 0.000000 0.000000 0.022506 0.000000
# 6 0.000000 0.000000 0.000000 0.000000 0.000000 0.066997
#
#
# Mechanical properties :
#
#
# Convention : Reuss Voigt Hill
#
# Bulk Modulus (GPa) = 21.95747 68.69287 45.32517
# Shear Modulus (GPa) = 14.92004 29.20503 22.06253
#
# Velocity S-wave (km/s) = 2.62441 3.67177 3.19135
# Velocity P-wave (km/s) = 4.39541 7.04887 5.87394
#
# Compressibility (1/GPa) = 0.04554259
#
# Stress axis : x y z
#
# Youngs Moduli (GPa) = 119.24028 18.08917 129.03229
#
# Poissons Ratio (x) = 0.07278 0.41999
# Poissons Ratio (y) = 0.47975 0.73025
# Poissons Ratio (z) = 0.38812 0.10237
#
# Static dielectric constant tensor:
#      x y z
#    x 3.915420 0.000000 0.000000 
#    y 0.000000 3.326660 0.000000 
#    z 0.000000 0.000000 4.247640 
# 
# 
# High freq. dielectric constant tensor:
#      x y z
#    x 1.842030 0.000000 0.000000 
#    y 0.000000 1.803280 0.000000 
#    z 0.000000 0.000000 1.869850 
# 
# From -- ./inp_files/8318.got.cif
#   From: 2010.03.12/outbox.cif.g09.slc.cpg/sg39_5_cif.got.tgz:8318.got - 2010.04.14 02:53:20.
