data_PCOD8181175
_publ_section_title
;
Structure prediction by ZEFSAII (Michael W. Deem and Ramdas Pophale) SiO2 
 PCOD8181175
Probable space group: A B M 2
;
_chemical_formula_sum "Si O2"
_cell_formula_units_Z 64
_cell_length_a 12.120921
_cell_length_b 17.577253
_cell_length_c 15.403480
_cell_angle_alpha 90.000000
_cell_angle_beta 90.000000
_cell_angle_gamma 90.000000
_cell_volume 3281.749846
_symmetry_space_group_name_H-M "A B M 2"
_symmetry_group_IT_number 39
_symmetry_cell_setting 'orthorhombic'
loop_
_space_group_symop_operation_xyz
x,y,z
-x,-y,z
-x,1/2+y,z
x,1/2-y,z
x,1/2+y,1/2+z
-x,1/2-y,1/2+z
-x,y,1/2+z
x,-y,1/2+z
loop_
_atom_site_type_symbol
_atom_site_label
_atom_site_fract_x
_atom_site_fract_y
_atom_site_fract_z
Si Si1 0.522240 0.840570 0.537320
Si Si2 0.631485 0.340736 0.691252
Si Si3 0.021143 0.588310 0.343192
Si Si4 0.881800 0.660089 0.191232
Si Si5 0.238220 0.665131 0.292959
Si Si6 0.477767 0.159429 0.845188
Si Si7 0.021149 0.588310 0.039282
Si Si8 0.761785 0.334869 0.089556
O O1 0.518661 0.750000 0.538288
O O2 0.431162 0.871769 0.605267
O O3 0.500005 0.873120 0.441254
O O4 0.642921 0.868917 0.565175
O O5 0.630261 0.250000 0.691252
O O6 0.756636 0.371873 0.691249
O O7 0.568844 0.371769 0.777240
O O8 0.148737 0.606065 0.327125
O O9 0.999966 0.614219 0.441233
O O10 0.000000 0.500000 0.327955
O O11 0.942868 0.633883 0.278114
O O12 0.881813 0.750000 0.191226
O O13 0.942831 0.633878 0.104335
O O14 0.221130 0.750000 0.333490
O O15 0.357085 0.631080 0.317336
O O16 0.227158 0.672054 0.191258
O O17 0.481341 0.250000 0.844219
O O18 0.000000 0.500000 0.054506
O O19 0.148732 0.606064 0.055398
O O20 0.778882 0.250000 0.049026
#
# Coordination Sequence:
#
# PCOD8181175 Si02
#       8
#     8   8   8   8   8   8   8   8
#     4   9  17  30  51  81 116 150 182 229 291 342
#     4   9  18  32  49  81 120 145 175 226 291 347
#     4  11  25  42  59  82 116 162 199 237 291 352
#     4  11  23  38  61  91 121 150 189 248 298 343
#     4  10  19  34  59  87 114 147 194 246 286 337
#     4   9  17  30  51  81 116 150 182 229 291 342
#     4  11  25  42  59  82 116 162 199 237 291 352
#     4  10  19  34  59  87 114 147 194 246 286 337
#
# _framework density 19.501791999999998
#
# number of rings (size 3 to 8) (size 9 to 14) (size 15 to 20)
#    0.000    2.000    2.500    1.125    3.500    2.000 
#    0.000    0.000    0.000    3.000    0.000    0.000 
#    0.000    0.000    0.000    0.000    0.000    0.000 
#
# Total GULP energy -396784.868724 kJ/mol
# GULP energy per Si atom -12399.527148 kJ/mol
# Density = 1.945740 g / cm^3
# Si number density = 19.501792 Si / 1000 Ang^3
#
#
#
# Elastic Constant Matrix: (Units=GPa)
#
#
# Indices 1 2 3 4 5 6 
#
# 1 144.0414 28.0580 60.4175 0.0000 0.0000 0.0000
# 2 28.0580 45.5193 24.2655 0.0000 0.0000 0.0000
# 3 60.4175 24.2655 147.0264 0.0000 0.0000 0.0000
# 4 0.0000 0.0000 0.0000 11.8388 0.0000 0.0000
# 5 0.0000 0.0000 0.0000 0.0000 36.2278 0.0000
# 6 0.0000 0.0000 0.0000 0.0000 0.0000 9.4912
#
#
#
# Elastic Compliance Matrix: (Units=1/GPa)
#
#
# Indices 1 2 3 4 5 6 
#
# 1 0.008982 -0.003913 -0.003045 0.000000 0.000000 0.000000
# 2 -0.003913 0.025793 -0.002649 0.000000 0.000000 0.000000
# 3 -0.003045 -0.002649 0.008490 0.000000 0.000000 0.000000
# 4 0.000000 0.000000 0.000000 0.084468 0.000000 0.000000
# 5 0.000000 0.000000 0.000000 0.000000 0.027603 0.000000
# 6 0.000000 0.000000 0.000000 0.000000 0.000000 0.105361
#
#
# Mechanical properties :
#
#
# Convention : Reuss Voigt Hill
#
# Bulk Modulus (GPa) = 41.57915 62.45213 52.01564
# Shear Modulus (GPa) = 17.36544 26.43463 21.90003
#
# Velocity S-wave (km/s) = 2.98728 3.68570 3.35472
# Velocity P-wave (km/s) = 5.76762 7.08561 6.46031
#
# Compressibility (1/GPa) = 0.02405052
#
# Stress axis : x y z
#
# Youngs Moduli (GPa) = 111.33429 38.77041 117.78566
#
# Poissons Ratio (x) = 0.15172 0.35867
# Poissons Ratio (y) = 0.43567 0.31200
# Poissons Ratio (z) = 0.33903 0.10270
#
# Static dielectric constant tensor:
#      x y z
#    x 3.716190 0.000000 0.000000 
#    y 0.000000 3.198780 0.000000 
#    z 0.000000 0.000000 3.791720 
# 
# 
# High freq. dielectric constant tensor:
#      x y z
#    x 1.776340 0.000000 0.000000 
#    y 0.000000 1.713540 0.000000 
#    z 0.000000 0.000000 1.771940 
# 
# From -- ./inp_files/9459.got.cif
#   From: 2010.03.12/outbox.cif.g09.slc.cpg/sg39_5_cif.got.tgz:9459.got - 2010.04.14 02:53:20.
