data_PCOD8181174
_publ_section_title
;
Structure prediction by ZEFSAII (Michael W. Deem and Ramdas Pophale) SiO2 
 PCOD8181174
Probable space group: A B M 2
;
_chemical_formula_sum "Si O2"
_cell_formula_units_Z 64
_cell_length_a 21.811861
_cell_length_b 15.740444
_cell_length_c 9.257298
_cell_angle_alpha 90.000000
_cell_angle_beta 90.000000
_cell_angle_gamma 90.000000
_cell_volume 3178.293094
_symmetry_space_group_name_H-M "A B M 2"
_symmetry_group_IT_number 39
_symmetry_cell_setting 'orthorhombic'
loop_
_space_group_symop_operation_xyz
x,y,z
-x,-y,z
-x,1/2+y,z
x,1/2-y,z
x,1/2+y,1/2+z
-x,1/2-y,1/2+z
-x,y,1/2+z
x,-y,1/2+z
loop_
_atom_site_type_symbol
_atom_site_label
_atom_site_fract_x
_atom_site_fract_y
_atom_site_fract_z
Si Si1 0.944108 0.409597 0.243240
Si Si2 0.185721 0.343796 0.733397
Si Si3 0.465219 0.584670 0.783439
Si Si4 0.061068 0.913570 0.583162
Si Si5 0.264978 0.009501 0.614893
Si Si6 0.431497 0.154407 0.980891
Si Si7 0.806823 0.345906 0.567317
Si Si8 0.350201 0.990787 0.368360
O O1 0.887660 0.346446 0.219340
O O2 0.954912 0.426085 0.413851
O O3 0.928194 0.496563 0.160595
O O4 0.004404 0.368596 0.167717
O O5 0.206996 0.250000 0.682845
O O6 0.216491 0.415322 0.635298
O O7 0.205221 0.360029 0.897981
O O8 0.500000 0.500000 0.728729
O O9 0.507760 0.638772 0.888032
O O10 0.447496 0.640642 0.647316
O O11 0.404409 0.559974 0.873324
O O12 0.121505 0.856993 0.603895
O O13 0.327158 0.021690 0.705754
O O14 0.233738 0.917691 0.647014
O O15 0.289316 0.019590 0.452476
O O16 0.409224 0.250000 0.958637
O O17 0.374420 0.097767 0.931967
O O18 0.787608 0.250000 0.614467
#
# Coordination Sequence:
#
# PCOD8181174 Si02
#       8
#     8   8   8   8   8   8   8   8
#     4  10  19  34  59  86 118 154 199 249 314 369
#     4  10  22  40  63  88 120 162 206 254 313 370
#     4  10  21  41  64  92 125 161 200 240 301 361
#     4  10  19  34  59  87 116 155 198 251 309 374
#     4  12  22  43  65  87 124 164 210 255 299 355
#     4  11  23  40  65  97 127 157 199 252 299 352
#     4  10  22  40  63  88 119 162 206 253 313 372
#     4  11  24  40  67  89 119 171 203 242 303 362
#
# _framework density 20.136593999999999
#
# number of rings (size 3 to 8) (size 9 to 14) (size 15 to 20)
#    0.000    1.500    3.750    3.000    1.750    1.500 
#    2.250    1.875    0.000    0.000    0.000    0.000 
#    0.000    0.000    0.000    0.000    0.000    0.000 
#
# Total GULP energy -396780.077126 kJ/mol
# GULP energy per Si atom -12399.377410 kJ/mol
# Density = 2.009076 g / cm^3
# Si number density = 20.136594 Si / 1000 Ang^3
#
#
#
# Elastic Constant Matrix: (Units=GPa)
#
#
# Indices 1 2 3 4 5 6 
#
# 1 97.9645 43.2536 36.5730 0.0000 0.0000 0.0000
# 2 43.2536 120.5991 45.6351 0.0000 0.0000 0.0000
# 3 36.5730 45.6351 85.6833 0.0000 0.0000 0.0000
# 4 0.0000 0.0000 0.0000 21.5738 0.0000 0.0000
# 5 0.0000 0.0000 0.0000 0.0000 40.0403 0.0000
# 6 0.0000 0.0000 0.0000 0.0000 0.0000 18.5813
#
#
#
# Elastic Compliance Matrix: (Units=1/GPa)
#
#
# Indices 1 2 3 4 5 6 
#
# 1 0.013075 -0.003228 -0.003861 0.000000 0.000000 0.000000
# 2 -0.003228 0.011182 -0.004578 0.000000 0.000000 0.000000
# 3 -0.003861 -0.004578 0.015757 0.000000 0.000000 0.000000
# 4 0.000000 0.000000 0.000000 0.046353 0.000000 0.000000
# 5 0.000000 0.000000 0.000000 0.000000 0.024975 0.000000
# 6 0.000000 0.000000 0.000000 0.000000 0.000000 0.053818
#
#
# Mechanical properties :
#
#
# Convention : Reuss Voigt Hill
#
# Bulk Modulus (GPa) = 59.95453 61.68561 60.82007
# Shear Modulus (GPa) = 25.76617 27.95809 26.86213
#
# Velocity S-wave (km/s) = 3.58099 3.73020 3.65635
# Velocity P-wave (km/s) = 6.85102 7.01802 6.93502
#
# Compressibility (1/GPa) = 0.01667931
#
# Stress axis : x y z
#
# Youngs Moduli (GPa) = 76.48379 89.43023 63.46320
#
# Poissons Ratio (x) = 0.28869 0.24506
# Poissons Ratio (y) = 0.24690 0.29051
# Poissons Ratio (z) = 0.29534 0.40938
#
# Static dielectric constant tensor:
#      x y z
#    x 3.754740 0.000000 0.000000 
#    y 0.000000 3.481040 0.000000 
#    z 0.000000 0.000000 3.605490 
# 
# 
# High freq. dielectric constant tensor:
#      x y z
#    x 1.797970 0.000000 0.000000 
#    y 0.000000 1.771980 0.000000 
#    z 0.000000 0.000000 1.781800 
# 
# From -- ./inp_files/4084.got.cif
#   From: 2010.03.12/outbox.cif.g09.slc.cpg/sg39_3_cif.got.tgz:4084.got - 2010.04.14 02:53:20.
