data_PCOD8181778
_publ_section_title
;
Structure prediction by ZEFSAII (Michael W. Deem and Ramdas Pophale) SiO2 
 PCOD8181778
Probable space group: A B M 2
;
_chemical_formula_sum "Si O2"
_cell_formula_units_Z 56
_cell_length_a 19.609730
_cell_length_b 8.956555
_cell_length_c 15.593024
_cell_angle_alpha 90.000000
_cell_angle_beta 90.000000
_cell_angle_gamma 90.000000
_cell_volume 2738.690520
_symmetry_space_group_name_H-M "A B M 2"
_symmetry_group_IT_number 39
_symmetry_cell_setting 'orthorhombic'
loop_
_space_group_symop_operation_xyz
x,y,z
-x,-y,z
-x,1/2+y,z
x,1/2-y,z
x,1/2+y,1/2+z
-x,1/2-y,1/2+z
-x,y,1/2+z
x,-y,1/2+z
loop_
_atom_site_type_symbol
_atom_site_label
_atom_site_fract_x
_atom_site_fract_y
_atom_site_fract_z
Si Si1 0.072883 0.925321 0.686810
Si Si2 0.563503 0.585967 0.278545
Si Si3 0.307162 0.426309 0.524582
Si Si4 0.832507 0.075021 0.529423
Si Si5 0.157477 0.421041 0.833267
Si Si6 0.687573 0.422821 0.345282
Si Si7 0.436689 0.586415 0.582753
O O1 0.063506 0.750000 0.693672
O O2 0.109853 0.969681 0.597870
O O3 0.113731 0.976611 0.770699
O O4 0.000000 0.000000 0.685435
O O5 0.500000 0.500000 0.324165
O O6 0.573992 0.750000 0.321830
O O7 0.631858 0.485895 0.280089
O O8 0.543673 0.611862 0.180763
O O9 0.305705 0.250000 0.532636
O O10 0.235272 0.488967 0.558232
O O11 0.321336 0.477318 0.428666
O O12 0.367954 0.490541 0.581317
O O13 0.815414 0.250000 0.531019
O O14 0.854904 0.029507 0.432590
O O15 0.134605 0.250000 0.820818
O O16 0.236569 0.442528 0.807459
O O17 0.673953 0.250000 0.366925
O O18 0.500000 0.500000 0.537239
O O19 0.427033 0.750000 0.538906
#
# Coordination Sequence:
#
# PCOD8181778 Si02
#       7
#     8   8   8   8   8   8   8
#     4  11  24  41  64  93 125 159 201 243 294 358
#     4  10  21  36  55  80 112 150 194 242 294 352
#     4  11  22  36  58  86 114 149 196 242 291 352
#     4   9  21  42  63  88 123 163 200 247 303 356
#     4   9  20  40  63  89 123 159 199 246 300 355
#     4  10  21  38  59  83 115 151 191 241 296 351
#     4  10  21  37  55  79 113 151 193 243 296 350
#
# _framework density 20.447728999999999
#
# number of rings (size 3 to 8) (size 9 to 14) (size 15 to 20)
#    0.000    2.000    0.000    3.857    2.000    6.857 
#    0.000    4.286    0.000    0.000    0.000    0.000 
#    0.000    0.000    0.000    0.000    0.000    0.000 
#
# Total GULP energy -347158.207295 kJ/mol
# GULP energy per Si atom -12398.507403 kJ/mol
# Density = 2.040119 g / cm^3
# Si number density = 20.447729 Si / 1000 Ang^3
#
#
#
# Elastic Constant Matrix: (Units=GPa)
#
#
# Indices 1 2 3 4 5 6 
#
# 1 159.0590 85.7646 60.0674 0.0000 0.0000 0.0000
# 2 85.7646 134.3685 42.7833 0.0000 0.0000 0.0000
# 3 60.0674 42.7833 74.9244 0.0000 0.0000 0.0000
# 4 0.0000 0.0000 0.0000 28.3140 0.0000 0.0000
# 5 0.0000 0.0000 0.0000 0.0000 -11.2631 0.0000
# 6 0.0000 0.0000 0.0000 0.0000 0.0000 38.9077
#
#
#
# Elastic Compliance Matrix: (Units=1/GPa)
#
#
# Indices 1 2 3 4 5 6 
#
# 1 0.011519 -0.005393 -0.006156 0.000000 0.000000 0.000000
# 2 -0.005393 0.011620 -0.002312 0.000000 0.000000 0.000000
# 3 -0.006156 -0.002312 0.019602 0.000000 0.000000 0.000000
# 4 0.000000 0.000000 0.000000 0.035318 0.000000 0.000000
# 5 0.000000 0.000000 0.000000 0.000000 -0.088786 0.000000
# 6 0.000000 0.000000 0.000000 0.000000 0.000000 0.025702
#
#
# Mechanical properties :
#
#
# Convention : Reuss Voigt Hill
#
# Bulk Modulus (GPa) = 66.57460 82.84252 74.70856
# Shear Modulus (GPa) = 104.81149 23.17415 63.99282
#
# Velocity S-wave (km/s) = 7.16725 3.37016 5.60033
# Velocity P-wave (km/s) = 10.05593 7.46634 8.85630
#
# Compressibility (1/GPa) = 0.01502074
#
# Stress axis : x y z
#
# Youngs Moduli (GPa) = 86.81044 86.05578 51.01422
#
# Poissons Ratio (x) = 0.46406 0.31404
# Poissons Ratio (y) = 0.46813 0.11796
# Poissons Ratio (z) = 0.53440 0.19898
#
# Static dielectric constant tensor:
#      x y z
#    x 3.741740 0.000000 0.000000 
#    y 0.000000 3.947100 0.000000 
#    z 0.000000 0.000000 3.528830 
# 
# 
# High freq. dielectric constant tensor:
#      x y z
#    x 1.800740 0.000000 0.000000 
#    y 0.000000 1.811020 0.000000 
#    z 0.000000 0.000000 1.785850 
# 
# From -- ./inp_files/10389.got.cif
#   From: 2010.03.12/outbox.cif.g09.slc.cpg/sg39_6_cif.got.tgz:10389.got - 2010.04.14 02:53:20.
