data_PCOD8181866
_publ_section_title
;
Structure prediction by ZEFSAII (Michael W. Deem and Ramdas Pophale) SiO2 
 PCOD8181866
Probable space group: A B M 2
;
_chemical_formula_sum "Si O2"
_cell_formula_units_Z 44
_cell_length_a 6.806127
_cell_length_b 19.986450
_cell_length_c 16.938783
_cell_angle_alpha 90.000000
_cell_angle_beta 90.000000
_cell_angle_gamma 90.000000
_cell_volume 2304.188021
_symmetry_space_group_name_H-M "A B M 2"
_symmetry_group_IT_number 39
_symmetry_cell_setting 'orthorhombic'
loop_
_space_group_symop_operation_xyz
x,y,z
-x,-y,z
-x,1/2+y,z
x,1/2-y,z
x,1/2+y,1/2+z
-x,1/2-y,1/2+z
-x,y,1/2+z
x,-y,1/2+z
loop_
_atom_site_type_symbol
_atom_site_label
_atom_site_fract_x
_atom_site_fract_y
_atom_site_fract_z
Si Si1 0.854516 0.117644 0.672550
Si Si2 0.360747 0.059503 0.865169
Si Si3 0.261557 0.326657 0.612566
Si Si4 0.000000 0.500000 0.776850
Si Si5 0.524168 0.823876 0.265077
Si Si6 0.550142 0.926025 0.045265
O O1 0.748162 0.165324 0.736473
O O2 0.716174 0.105719 0.598510
O O3 0.042585 0.152758 0.635169
O O4 0.888394 0.048876 0.717952
O O5 0.143900 0.043481 0.832513
O O6 0.452627 0.127413 0.833110
O O7 0.500000 0.000000 0.836648
O O8 0.357277 0.067108 0.958836
O O9 0.265833 0.250000 0.580668
O O10 0.383508 0.334796 0.691567
O O11 0.356624 0.377567 0.547886
O O12 0.506934 0.750000 0.300895
O O13 0.500000 0.000000 0.077467
#
# Coordination Sequence:
#
# PCOD8181866 Si02
#       6
#     8   8   8   4   8   8
#     4  11  21  37  63  90 120 159 209 256 308 368
#     4  11  23  41  60  90 125 162 204 255 312 373
#     4  10  21  39  62  90 120 159 205 254 305 370
#     4  12  22  34  66  92 122 160 212 260 308 362
#     4  10  21  38  61  88 119 158 206 252 304 367
#     4  10  24  39  61  88 126 161 202 251 314 372
#
# _framework density 19.095662999999998
#
# number of rings (size 3 to 8) (size 9 to 14) (size 15 to 20)
#    0.000    1.455    3.636    1.636    2.545    5.091 
#    0.000    0.000    0.000    0.000    0.000    0.000 
#    0.000    0.000    0.000    0.000    0.000    0.000 
#
# Total GULP energy -272777.447001 kJ/mol
# GULP energy per Si atom -12398.974864 kJ/mol
# Density = 1.905220 g / cm^3
# Si number density = 19.095663 Si / 1000 Ang^3
#
#
#
# Elastic Constant Matrix: (Units=GPa)
#
#
# Indices 1 2 3 4 5 6 
#
# 1 115.9831 38.2082 26.4685 0.0000 0.0000 0.0000
# 2 38.2082 128.3481 28.2431 0.0000 0.0000 0.0000
# 3 26.4685 28.2431 48.8078 0.0000 0.0000 0.0000
# 4 0.0000 0.0000 0.0000 0.1101 0.0000 0.0000
# 5 0.0000 0.0000 0.0000 0.0000 120.8719 0.0000
# 6 0.0000 0.0000 0.0000 0.0000 0.0000 31.5376
#
#
#
# Elastic Compliance Matrix: (Units=1/GPa)
#
#
# Indices 1 2 3 4 5 6 
#
# 1 0.010315 -0.002108 -0.004374 0.000000 0.000000 0.000000
# 2 -0.002108 0.009359 -0.004272 0.000000 0.000000 0.000000
# 3 -0.004374 -0.004272 0.025333 0.000000 0.000000 0.000000
# 4 0.000000 0.000000 0.000000 9.081965 0.000000 0.000000
# 5 0.000000 0.000000 0.000000 0.000000 0.008273 0.000000
# 6 0.000000 0.000000 0.000000 0.000000 0.000000 0.031708
#
#
# Mechanical properties :
#
#
# Convention : Reuss Voigt Hill
#
# Bulk Modulus (GPa) = 42.55732 53.21983 47.88858
# Shear Modulus (GPa) = 0.54370 43.85187 22.19779
#
# Velocity S-wave (km/s) = 0.53417 4.79731 3.41317
# Velocity P-wave (km/s) = 4.76605 7.65612 6.37697
#
# Compressibility (1/GPa) = 0.02349772
#
# Stress axis : x y z
#
# Youngs Moduli (GPa) = 96.95049 106.84860 39.47468
#
# Poissons Ratio (x) = 0.22525 0.17265
# Poissons Ratio (y) = 0.20438 0.16865
# Poissons Ratio (z) = 0.42403 0.45651
#
# Static dielectric constant tensor:
#      x y z
#    x 2.019970 0.000000 0.000000 
#    y 0.000000 3.811390 0.000000 
#    z 0.000000 0.000000 3.288780 
# 
# 
# High freq. dielectric constant tensor:
#      x y z
#    x 1.752080 0.000000 0.000000 
#    y 0.000000 1.756340 0.000000 
#    z 0.000000 0.000000 1.728550 
# 
# From -- ./inp_files/13471.got.cif
#   From: 2010.03.12/outbox.cif.g09.slc.cpg/sg39_7_cif.got.tgz:13471.got - 2010.04.14 02:53:20.
