data_PCOD8181608
_publ_section_title
;
Structure prediction by ZEFSAII (Michael W. Deem and Ramdas Pophale) SiO2 
 PCOD8181608
Probable space group: A B M 2
;
_chemical_formula_sum "Si O2"
_cell_formula_units_Z 56
_cell_length_a 19.303795
_cell_length_b 9.207983
_cell_length_c 15.732404
_cell_angle_alpha 90.000000
_cell_angle_beta 90.000000
_cell_angle_gamma 90.000000
_cell_volume 2796.419333
_symmetry_space_group_name_H-M "A B M 2"
_symmetry_group_IT_number 39
_symmetry_cell_setting 'orthorhombic'
loop_
_space_group_symop_operation_xyz
x,y,z
-x,-y,z
-x,1/2+y,z
x,1/2-y,z
x,1/2+y,1/2+z
-x,1/2-y,1/2+z
-x,y,1/2+z
x,-y,1/2+z
loop_
_atom_site_type_symbol
_atom_site_label
_atom_site_fract_x
_atom_site_fract_y
_atom_site_fract_z
Si Si1 0.288667 0.416704 0.551960
Si Si2 0.566508 0.419463 0.128811
Si Si3 0.715620 0.078345 0.385157
Si Si4 0.837549 0.921701 0.306945
Si Si5 0.072311 0.920460 0.970487
Si Si6 0.433879 0.918782 0.324367
Si Si7 0.150621 0.584118 0.141592
O O1 0.290614 0.250000 0.519133
O O2 0.363577 0.470450 0.582891
O O3 0.262630 0.521057 0.477355
O O4 0.233369 0.430062 0.627847
O O5 0.500000 0.500000 0.088216
O O6 0.554518 0.250000 0.117316
O O7 0.574598 0.463980 0.226592
O O8 0.726801 0.250000 0.376892
O O9 0.635876 0.033058 0.371503
O O10 0.763088 0.999222 0.315562
O O11 0.827670 0.750000 0.299692
O O12 0.883991 0.966029 0.387610
O O13 0.872288 0.982583 0.220314
O O14 0.059053 0.750000 0.970186
O O15 0.111890 0.968251 0.056160
O O16 0.000000 0.000000 0.966121
O O17 0.447882 0.750000 0.335201
O O18 0.500000 0.000000 0.365261
O O19 0.130620 0.750000 0.163195
#
# Coordination Sequence:
#
# PCOD8181608 Si02
#       7
#     8   8   8   8   8   8   8
#     4  10  20  37  58  80 115 156 196 246 306 358
#     4   9  18  33  53  74 104 147 191 242 300 356
#     4  11  22  36  57  85 117 154 201 253 303 358
#     4  11  23  41  64  93 125 162 206 250 299 360
#     4  10  23  43  66  92 128 163 198 245 299 358
#     4   9  19  35  53  76 107 147 195 247 302 360
#     4  10  21  41  65  90 123 162 202 249 302 357
#
# _framework density 20.025607000000001
#
# number of rings (size 3 to 8) (size 9 to 14) (size 15 to 20)
#    0.000    2.000    1.429    1.714    0.000    7.429 
#    0.000    8.571    0.000    0.000    0.000    0.000 
#    0.000    0.000    0.000    0.000    0.000    0.000 
#
# Total GULP energy -347256.077350 kJ/mol
# GULP energy per Si atom -12402.002763 kJ/mol
# Density = 1.998003 g / cm^3
# Si number density = 20.025607 Si / 1000 Ang^3
#
#
#
# Elastic Constant Matrix: (Units=GPa)
#
#
# Indices 1 2 3 4 5 6 
#
# 1 117.9957 51.3433 48.5890 0.0000 0.0000 0.0000
# 2 51.3433 69.7414 53.7007 0.0000 0.0000 0.0000
# 3 48.5890 53.7007 122.0284 0.0000 0.0000 0.0000
# 4 0.0000 0.0000 0.0000 34.4315 0.0000 0.0000
# 5 0.0000 0.0000 0.0000 0.0000 22.5483 0.0000
# 6 0.0000 0.0000 0.0000 0.0000 0.0000 37.1229
#
#
#
# Elastic Compliance Matrix: (Units=1/GPa)
#
#
# Indices 1 2 3 4 5 6 
#
# 1 0.012629 -0.008206 -0.001417 0.000000 0.000000 0.000000
# 2 -0.008206 0.027020 -0.008623 0.000000 0.000000 0.000000
# 3 -0.001417 -0.008623 0.012554 0.000000 0.000000 0.000000
# 4 0.000000 0.000000 0.000000 0.029043 0.000000 0.000000
# 5 0.000000 0.000000 0.000000 0.000000 0.044349 0.000000
# 6 0.000000 0.000000 0.000000 0.000000 0.000000 0.026938
#
#
# Mechanical properties :
#
#
# Convention : Reuss Voigt Hill
#
# Bulk Modulus (GPa) = 63.65493 68.55905 66.10699
# Shear Modulus (GPa) = 25.73835 29.22938 27.48386
#
# Velocity S-wave (km/s) = 3.58896 3.82462 3.70866
# Velocity P-wave (km/s) = 7.00214 7.33578 7.17090
#
# Compressibility (1/GPa) = 0.01570970
#
# Stress axis : x y z
#
# Youngs Moduli (GPa) = 79.18069 37.01001 79.65672
#
# Poissons Ratio (x) = 0.30371 0.11291
# Poissons Ratio (y) = 0.64978 0.68687
# Poissons Ratio (z) = 0.11223 0.31913
#
# Static dielectric constant tensor:
#      x y z
#    x 3.708300 0.000000 0.000000 
#    y 0.000000 3.490770 0.000000 
#    z 0.000000 0.000000 3.606920 
# 
# 
# High freq. dielectric constant tensor:
#      x y z
#    x 1.784410 0.000000 0.000000 
#    y 0.000000 1.772570 0.000000 
#    z 0.000000 0.000000 1.781400 
# 
# From -- ./inp_files/10355.got.cif
#   From: 2010.03.12/outbox.cif.g09.slc.cpg/sg39_6_cif.got.tgz:10355.got - 2010.04.14 02:53:20.
