data_PCOD8181077
_publ_section_title
;
Structure prediction by ZEFSAII (Michael W. Deem and Ramdas Pophale) SiO2 
 PCOD8181077
Probable space group: A B M 2
;
_chemical_formula_sum "Si O2"
_cell_formula_units_Z 64
_cell_length_a 14.606627
_cell_length_b 8.911147
_cell_length_c 24.617471
_cell_angle_alpha 90.000000
_cell_angle_beta 90.000000
_cell_angle_gamma 90.000000
_cell_volume 3204.254346
_symmetry_space_group_name_H-M "A B M 2"
_symmetry_group_IT_number 39
_symmetry_cell_setting 'orthorhombic'
loop_
_space_group_symop_operation_xyz
x,y,z
-x,-y,z
-x,1/2+y,z
x,1/2-y,z
x,1/2+y,1/2+z
-x,1/2-y,1/2+z
-x,y,1/2+z
x,-y,1/2+z
loop_
_atom_site_type_symbol
_atom_site_label
_atom_site_fract_x
_atom_site_fract_y
_atom_site_fract_z
Si Si1 0.780752 0.574934 0.821470
Si Si2 0.592652 0.570249 0.354361
Si Si3 0.899960 0.427428 0.728748
Si Si4 0.812751 0.917507 0.942015
Si Si5 0.088231 0.917822 0.544270
Si Si6 0.769066 0.574929 0.128741
Si Si7 0.360356 0.575600 0.973096
Si Si8 0.407892 0.071597 0.591407
O O1 0.768708 0.750000 0.806598
O O2 0.680556 0.497622 0.823147
O O3 0.848091 0.493338 0.780536
O O4 0.832633 0.553017 0.879036
O O5 0.500000 0.500000 0.328496
O O6 0.594265 0.750000 0.348211
O O7 0.592324 0.516251 0.417652
O O8 0.912420 0.250000 0.735754
O O9 0.835666 0.468581 0.678047
O O10 0.000000 0.500000 0.721669
O O11 0.770157 0.750000 0.949245
O O12 0.746007 0.039951 0.967273
O O13 0.904054 0.931366 0.978715
O O14 0.073611 0.750000 0.564467
O O15 0.179866 0.976610 0.573524
O O16 0.000000 0.000000 0.566466
O O17 0.743602 0.750000 0.129648
O O18 0.675096 0.481463 0.130058
O O19 0.374962 0.750000 0.977340
O O20 0.398153 0.506073 0.029430
O O21 0.412995 0.250000 0.593088
O O22 0.500000 0.000000 0.615919
#
# Coordination Sequence:
#
# PCOD8181077 Si02
#       8
#     8   8   8   8   8   8   8   8
#     4  10  21  38  60  87 118 154 197 245 296 349
#     4  10  19  33  54  84 122 161 202 243 289 346
#     4  11  24  43  67  91 114 149 196 247 299 353
#     4   9  18  33  54  80 115 155 191 232 289 344
#     4  10  20  34  54  82 114 149 186 231 286 347
#     4  10  22  41  62  84 115 151 193 243 294 345
#     4   9  18  31  50  80 116 157 199 237 281 337
#     4  11  22  35  56  86 120 158 198 238 288 345
#
# _framework density 19.973447
#
# number of rings (size 3 to 8) (size 9 to 14) (size 15 to 20)
#    0.000    2.000    1.250    2.250    0.000    4.000 
#    0.000    1.875    0.000    3.000    0.000    0.000 
#    0.000    0.000    0.000    0.000    0.000    0.000 
#
# Total GULP energy -396618.606193 kJ/mol
# GULP energy per Si atom -12394.331444 kJ/mol
# Density = 1.992799 g / cm^3
# Si number density = 19.973447 Si / 1000 Ang^3
#
#
#
# Elastic Constant Matrix: (Units=GPa)
#
#
# Indices 1 2 3 4 5 6 
#
# 1 151.3486 64.4488 56.6077 0.0000 0.0000 0.0000
# 2 64.4488 78.1419 41.7461 0.0000 0.0000 0.0000
# 3 56.6077 41.7461 91.7450 0.0000 0.0000 0.0000
# 4 0.0000 0.0000 0.0000 25.7002 0.0000 0.0000
# 5 0.0000 0.0000 0.0000 0.0000 14.0686 0.0000
# 6 0.0000 0.0000 0.0000 0.0000 0.0000 39.5807
#
#
#
# Elastic Compliance Matrix: (Units=1/GPa)
#
#
# Indices 1 2 3 4 5 6 
#
# 1 0.010976 -0.007180 -0.003505 0.000000 0.000000 0.000000
# 2 -0.007180 0.021604 -0.005400 0.000000 0.000000 0.000000
# 3 -0.003505 -0.005400 0.015520 0.000000 0.000000 0.000000
# 4 0.000000 0.000000 0.000000 0.038910 0.000000 0.000000
# 5 0.000000 0.000000 0.000000 0.000000 0.071080 0.000000
# 6 0.000000 0.000000 0.000000 0.000000 0.000000 0.025265
#
#
# Mechanical properties :
#
#
# Convention : Reuss Voigt Hill
#
# Bulk Modulus (GPa) = 62.77895 71.87120 67.32508
# Shear Modulus (GPa) = 22.64141 26.43209 24.53675
#
# Velocity S-wave (km/s) = 3.37051 3.64175 3.50875
# Velocity P-wave (km/s) = 6.82983 7.33107 7.08489
#
# Compressibility (1/GPa) = 0.01592891
#
# Stress axis : x y z
#
# Youngs Moduli (GPa) = 91.11100 46.28804 64.43417
#
# Poissons Ratio (x) = 0.33234 0.22585
# Poissons Ratio (y) = 0.65416 0.34796
# Poissons Ratio (z) = 0.31936 0.24997
#
# Static dielectric constant tensor:
#      x y z
#    x 3.545050 0.000000 0.000000 
#    y 0.000000 3.578620 0.000000 
#    z 0.000000 0.000000 3.651630 
# 
# 
# High freq. dielectric constant tensor:
#      x y z
#    x 1.777060 0.000000 0.000000 
#    y 0.000000 1.778910 0.000000 
#    z 0.000000 0.000000 1.767380 
# 
# From -- ./inp_files/16146.got.cif
#   From: 2010.03.12/outbox.cif.g09.slc.cpg/sg39_9_cif.got.tgz:16146.got - 2010.04.14 02:53:20.
