data_PCOD8181016
_publ_section_title
;
Structure prediction by ZEFSAII (Michael W. Deem and Ramdas Pophale) SiO2 
 PCOD8181016
Probable space group: A B M 2
;
_chemical_formula_sum "Si O2"
_cell_formula_units_Z 64
_cell_length_a 14.546594
_cell_length_b 8.980955
_cell_length_c 24.701749
_cell_angle_alpha 90.000000
_cell_angle_beta 90.000000
_cell_angle_gamma 90.000000
_cell_volume 3227.093454
_symmetry_space_group_name_H-M "A B M 2"
_symmetry_group_IT_number 39
_symmetry_cell_setting 'orthorhombic'
loop_
_space_group_symop_operation_xyz
x,y,z
-x,-y,z
-x,1/2+y,z
x,1/2-y,z
x,1/2+y,1/2+z
-x,1/2-y,1/2+z
-x,y,1/2+z
x,-y,1/2+z
loop_
_atom_site_type_symbol
_atom_site_label
_atom_site_fract_x
_atom_site_fract_y
_atom_site_fract_z
Si Si1 0.327100 0.575308 0.123890
Si Si2 0.908640 0.079307 0.535245
Si Si3 0.728024 0.577326 0.815624
Si Si4 0.907227 0.075774 0.774198
Si Si5 0.399085 0.572886 0.904881
Si Si6 0.279829 0.074094 0.508774
Si Si7 0.415648 0.918679 0.226598
Si Si8 0.849910 0.417608 0.654185
O O1 0.336449 0.750000 0.125071
O O2 0.335122 0.516802 0.062393
O O3 0.402950 0.511930 0.165834
O O4 0.229205 0.537326 0.148980
O O5 0.909606 0.250000 0.516619
O O6 0.912409 0.065917 0.600613
O O7 0.819111 0.005369 0.507407
O O8 0.000000 0.000000 0.512299
O O9 0.740194 0.750000 0.832655
O O10 0.825801 0.498362 0.808988
O O11 0.663694 0.492529 0.857828
O O12 0.679149 0.561428 0.757944
O O13 0.907895 0.250000 0.787593
O O14 0.903246 0.046390 0.709607
O O15 0.000000 0.000000 0.795723
O O16 0.500000 0.500000 0.905077
O O17 0.409827 0.750000 0.898114
O O18 0.345278 0.529524 0.959587
O O19 0.261062 0.250000 0.511028
O O20 0.446546 0.750000 0.224521
O O21 0.500000 0.000000 0.256265
O O22 0.809012 0.250000 0.656733
#
# Coordination Sequence:
#
# PCOD8181016 Si02
#       8
#     8   8   8   8   8   8   8   8
#     4   9  17  33  54  79 114 154 190 233 287 342
#     4  10  19  32  53  84 121 159 200 239 285 342
#     4  11  23  41  62  86 116 153 197 246 297 349
#     4  11  22  36  57  86 121 159 198 241 291 349
#     4  11  24  43  66  91 115 149 197 247 299 354
#     4   9  20  38  60  84 115 152 194 242 293 345
#     4  10  21  34  53  82 114 149 188 230 286 349
#     4   9  18  31  50  80 116 157 198 236 280 336
#
# _framework density 19.832087999999999
#
# number of rings (size 3 to 8) (size 9 to 14) (size 15 to 20)
#    0.000    2.000    1.250    2.250    0.000    5.000 
#    0.000    0.625    0.000    3.000    0.000    0.000 
#    0.000    0.000    0.000    0.000    0.000    0.000 
#
# Total GULP energy -396584.154027 kJ/mol
# GULP energy per Si atom -12393.254813 kJ/mol
# Density = 1.978695 g / cm^3
# Si number density = 19.832088 Si / 1000 Ang^3
#
#
#
# Elastic Constant Matrix: (Units=GPa)
#
#
# Indices 1 2 3 4 5 6 
#
# 1 142.0640 66.2081 57.5074 0.0000 0.0000 0.0000
# 2 66.2081 79.1407 54.4910 0.0000 0.0000 0.0000
# 3 57.5074 54.4910 86.6674 0.0000 0.0000 0.0000
# 4 0.0000 0.0000 0.0000 23.5418 0.0000 0.0000
# 5 0.0000 0.0000 0.0000 0.0000 20.7797 0.0000
# 6 0.0000 0.0000 0.0000 0.0000 0.0000 37.7397
#
#
#
# Elastic Compliance Matrix: (Units=1/GPa)
#
#
# Indices 1 2 3 4 5 6 
#
# 1 0.011935 -0.007992 -0.002895 0.000000 0.000000 0.000000
# 2 -0.007992 0.027633 -0.012071 0.000000 0.000000 0.000000
# 3 -0.002895 -0.012071 0.021049 0.000000 0.000000 0.000000
# 4 0.000000 0.000000 0.000000 0.042478 0.000000 0.000000
# 5 0.000000 0.000000 0.000000 0.000000 0.048124 0.000000
# 6 0.000000 0.000000 0.000000 0.000000 0.000000 0.026497
#
#
# Mechanical properties :
#
#
# Convention : Reuss Voigt Hill
#
# Bulk Modulus (GPa) = 68.01927 73.80945 70.91436
# Shear Modulus (GPa) = 21.87883 25.05660 23.46771
#
# Velocity S-wave (km/s) = 3.32505 3.55834 3.44367
# Velocity P-wave (km/s) = 7.00809 7.36073 7.18658
#
# Compressibility (1/GPa) = 0.01470172
#
# Stress axis : x y z
#
# Youngs Moduli (GPa) = 83.78375 36.18901 47.50898
#
# Poissons Ratio (x) = 0.28922 0.13754
# Poissons Ratio (y) = 0.66958 0.57347
# Poissons Ratio (z) = 0.24255 0.43683
#
# Static dielectric constant tensor:
#      x y z
#    x 3.519490 0.000000 0.000000 
#    y 0.000000 3.628140 0.000000 
#    z 0.000000 0.000000 3.757650 
# 
# 
# High freq. dielectric constant tensor:
#      x y z
#    x 1.771710 0.000000 0.000000 
#    y 0.000000 1.776690 0.000000 
#    z 0.000000 0.000000 1.763950 
# 
# From -- ./inp_files/16188.got.cif
#   From: 2010.03.12/outbox.cif.g09.slc.cpg/sg39_9_cif.got.tgz:16188.got - 2010.04.14 02:53:20.
