data_PCOD8181954
_publ_section_title
;
Structure prediction by ZEFSAII (Michael W. Deem and Ramdas Pophale) SiO2 
 PCOD8181954
Probable space group: A B M 2
;
_chemical_formula_sum "Si O2"
_cell_formula_units_Z 40
_cell_length_a 14.850509
_cell_length_b 8.621627
_cell_length_c 14.801089
_cell_angle_alpha 90.000000
_cell_angle_beta 90.000000
_cell_angle_gamma 90.000000
_cell_volume 1895.065561
_symmetry_space_group_name_H-M "A B M 2"
_symmetry_group_IT_number 39
_symmetry_cell_setting 'orthorhombic'
loop_
_space_group_symop_operation_xyz
x,y,z
-x,-y,z
-x,1/2+y,z
x,1/2-y,z
x,1/2+y,1/2+z
-x,1/2-y,1/2+z
-x,y,1/2+z
x,-y,1/2+z
loop_
_atom_site_type_symbol
_atom_site_label
_atom_site_fract_x
_atom_site_fract_y
_atom_site_fract_z
Si Si1 0.775063 0.431918 0.520860
Si Si2 0.900686 0.933532 0.369053
Si Si3 0.587568 0.580480 0.723758
Si Si4 0.589486 0.077201 0.009600
Si Si5 0.215692 0.065068 0.715465
O O1 0.779395 0.250000 0.541165
O O2 0.847051 0.477722 0.446348
O O3 0.676082 0.474991 0.483363
O O4 0.799425 0.526927 0.610662
O O5 0.900281 0.750000 0.385622
O O6 0.857883 0.972890 0.272201
O O7 0.000000 0.000000 0.369774
O O8 0.500000 0.500000 0.767343
O O9 0.587382 0.750000 0.766158
O O10 0.578248 0.586080 0.616546
O O11 0.684648 0.504235 0.746838
O O12 0.601689 0.250000 0.969695
O O13 0.500000 0.000000 0.966969
O O14 0.206806 0.250000 0.728882
#
# Coordination Sequence:
#
# PCOD8181954 Si02
#       5
#     8   8   8   8   8
#     4  11  22  39  63  92 124 162 203 248 299 357
#     4  12  26  45  66  90 118 153 198 253 310 366
#     4   8  15  27  49  80 117 155 193 234 282 338
#     4   9  16  29  51  83 120 160 201 245 293 349
#     4  10  21  40  63  91 124 160 201 248 298 356
#
# _framework density 21.107448000000002
#
# number of rings (size 3 to 8) (size 9 to 14) (size 15 to 20)
#    0.000    2.000    0.000    6.000    0.000    6.400 
#    0.000    5.000    0.000    2.400    0.000    0.000 
#    0.000    0.000    0.000    0.000    0.000    0.000 
#
# Total GULP energy -247949.026981 kJ/mol
# GULP energy per Si atom -12397.451349 kJ/mol
# Density = 2.105941 g / cm^3
# Si number density = 21.107448 Si / 1000 Ang^3
#
#
#
# Elastic Constant Matrix: (Units=GPa)
#
#
# Indices 1 2 3 4 5 6 
#
# 1 168.7807 38.4337 40.8887 0.0000 0.0000 0.0000
# 2 38.4337 104.6803 4.7783 0.0000 0.0000 0.0000
# 3 40.8887 4.7783 52.7672 0.0000 0.0000 0.0000
# 4 0.0000 0.0000 0.0000 28.2329 0.0000 0.0000
# 5 0.0000 0.0000 0.0000 0.0000 28.2697 0.0000
# 6 0.0000 0.0000 0.0000 0.0000 0.0000 40.6176
#
#
#
# Elastic Compliance Matrix: (Units=1/GPa)
#
#
# Indices 1 2 3 4 5 6 
#
# 1 0.007967 -0.002654 -0.005933 0.000000 0.000000 0.000000
# 2 -0.002654 0.010477 0.001108 0.000000 0.000000 0.000000
# 3 -0.005933 0.001108 0.023448 0.000000 0.000000 0.000000
# 4 0.000000 0.000000 0.000000 0.035420 0.000000 0.000000
# 5 0.000000 0.000000 0.000000 0.000000 0.035374 0.000000
# 6 0.000000 0.000000 0.000000 0.000000 0.000000 0.024620
#
#
# Mechanical properties :
#
#
# Convention : Reuss Voigt Hill
#
# Bulk Modulus (GPa) = 37.12865 54.93661 46.03263
# Shear Modulus (GPa) = 31.00961 35.56586 33.28774
#
# Velocity S-wave (km/s) = 3.83708 4.10932 3.97553
# Velocity P-wave (km/s) = 6.10405 6.97129 6.55204
#
# Compressibility (1/GPa) = 0.02693338
#
# Stress axis : x y z
#
# Youngs Moduli (GPa) = 125.52563 95.44912 42.64742
#
# Poissons Ratio (x) = 0.25333 0.25302
# Poissons Ratio (y) = 0.33316 -0.04725
# Poissons Ratio (z) = 0.74472 -0.10575
#
# Static dielectric constant tensor:
#      x y z
#    x 4.104610 0.000000 0.000000 
#    y 0.000000 4.006610 0.000000 
#    z 0.000000 0.000000 3.484710 
# 
# 
# High freq. dielectric constant tensor:
#      x y z
#    x 1.836470 0.000000 0.000000 
#    y 0.000000 1.833930 0.000000 
#    z 0.000000 0.000000 1.806880 
# 
# From -- ./inp_files/9635.got.cif
#   From: 2010.03.12/outbox.cif.g09.slc.cpg/sg39_5_cif.got.tgz:9635.got - 2010.04.14 02:53:20.
