data_PCOD8181208
_publ_section_title
;
Structure prediction by ZEFSAII (Michael W. Deem and Ramdas Pophale) SiO2 
 PCOD8181208
Probable space group: A B M 2
;
_chemical_formula_sum "Si O2"
_cell_formula_units_Z 64
_cell_length_a 24.040907
_cell_length_b 8.741873
_cell_length_c 15.411595
_cell_angle_alpha 90.000000
_cell_angle_beta 90.000000
_cell_angle_gamma 90.000000
_cell_volume 3238.940194
_symmetry_space_group_name_H-M "A B M 2"
_symmetry_group_IT_number 39
_symmetry_cell_setting 'orthorhombic'
loop_
_space_group_symop_operation_xyz
x,y,z
-x,-y,z
-x,1/2+y,z
x,1/2-y,z
x,1/2+y,1/2+z
-x,1/2-y,1/2+z
-x,y,1/2+z
x,-y,1/2+z
loop_
_atom_site_type_symbol
_atom_site_label
_atom_site_fract_x
_atom_site_fract_y
_atom_site_fract_z
Si Si1 0.256856 0.578636 0.027530
Si Si2 0.134994 0.933017 0.020220
Si Si3 0.633311 0.072252 0.281950
Si Si4 0.862081 0.068967 0.336949
Si Si5 0.559790 0.430000 0.928949
Si Si6 0.255749 0.423221 0.325268
Si Si7 0.939557 0.430044 0.179447
Si Si8 0.629245 0.570394 0.588860
O O1 0.252223 0.750000 0.063841
O O2 0.309104 0.495232 0.074378
O O3 0.196632 0.501357 0.044913
O O4 0.270293 0.576102 0.926141
O O5 0.137257 0.750000 0.009474
O O6 0.116303 0.003878 0.928590
O O7 0.092733 0.988869 0.093945
O O8 0.628416 0.250000 0.306856
O O9 0.607895 0.039752 0.186155
O O10 0.599713 0.971066 0.349490
O O11 0.697738 0.023787 0.277419
O O12 0.855250 0.250000 0.342798
O O13 0.907145 0.018900 0.265568
O O14 0.803841 0.997643 0.307095
O O15 0.500000 0.500000 0.912187
O O16 0.553034 0.250000 0.932876
O O17 0.585280 0.496258 0.019127
O O18 0.255955 0.250000 0.289284
O O19 0.944962 0.250000 0.174977
O O20 0.000000 0.500000 0.180968
O O21 0.635763 0.750000 0.569711
#
# Coordination Sequence:
#
# PCOD8181208 Si02
#       8
#     8   8   8   8   8   8   8   8
#     4   8  14  30  57  82 109 147 187 226 278 344
#     4   9  19  36  59  84 113 153 194 233 291 353
#     4  11  22  36  60  93 121 152 195 243 293 346
#     4  10  21  37  58  87 117 150 195 247 296 346
#     4  11  23  43  64  84 117 159 201 242 291 348
#     4  10  19  35  59  86 120 159 194 235 292 353
#     4  10  23  40  59  83 115 157 200 242 292 353
#     4   9  19  35  59  87 116 154 192 233 287 346
#
# _framework density 19.759549
#
# number of rings (size 3 to 8) (size 9 to 14) (size 15 to 20)
#    0.000    2.250    1.250    2.250    1.750    2.500 
#    0.000    6.250    0.000    0.000    0.000    0.000 
#    0.000    0.000    0.000    0.000    0.000    0.000 
#
# Total GULP energy -396729.101701 kJ/mol
# GULP energy per Si atom -12397.784428 kJ/mol
# Density = 1.971458 g / cm^3
# Si number density = 19.759549 Si / 1000 Ang^3
#
#
#
# Elastic Constant Matrix: (Units=GPa)
#
#
# Indices 1 2 3 4 5 6 
#
# 1 121.8735 27.2376 60.9504 0.0000 0.0000 0.0000
# 2 27.2376 50.0341 29.2897 0.0000 0.0000 0.0000
# 3 60.9504 29.2897 113.2745 0.0000 0.0000 0.0000
# 4 0.0000 0.0000 0.0000 26.4184 0.0000 0.0000
# 5 0.0000 0.0000 0.0000 0.0000 23.4428 0.0000
# 6 0.0000 0.0000 0.0000 0.0000 0.0000 30.5968
#
#
#
# Elastic Compliance Matrix: (Units=1/GPa)
#
#
# Indices 1 2 3 4 5 6 
#
# 1 0.011631 -0.003144 -0.005446 0.000000 0.000000 0.000000
# 2 -0.003144 0.024401 -0.004618 0.000000 0.000000 0.000000
# 3 -0.005446 -0.004618 0.012952 0.000000 0.000000 0.000000
# 4 0.000000 0.000000 0.000000 0.037852 0.000000 0.000000
# 5 0.000000 0.000000 0.000000 0.000000 0.042657 0.000000
# 6 0.000000 0.000000 0.000000 0.000000 0.000000 0.032683
#
#
# Mechanical properties :
#
#
# Convention : Reuss Voigt Hill
#
# Bulk Modulus (GPa) = 44.30663 57.79308 51.04985
# Shear Modulus (GPa) = 25.49520 27.27188 26.38354
#
# Velocity S-wave (km/s) = 3.59593 3.71912 3.65804
# Velocity P-wave (km/s) = 6.30179 6.91044 6.61312
#
# Compressibility (1/GPa) = 0.02256999
#
# Stress axis : x y z
#
# Youngs Moduli (GPa) = 85.97497 40.98175 77.20657
#
# Poissons Ratio (x) = 0.12885 0.42043
# Poissons Ratio (y) = 0.27031 0.35652
# Poissons Ratio (z) = 0.46818 0.18924
#
# Static dielectric constant tensor:
#      x y z
#    x 3.491880 0.000000 0.000000 
#    y 0.000000 3.361380 0.000000 
#    z 0.000000 0.000000 3.668090 
# 
# 
# High freq. dielectric constant tensor:
#      x y z
#    x 1.773180 0.000000 0.000000 
#    y 0.000000 1.745660 0.000000 
#    z 0.000000 0.000000 1.775340 
# 
# From -- ./inp_files/10674.got.cif
#   From: 2010.03.12/outbox.cif.g09.slc.cpg/sg39_6_cif.got.tgz:10674.got - 2010.04.14 02:53:20.
