data_PCOD8181578
_publ_section_title
;
Structure prediction by ZEFSAII (Michael W. Deem and Ramdas Pophale) SiO2 
 PCOD8181578
Probable space group: A B M 2
;
_chemical_formula_sum "Si O2"
_cell_formula_units_Z 64
_cell_length_a 16.511364
_cell_length_b 8.657820
_cell_length_c 22.890972
_cell_angle_alpha 90.000000
_cell_angle_beta 90.000000
_cell_angle_gamma 90.000000
_cell_volume 3272.319786
_symmetry_space_group_name_H-M "A B M 2"
_symmetry_group_IT_number 39
_symmetry_cell_setting 'orthorhombic'
loop_
_space_group_symop_operation_xyz
x,y,z
-x,-y,z
-x,1/2+y,z
x,1/2-y,z
x,1/2+y,1/2+z
-x,1/2-y,1/2+z
-x,y,1/2+z
x,-y,1/2+z
loop_
_atom_site_type_symbol
_atom_site_label
_atom_site_fract_x
_atom_site_fract_y
_atom_site_fract_z
Si Si1 0.857077 0.424590 0.804620
Si Si2 0.922728 0.579719 0.184321
Si Si3 0.911359 0.567120 0.433037
Si Si4 0.293371 0.071965 0.747245
Si Si5 0.421554 0.071560 0.324077
Si Si6 0.244411 0.932796 0.500978
Si Si7 0.584946 0.068946 0.449132
Si Si8 0.758283 0.933021 0.135222
O O1 0.821151 0.250000 0.811510
O O2 0.926498 0.422413 0.755052
O O3 0.893061 0.482855 0.866117
O O4 0.791914 0.544741 0.779553
O O5 0.923728 0.750000 0.158748
O O6 0.843962 0.500531 0.157474
O O7 0.000000 0.500000 0.156907
O O8 0.916352 0.750000 0.439794
O O9 0.835987 0.507476 0.472318
O O10 0.000000 0.500000 0.451549
O O11 0.318791 0.250000 0.754874
O O12 0.350070 0.951113 0.779528
O O13 0.301391 0.024682 0.678871
O O14 0.432062 0.250000 0.341278
O O15 0.500000 0.000000 0.292480
O O16 0.407533 0.970579 0.381611
O O17 0.235821 0.750000 0.492437
O O18 0.330418 0.995264 0.476066
O O19 0.251363 0.980717 0.568523
O O20 0.580347 0.250000 0.460037
O O21 0.500000 0.000000 0.475380
O O22 0.747722 0.750000 0.145314
#
# Coordination Sequence:
#
# PCOD8181578 Si02
#       8
#     8   8   8   8   8   8   8   8
#     4   9  19  35  53  76 106 144 182 222 276 335
#     4   9  17  30  50  73  99 131 173 222 274 325
#     4  11  23  37  56  82 115 152 191 234 284 339
#     4  11  21  34  55  83 110 140 179 225 276 332
#     4  11  21  35  56  83 115 146 175 215 268 329
#     4  10  22  40  60  80 109 151 197 240 284 332
#     4  10  20  36  60  90 118 147 185 231 282 338
#     4   9  20  39  56  73 103 145 187 229 274 324
#
# _framework density 19.557991000000001
#
# number of rings (size 3 to 8) (size 9 to 14) (size 15 to 20)
#    0.000    2.000    0.000    5.625    0.000    7.000 
#    0.000    1.875    0.000    1.500    0.000    0.000 
#    0.000    0.000    0.000    0.000    0.000    0.000 
#
# Total GULP energy -396469.098354 kJ/mol
# GULP energy per Si atom -12389.659324 kJ/mol
# Density = 1.951348 g / cm^3
# Si number density = 19.557991 Si / 1000 Ang^3
#
#
#
# Elastic Constant Matrix: (Units=GPa)
#
#
# Indices 1 2 3 4 5 6 
#
# 1 122.9209 32.1180 45.9262 0.0000 0.0000 0.0000
# 2 32.1180 63.2152 19.8280 0.0000 0.0000 0.0000
# 3 45.9262 19.8280 79.9004 0.0000 0.0000 0.0000
# 4 0.0000 0.0000 0.0000 22.1839 0.0000 0.0000
# 5 0.0000 0.0000 0.0000 0.0000 14.1106 0.0000
# 6 0.0000 0.0000 0.0000 0.0000 0.0000 33.9548
#
#
#
# Elastic Compliance Matrix: (Units=1/GPa)
#
#
# Indices 1 2 3 4 5 6 
#
# 1 0.011216 -0.003987 -0.005458 0.000000 0.000000 0.000000
# 2 -0.003987 0.018571 -0.002317 0.000000 0.000000 0.000000
# 3 -0.005458 -0.002317 0.016228 0.000000 0.000000 0.000000
# 4 0.000000 0.000000 0.000000 0.045078 0.000000 0.000000
# 5 0.000000 0.000000 0.000000 0.000000 0.070869 0.000000
# 6 0.000000 0.000000 0.000000 0.000000 0.000000 0.029451
#
#
# Mechanical properties :
#
#
# Convention : Reuss Voigt Hill
#
# Bulk Modulus (GPa) = 44.46002 51.30901 47.88451
# Shear Modulus (GPa) = 22.47868 25.26078 23.86973
#
# Velocity S-wave (km/s) = 3.39386 3.59776 3.49730
# Velocity P-wave (km/s) = 6.17572 6.59922 6.39098
#
# Compressibility (1/GPa) = 0.02249212
#
# Stress axis : x y z
#
# Youngs Moduli (GPa) = 89.15742 53.84639 61.62352
#
# Poissons Ratio (x) = 0.21467 0.33632
# Poissons Ratio (y) = 0.35545 0.14279
# Poissons Ratio (z) = 0.48658 0.12477
#
# Static dielectric constant tensor:
#      x y z
#    x 3.862270 0.000000 0.000000 
#    y 0.000000 3.442240 0.000000 
#    z 0.000000 0.000000 3.508540 
# 
# 
# High freq. dielectric constant tensor:
#      x y z
#    x 1.763690 0.000000 0.000000 
#    y 0.000000 1.758410 0.000000 
#    z 0.000000 0.000000 1.749660 
# 
# From -- ./inp_files/16191.got.cif
#   From: 2010.03.12/outbox.cif.g09.slc.cpg/sg39_9_cif.got.tgz:16191.got - 2010.04.14 02:53:20.
