data_PCOD8181514
_publ_section_title
;
Structure prediction by ZEFSAII (Michael W. Deem and Ramdas Pophale) SiO2 
 PCOD8181514
Probable space group: A B M 2
;
_chemical_formula_sum "Si O2"
_cell_formula_units_Z 48
_cell_length_a 11.744347
_cell_length_b 20.631187
_cell_length_c 8.986057
_cell_angle_alpha 90.000000
_cell_angle_beta 90.000000
_cell_angle_gamma 90.000000
_cell_volume 2177.319986
_symmetry_space_group_name_H-M "A B M 2"
_symmetry_group_IT_number 39
_symmetry_cell_setting 'orthorhombic'
loop_
_space_group_symop_operation_xyz
x,y,z
-x,-y,z
-x,1/2+y,z
x,1/2-y,z
x,1/2+y,1/2+z
-x,1/2-y,1/2+z
-x,y,1/2+z
x,-y,1/2+z
loop_
_atom_site_type_symbol
_atom_site_label
_atom_site_fract_x
_atom_site_fract_y
_atom_site_fract_z
Si Si1 0.909351 0.397958 0.398180
Si Si2 0.258480 0.892072 0.645159
Si Si3 0.261369 0.393304 0.653913
Si Si4 0.434988 0.431575 0.902856
Si Si5 0.375440 0.823225 0.901939
Si Si6 0.139440 0.047016 0.397255
O O1 0.842320 0.365586 0.536503
O O2 0.850433 0.371007 0.247761
O O3 0.905592 0.475343 0.407294
O O4 0.046908 0.392495 0.401545
O O5 0.363885 0.921249 0.553466
O O6 0.294744 0.834640 0.758015
O O7 0.208048 0.950320 0.743223
O O8 0.353031 0.427388 0.760612
O O9 0.310894 0.332590 0.560317
O O10 0.227120 0.446568 0.532485
O O11 0.500000 0.500000 0.906795
O O12 0.521305 0.372581 0.890592
O O13 0.421619 0.750000 0.896382
#
# Coordination Sequence:
#
# PCOD8181514 Si02
#       6
#     8   8   8   8   8   8
#     4  10  20  35  61  96 131 171 205 257 335 397
#     4  10  23  38  61  92 129 164 212 274 315 399
#     4  10  23  38  61  92 129 164 212 274 315 399
#     4  11  26  40  63  99 132 169 210 276 339 390
#     4  11  26  46  65  89 127 181 229 267 323 397
#     4  10  20  35  61  94 135 169 204 256 330 409
#
# _framework density 22.045449999999999
#
# number of rings (size 3 to 8) (size 9 to 14) (size 15 to 20)
#    0.000    1.667    0.000    3.000   14.000    6.667 
#    0.000    3.333    0.000   16.000    0.000    2.333 
#    0.000    0.000    0.000    0.000    0.000    0.000 
#
# Total GULP energy -297410.135509 kJ/mol
# GULP energy per Si atom -12392.088980 kJ/mol
# Density = 2.199527 g / cm^3
# Si number density = 22.045450 Si / 1000 Ang^3
#
#
#
# Elastic Constant Matrix: (Units=GPa)
#
#
# Indices 1 2 3 4 5 6 
#
# 1 103.6069 29.3189 29.1197 0.0000 0.0000 0.0000
# 2 29.3189 84.2073 13.2779 0.0000 0.0000 0.0000
# 3 29.1197 13.2779 132.9955 0.0000 0.0000 0.0000
# 4 0.0000 0.0000 0.0000 43.8332 0.0000 0.0000
# 5 0.0000 0.0000 0.0000 0.0000 24.1273 0.0000
# 6 0.0000 0.0000 0.0000 0.0000 0.0000 19.1464
#
#
#
# Elastic Compliance Matrix: (Units=1/GPa)
#
#
# Indices 1 2 3 4 5 6 
#
# 1 0.011259 -0.003588 -0.002107 0.000000 0.000000 0.000000
# 2 -0.003588 0.013209 -0.000533 0.000000 0.000000 0.000000
# 3 -0.002107 -0.000533 0.008034 0.000000 0.000000 0.000000
# 4 0.000000 0.000000 0.000000 0.022814 0.000000 0.000000
# 5 0.000000 0.000000 0.000000 0.000000 0.041447 0.000000
# 6 0.000000 0.000000 0.000000 0.000000 0.000000 0.052229
#
#
# Mechanical properties :
#
#
# Convention : Reuss Voigt Hill
#
# Bulk Modulus (GPa) = 49.88669 51.58253 50.73461
# Shear Modulus (GPa) = 29.73893 34.02758 31.88326
#
# Velocity S-wave (km/s) = 3.67683 3.93303 3.80709
# Velocity P-wave (km/s) = 6.37994 6.63883 6.51067
#
# Compressibility (1/GPa) = 0.02004543
#
# Stress axis : x y z
#
# Youngs Moduli (GPa) = 88.81454 75.70729 124.47688
#
# Poissons Ratio (x) = 0.27164 0.26228
# Poissons Ratio (y) = 0.31867 0.06636
# Poissons Ratio (z) = 0.18714 0.04036
#
# Static dielectric constant tensor:
#      x y z
#    x 4.544240 0.000000 0.000000 
#    y 0.000000 3.322810 0.000000 
#    z 0.000000 0.000000 4.521250 
# 
# 
# High freq. dielectric constant tensor:
#      x y z
#    x 1.887580 0.000000 0.000000 
#    y 0.000000 1.799940 0.000000 
#    z 0.000000 0.000000 1.895120 
# 
# From -- ./inp_files/2715.got.cif
#   From: 2010.03.12/outbox.cif.g09.slc.cpg/sg39_2_cif.got.tgz:2715.got - 2010.04.14 02:53:20.
