data_PCOD8181936
_publ_section_title
;
Structure prediction by ZEFSAII (Michael W. Deem and Ramdas Pophale) SiO2 
 PCOD8181936
Probable space group: A B M 2
;
_chemical_formula_sum "Si O2"
_cell_formula_units_Z 32
_cell_length_a 18.871519
_cell_length_b 13.847735
_cell_length_c 5.178542
_cell_angle_alpha 90.000000
_cell_angle_beta 90.000000
_cell_angle_gamma 90.000000
_cell_volume 1353.296958
_symmetry_space_group_name_H-M "A B M 2"
_symmetry_group_IT_number 39
_symmetry_cell_setting 'orthorhombic'
loop_
_space_group_symop_operation_xyz
x,y,z
-x,-y,z
-x,1/2+y,z
x,1/2-y,z
x,1/2+y,1/2+z
-x,1/2-y,1/2+z
-x,y,1/2+z
x,-y,1/2+z
loop_
_atom_site_type_symbol
_atom_site_label
_atom_site_fract_x
_atom_site_fract_y
_atom_site_fract_z
Si Si1 0.214775 0.750000 0.385350
Si Si2 0.876408 0.750000 0.385496
Si Si3 0.077974 0.957941 0.795876
Si Si4 0.455191 0.137854 0.858116
Si Si5 0.698206 0.941737 0.894852
O O1 0.186583 0.750000 0.678245
O O2 0.262395 0.657328 0.337924
O O3 0.151553 0.750000 0.177349
O O4 0.925491 0.656243 0.342802
O O5 0.118354 0.985525 0.528514
O O6 0.000000 0.000000 0.738997
O O7 0.433992 0.250000 0.872295
O O8 0.491169 0.111194 0.587253
O O9 0.385612 0.074157 0.885615
O O10 0.720510 0.982347 0.173833
#
# Coordination Sequence:
#
# PCOD8181936 Si02
#       5
#     4   4   8   8   8
#     4  12  28  48  65  99 138 178 238 272 330 398
#     4  12  26  44  73  97 136 186 216 274 336 400
#     4  10  23  42  69 104 139 170 216 268 324 399
#     4  10  21  39  65  95 132 172 219 284 347 406
#     4  12  26  44  69  96 133 180 229 286 340 397
#
# _framework density 23.645955000000001
#
# number of rings (size 3 to 8) (size 9 to 14) (size 15 to 20)
#    0.000    1.000    1.250    4.500    0.000   13.000 
#    0.000    0.000    0.000    0.000    0.000    0.000 
#    0.000    0.000    0.000    0.000    0.000    0.000 
#
# Total GULP energy -198469.447045 kJ/mol
# GULP energy per Si atom -12404.340440 kJ/mol
# Density = 2.359214 g / cm^3
# Si number density = 23.645955 Si / 1000 Ang^3
#
#
#
# Elastic Constant Matrix: (Units=GPa)
#
#
# Indices 1 2 3 4 5 6 
#
# 1 45.0997 19.7494 -7.1326 0.0000 0.0000 0.0000
# 2 19.7494 135.1780 17.3489 0.0000 0.0000 0.0000
# 3 -7.1326 17.3489 149.9781 0.0000 0.0000 0.0000
# 4 0.0000 0.0000 0.0000 35.1597 0.0000 0.0000
# 5 0.0000 0.0000 0.0000 0.0000 12.5205 0.0000
# 6 0.0000 0.0000 0.0000 0.0000 0.0000 27.9613
#
#
#
# Elastic Compliance Matrix: (Units=1/GPa)
#
#
# Indices 1 2 3 4 5 6 
#
# 1 0.024049 -0.003715 0.001574 0.000000 0.000000 0.000000
# 2 -0.003715 0.008083 -0.001112 0.000000 0.000000 0.000000
# 3 0.001574 -0.001112 0.006871 0.000000 0.000000 0.000000
# 4 0.000000 0.000000 0.000000 0.028442 0.000000 0.000000
# 5 0.000000 0.000000 0.000000 0.000000 0.079869 0.000000
# 6 0.000000 0.000000 0.000000 0.000000 0.000000 0.035764
#
#
# Mechanical properties :
#
#
# Convention : Reuss Voigt Hill
#
# Bulk Modulus (GPa) = 30.77319 43.35413 37.06366
# Shear Modulus (GPa) = 24.94800 35.14764 30.04782
#
# Velocity S-wave (km/s) = 3.25170 3.85958 3.56861
# Velocity P-wave (km/s) = 5.20965 6.18355 5.71738
#
# Compressibility (1/GPa) = 0.03249582
#
# Stress axis : x y z
#
# Youngs Moduli (GPa) = 41.58179 123.71397 145.53766
#
# Poissons Ratio (x) = 0.45966 -0.22900
# Poissons Ratio (y) = 0.15450 0.16180
# Poissons Ratio (z) = -0.06543 0.13754
#
# Static dielectric constant tensor:
#      x y z
#    x 4.082860 0.000000 0.000000 
#    y 0.000000 4.400280 0.000000 
#    z 0.000000 0.000000 4.934650 
# 
# 
# High freq. dielectric constant tensor:
#      x y z
#    x 1.921880 0.000000 0.000000 
#    y 0.000000 1.952550 0.000000 
#    z 0.000000 0.000000 1.963600 
# 
# From -- ./inp_files/701.got.cif
#   From: 2010.03.12/outbox.cif.g09.slc.cpg/sg39_1_cif.got.tgz:701.got - 2010.04.14 02:53:20.
