data_PCOD8181645
_publ_section_title
;
Structure prediction by ZEFSAII (Michael W. Deem and Ramdas Pophale) SiO2 
 PCOD8181645
Probable space group: A B M 2
;
_chemical_formula_sum "Si O2"
_cell_formula_units_Z 64
_cell_length_a 24.498051
_cell_length_b 8.503921
_cell_length_c 15.041480
_cell_angle_alpha 90.000000
_cell_angle_beta 90.000000
_cell_angle_gamma 90.000000
_cell_volume 3133.583863
_symmetry_space_group_name_H-M "A B M 2"
_symmetry_group_IT_number 39
_symmetry_cell_setting 'orthorhombic'
loop_
_space_group_symop_operation_xyz
x,y,z
-x,-y,z
-x,1/2+y,z
x,1/2-y,z
x,1/2+y,1/2+z
-x,1/2-y,1/2+z
-x,y,1/2+z
x,-y,1/2+z
loop_
_atom_site_type_symbol
_atom_site_label
_atom_site_fract_x
_atom_site_fract_y
_atom_site_fract_z
Si Si1 0.624730 0.063045 0.419810
Si Si2 0.869229 0.930470 0.267009
Si Si3 0.060265 0.936807 0.605873
Si Si4 0.250816 0.927448 0.767479
Si Si5 0.858008 0.436416 0.458589
Si Si6 0.558103 0.433155 0.075288
Si Si7 0.259080 0.927960 0.448693
Si Si8 0.632031 0.069660 0.724024
O O1 0.627217 0.250000 0.404812
O O2 0.680769 0.001111 0.470002
O O3 0.575184 0.018577 0.483886
O O4 0.617762 0.979788 0.324781
O O5 0.881972 0.750000 0.288169
O O6 0.913370 0.998410 0.197761
O O7 0.808675 0.947374 0.221745
O O8 0.875174 0.022915 0.358636
O O9 0.059909 0.750000 0.603470
O O10 0.096865 0.004976 0.525344
O O11 0.000000 0.000000 0.594831
O O12 0.254617 0.750000 0.808862
O O13 0.302826 0.950382 0.702322
O O14 0.254987 0.060909 0.841957
O O15 0.854452 0.250000 0.466570
O O16 0.797367 0.508033 0.484359
O O17 0.500000 0.500000 0.105391
O O18 0.554123 0.250000 0.055925
O O19 0.600024 0.462154 0.155172
O O20 0.259038 0.750000 0.481463
O O21 0.614029 0.250000 0.710273
#
# Coordination Sequence:
#
# PCOD8181645 Si02
#       8
#     8   8   8   8   8   8   8   8
#     4  10  20  37  61  89 118 149 182 224 278 335
#     4   9  18  34  55  79 106 139 175 217 267 321
#     4  10  22  37  52  72 102 139 183 226 267 316
#     4   8  15  29  53  82 111 139 172 213 264 325
#     4   9  18  34  55  79 106 139 175 217 267 321
#     4  12  26  43  60  82 112 149 195 240 277 324
#     4   8  15  29  53  82 111 139 172 213 264 325
#     4  10  20  37  61  89 118 149 182 224 278 335
#
# _framework density 20.423898000000001
#
# number of rings (size 3 to 8) (size 9 to 14) (size 15 to 20)
#    0.000    2.500    0.000    1.875    0.000    4.000 
#    0.000    8.750    0.000    1.500    0.000    0.000 
#    0.000    0.000    0.000    0.000    0.000    0.000 
#
# Total GULP energy -396443.059191 kJ/mol
# GULP energy per Si atom -12388.845600 kJ/mol
# Density = 2.037741 g / cm^3
# Si number density = 20.423898 Si / 1000 Ang^3
#
#
#
# Elastic Constant Matrix: (Units=GPa)
#
#
# Indices 1 2 3 4 5 6 
#
# 1 94.6698 18.3195 16.5373 0.0000 0.0000 0.0000
# 2 18.3195 41.6968 7.8494 0.0000 0.0000 0.0000
# 3 16.5373 7.8494 50.6164 0.0000 0.0000 0.0000
# 4 0.0000 0.0000 0.0000 27.7817 0.0000 0.0000
# 5 0.0000 0.0000 0.0000 0.0000 32.6206 0.0000
# 6 0.0000 0.0000 0.0000 0.0000 0.0000 27.2873
#
#
#
# Elastic Compliance Matrix: (Units=1/GPa)
#
#
# Indices 1 2 3 4 5 6 
#
# 1 0.012029 -0.004682 -0.003204 0.000000 0.000000 0.000000
# 2 -0.004682 0.026526 -0.002584 0.000000 0.000000 0.000000
# 3 -0.003204 -0.002584 0.021204 0.000000 0.000000 0.000000
# 4 0.000000 0.000000 0.000000 0.035995 0.000000 0.000000
# 5 0.000000 0.000000 0.000000 0.000000 0.030655 0.000000
# 6 0.000000 0.000000 0.000000 0.000000 0.000000 0.036647
#
#
# Mechanical properties :
#
#
# Convention : Reuss Voigt Hill
#
# Bulk Modulus (GPa) = 25.76032 30.26616 28.01324
# Shear Modulus (GPa) = 25.38910 27.15638 26.27274
#
# Velocity S-wave (km/s) = 3.52960 3.65038 3.59049
# Velocity P-wave (km/s) = 5.40842 5.71123 5.56188
#
# Compressibility (1/GPa) = 0.03881939
#
# Stress axis : x y z
#
# Youngs Moduli (GPa) = 83.13481 37.69894 47.16105
#
# Poissons Ratio (x) = 0.17649 0.15110
# Poissons Ratio (y) = 0.38921 0.12186
# Poissons Ratio (z) = 0.26636 0.09741
#
# Static dielectric constant tensor:
#      x y z
#    x 4.175980 0.000000 0.000000 
#    y 0.000000 3.526450 0.000000 
#    z 0.000000 0.000000 3.459360 
# 
# 
# High freq. dielectric constant tensor:
#      x y z
#    x 1.812960 0.000000 0.000000 
#    y 0.000000 1.781650 0.000000 
#    z 0.000000 0.000000 1.775450 
# 
# From -- ./inp_files/10653.got.cif
#   From: 2010.03.12/outbox.cif.g09.slc.cpg/sg39_6_cif.got.tgz:10653.got - 2010.04.14 02:53:20.
