data_PCOD8181035
_publ_section_title
;
Structure prediction by ZEFSAII (Michael W. Deem and Ramdas Pophale) SiO2 
 PCOD8181035
Probable space group: A B M 2
;
_chemical_formula_sum "Si O2"
_cell_formula_units_Z 56
_cell_length_a 15.539438
_cell_length_b 8.603413
_cell_length_c 20.495757
_cell_angle_alpha 90.000000
_cell_angle_beta 90.000000
_cell_angle_gamma 90.000000
_cell_volume 2740.122903
_symmetry_space_group_name_H-M "A B M 2"
_symmetry_group_IT_number 39
_symmetry_cell_setting 'orthorhombic'
loop_
_space_group_symop_operation_xyz
x,y,z
-x,-y,z
-x,1/2+y,z
x,1/2-y,z
x,1/2+y,1/2+z
-x,1/2-y,1/2+z
-x,y,1/2+z
x,-y,1/2+z
loop_
_atom_site_type_symbol
_atom_site_label
_atom_site_fract_x
_atom_site_fract_y
_atom_site_fract_z
Si Si1 0.589502 0.567478 0.213930
Si Si2 0.631750 0.431625 0.079126
Si Si3 0.807296 0.568612 0.039717
Si Si4 0.231040 0.434425 0.758002
Si Si5 0.231316 0.432454 0.899867
Si Si6 0.908984 0.929056 0.162170
Si Si7 0.416034 0.566898 0.445119
O O1 0.500000 0.500000 0.243273
O O2 0.593273 0.750000 0.226451
O O3 0.591647 0.531392 0.137246
O O4 0.671357 0.488647 0.248163
O O5 0.619897 0.250000 0.094206
O O6 0.732666 0.469078 0.072806
O O7 0.582499 0.480567 0.014357
O O8 0.778874 0.750000 0.039023
O O9 0.891470 0.543933 0.084644
O O10 0.822038 0.510434 0.964361
O O11 0.229729 0.250000 0.753982
O O12 0.198731 0.496153 0.829806
O O13 0.167520 0.498663 0.703767
O O14 0.223501 0.250000 0.896952
O O15 0.330881 0.482794 0.906416
O O16 0.912253 0.750000 0.179826
O O17 0.000000 0.000000 0.181546
O O18 0.500000 0.500000 0.407158
O O19 0.420842 0.750000 0.455103
#
# Coordination Sequence:
#
# PCOD8181035 Si02
#       7
#     8   8   8   8   8   8   8
#     4  12  24  38  55  81 118 162 209 254 305 357
#     4  11  20  32  53  82 114 151 196 248 304 352
#     4   9  18  37  62  87 117 153 193 239 297 355
#     4  11  22  40  63  90 125 161 203 249 303 363
#     4   8  18  36  59  83 114 158 196 239 298 358
#     4  11  23  40  66  95 124 158 199 247 304 363
#     4  10  19  33  51  76 112 153 200 248 299 352
#
# _framework density 20.437038999999999
#
# number of rings (size 3 to 8) (size 9 to 14) (size 15 to 20)
#    0.000    1.714    1.429    5.143    0.000    1.143 
#    0.000    9.286    0.000    1.714    0.000    0.000 
#    0.000    0.000    0.000    0.000    0.000    0.000 
#
# Total GULP energy -347034.183040 kJ/mol
# GULP energy per Si atom -12394.077966 kJ/mol
# Density = 2.039052 g / cm^3
# Si number density = 20.437039 Si / 1000 Ang^3
#
#
#
# Elastic Constant Matrix: (Units=GPa)
#
#
# Indices 1 2 3 4 5 6 
#
# 1 93.1381 30.4920 46.0311 0.0000 0.0000 0.0000
# 2 30.4920 89.4635 33.4322 0.0000 0.0000 0.0000
# 3 46.0311 33.4322 122.0411 0.0000 0.0000 0.0000
# 4 0.0000 0.0000 0.0000 17.8873 0.0000 0.0000
# 5 0.0000 0.0000 0.0000 0.0000 9.7648 0.0000
# 6 0.0000 0.0000 0.0000 0.0000 0.0000 30.8591
#
#
#
# Elastic Compliance Matrix: (Units=1/GPa)
#
#
# Indices 1 2 3 4 5 6 
#
# 1 0.013929 -0.003102 -0.004404 0.000000 0.000000 0.000000
# 2 -0.003102 0.013143 -0.002431 0.000000 0.000000 0.000000
# 3 -0.004404 -0.002431 0.010521 0.000000 0.000000 0.000000
# 4 0.000000 0.000000 0.000000 0.055906 0.000000 0.000000
# 5 0.000000 0.000000 0.000000 0.000000 0.102409 0.000000
# 6 0.000000 0.000000 0.000000 0.000000 0.000000 0.032405
#
#
# Mechanical properties :
#
#
# Convention : Reuss Voigt Hill
#
# Bulk Modulus (GPa) = 56.43199 58.28371 57.35785
# Shear Modulus (GPa) = 19.67797 24.68141 22.17969
#
# Velocity S-wave (km/s) = 3.10636 3.47894 3.29792
# Velocity P-wave (km/s) = 6.36699 6.68715 6.52903
#
# Compressibility (1/GPa) = 0.01772045
#
# Stress axis : x y z
#
# Youngs Moduli (GPa) = 71.79430 76.08513 95.04916
#
# Poissons Ratio (x) = 0.23599 0.41859
# Poissons Ratio (y) = 0.22268 0.23103
# Poissons Ratio (z) = 0.31618 0.18493
#
# Static dielectric constant tensor:
#      x y z
#    x 3.222590 0.000000 0.000000 
#    y 0.000000 3.584900 0.000000 
#    z 0.000000 0.000000 4.159750 
# 
# 
# High freq. dielectric constant tensor:
#      x y z
#    x 1.778660 0.000000 0.000000 
#    y 0.000000 1.792080 0.000000 
#    z 0.000000 0.000000 1.804350 
# 
# From -- ./inp_files/14734.got.cif
#   From: 2010.03.12/outbox.cif.g09.slc.cpg/sg39_8_cif.got.tgz:14734.got - 2010.04.14 02:53:20.
