data_PCOD8181771
_publ_section_title
;
Structure prediction by ZEFSAII (Michael W. Deem and Ramdas Pophale) SiO2 
 PCOD8181771
Probable space group: A B M 2
;
_chemical_formula_sum "Si O2"
_cell_formula_units_Z 56
_cell_length_a 19.838559
_cell_length_b 8.886314
_cell_length_c 15.800351
_cell_angle_alpha 90.000000
_cell_angle_beta 90.000000
_cell_angle_gamma 90.000000
_cell_volume 2785.470179
_symmetry_space_group_name_H-M "A B M 2"
_symmetry_group_IT_number 39
_symmetry_cell_setting 'orthorhombic'
loop_
_space_group_symop_operation_xyz
x,y,z
-x,-y,z
-x,1/2+y,z
x,1/2-y,z
x,1/2+y,1/2+z
-x,1/2-y,1/2+z
-x,y,1/2+z
x,-y,1/2+z
loop_
_atom_site_type_symbol
_atom_site_label
_atom_site_fract_x
_atom_site_fract_y
_atom_site_fract_z
Si Si1 0.572180 0.926527 0.750000
Si Si2 0.805488 0.079564 0.599731
Si Si3 0.203884 0.579162 0.931522
Si Si4 0.345532 0.576005 0.601923
Si Si5 0.667246 0.926613 0.905754
Si Si6 0.938684 0.578058 0.344026
Si Si7 0.065192 0.424731 0.666799
O O1 0.563801 0.750000 0.741665
O O2 0.610903 0.969265 0.836761
O O3 0.500000 0.000000 0.758018
O O4 0.607284 0.980755 0.663439
O O5 0.828438 0.250000 0.618121
O O6 0.730849 0.048904 0.636483
O O7 0.798892 0.050138 0.501007
O O8 0.862033 0.968179 0.632395
O O9 0.215180 0.750000 0.965111
O O10 0.267919 0.526288 0.875861
O O11 0.133626 0.570824 0.884749
O O12 0.365425 0.750000 0.610494
O O13 0.354290 0.527655 0.502518
O O14 0.684840 0.750000 0.902407
O O15 0.956955 0.750000 0.321243
O O16 0.935297 0.472032 0.263287
O O17 0.000000 0.500000 0.398874
O O18 0.056494 0.250000 0.653270
O O19 0.000000 0.500000 0.620146
#
# Coordination Sequence:
#
# PCOD8181771 Si02
#       7
#     8   8   8   8   8   8   8
#     4  11  24  41  63  93 124 157 201 242 293 360
#     4  10  21  38  59  83 115 151 191 240 296 351
#     4  10  21  36  57  85 114 148 195 241 290 351
#     4   9  20  40  63  88 122 159 197 245 299 352
#     4   9  21  41  62  88 122 160 200 245 300 357
#     4  10  21  36  53  78 111 149 193 240 293 347
#     4  11  22  36  55  79 111 150 195 243 294 351
#
# _framework density 20.104323999999998
#
# number of rings (size 3 to 8) (size 9 to 14) (size 15 to 20)
#    0.000    2.000    0.000    4.714    2.000    7.429 
#    0.000    2.857    0.000    0.000    0.000    0.000 
#    0.000    0.000    0.000    0.000    0.000    0.000 
#
# Total GULP energy -346927.262131 kJ/mol
# GULP energy per Si atom -12390.259362 kJ/mol
# Density = 2.005857 g / cm^3
# Si number density = 20.104324 Si / 1000 Ang^3
#
#
#
# Elastic Constant Matrix: (Units=GPa)
#
#
# Indices 1 2 3 4 5 6 
#
# 1 160.6863 82.6760 59.2230 0.0000 0.0000 0.0000
# 2 82.6760 116.6270 38.1764 0.0000 0.0000 0.0000
# 3 59.2230 38.1764 75.5392 0.0000 0.0000 0.0000
# 4 0.0000 0.0000 0.0000 22.6869 0.0000 0.0000
# 5 0.0000 0.0000 0.0000 0.0000 34.9931 0.0000
# 6 0.0000 0.0000 0.0000 0.0000 0.0000 28.7234
#
#
#
# Elastic Compliance Matrix: (Units=1/GPa)
#
#
# Indices 1 2 3 4 5 6 
#
# 1 0.011672 -0.006325 -0.005954 0.000000 0.000000 0.000000
# 2 -0.006325 0.013702 -0.001966 0.000000 0.000000 0.000000
# 3 -0.005954 -0.001966 0.018900 0.000000 0.000000 0.000000
# 4 0.000000 0.000000 0.000000 0.044078 0.000000 0.000000
# 5 0.000000 0.000000 0.000000 0.000000 0.028577 0.000000
# 6 0.000000 0.000000 0.000000 0.000000 0.000000 0.034815
#
#
# Mechanical properties :
#
#
# Convention : Reuss Voigt Hill
#
# Bulk Modulus (GPa) = 63.35837 79.22259 71.29048
# Shear Modulus (GPa) = 26.95476 28.79916 27.87696
#
# Velocity S-wave (km/s) = 3.66559 3.78893 3.72777
# Velocity P-wave (km/s) = 7.03553 7.65719 7.35293
#
# Compressibility (1/GPa) = 0.01578323
#
# Stress axis : x y z
#
# Youngs Moduli (GPa) = 85.67209 72.98339 52.91047
#
# Poissons Ratio (x) = 0.46165 0.31505
# Poissons Ratio (y) = 0.54191 0.10400
# Poissons Ratio (z) = 0.51013 0.14345
#
# Static dielectric constant tensor:
#      x y z
#    x 11.778560 0.000000 0.000000 
#    y 0.000000 3.240200 0.000000 
#    z 0.000000 0.000000 3.564350 
# 
# 
# High freq. dielectric constant tensor:
#      x y z
#    x 1.800690 0.000000 0.000000 
#    y 0.000000 1.794390 0.000000 
#    z 0.000000 0.000000 1.766140 
# 
# From -- ./inp_files/10379.got.cif
#   From: 2010.03.12/outbox.cif.g09.slc.cpg/sg39_6_cif.got.tgz:10379.got - 2010.04.14 02:53:20.
