data_PCOD8181392
_publ_section_title
;
Structure prediction by ZEFSAII (Michael W. Deem and Ramdas Pophale) SiO2 
 PCOD8181392
Probable space group: A B M 2
;
_chemical_formula_sum "Si O2"
_cell_formula_units_Z 56
_cell_length_a 25.225693
_cell_length_b 23.294833
_cell_length_c 4.955485
_cell_angle_alpha 90.000000
_cell_angle_beta 90.000000
_cell_angle_gamma 90.000000
_cell_volume 2911.983255
_symmetry_space_group_name_H-M "A B M 2"
_symmetry_group_IT_number 39
_symmetry_cell_setting 'orthorhombic'
loop_
_space_group_symop_operation_xyz
x,y,z
-x,-y,z
-x,1/2+y,z
x,1/2-y,z
x,1/2+y,1/2+z
-x,1/2-y,1/2+z
-x,y,1/2+z
x,-y,1/2+z
loop_
_atom_site_type_symbol
_atom_site_label
_atom_site_fract_x
_atom_site_fract_y
_atom_site_fract_z
Si Si1 0.310861 0.313741 0.392790
Si Si2 0.722032 0.538295 0.819336
Si Si3 0.643188 0.631913 0.883408
Si Si4 0.148027 0.317181 0.188451
Si Si5 0.535289 0.684213 0.923464
Si Si6 0.032096 0.681761 0.537154
Si Si7 0.208335 0.643915 0.175063
O O1 0.320118 0.250000 0.286589
O O2 0.354082 0.326812 0.623348
O O3 0.253917 0.319419 0.530375
O O4 0.316729 0.353115 0.128124
O O5 0.726140 0.483672 0.624645
O O6 0.664321 0.569433 0.787019
O O7 0.770614 0.580516 0.746147
O O8 0.582567 0.638443 0.981450
O O9 0.145889 0.250000 0.269318
O O10 0.091330 0.341082 0.088301
O O11 0.161215 0.355135 0.454288
O O12 0.190739 0.325696 0.951213
O O13 0.555897 0.750000 0.956139
O O14 0.512257 0.672241 0.628931
O O15 0.034042 0.750000 0.543352
O O16 0.010029 0.658518 0.255260
#
# Coordination Sequence:
#
# PCOD8181392 Si02
#       7
#     8   8   8   8   8   8   8
#     4  11  20  32  51  78 113 142 170 208 256 328
#     4  11  23  41  59  75 101 137 181 233 274 312
#     4  11  22  36  56  80 104 143 184 214 260 320
#     4  11  20  32  51  78 117 150 175 215 264 321
#     4  10  20  34  54  81 113 142 168 206 257 315
#     4   9  17  29  45  68 103 150 190 212 241 297
#     4  11  22  34  51  79 106 139 180 219 275 330
#
# _framework density 19.230879000000002
#
# number of rings (size 3 to 8) (size 9 to 14) (size 15 to 20)
#    0.000    1.429    0.000    8.571    0.000    3.429 
#    0.000    0.000    0.000    2.571    0.000    0.000 
#    0.000   40.000    0.000    0.000    0.000    0.000 
#
# Total GULP energy -347150.530452 kJ/mol
# GULP energy per Si atom -12398.233230 kJ/mol
# Density = 1.918711 g / cm^3
# Si number density = 19.230879 Si / 1000 Ang^3
#
#
#
# Elastic Constant Matrix: (Units=GPa)
#
#
# Indices 1 2 3 4 5 6 
#
# 1 79.3107 26.9773 0.1391 0.0000 0.0000 0.0000
# 2 26.9773 61.9781 17.7748 0.0000 0.0000 0.0000
# 3 0.1391 17.7748 81.9610 0.0000 0.0000 0.0000
# 4 0.0000 0.0000 0.0000 32.3498 0.0000 0.0000
# 5 0.0000 0.0000 0.0000 0.0000 33.6681 0.0000
# 6 0.0000 0.0000 0.0000 0.0000 0.0000 15.6871
#
#
#
# Elastic Compliance Matrix: (Units=1/GPa)
#
#
# Indices 1 2 3 4 5 6 
#
# 1 0.014966 -0.006939 0.001479 0.000000 0.000000 0.000000
# 2 -0.006939 0.020422 -0.004417 0.000000 0.000000 0.000000
# 3 0.001479 -0.004417 0.013156 0.000000 0.000000 0.000000
# 4 0.000000 0.000000 0.000000 0.030912 0.000000 0.000000
# 5 0.000000 0.000000 0.000000 0.000000 0.029702 0.000000
# 6 0.000000 0.000000 0.000000 0.000000 0.000000 0.063747
#
#
# Mechanical properties :
#
#
# Convention : Reuss Voigt Hill
#
# Bulk Modulus (GPa) = 34.73238 34.78139 34.75688
# Shear Modulus (GPa) = 24.72132 28.23157 26.47645
#
# Velocity S-wave (km/s) = 3.58928 3.83565 3.71451
# Velocity P-wave (km/s) = 5.93946 6.14343 6.04231
#
# Compressibility (1/GPa) = 0.02879158
#
# Stress axis : x y z
#
# Youngs Moduli (GPa) = 66.81719 48.96752 76.00896
#
# Poissons Ratio (x) = 0.33977 -0.11245
# Poissons Ratio (y) = 0.46362 0.33574
# Poissons Ratio (z) = -0.09885 0.21629
#
# Static dielectric constant tensor:
#      x y z
#    x 3.553650 0.000000 0.000000 
#    y 0.000000 3.100010 0.000000 
#    z 0.000000 0.000000 3.750260 
# 
# 
# High freq. dielectric constant tensor:
#      x y z
#    x 1.745860 0.000000 0.000000 
#    y 0.000000 1.693440 0.000000 
#    z 0.000000 0.000000 1.775890 
# 
# From -- ./inp_files/1278.got.cif
#   From: 2010.03.12/outbox.cif.g09.slc.cpg/sg39_1_cif.got.tgz:1278.got - 2010.04.14 02:53:20.
