data_PCOD8181324
_publ_section_title
;
Structure prediction by ZEFSAII (Michael W. Deem and Ramdas Pophale) SiO2 
 PCOD8181324
Probable space group: A B M 2
;
_chemical_formula_sum "Si O2"
_cell_formula_units_Z 56
_cell_length_a 15.273394
_cell_length_b 8.773937
_cell_length_c 19.901718
_cell_angle_alpha 90.000000
_cell_angle_beta 90.000000
_cell_angle_gamma 90.000000
_cell_volume 2666.985380
_symmetry_space_group_name_H-M "A B M 2"
_symmetry_group_IT_number 39
_symmetry_cell_setting 'orthorhombic'
loop_
_space_group_symop_operation_xyz
x,y,z
-x,-y,z
-x,1/2+y,z
x,1/2-y,z
x,1/2+y,1/2+z
-x,1/2-y,1/2+z
-x,y,1/2+z
x,-y,1/2+z
loop_
_atom_site_type_symbol
_atom_site_label
_atom_site_fract_x
_atom_site_fract_y
_atom_site_fract_z
Si Si1 0.828183 0.925949 0.227920
Si Si2 0.590192 0.928724 0.906161
Si Si3 0.368270 0.920196 0.773064
Si Si4 0.090191 0.429651 0.850933
Si Si5 0.768685 0.426185 0.947770
Si Si6 0.231840 0.075179 0.598798
Si Si7 0.413303 0.424311 0.124036
O O1 0.855233 0.750000 0.227194
O O2 0.733061 0.953122 0.259053
O O3 0.896287 0.017329 0.273934
O O4 0.829938 0.985363 0.151072
O O5 0.591529 0.750000 0.920592
O O6 0.500000 0.000000 0.934322
O O7 0.596088 0.957800 0.826047
O O8 0.671000 0.007092 0.943987
O O9 0.379942 0.750000 0.803160
O O10 0.421130 0.936085 0.704351
O O11 0.084035 0.250000 0.853817
O O12 0.169108 0.483748 0.897629
O O13 0.000000 0.500000 0.878487
O O14 0.766513 0.250000 0.925589
O O15 0.805629 0.443920 0.023497
O O16 0.234263 0.250000 0.621524
O O17 0.330038 0.013278 0.597226
O O18 0.500000 0.500000 0.092496
O O19 0.405647 0.250000 0.100119
#
# Coordination Sequence:
#
# PCOD8181324 Si02
#       7
#     8   8   8   8   8   8   8
#     4  10  20  38  65  94 127 161 201 255 309 370
#     4  12  24  36  56  85 121 168 217 267 318 375
#     4   9  18  33  54  81 117 157 200 256 315 369
#     4  12  25  43  71 102 131 165 207 257 315 381
#     4  11  24  44  65  91 130 170 213 266 318 376
#     4  10  22  39  62  88 121 166 210 256 314 375
#     4  10  20  33  52  79 115 159 209 264 316 371
#
# _framework density 20.997491
#
# number of rings (size 3 to 8) (size 9 to 14) (size 15 to 20)
#    0.000    1.429    1.429    5.571    0.000    6.857 
#    0.000    0.714    0.000    3.429    0.000    0.000 
#    0.000    0.000    0.000    0.000    0.000    0.000 
#
# Total GULP energy -347286.728975 kJ/mol
# GULP energy per Si atom -12403.097463 kJ/mol
# Density = 2.094970 g / cm^3
# Si number density = 20.997491 Si / 1000 Ang^3
#
#
#
# Elastic Constant Matrix: (Units=GPa)
#
#
# Indices 1 2 3 4 5 6 
#
# 1 82.4370 43.0045 26.7632 0.0000 0.0000 0.0000
# 2 43.0045 165.0847 45.8309 0.0000 0.0000 0.0000
# 3 26.7632 45.8309 95.9945 0.0000 0.0000 0.0000
# 4 0.0000 0.0000 0.0000 28.8430 0.0000 0.0000
# 5 0.0000 0.0000 0.0000 0.0000 -7.8400 0.0000
# 6 0.0000 0.0000 0.0000 0.0000 0.0000 34.8821
#
#
#
# Elastic Compliance Matrix: (Units=1/GPa)
#
#
# Indices 1 2 3 4 5 6 
#
# 1 0.014578 -0.003077 -0.002595 0.000000 0.000000 0.000000
# 2 -0.003077 0.007633 -0.002786 0.000000 0.000000 0.000000
# 3 -0.002595 -0.002786 0.012471 0.000000 0.000000 0.000000
# 4 0.000000 0.000000 0.000000 0.034670 0.000000 0.000000
# 5 0.000000 0.000000 0.000000 0.000000 -0.127550 0.000000
# 6 0.000000 0.000000 0.000000 0.000000 0.000000 0.028668
#
#
# Mechanical properties :
#
#
# Convention : Reuss Voigt Hill
#
# Bulk Modulus (GPa) = 56.29125 63.85706 60.07415
# Shear Modulus (GPa) = -747.21244 26.37154 -360.42045
#
# Velocity S-wave (km/s) = -18.88466 3.54777 -13.11571
# Velocity P-wave (km/s) = 21.18114 6.87459 14.16652
#
# Compressibility (1/GPa) = 0.01776475
#
# Stress axis : x y z
#
# Youngs Moduli (GPa) = 68.59531 131.01738 80.18591
#
# Poissons Ratio (x) = 0.40316 0.20811
# Poissons Ratio (y) = 0.21108 0.22341
# Poissons Ratio (z) = 0.17802 0.36503
#
# Static dielectric constant tensor:
#      x y z
#    x 3.654670 0.000000 0.000000 
#    y 0.000000 3.864620 0.000000 
#    z 0.000000 0.000000 3.839730 
# 
# 
# High freq. dielectric constant tensor:
#      x y z
#    x 1.804700 0.000000 0.000000 
#    y 0.000000 1.833520 0.000000 
#    z 0.000000 0.000000 1.824170 
# 
# From -- ./inp_files/14777.got.cif
#   From: 2010.03.12/outbox.cif.g09.slc.cpg/sg39_8_cif.got.tgz:14777.got - 2010.04.14 02:53:20.
