data_PCOD8181359
_publ_section_title
;
Structure prediction by ZEFSAII (Michael W. Deem and Ramdas Pophale) SiO2 
 PCOD8181359
Probable space group: A B M 2
;
_chemical_formula_sum "Si O2"
_cell_formula_units_Z 56
_cell_length_a 19.345612
_cell_length_b 8.915436
_cell_length_c 15.881530
_cell_angle_alpha 90.000000
_cell_angle_beta 90.000000
_cell_angle_gamma 90.000000
_cell_volume 2739.159989
_symmetry_space_group_name_H-M "A B M 2"
_symmetry_group_IT_number 39
_symmetry_cell_setting 'orthorhombic'
loop_
_space_group_symop_operation_xyz
x,y,z
-x,-y,z
-x,1/2+y,z
x,1/2-y,z
x,1/2+y,1/2+z
-x,1/2-y,1/2+z
-x,y,1/2+z
x,-y,1/2+z
loop_
_atom_site_type_symbol
_atom_site_label
_atom_site_fract_x
_atom_site_fract_y
_atom_site_fract_z
Si Si1 0.215424 0.578264 0.396980
Si Si2 0.067869 0.926624 0.652510
Si Si3 0.342932 0.573591 0.827984
Si Si4 0.932131 0.426624 0.333143
Si Si5 0.657068 0.926409 0.657669
Si Si6 0.574511 0.572105 0.492827
Si Si7 0.784576 0.078264 0.588674
O O1 0.227319 0.750000 0.369286
O O2 0.263028 0.474357 0.338687
O O3 0.135130 0.534673 0.387994
O O4 0.237360 0.551538 0.492827
O O5 0.056239 0.750000 0.661539
O O6 0.135130 0.965327 0.597660
O O7 0.078884 1.000000 0.742827
O O8 0.000000 0.000000 0.608868
O O9 0.347524 0.750000 0.818126
O O10 0.373532 0.500000 0.742827
O O11 0.385958 0.516421 0.908897
O O12 0.943762 0.250000 0.324115
O O13 0.000000 0.500000 0.376786
O O14 0.652476 0.750000 0.667528
O O15 0.614042 0.983579 0.576756
O O16 0.736972 0.974356 0.646967
O O17 0.500000 0.500000 0.492827
O O18 0.568119 0.750000 0.492827
O O19 0.772681 0.250000 0.616368
#
# Coordination Sequence:
#
# PCOD8181359 Si02
#       7
#     8   8   8   8   8   8   8
#     4  10  21  37  58  85 117 155 200 251 305 361
#     4  10  20  34  52  76 108 148 196 248 301 360
#     4  11  23  41  64  94 126 162 206 251 299 360
#     4  10  20  34  52  76 108 148 196 248 301 360
#     4  11  23  41  64  94 126 162 206 251 299 360
#     4  10  24  44  66  94 129 162 201 246 297 358
#     4  10  21  37  58  85 117 155 200 251 305 361
#
# _framework density 20.444224999999999
#
# number of rings (size 3 to 8) (size 9 to 14) (size 15 to 20)
#    0.000    1.714    1.429    3.429    0.000    8.000 
#    0.000    2.857    0.000    0.000    0.000    0.000 
#    0.000    0.000    0.000    0.000    0.000    0.000 
#
# Total GULP energy -347244.934360 kJ/mol
# GULP energy per Si atom -12401.604799 kJ/mol
# Density = 2.039769 g / cm^3
# Si number density = 20.444225 Si / 1000 Ang^3
#
#
#
# Elastic Constant Matrix: (Units=GPa)
#
#
# Indices 1 2 3 4 5 6 
#
# 1 124.2619 47.4474 58.7457 0.0000 0.0000 0.0000
# 2 47.4474 81.3467 48.0800 0.0000 0.0000 0.0000
# 3 58.7457 48.0800 128.8535 0.0000 0.0000 0.0000
# 4 0.0000 0.0000 0.0000 29.6390 0.0000 0.0000
# 5 0.0000 0.0000 0.0000 0.0000 28.2810 0.0000
# 6 0.0000 0.0000 0.0000 0.0000 0.0000 37.2007
#
#
#
# Elastic Compliance Matrix: (Units=1/GPa)
#
#
# Indices 1 2 3 4 5 6 
#
# 1 0.011468 -0.004617 -0.003506 0.000000 0.000000 0.000000
# 2 -0.004617 0.017630 -0.004474 0.000000 0.000000 0.000000
# 3 -0.003506 -0.004474 0.011028 0.000000 0.000000 0.000000
# 4 0.000000 0.000000 0.000000 0.033739 0.000000 0.000000
# 5 0.000000 0.000000 0.000000 0.000000 0.035359 0.000000
# 6 0.000000 0.000000 0.000000 0.000000 0.000000 0.026881
#
#
# Mechanical properties :
#
#
# Convention : Reuss Voigt Hill
#
# Bulk Modulus (GPa) = 66.96096 71.44537 69.20316
# Shear Modulus (GPa) = 30.07057 31.03676 30.55367
#
# Velocity S-wave (km/s) = 3.83934 3.90053 3.87006
# Velocity P-wave (km/s) = 7.24418 7.43693 7.34119
#
# Compressibility (1/GPa) = 0.01493407
#
# Stress axis : x y z
#
# Youngs Moduli (GPa) = 87.20189 56.72144 90.67667
#
# Poissons Ratio (x) = 0.26187 0.31787
# Poissons Ratio (y) = 0.40260 0.40565
# Poissons Ratio (z) = 0.30569 0.25375
#
# Static dielectric constant tensor:
#      x y z
#    x 3.818510 0.000000 0.000000 
#    y 0.000000 3.652830 0.000000 
#    z 0.000000 0.000000 3.794250 
# 
# 
# High freq. dielectric constant tensor:
#      x y z
#    x 1.800970 0.000000 0.000000 
#    y 0.000000 1.797480 0.000000 
#    z 0.000000 0.000000 1.801200 
# 
# From -- ./inp_files/10404.got.cif
#   From: 2010.03.12/outbox.cif.g09.slc.cpg/sg39_6_cif.got.tgz:10404.got - 2010.04.14 02:53:20.
