data_PCOD8181760
_publ_section_title
;
Structure prediction by ZEFSAII (Michael W. Deem and Ramdas Pophale) SiO2 
 PCOD8181760
Probable space group: A B M 2
;
_chemical_formula_sum "Si O2"
_cell_formula_units_Z 48
_cell_length_a 11.784387
_cell_length_b 15.680541
_cell_length_c 12.129960
_cell_angle_alpha 90.000000
_cell_angle_beta 90.000000
_cell_angle_gamma 90.000000
_cell_volume 2241.441494
_symmetry_space_group_name_H-M "A B M 2"
_symmetry_group_IT_number 39
_symmetry_cell_setting 'orthorhombic'
loop_
_space_group_symop_operation_xyz
x,y,z
-x,-y,z
-x,1/2+y,z
x,1/2-y,z
x,1/2+y,1/2+z
-x,1/2-y,1/2+z
-x,y,1/2+z
x,-y,1/2+z
loop_
_atom_site_type_symbol
_atom_site_label
_atom_site_fract_x
_atom_site_fract_y
_atom_site_fract_z
Si Si1 0.731465 0.149203 0.493240
Si Si2 0.828540 0.654590 0.567197
Si Si3 0.581929 0.650026 0.194087
Si Si4 0.058495 0.091047 0.127156
Si Si5 0.336005 0.647881 0.251388
Si Si6 0.201976 0.148017 0.324614
O O1 0.757551 0.250000 0.497200
O O2 0.623176 0.127831 0.570495
O O3 0.842301 0.100355 0.537065
O O4 0.702653 0.115491 0.371476
O O5 0.781880 0.750000 0.554914
O O6 0.751768 0.609279 0.661207
O O7 0.812531 0.610822 0.447755
O O8 0.959548 0.658577 0.602243
O O9 0.567623 0.750000 0.208218
O O10 0.459448 0.608977 0.220904
O O11 0.675104 0.617537 0.281687
O O12 0.104352 0.106411 0.249839
O O13 0.000000 0.000000 0.115834
O O14 0.335209 0.750000 0.251617
O O15 0.188319 0.250000 0.316651
#
# Coordination Sequence:
#
# PCOD8181760 Si02
#       6
#     8   8   8   8   8   8
#     4   9  18  34  56  84 118 151 187 235 291 339
#     4  10  21  35  55  84 113 143 186 235 286 340
#     4   8  15  29  52  83 113 141 179 230 287 338
#     4  11  23  38  56  79 109 152 194 235 280 340
#     4   9  18  30  53  87 115 143 183 233 285 341
#     4   9  19  36  58  82 112 146 184 237 292 336
#
# _framework density 21.41479
#
# number of rings (size 3 to 8) (size 9 to 14) (size 15 to 20)
#    0.000    2.667    0.000    2.500    4.667    0.667 
#    0.000    0.000    0.000    4.000    0.000    0.000 
#    0.000    0.000    0.000    0.000    0.000    0.000 
#
# Total GULP energy -297531.377992 kJ/mol
# GULP energy per Si atom -12397.140750 kJ/mol
# Density = 2.136605 g / cm^3
# Si number density = 21.414790 Si / 1000 Ang^3
#
#
#
# Elastic Constant Matrix: (Units=GPa)
#
#
# Indices 1 2 3 4 5 6 
#
# 1 173.3147 13.8370 118.3622 0.0000 0.0000 0.0000
# 2 13.8370 29.9804 20.3619 0.0000 0.0000 0.0000
# 3 118.3622 20.3619 234.4989 0.0000 0.0000 0.0000
# 4 0.0000 0.0000 0.0000 11.3376 0.0000 0.0000
# 5 0.0000 0.0000 0.0000 0.0000 31.8194 0.0000
# 6 0.0000 0.0000 0.0000 0.0000 0.0000 15.0170
#
#
#
# Elastic Compliance Matrix: (Units=1/GPa)
#
#
# Indices 1 2 3 4 5 6 
#
# 1 0.008840 -0.001115 -0.004365 0.000000 0.000000 0.000000
# 2 -0.001115 0.035586 -0.002527 0.000000 0.000000 0.000000
# 3 -0.004365 -0.002527 0.006687 0.000000 0.000000 0.000000
# 4 0.000000 0.000000 0.000000 0.088202 0.000000 0.000000
# 5 0.000000 0.000000 0.000000 0.000000 0.031427 0.000000
# 6 0.000000 0.000000 0.000000 0.000000 0.000000 0.066591
#
#
# Mechanical properties :
#
#
# Convention : Reuss Voigt Hill
#
# Bulk Modulus (GPa) = 28.49134 82.54624 55.51879
# Shear Modulus (GPa) = 18.86451 30.65033 24.75742
#
# Velocity S-wave (km/s) = 2.97123 3.78732 3.40382
# Velocity P-wave (km/s) = 5.01043 7.59968 6.43659
#
# Compressibility (1/GPa) = 0.03509838
#
# Stress axis : x y z
#
# Youngs Moduli (GPa) = 113.12282 28.10076 149.54178
#
# Poissons Ratio (x) = 0.03134 0.65276
# Poissons Ratio (y) = 0.12617 0.37790
# Poissons Ratio (z) = 0.49379 0.07101
#
# Static dielectric constant tensor:
#      x y z
#    x 4.107790 0.000000 0.000000 
#    y 0.000000 3.262640 0.000000 
#    z 0.000000 0.000000 4.111140 
# 
# 
# High freq. dielectric constant tensor:
#      x y z
#    x 1.848170 0.000000 0.000000 
#    y 0.000000 1.794650 0.000000 
#    z 0.000000 0.000000 1.850060 
# 
# From -- ./inp_files/5802.got.cif
#   From: 2010.03.12/outbox.cif.g09.slc.cpg/sg39_3_cif.got.tgz:5802.got - 2010.04.14 02:53:20.
