data_PCOD8181604
_publ_section_title
;
Structure prediction by ZEFSAII (Michael W. Deem and Ramdas Pophale) SiO2 
 PCOD8181604
Probable space group: A B M 2
;
_chemical_formula_sum "Si O2"
_cell_formula_units_Z 48
_cell_length_a 8.555161
_cell_length_b 18.563667
_cell_length_c 15.414133
_cell_angle_alpha 90.000000
_cell_angle_beta 90.000000
_cell_angle_gamma 90.000000
_cell_volume 2447.997998
_symmetry_space_group_name_H-M "A B M 2"
_symmetry_group_IT_number 39
_symmetry_cell_setting 'orthorhombic'
loop_
_space_group_symop_operation_xyz
x,y,z
-x,-y,z
-x,1/2+y,z
x,1/2-y,z
x,1/2+y,1/2+z
-x,1/2-y,1/2+z
-x,y,1/2+z
x,-y,1/2+z
loop_
_atom_site_type_symbol
_atom_site_label
_atom_site_fract_x
_atom_site_fract_y
_atom_site_fract_z
Si Si1 0.776243 0.166711 0.007310
Si Si2 0.130702 0.328687 0.231062
Si Si3 0.906478 0.929651 0.646332
Si Si4 0.077196 0.827503 0.399613
Si Si5 0.371758 0.400743 0.345167
Si Si6 0.718930 0.942292 0.824607
O O1 0.742578 0.250000 0.036729
O O2 0.774265 0.107269 0.084480
O O3 0.649859 0.146075 0.932952
O O4 0.952154 0.158941 0.973824
O O5 0.171345 0.250000 0.193757
O O6 0.290728 0.364697 0.262372
O O7 0.047060 0.372856 0.155803
O O8 0.010964 0.323239 0.309275
O O9 0.815675 0.947406 0.735411
O O10 0.000000 0.000000 0.610947
O O11 0.162556 0.750000 0.414472
O O12 0.197517 0.893403 0.397312
O O13 0.548861 0.407495 0.312978
O O14 0.293503 0.478134 0.364230
#
# Coordination Sequence:
#
# PCOD8181604 Si02
#       6
#     8   8   8   8   8   8
#     4  10  22  38  58  87 119 154 193 244 301 353
#     4   9  17  33  56  80 110 151 194 240 284 342
#     4  11  21  36  59  89 119 153 196 249 299 350
#     4   8  17  32  54  79 107 143 193 239 278 339
#     4  10  20  37  57  83 118 153 198 240 287 354
#     4  10  21  36  57  88 113 153 201 240 290 353
#
# _framework density 19.607861
#
# number of rings (size 3 to 8) (size 9 to 14) (size 15 to 20)
#    0.000    2.333    1.667    2.000    2.333    2.000 
#    0.000    5.000    0.000    0.000    0.000    0.000 
#    0.000    0.000    0.000    0.000    0.000    0.000 
#
# Total GULP energy -297400.359035 kJ/mol
# GULP energy per Si atom -12391.681626 kJ/mol
# Density = 1.956323 g / cm^3
# Si number density = 19.607861 Si / 1000 Ang^3
#
#
#
# Elastic Constant Matrix: (Units=GPa)
#
#
# Indices 1 2 3 4 5 6 
#
# 1 62.9123 41.5261 1.1279 0.0000 0.0000 0.0000
# 2 41.5261 123.7552 6.9604 0.0000 0.0000 0.0000
# 3 1.1279 6.9604 40.5575 0.0000 0.0000 0.0000
# 4 0.0000 0.0000 0.0000 -81.4082 0.0000 0.0000
# 5 0.0000 0.0000 0.0000 0.0000 15.5841 0.0000
# 6 0.0000 0.0000 0.0000 0.0000 0.0000 29.6855
#
#
#
# Elastic Compliance Matrix: (Units=1/GPa)
#
#
# Indices 1 2 3 4 5 6 
#
# 1 0.020432 -0.006891 0.000614 0.000000 0.000000 0.000000
# 2 -0.006891 0.010483 -0.001607 0.000000 0.000000 0.000000
# 3 0.000614 -0.001607 0.024915 0.000000 0.000000 0.000000
# 4 0.000000 0.000000 0.000000 -0.012284 0.000000 0.000000
# 5 0.000000 0.000000 0.000000 0.000000 0.064168 0.000000
# 6 0.000000 0.000000 0.000000 0.000000 0.000000 0.033686
#
#
# Mechanical properties :
#
#
# Convention : Reuss Voigt Hill
#
# Bulk Modulus (GPa) = 24.96066 36.27265 30.61666
# Shear Modulus (GPa) = 29.32150 4.61296 16.96723
#
# Velocity S-wave (km/s) = 3.87123 1.53549 2.94484
# Velocity P-wave (km/s) = 5.72184 4.65648 5.21643
#
# Compressibility (1/GPa) = 0.04006304
#
# Stress axis : x y z
#
# Youngs Moduli (GPa) = 48.94189 95.39217 40.13620
#
# Poissons Ratio (x) = 0.65731 -0.02466
# Poissons Ratio (y) = 0.33724 0.06452
# Poissons Ratio (z) = -0.03007 0.15334
#
# Static dielectric constant tensor:
#      x y z
#    x 3.392490 0.000000 0.000000 
#    y 0.000000 10.183110 0.000000 
#    z 0.000000 0.000000 3.321730 
# 
# 
# High freq. dielectric constant tensor:
#      x y z
#    x 1.740130 0.000000 0.000000 
#    y 0.000000 1.789270 0.000000 
#    z 0.000000 0.000000 1.734090 
# 
# From -- ./inp_files/8315.got.cif
#   From: 2010.03.12/outbox.cif.g09.slc.cpg/sg39_5_cif.got.tgz:8315.got - 2010.04.14 02:53:20.
