data_PCOD8181323
_publ_section_title
;
Structure prediction by ZEFSAII (Michael W. Deem and Ramdas Pophale) SiO2 
 PCOD8181323
Probable space group: A B M 2
;
_chemical_formula_sum "Si O2"
_cell_formula_units_Z 56
_cell_length_a 15.497406
_cell_length_b 8.796982
_cell_length_c 20.516286
_cell_angle_alpha 90.000000
_cell_angle_beta 90.000000
_cell_angle_gamma 90.000000
_cell_volume 2796.993510
_symmetry_space_group_name_H-M "A B M 2"
_symmetry_group_IT_number 39
_symmetry_cell_setting 'orthorhombic'
loop_
_space_group_symop_operation_xyz
x,y,z
-x,-y,z
-x,1/2+y,z
x,1/2-y,z
x,1/2+y,1/2+z
-x,1/2-y,1/2+z
-x,y,1/2+z
x,-y,1/2+z
loop_
_atom_site_type_symbol
_atom_site_label
_atom_site_fract_x
_atom_site_fract_y
_atom_site_fract_z
Si Si1 0.180073 0.920987 0.929600
Si Si2 0.412591 0.428922 0.608971
Si Si3 0.761949 0.931369 0.293691
Si Si4 0.909561 0.068731 0.054144
Si Si5 0.586435 0.571881 0.833283
Si Si6 0.229006 0.569776 0.160620
Si Si7 0.624828 0.921799 0.463482
O O1 0.148853 0.750000 0.918685
O O2 0.185390 0.996424 0.857230
O O3 0.272140 0.925407 0.964849
O O4 0.114118 0.996901 0.981566
O O5 0.500000 0.500000 0.639557
O O6 0.417323 0.250000 0.616964
O O7 0.326072 0.488620 0.644775
O O8 0.408257 0.476651 0.533359
O O9 0.759830 0.750000 0.295823
O O10 0.664881 0.992332 0.296541
O O11 0.804414 0.992994 0.227603
O O12 0.914254 0.250000 0.053065
O O13 0.836470 0.014925 0.104767
O O14 0.000000 0.000000 0.076864
O O15 0.500000 0.500000 0.802768
O O16 0.589837 0.750000 0.819588
O O17 0.587877 0.538523 0.910606
O O18 0.227042 0.750000 0.168517
O O19 0.593874 0.750000 0.446505
#
# Coordination Sequence:
#
# PCOD8181323 Si02
#       7
#     8   8   8   8   8   8   8
#     4   8  15  33  59  82 107 144 184 225 283 345
#     4  10  20  33  52  78 111 154 196 237 286 340
#     4  10  21  37  59  82 110 150 194 238 288 346
#     4  10  20  38  64  90 115 148 189 236 290 348
#     4  11  21  33  50  76 110 149 195 243 291 341
#     4  10  21  39  59  81 117 160 195 234 290 348
#     4   9  16  31  53  77 107 145 189 235 289 342
#
# _framework density 20.021497
#
# number of rings (size 3 to 8) (size 9 to 14) (size 15 to 20)
#    0.000    2.286    1.429    3.000    0.000    3.429 
#    0.000    5.714    0.000    3.429    0.000    0.000 
#    0.000    0.000    0.000    0.000    0.000    0.000 
#
# Total GULP energy -347064.197760 kJ/mol
# GULP energy per Si atom -12395.149920 kJ/mol
# Density = 1.997593 g / cm^3
# Si number density = 20.021497 Si / 1000 Ang^3
#
#
#
# Elastic Constant Matrix: (Units=GPa)
#
#
# Indices 1 2 3 4 5 6 
#
# 1 101.7180 24.8219 58.3619 0.0000 0.0000 0.0000
# 2 24.8219 47.6704 31.5469 0.0000 0.0000 0.0000
# 3 58.3619 31.5469 134.5601 0.0000 0.0000 0.0000
# 4 0.0000 0.0000 0.0000 26.4431 0.0000 0.0000
# 5 0.0000 0.0000 0.0000 0.0000 8.0264 0.0000
# 6 0.0000 0.0000 0.0000 0.0000 0.0000 26.9650
#
#
#
# Elastic Compliance Matrix: (Units=1/GPa)
#
#
# Indices 1 2 3 4 5 6 
#
# 1 0.013638 -0.003772 -0.005031 0.000000 0.000000 0.000000
# 2 -0.003772 0.025873 -0.004430 0.000000 0.000000 0.000000
# 3 -0.005031 -0.004430 0.010652 0.000000 0.000000 0.000000
# 4 0.000000 0.000000 0.000000 0.037817 0.000000 0.000000
# 5 0.000000 0.000000 0.000000 0.000000 0.124589 0.000000
# 6 0.000000 0.000000 0.000000 0.000000 0.000000 0.037085
#
#
# Mechanical properties :
#
#
# Convention : Reuss Voigt Hill
#
# Bulk Modulus (GPa) = 42.19780 57.04553 49.62167
# Shear Modulus (GPa) = 17.60449 23.56809 20.58629
#
# Velocity S-wave (km/s) = 2.96848 3.43467 3.21005
# Velocity P-wave (km/s) = 5.73334 6.65457 6.21106
#
# Compressibility (1/GPa) = 0.02369792
#
# Stress axis : x y z
#
# Youngs Moduli (GPa) = 73.32413 38.65040 93.87793
#
# Poissons Ratio (x) = 0.14579 0.47228
# Poissons Ratio (y) = 0.27658 0.41585
# Poissons Ratio (z) = 0.36888 0.17121
#
# Static dielectric constant tensor:
#      x y z
#    x 3.574140 0.000000 0.000000 
#    y 0.000000 3.309970 0.000000 
#    z 0.000000 0.000000 3.834750 
# 
# 
# High freq. dielectric constant tensor:
#      x y z
#    x 1.764400 0.000000 0.000000 
#    y 0.000000 1.752360 0.000000 
#    z 0.000000 0.000000 1.789480 
# 
# From -- ./inp_files/14751.got.cif
#   From: 2010.03.12/outbox.cif.g09.slc.cpg/sg39_8_cif.got.tgz:14751.got - 2010.04.14 02:53:20.
