data_PCOD8181009
_publ_section_title
;
Structure prediction by ZEFSAII (Michael W. Deem and Ramdas Pophale) SiO2 
 PCOD8181009
Probable space group: A B M 2
;
_chemical_formula_sum "Si O2"
_cell_formula_units_Z 56
_cell_length_a 15.324755
_cell_length_b 8.875895
_cell_length_c 20.097878
_cell_angle_alpha 90.000000
_cell_angle_beta 90.000000
_cell_angle_gamma 90.000000
_cell_volume 2733.731781
_symmetry_space_group_name_H-M "A B M 2"
_symmetry_group_IT_number 39
_symmetry_cell_setting 'orthorhombic'
loop_
_space_group_symop_operation_xyz
x,y,z
-x,-y,z
-x,1/2+y,z
x,1/2-y,z
x,1/2+y,1/2+z
-x,1/2-y,1/2+z
-x,y,1/2+z
x,-y,1/2+z
loop_
_atom_site_type_symbol
_atom_site_label
_atom_site_fract_x
_atom_site_fract_y
_atom_site_fract_z
Si Si1 0.911053 0.427730 0.993990
Si Si2 0.371638 0.075964 0.915466
Si Si3 0.175658 0.076279 0.874110
Si Si4 0.417214 0.926393 0.780829
Si Si5 0.227174 0.572667 0.105368
Si Si6 0.587258 0.427797 0.052361
Si Si7 0.224877 0.925840 0.740454
O O1 0.921233 0.250000 0.989631
O O2 0.893694 0.491361 0.920257
O O3 0.000000 0.500000 0.021703
O O4 0.833372 0.474831 0.043684
O O5 0.397043 0.250000 0.925196
O O6 0.268503 0.054123 0.908781
O O7 0.417935 0.010490 0.851079
O O8 0.406258 0.979870 0.976582
O O9 0.149141 0.250000 0.868014
O O10 0.174233 0.005864 0.800518
O O11 0.430466 0.750000 0.791086
O O12 0.328114 0.962036 0.742326
O O13 0.500000 0.000000 0.741393
O O14 0.223553 0.750000 0.117924
O O15 0.326145 0.518038 0.091206
O O16 0.190248 0.489551 0.170623
O O17 0.500000 0.500000 0.085024
O O18 0.578579 0.250000 0.054778
O O19 0.205473 0.750000 0.745896
#
# Coordination Sequence:
#
# PCOD8181009 Si02
#       7
#     8   8   8   8   8   8   8
#     4  11  23  42  68  98 127 158 199 248 307 367
#     4  10  19  32  53  81 113 152 197 250 304 355
#     4  10  20  37  63  92 121 155 198 248 302 362
#     4  10  20  33  50  76 111 153 201 253 304 357
#     4  10  23  42  62  86 124 166 204 252 306 365
#     4  11  22  36  54  81 118 162 207 255 305 358
#     4  10  22  38  60  86 118 160 204 252 306 364
#
# _framework density 20.484819000000002
#
# number of rings (size 3 to 8) (size 9 to 14) (size 15 to 20)
#    0.000    1.714    1.429    3.000    0.000    5.714 
#    0.000    3.571    0.000    1.714    0.000    0.000 
#    0.000    0.000    0.000    0.000    0.000    0.000 
#
# Total GULP energy -347273.683337 kJ/mol
# GULP energy per Si atom -12402.631548 kJ/mol
# Density = 2.043819 g / cm^3
# Si number density = 20.484819 Si / 1000 Ang^3
#
#
#
# Elastic Constant Matrix: (Units=GPa)
#
#
# Indices 1 2 3 4 5 6 
#
# 1 88.8030 50.5168 39.7363 0.0000 0.0000 0.0000
# 2 50.5168 91.8859 48.5293 0.0000 0.0000 0.0000
# 3 39.7363 48.5293 113.4185 0.0000 0.0000 0.0000
# 4 0.0000 0.0000 0.0000 31.8804 0.0000 0.0000
# 5 0.0000 0.0000 0.0000 0.0000 10.1841 0.0000
# 6 0.0000 0.0000 0.0000 0.0000 0.0000 33.4631
#
#
#
# Elastic Compliance Matrix: (Units=1/GPa)
#
#
# Indices 1 2 3 4 5 6 
#
# 1 0.016924 -0.007975 -0.002517 0.000000 0.000000 0.000000
# 2 -0.007975 0.017819 -0.004830 0.000000 0.000000 0.000000
# 3 -0.002517 -0.004830 0.011765 0.000000 0.000000 0.000000
# 4 0.000000 0.000000 0.000000 0.031367 0.000000 0.000000
# 5 0.000000 0.000000 0.000000 0.000000 0.098192 0.000000
# 6 0.000000 0.000000 0.000000 0.000000 0.000000 0.029884
#
#
# Mechanical properties :
#
#
# Convention : Reuss Voigt Hill
#
# Bulk Modulus (GPa) = 63.03722 63.51913 63.27817
# Shear Modulus (GPa) = 20.67118 25.46054 23.06586
#
# Velocity S-wave (km/s) = 3.18008 3.52930 3.35923
# Velocity P-wave (km/s) = 6.65757 6.90530 6.78257
#
# Compressibility (1/GPa) = 0.01586364
#
# Stress axis : x y z
#
# Youngs Moduli (GPa) = 59.08820 56.12126 84.99488
#
# Poissons Ratio (x) = 0.44757 0.21393
# Poissons Ratio (y) = 0.47123 0.41053
# Poissons Ratio (z) = 0.14872 0.27107
#
# Static dielectric constant tensor:
#      x y z
#    x 3.680430 0.000000 0.000000 
#    y 0.000000 3.716850 0.000000 
#    z 0.000000 0.000000 3.546280 
# 
# 
# High freq. dielectric constant tensor:
#      x y z
#    x 1.792690 0.000000 0.000000 
#    y 0.000000 1.809180 0.000000 
#    z 0.000000 0.000000 1.793830 
# 
# From -- ./inp_files/14765.got.cif
#   From: 2010.03.12/outbox.cif.g09.slc.cpg/sg39_8_cif.got.tgz:14765.got - 2010.04.14 02:53:20.
