data_PCOD8181747
_publ_section_title
;
Structure prediction by ZEFSAII (Michael W. Deem and Ramdas Pophale) SiO2 
 PCOD8181747
Probable space group: A B M 2
;
_chemical_formula_sum "Si O2"
_cell_formula_units_Z 64
_cell_length_a 10.883596
_cell_length_b 23.276245
_cell_length_c 13.444593
_cell_angle_alpha 90.000000
_cell_angle_beta 90.000000
_cell_angle_gamma 90.000000
_cell_volume 3405.908621
_symmetry_space_group_name_H-M "A B M 2"
_symmetry_group_IT_number 39
_symmetry_cell_setting 'orthorhombic'
loop_
_space_group_symop_operation_xyz
x,y,z
-x,-y,z
-x,1/2+y,z
x,1/2-y,z
x,1/2+y,1/2+z
-x,1/2-y,1/2+z
-x,y,1/2+z
x,-y,1/2+z
loop_
_atom_site_type_symbol
_atom_site_label
_atom_site_fract_x
_atom_site_fract_y
_atom_site_fract_z
Si Si1 0.852547 0.051096 0.053390
Si Si2 0.273071 0.184978 0.090127
Si Si3 0.618041 0.966413 0.816163
Si Si4 0.527772 0.315342 0.750531
Si Si5 0.871271 0.966934 0.329786
Si Si6 0.450486 0.131206 0.945208
Si Si7 0.882914 0.424235 0.623177
Si Si8 0.391776 0.598799 0.125585
O O1 0.749009 0.093217 0.094310
O O2 0.972920 0.074146 0.106205
O O3 0.825641 0.983249 0.075998
O O4 0.868092 0.062637 0.936491
O O5 0.216828 0.250000 0.086243
O O6 0.342596 0.175199 0.194906
O O7 0.173091 0.134197 0.076965
O O8 0.369444 0.179816 0.999300
O O9 0.639446 0.911851 0.887216
O O10 0.576997 0.951747 0.703324
O O11 0.500000 0.000000 0.860743
O O12 0.750010 0.995158 0.817123
O O13 0.490857 0.250000 0.760167
O O14 0.540166 0.341139 0.861825
O O15 0.417419 0.342212 0.684802
O O16 0.861976 0.920600 0.241688
O O17 0.000000 0.000000 0.316405
O O18 0.526746 0.094944 0.026441
#
# Coordination Sequence:
#
# PCOD8181747 Si02
#       8
#     8   8   8   8   8   8   8   8
#     4  11  22  38  60  89 117 156 198 242 303 369
#     4  10  22  39  60  83 114 156 198 243 293 354
#     4  11  23  34  54  89 127 152 194 250 303 358
#     4   9  20  38  58  84 115 155 200 244 301 359
#     4  12  22  37  59  84 121 162 196 233 300 377
#     4  10  21  34  59  85 114 155 194 248 300 350
#     4  11  22  38  60  83 119 156 197 244 292 365
#     4  10  21  36  57  85 120 153 194 244 307 357
#
# _framework density 18.790873999999999
#
# number of rings (size 3 to 8) (size 9 to 14) (size 15 to 20)
#    0.000    1.500    3.750    1.875    7.000    2.000 
#    0.000    0.625    0.000    0.750    0.000    0.000 
#    0.000    0.000    0.000    0.000    0.000    0.000 
#
# Total GULP energy -396535.921967 kJ/mol
# GULP energy per Si atom -12391.747561 kJ/mol
# Density = 1.874810 g / cm^3
# Si number density = 18.790874 Si / 1000 Ang^3
#
#
#
# Elastic Constant Matrix: (Units=GPa)
#
#
# Indices 1 2 3 4 5 6 
#
# 1 93.8418 54.5467 24.2652 0.0000 0.0000 0.0000
# 2 54.5467 73.3936 18.7001 0.0000 0.0000 0.0000
# 3 24.2652 18.7001 116.9110 0.0000 0.0000 0.0000
# 4 0.0000 0.0000 0.0000 22.8992 0.0000 0.0000
# 5 0.0000 0.0000 0.0000 0.0000 29.8275 0.0000
# 6 0.0000 0.0000 0.0000 0.0000 0.0000 25.8521
#
#
#
# Elastic Compliance Matrix: (Units=1/GPa)
#
#
# Indices 1 2 3 4 5 6 
#
# 1 0.019104 -0.013749 -0.001766 0.000000 0.000000 0.000000
# 2 -0.013749 0.024098 -0.001001 0.000000 0.000000 0.000000
# 3 -0.001766 -0.001001 0.009080 0.000000 0.000000 0.000000
# 4 0.000000 0.000000 0.000000 0.043670 0.000000 0.000000
# 5 0.000000 0.000000 0.000000 0.000000 0.033526 0.000000
# 6 0.000000 0.000000 0.000000 0.000000 0.000000 0.038682
#
#
# Mechanical properties :
#
#
# Convention : Reuss Voigt Hill
#
# Bulk Modulus (GPa) = 51.94380 53.24115 52.59247
# Shear Modulus (GPa) = 24.08378 28.15806 26.12092
#
# Velocity S-wave (km/s) = 3.58393 3.87524 3.73243
# Velocity P-wave (km/s) = 6.69546 6.95833 6.82816
#
# Compressibility (1/GPa) = 0.01925157
#
# Stress axis : x y z
#
# Youngs Moduli (GPa) = 52.34394 41.49681 110.13005
#
# Poissons Ratio (x) = 0.57052 0.19450
# Poissons Ratio (y) = 0.71965 0.11024
# Poissons Ratio (z) = 0.09244 0.04154
#
# Static dielectric constant tensor:
#      x y z
#    x 3.322760 0.000000 0.000000 
#    y 0.000000 3.284010 0.000000 
#    z 0.000000 0.000000 3.882750 
# 
# 
# High freq. dielectric constant tensor:
#      x y z
#    x 1.716690 0.000000 0.000000 
#    y 0.000000 1.704100 0.000000 
#    z 0.000000 0.000000 1.755710 
# 
# From -- ./inp_files/6068.got.cif
#   From: 2010.03.12/outbox.cif.g09.slc.cpg/sg39_4_cif.got.tgz:6068.got - 2010.04.14 02:53:20.
