data_PCOD8181907
_publ_section_title
;
Structure prediction by ZEFSAII (Michael W. Deem and Ramdas Pophale) SiO2 
 PCOD8181907
Probable space group: A B M 2
;
_chemical_formula_sum "Si O2"
_cell_formula_units_Z 64
_cell_length_a 6.476463
_cell_length_b 17.979526
_cell_length_c 26.206282
_cell_angle_alpha 90.000000
_cell_angle_beta 90.000000
_cell_angle_gamma 90.000000
_cell_volume 3051.557354
_symmetry_space_group_name_H-M "A B M 2"
_symmetry_group_IT_number 39
_symmetry_cell_setting 'orthorhombic'
loop_
_space_group_symop_operation_xyz
x,y,z
-x,-y,z
-x,1/2+y,z
x,1/2-y,z
x,1/2+y,1/2+z
-x,1/2-y,1/2+z
-x,y,1/2+z
x,-y,1/2+z
loop_
_atom_site_type_symbol
_atom_site_label
_atom_site_fract_x
_atom_site_fract_y
_atom_site_fract_z
Si Si1 0.694794 0.167691 0.302830
Si Si2 0.015965 0.412917 0.873504
Si Si3 0.376140 0.829662 0.891872
Si Si4 0.412855 0.924018 0.554468
Si Si5 0.434074 0.665098 0.707819
Si Si6 0.266076 0.833859 0.112588
Si Si7 0.117034 0.425747 0.147666
Si Si8 0.272564 0.162668 0.962517
O O1 0.780160 0.250000 0.286716
O O2 0.881026 0.113020 0.319806
O O3 0.560121 0.177508 0.352467
O O4 0.556290 0.133507 0.257220
O O5 0.116531 0.376510 0.923457
O O6 0.000000 0.500000 0.877668
O O7 0.777510 0.391469 0.872768
O O8 0.260143 0.750000 0.896229
O O9 0.489351 0.848841 0.945037
O O10 0.611042 0.873651 0.567263
O O11 0.283857 0.947146 0.604716
O O12 0.259694 0.879599 0.516606
O O13 0.500000 0.000000 0.529526
O O14 0.357708 0.750000 0.717681
O O15 0.596054 0.662685 0.662657
O O16 0.235191 0.613591 0.695268
O O17 0.224992 0.750000 0.094885
O O18 0.044682 0.869281 0.123197
O O19 0.000000 0.500000 0.167233
O O20 0.215629 0.250000 0.968062
#
# Coordination Sequence:
#
# PCOD8181907 Si02
#       8
#     8   8   8   8   8   8   8   8
#     4   9  19  39  63  86 117 159 207 255 304 365
#     4  11  23  37  60  89 127 161 198 254 312 370
#     4   9  19  38  61  83 115 158 199 248 306 360
#     4  11  23  39  63  88 122 162 205 255 318 372
#     4   9  20  38  63  90 118 159 210 259 308 367
#     4  10  21  39  61  88 122 160 207 260 307 373
#     4  11  22  39  60  88 124 163 203 252 321 375
#     4  10  23  40  61  89 120 161 212 255 300 370
#
# _framework density 20.972897
#
# number of rings (size 3 to 8) (size 9 to 14) (size 15 to 20)
#    0.000    2.000    1.250    2.625    1.750    5.500 
#    0.000    7.500    0.000    0.000    0.000    0.000 
#    0.000    0.000    0.000    0.000    0.000    0.000 
#
# Total GULP energy -396705.952529 kJ/mol
# GULP energy per Si atom -12397.061017 kJ/mol
# Density = 2.092516 g / cm^3
# Si number density = 20.972897 Si / 1000 Ang^3
#
#
#
# Elastic Constant Matrix: (Units=GPa)
#
#
# Indices 1 2 3 4 5 6 
#
# 1 67.4898 37.7010 -0.2380 0.0000 0.0000 0.0000
# 2 37.7010 143.3578 22.8845 0.0000 0.0000 0.0000
# 3 -0.2380 22.8845 67.0157 0.0000 0.0000 0.0000
# 4 0.0000 0.0000 0.0000 96.6734 0.0000 0.0000
# 5 0.0000 0.0000 0.0000 0.0000 24.9839 0.0000
# 6 0.0000 0.0000 0.0000 0.0000 0.0000 39.4809
#
#
#
# Elastic Compliance Matrix: (Units=1/GPa)
#
#
# Indices 1 2 3 4 5 6 
#
# 1 0.017557 -0.004894 0.001734 0.000000 0.000000 0.000000
# 2 -0.004894 0.008742 -0.003003 0.000000 0.000000 0.000000
# 3 0.001734 -0.003003 0.015953 0.000000 0.000000 0.000000
# 4 0.000000 0.000000 0.000000 0.010344 0.000000 0.000000
# 5 0.000000 0.000000 0.000000 0.000000 0.040026 0.000000
# 6 0.000000 0.000000 0.000000 0.000000 0.000000 0.025329
#
#
# Mechanical properties :
#
#
# Convention : Reuss Voigt Hill
#
# Bulk Modulus (GPa) = 33.41543 44.28426 38.84985
# Shear Modulus (GPa) = 35.65005 46.72871 41.18938
#
# Velocity S-wave (km/s) = 4.12735 4.72535 4.43644
# Velocity P-wave (km/s) = 6.21938 7.13671 6.69378
#
# Compressibility (1/GPa) = 0.02992629
#
# Stress axis : x y z
#
# Youngs Moduli (GPa) = 56.95731 114.39163 62.68276
#
# Poissons Ratio (x) = 0.55983 -0.10866
# Poissons Ratio (y) = 0.27875 0.18821
# Poissons Ratio (z) = -0.09874 0.34347
#
# Static dielectric constant tensor:
#      x y z
#    x 3.786430 0.000000 0.000000 
#    y 0.000000 -6.022900 0.000000 
#    z 0.000000 0.000000 3.714930 
# 
# 
# High freq. dielectric constant tensor:
#      x y z
#    x 1.819150 0.000000 0.000000 
#    y 0.000000 1.825210 0.000000 
#    z 0.000000 0.000000 1.810300 
# 
# From -- ./inp_files/17359.got.cif
#   From: 2010.03.12/outbox.cif.g09.slc.cpg/sg39_9_cif.got.tgz:17359.got - 2010.04.14 02:53:20.
