data_PCOD8181642
_publ_section_title
;
Structure prediction by ZEFSAII (Michael W. Deem and Ramdas Pophale) SiO2 
 PCOD8181642
Probable space group: A B M 2
;
_chemical_formula_sum "Si O2"
_cell_formula_units_Z 64
_cell_length_a 23.882753
_cell_length_b 8.551589
_cell_length_c 15.299467
_cell_angle_alpha 90.000000
_cell_angle_beta 90.000000
_cell_angle_gamma 90.000000
_cell_volume 3124.694107
_symmetry_space_group_name_H-M "A B M 2"
_symmetry_group_IT_number 39
_symmetry_cell_setting 'orthorhombic'
loop_
_space_group_symop_operation_xyz
x,y,z
-x,-y,z
-x,1/2+y,z
x,1/2-y,z
x,1/2+y,1/2+z
-x,1/2-y,1/2+z
-x,y,1/2+z
x,-y,1/2+z
loop_
_atom_site_type_symbol
_atom_site_label
_atom_site_fract_x
_atom_site_fract_y
_atom_site_fract_z
Si Si1 0.441086 0.565703 0.455750
Si Si2 0.672405 0.428716 0.007205
Si Si3 0.556645 0.933050 0.265217
Si Si4 0.134870 0.567502 0.864475
Si Si5 0.334829 0.570726 0.201635
Si Si6 0.059192 0.934001 0.511587
Si Si7 0.059090 0.565112 0.707866
Si Si8 0.255703 0.568363 0.358233
O O1 0.500000 0.500000 0.491175
O O2 0.437767 0.750000 0.471841
O O3 0.392166 0.479781 0.508086
O O4 0.433339 0.528116 0.354024
O O5 0.677810 0.250000 0.974744
O O6 0.708835 0.539753 0.945718
O O7 0.693990 0.446883 0.106777
O O8 0.550076 0.750000 0.285162
O O9 0.500000 0.000000 0.220339
O O10 0.609639 0.963969 0.203523
O O11 0.124338 0.750000 0.875360
O O12 0.106302 0.504549 0.775189
O O13 0.200242 0.533868 0.860326
O O14 0.109195 0.484657 0.948957
O O15 0.352072 0.750000 0.219788
O O16 0.290999 0.512670 0.274261
O O17 0.054623 0.750000 0.511587
O O18 0.072298 0.996846 0.609824
O O19 0.000000 0.000000 0.477509
O O20 0.056152 0.750000 0.707985
O O21 0.000000 0.500000 0.741284
O O22 0.239868 0.750000 0.352369
#
# Coordination Sequence:
#
# PCOD8181642 Si02
#       8
#     8   8   8   8   8   8   8   8
#     4  11  21  36  59  88 121 156 194 242 298 358
#     4  11  23  41  64  90 118 155 197 246 301 360
#     4  11  21  35  60  89 120 156 194 240 298 358
#     4  11  23  39  60  87 119 158 202 248 293 349
#     4  10  23  42  63  87 119 154 196 246 301 361
#     4  10  20  37  60  90 125 160 197 241 293 351
#     4   9  20  37  59  88 123 159 195 240 291 347
#     4  11  24  43  63  85 117 158 200 251 300 352
#
# _framework density 20.482005999999998
#
# number of rings (size 3 to 8) (size 9 to 14) (size 15 to 20)
#    0.000    1.500    1.250    4.875    0.000    5.500 
#    0.000    2.500    0.000    0.000    0.000    0.000 
#    0.000    0.000    0.000    0.000    0.000    0.000 
#
# Total GULP energy -396932.493260 kJ/mol
# GULP energy per Si atom -12404.140414 kJ/mol
# Density = 2.043539 g / cm^3
# Si number density = 20.482006 Si / 1000 Ang^3
#
#
#
# Elastic Constant Matrix: (Units=GPa)
#
#
# Indices 1 2 3 4 5 6 
#
# 1 119.3893 11.5743 55.4786 0.0000 0.0000 0.0000
# 2 11.5743 55.4380 19.3582 0.0000 0.0000 0.0000
# 3 55.4786 19.3582 109.5490 0.0000 0.0000 0.0000
# 4 0.0000 0.0000 0.0000 25.7845 0.0000 0.0000
# 5 0.0000 0.0000 0.0000 0.0000 7.5459 0.0000
# 6 0.0000 0.0000 0.0000 0.0000 0.0000 36.6122
#
#
#
# Elastic Compliance Matrix: (Units=1/GPa)
#
#
# Indices 1 2 3 4 5 6 
#
# 1 0.010961 -0.000373 -0.005485 0.000000 0.000000 0.000000
# 2 -0.000373 0.019237 -0.003210 0.000000 0.000000 0.000000
# 3 -0.005485 -0.003210 0.012473 0.000000 0.000000 0.000000
# 4 0.000000 0.000000 0.000000 0.038783 0.000000 0.000000
# 5 0.000000 0.000000 0.000000 0.000000 0.132522 0.000000
# 6 0.000000 0.000000 0.000000 0.000000 0.000000 0.027313
#
#
# Mechanical properties :
#
#
# Convention : Reuss Voigt Hill
#
# Bulk Modulus (GPa) = 40.75910 50.79985 45.77948
# Shear Modulus (GPa) = 18.68428 27.18621 22.93524
#
# Velocity S-wave (km/s) = 3.02359 3.64719 3.34993
# Velocity P-wave (km/s) = 5.66856 6.52626 6.11247
#
# Compressibility (1/GPa) = 0.02453440
#
# Stress axis : x y z
#
# Youngs Moduli (GPa) = 91.23315 51.98291 80.17071
#
# Poissons Ratio (x) = 0.01940 0.43973
# Poissons Ratio (y) = 0.03404 0.25738
# Poissons Ratio (z) = 0.50041 0.16689
#
# Static dielectric constant tensor:
#      x y z
#    x 3.689990 0.000000 0.000000 
#    y 0.000000 3.649630 0.000000 
#    z 0.000000 0.000000 3.827400 
# 
# 
# High freq. dielectric constant tensor:
#      x y z
#    x 1.794600 0.000000 0.000000 
#    y 0.000000 1.804850 0.000000 
#    z 0.000000 0.000000 1.804040 
# 
# From -- ./inp_files/10661.got.cif
#   From: 2010.03.12/outbox.cif.g09.slc.cpg/sg39_6_cif.got.tgz:10661.got - 2010.04.14 02:53:20.
