data_PCOD8181226
_publ_section_title
;
Structure prediction by ZEFSAII (Michael W. Deem and Ramdas Pophale) SiO2 
 PCOD8181226
Probable space group: A B M 2
;
_chemical_formula_sum "Si O2"
_cell_formula_units_Z 56
_cell_length_a 23.646370
_cell_length_b 8.350426
_cell_length_c 14.388895
_cell_angle_alpha 90.000000
_cell_angle_beta 90.000000
_cell_angle_gamma 90.000000
_cell_volume 2841.191822
_symmetry_space_group_name_H-M "A B M 2"
_symmetry_group_IT_number 39
_symmetry_cell_setting 'orthorhombic'
loop_
_space_group_symop_operation_xyz
x,y,z
-x,-y,z
-x,1/2+y,z
x,1/2-y,z
x,1/2+y,1/2+z
-x,1/2-y,1/2+z
-x,y,1/2+z
x,-y,1/2+z
loop_
_atom_site_type_symbol
_atom_site_label
_atom_site_fract_x
_atom_site_fract_y
_atom_site_fract_z
Si Si1 0.637194 0.932366 0.750000
Si Si2 0.759963 0.063425 0.749294
Si Si3 0.849151 0.060770 0.391205
Si Si4 0.849839 0.561343 0.100780
Si Si5 0.936827 0.059855 0.752465
Si Si6 0.558258 0.934681 0.101481
Si Si7 0.561027 0.435666 0.901849
O O1 0.625367 0.750000 0.722315
O O2 0.703718 0.960209 0.755200
O O3 0.609162 0.046815 0.673345
O O4 0.610318 0.969241 0.849742
O O5 0.744513 0.250000 0.748438
O O6 0.792679 0.011896 0.655140
O O7 0.798438 0.027897 0.838619
O O8 0.838474 0.250000 0.389215
O O9 0.850272 0.991258 0.496569
O O10 0.908876 0.018890 0.343639
O O11 0.854017 0.750000 0.094287
O O12 0.903522 0.499489 0.160446
O O13 0.933690 0.250000 0.763024
O O14 0.000000 0.000000 0.743144
O O15 0.551410 0.750000 0.073012
O O16 0.500000 0.000000 0.147140
O O17 0.571273 0.038252 0.010548
O O18 0.500000 0.500000 0.870163
O O19 0.565253 0.250000 0.876226
#
# Coordination Sequence:
#
# PCOD8181226 Si02
#       7
#     8   8   8   8   8   8   8
#     4  12  24  39  58  84 114 150 192 236 284 339
#     4  10  21  39  57  80 111 145 184 232 281 332
#     4  10  19  36  59  83 109 145 185 227 276 331
#     4   8  18  36  58  79 108 145 183 223 273 326
#     4  10  20  36  55  82 115 148 183 227 273 324
#     4  11  22  39  60  85 115 149 186 232 285 344
#     4  11  22  39  60  85 114 148 187 233 286 344
#
# _framework density 19.710038999999998
#
# number of rings (size 3 to 8) (size 9 to 14) (size 15 to 20)
#    0.000    1.714    0.000    7.286    0.000    1.714 
#    0.000   14.286    0.000    0.000    0.000    0.000 
#    0.000    0.000    0.000    0.000    0.000    0.000 
#
# Total GULP energy -347291.388430 kJ/mol
# GULP energy per Si atom -12403.263872 kJ/mol
# Density = 1.966518 g / cm^3
# Si number density = 19.710039 Si / 1000 Ang^3
#
#
#
# Elastic Constant Matrix: (Units=GPa)
#
#
# Indices 1 2 3 4 5 6 
#
# 1 124.8251 15.5320 54.8120 0.0000 0.0000 0.0000
# 2 15.5320 76.9925 14.7407 0.0000 0.0000 0.0000
# 3 54.8120 14.7407 135.7912 0.0000 0.0000 0.0000
# 4 0.0000 0.0000 0.0000 28.6916 0.0000 0.0000
# 5 0.0000 0.0000 0.0000 0.0000 -126.2822 0.0000
# 6 0.0000 0.0000 0.0000 0.0000 0.0000 32.5599
#
#
#
# Elastic Compliance Matrix: (Units=1/GPa)
#
#
# Indices 1 2 3 4 5 6 
#
# 1 0.009854 -0.001252 -0.003842 0.000000 0.000000 0.000000
# 2 -0.001252 0.013423 -0.000952 0.000000 0.000000 0.000000
# 3 -0.003842 -0.000952 0.009018 0.000000 0.000000 0.000000
# 4 0.000000 0.000000 0.000000 0.034853 0.000000 0.000000
# 5 0.000000 0.000000 0.000000 0.000000 -0.007919 0.000000
# 6 0.000000 0.000000 0.000000 0.000000 0.000000 0.030713
#
#
# Mechanical properties :
#
#
# Convention : Reuss Voigt Hill
#
# Bulk Modulus (GPa) = 49.49489 56.41978 52.95734
# Shear Modulus (GPa) = 45.96927 3.82880 24.89903
#
# Velocity S-wave (km/s) = 4.83460 1.39527 3.55810
# Velocity P-wave (km/s) = 7.50537 5.59310 6.61866
#
# Compressibility (1/GPa) = 0.02020411
#
# Stress axis : x y z
#
# Youngs Moduli (GPa) = 101.48247 74.49837 110.88696
#
# Poissons Ratio (x) = 0.09330 0.42598
# Poissons Ratio (y) = 0.12709 0.10552
# Poissons Ratio (z) = 0.38985 0.07089
#
# Static dielectric constant tensor:
#      x y z
#    x 3.366260 0.000000 0.000000 
#    y 0.000000 3.529730 0.000000 
#    z 0.000000 0.000000 3.798190 
# 
# 
# High freq. dielectric constant tensor:
#      x y z
#    x 1.766430 0.000000 0.000000 
#    y 0.000000 1.771280 0.000000 
#    z 0.000000 0.000000 1.772400 
# 
# From -- ./inp_files/10348.got.cif
#   From: 2010.03.12/outbox.cif.g09.slc.cpg/sg39_6_cif.got.tgz:10348.got - 2010.04.14 02:53:20.
