data_PCOD8181922
_publ_section_title
;
Structure prediction by ZEFSAII (Michael W. Deem and Ramdas Pophale) SiO2 
 PCOD8181922
Probable space group: A B M 2
;
_chemical_formula_sum "Si O2"
_cell_formula_units_Z 48
_cell_length_a 16.489320
_cell_length_b 16.038735
_cell_length_c 9.490514
_cell_angle_alpha 90.000000
_cell_angle_beta 90.000000
_cell_angle_gamma 90.000000
_cell_volume 2509.935679
_symmetry_space_group_name_H-M "A B M 2"
_symmetry_group_IT_number 39
_symmetry_cell_setting 'orthorhombic'
loop_
_space_group_symop_operation_xyz
x,y,z
-x,-y,z
-x,1/2+y,z
x,1/2-y,z
x,1/2+y,1/2+z
-x,1/2-y,1/2+z
-x,y,1/2+z
x,-y,1/2+z
loop_
_atom_site_type_symbol
_atom_site_label
_atom_site_fract_x
_atom_site_fract_y
_atom_site_fract_z
Si Si1 0.044522 0.584817 0.117930
Si Si2 0.572746 0.345476 0.651494
Si Si3 0.912406 0.654589 0.917223
Si Si4 0.806483 0.499904 0.479311
Si Si5 0.446036 0.920415 0.349476
Si Si6 0.303277 0.978926 0.732205
O O1 0.064152 0.637164 0.256199
O O2 0.125991 0.563570 0.033282
O O3 0.000000 0.500000 0.165387
O O4 0.990251 0.640484 0.015264
O O5 0.594007 0.250000 0.672395
O O6 0.565403 0.365062 0.487081
O O7 0.488221 0.367167 0.726904
O O8 0.645301 0.394627 0.726707
O O9 0.883053 0.750000 0.931783
O O10 0.839919 0.594299 0.966271
O O11 0.727326 0.501791 0.577057
O O12 0.776581 0.533208 0.327985
O O13 0.500000 0.000000 0.391535
O O14 0.358307 0.945919 0.290044
#
# Coordination Sequence:
#
# PCOD8181922 Si02
#       6
#     8   8   8   8   8   8
#     4  10  21  39  63  87 115 161 200 238 287 362
#     4  11  23  39  61  90 121 152 197 249 296 341
#     4  11  23  39  61  90 121 153 197 249 296 341
#     4  11  22  40  64  87 116 158 203 239 288 361
#     4  10  21  39  63  87 115 161 199 237 285 362
#     4  11  22  40  64  87 116 159 202 238 290 359
#
# _framework density 19.123996000000002
#
# number of rings (size 3 to 8) (size 9 to 14) (size 15 to 20)
#    0.000    1.333    3.333    4.000    4.667    0.667 
#    0.000    1.667    0.000    0.000    0.000    0.000 
#    0.000    0.000    0.000    0.000    0.000    0.000 
#
# Total GULP energy -297722.860840 kJ/mol
# GULP energy per Si atom -12405.119202 kJ/mol
# Density = 1.908047 g / cm^3
# Si number density = 19.123996 Si / 1000 Ang^3
#
#
#
# Elastic Constant Matrix: (Units=GPa)
#
#
# Indices 1 2 3 4 5 6 
#
# 1 91.2413 29.8423 37.5705 0.0000 0.0000 0.0000
# 2 29.8423 96.1421 42.8114 0.0000 0.0000 0.0000
# 3 37.5705 42.8114 104.8348 0.0000 0.0000 0.0000
# 4 0.0000 0.0000 0.0000 23.4416 0.0000 0.0000
# 5 0.0000 0.0000 0.0000 0.0000 42.1109 0.0000
# 6 0.0000 0.0000 0.0000 0.0000 0.0000 13.2890
#
#
#
# Elastic Compliance Matrix: (Units=1/GPa)
#
#
# Indices 1 2 3 4 5 6 
#
# 1 0.013315 -0.002454 -0.003769 0.000000 0.000000 0.000000
# 2 -0.002454 0.013166 -0.004497 0.000000 0.000000 0.000000
# 3 -0.003769 -0.004497 0.012726 0.000000 0.000000 0.000000
# 4 0.000000 0.000000 0.000000 0.042659 0.000000 0.000000
# 5 0.000000 0.000000 0.000000 0.000000 0.023747 0.000000
# 6 0.000000 0.000000 0.000000 0.000000 0.000000 0.075250
#
#
# Mechanical properties :
#
#
# Convention : Reuss Voigt Hill
#
# Bulk Modulus (GPa) = 56.29002 56.96295 56.62648
# Shear Modulus (GPa) = 24.01242 27.90124 25.95683
#
# Velocity S-wave (km/s) = 3.54731 3.82378 3.68814
# Velocity P-wave (km/s) = 6.80265 7.02466 6.91455
#
# Compressibility (1/GPa) = 0.01776514
#
# Stress axis : x y z
#
# Youngs Moduli (GPa) = 75.10406 75.95606 78.57889
#
# Poissons Ratio (x) = 0.18643 0.29620
# Poissons Ratio (y) = 0.18433 0.35335
# Poissons Ratio (z) = 0.28310 0.34156
#
# Static dielectric constant tensor:
#      x y z
#    x 3.565880 0.000000 0.000000 
#    y 0.000000 3.298250 0.000000 
#    z 0.000000 0.000000 3.611730 
# 
# 
# High freq. dielectric constant tensor:
#      x y z
#    x 1.750120 0.000000 0.000000 
#    y 0.000000 1.724030 0.000000 
#    z 0.000000 0.000000 1.762930 
# 
# From -- ./inp_files/3239.got.cif
#   From: 2010.03.12/outbox.cif.g09.slc.cpg/sg39_2_cif.got.tgz:3239.got - 2010.04.14 02:53:20.
