data_PCOD8181132
_publ_section_title
;
Structure prediction by ZEFSAII (Michael W. Deem and Ramdas Pophale) SiO2 
 PCOD8181132
Probable space group: A B M 2
;
_chemical_formula_sum "Si O2"
_cell_formula_units_Z 48
_cell_length_a 15.402922
_cell_length_b 8.768920
_cell_length_c 18.804316
_cell_angle_alpha 90.000000
_cell_angle_beta 90.000000
_cell_angle_gamma 90.000000
_cell_volume 2539.842376
_symmetry_space_group_name_H-M "A B M 2"
_symmetry_group_IT_number 39
_symmetry_cell_setting 'orthorhombic'
loop_
_space_group_symop_operation_xyz
x,y,z
-x,-y,z
-x,1/2+y,z
x,1/2-y,z
x,1/2+y,1/2+z
-x,1/2-y,1/2+z
-x,y,1/2+z
x,-y,1/2+z
loop_
_atom_site_type_symbol
_atom_site_label
_atom_site_fract_x
_atom_site_fract_y
_atom_site_fract_z
Si Si1 0.249650 0.931027 0.431860
Si Si2 0.410566 0.930393 0.522275
Si Si3 0.091236 0.568525 0.526373
Si Si4 0.744873 0.571298 0.770883
Si Si5 0.909918 0.429336 0.177575
Si Si6 0.410312 0.570499 0.684196
O O1 0.251184 0.750000 0.433710
O O2 0.333213 0.995820 0.473612
O O3 0.162854 0.989516 0.470561
O O4 0.250563 0.990770 0.351298
O O5 0.416686 0.750000 0.517095
O O6 0.393446 0.983500 0.603242
O O7 0.500000 0.000000 0.493104
O O8 0.085225 0.750000 0.529956
O O9 0.117521 0.506457 0.603636
O O10 0.000000 0.500000 0.500818
O O11 0.724487 0.750000 0.767874
O O12 0.836642 0.532958 0.735037
O O13 0.668564 0.483988 0.731842
O O14 0.922065 0.250000 0.165397
O O15 0.000000 0.500000 0.205956
O O16 0.500000 0.500000 0.713161
O O17 0.418253 0.750000 0.689394
#
# Coordination Sequence:
#
# PCOD8181132 Si02
#       6
#     8   8   8   8   8   8
#     4   9  19  35  53  74 104 139 169 204 256 309
#     4   9  18  34  55  76  99 130 169 210 251 298
#     4  10  19  34  56  78 102 134 173 216 259 306
#     4  10  21  36  53  76 107 140 173 212 259 310
#     4  10  20  34  54  78 104 136 174 217 261 307
#     4  10  20  35  56  80 104 135 174 215 259 306
#
# _framework density 18.898810000000001
#
# number of rings (size 3 to 8) (size 9 to 14) (size 15 to 20)
#    0.000    2.333    0.000    3.500    0.000    4.667 
#    0.000    5.833    0.000    0.000    0.000    0.000 
#    0.000    0.000    0.000    0.000    0.000    0.000 
#
# Total GULP energy -297648.694825 kJ/mol
# GULP energy per Si atom -12402.028951 kJ/mol
# Density = 1.885580 g / cm^3
# Si number density = 18.898810 Si / 1000 Ang^3
#
#
#
# Elastic Constant Matrix: (Units=GPa)
#
#
# Indices 1 2 3 4 5 6 
#
# 1 167.7577 48.9166 100.6605 0.0000 0.0000 0.0000
# 2 48.9166 60.8909 37.9149 0.0000 0.0000 0.0000
# 3 100.6605 37.9149 130.6632 0.0000 0.0000 0.0000
# 4 0.0000 0.0000 0.0000 20.0621 0.0000 0.0000
# 5 0.0000 0.0000 0.0000 0.0000 3.3043 0.0000
# 6 0.0000 0.0000 0.0000 0.0000 0.0000 30.5612
#
#
#
# Elastic Compliance Matrix: (Units=1/GPa)
#
#
# Indices 1 2 3 4 5 6 
#
# 1 0.012132 -0.004793 -0.007956 0.000000 0.000000 0.000000
# 2 -0.004793 0.021938 -0.002674 0.000000 0.000000 0.000000
# 3 -0.007956 -0.002674 0.014558 0.000000 0.000000 0.000000
# 4 0.000000 0.000000 0.000000 0.049845 0.000000 0.000000
# 5 0.000000 0.000000 0.000000 0.000000 0.302632 0.000000
# 6 0.000000 0.000000 0.000000 0.000000 0.000000 0.032721
#
#
# Mechanical properties :
#
#
# Convention : Reuss Voigt Hill
#
# Bulk Modulus (GPa) = 56.23010 81.58844 68.90927
# Shear Modulus (GPa) = 10.62478 22.24018 16.43248
#
# Velocity S-wave (km/s) = 2.37363 3.43418 2.95192
# Velocity P-wave (km/s) = 6.10983 7.68048 6.93973
#
# Compressibility (1/GPa) = 0.01778407
#
# Stress axis : x y z
#
# Youngs Moduli (GPa) = 82.42551 45.58356 68.69063
#
# Poissons Ratio (x) = 0.21846 0.54648
# Poissons Ratio (y) = 0.39503 0.18365
# Poissons Ratio (z) = 0.65575 0.12187
#
# Static dielectric constant tensor:
#      x y z
#    x 3.558300 0.000000 0.000000 
#    y 0.000000 3.317570 0.000000 
#    z 0.000000 0.000000 3.572790 
# 
# 
# High freq. dielectric constant tensor:
#      x y z
#    x 1.749760 0.000000 0.000000 
#    y 0.000000 1.722550 0.000000 
#    z 0.000000 0.000000 1.729750 
# 
# From -- ./inp_files/12651.got.cif
#   From: 2010.03.12/outbox.cif.g09.slc.cpg/sg39_7_cif.got.tgz:12651.got - 2010.04.14 02:53:20.
