data_PCOD8181227
_publ_section_title
;
Structure prediction by ZEFSAII (Michael W. Deem and Ramdas Pophale) SiO2 
 PCOD8181227
Probable space group: A B M 2
;
_chemical_formula_sum "Si O2"
_cell_formula_units_Z 48
_cell_length_a 8.667938
_cell_length_b 10.119669
_cell_length_c 28.468880
_cell_angle_alpha 90.000000
_cell_angle_beta 90.000000
_cell_angle_gamma 90.000000
_cell_volume 2497.195166
_symmetry_space_group_name_H-M "A B M 2"
_symmetry_group_IT_number 39
_symmetry_cell_setting 'orthorhombic'
loop_
_space_group_symop_operation_xyz
x,y,z
-x,-y,z
-x,1/2+y,z
x,1/2-y,z
x,1/2+y,1/2+z
-x,1/2-y,1/2+z
-x,y,1/2+z
x,-y,1/2+z
loop_
_atom_site_type_symbol
_atom_site_label
_atom_site_fract_x
_atom_site_fract_y
_atom_site_fract_z
Si Si1 0.320393 0.750000 0.586550
Si Si2 0.815332 0.509136 0.436479
Si Si3 0.140687 0.098863 0.339826
Si Si4 0.855681 0.402521 0.736592
Si Si5 0.317971 0.011431 0.147542
Si Si6 0.686030 0.250000 0.100022
Si Si7 0.305525 0.750000 0.993272
Si Si8 0.329393 0.250000 0.979280
O O1 0.252354 0.620608 0.611581
O O2 0.502605 0.750000 0.594579
O O3 0.266499 0.750000 0.532516
O O4 0.755453 0.551547 0.384115
O O5 0.768490 0.619059 0.473138
O O6 0.732285 0.374970 0.450882
O O7 0.000000 0.500000 0.436115
O O8 0.085207 0.250000 0.348918
O O9 0.222460 0.088900 0.288723
O O10 0.000000 0.000000 0.336992
O O11 0.905329 0.250000 0.726707
O O12 0.728325 0.452062 0.700242
O O13 0.000000 0.500000 0.731707
O O14 0.500000 0.000000 0.146291
O O15 0.248333 0.873828 0.129268
O O16 0.747235 0.250000 0.047203
O O17 0.486713 0.750000 0.982330
#
# Coordination Sequence:
#
# PCOD8181227 Si02
#       8
#     4   8   8   8   8   4   4   4
#     4   9  18  37  56  79 110 156 195 225 274 349
#     4  11  22  38  60  88 117 152 195 240 291 344
#     4   9  19  36  60  82 111 153 194 229 280 352
#     4  10  21  38  59  85 114 148 189 235 284 339
#     4  10  19  36  59  83 109 150 193 233 278 337
#     4   9  20  33  58  81 112 150 197 225 274 353
#     4  11  21  41  60  85 116 156 197 243 284 343
#     4  11  23  37  62  87 116 156 197 237 288 345
#
# _framework density 19.221565999999999
#
# number of rings (size 3 to 8) (size 9 to 14) (size 15 to 20)
#    0.000    2.000    1.667    2.000    4.667    2.667 
#    0.000    6.667    0.000    0.000    0.000    0.000 
#    0.000    0.000    0.000    0.000    0.000    0.000 
#
# Total GULP energy -297420.418565 kJ/mol
# GULP energy per Si atom -12392.517440 kJ/mol
# Density = 1.917782 g / cm^3
# Si number density = 19.221566 Si / 1000 Ang^3
#
#
#
# Elastic Constant Matrix: (Units=GPa)
#
#
# Indices 1 2 3 4 5 6 
#
# 1 37.8576 26.7739 26.6473 0.0000 0.0000 0.0000
# 2 26.7739 189.6320 92.3036 0.0000 0.0000 0.0000
# 3 26.6473 92.3036 180.3404 0.0000 0.0000 0.0000
# 4 0.0000 0.0000 0.0000 39.4826 0.0000 0.0000
# 5 0.0000 0.0000 0.0000 0.0000 27.1677 0.0000
# 6 0.0000 0.0000 0.0000 0.0000 0.0000 23.6389
#
#
#
# Elastic Compliance Matrix: (Units=1/GPa)
#
#
# Indices 1 2 3 4 5 6 
#
# 1 0.030573 -0.002820 -0.003074 0.000000 0.000000 0.000000
# 2 -0.002820 0.007283 -0.003311 0.000000 0.000000 0.000000
# 3 -0.003074 -0.003311 0.007694 0.000000 0.000000 0.000000
# 4 0.000000 0.000000 0.000000 0.025328 0.000000 0.000000
# 5 0.000000 0.000000 0.000000 0.000000 0.036808 0.000000
# 6 0.000000 0.000000 0.000000 0.000000 0.000000 0.042303
#
#
# Mechanical properties :
#
#
# Convention : Reuss Voigt Hill
#
# Bulk Modulus (GPa) = 36.84655 77.69773 57.27214
# Shear Modulus (GPa) = 28.17749 35.53153 31.85451
#
# Velocity S-wave (km/s) = 3.83290 4.30411 4.07532
# Velocity P-wave (km/s) = 6.22890 8.07530 7.21143
#
# Compressibility (1/GPa) = 0.02713959
#
# Stress axis : x y z
#
# Youngs Moduli (GPa) = 32.70853 137.30198 129.97181
#
# Poissons Ratio (x) = 0.38723 0.39953
# Poissons Ratio (y) = 0.09225 0.43034
# Poissons Ratio (z) = 0.10055 0.45461
#
# Static dielectric constant tensor:
#      x y z
#    x 3.090800 0.000000 0.000000 
#    y 0.000000 4.031620 0.000000 
#    z 0.000000 0.000000 4.146780 
# 
# 
# High freq. dielectric constant tensor:
#      x y z
#    x 1.695990 0.000000 0.000000 
#    y 0.000000 1.774800 0.000000 
#    z 0.000000 0.000000 1.772750 
# 
# From -- ./inp_files/17697.got.cif
#   From: 2010.03.12/outbox.cif.g09.slc.cpg/sg39_9_cif.got.tgz:17697.got - 2010.04.14 02:53:20.
