data_PCOD8181384
_publ_section_title
;
Structure prediction by ZEFSAII (Michael W. Deem and Ramdas Pophale) SiO2 
 PCOD8181384
Probable space group: A B M 2
;
_chemical_formula_sum "Si O2"
_cell_formula_units_Z 56
_cell_length_a 20.076454
_cell_length_b 8.923157
_cell_length_c 15.654241
_cell_angle_alpha 90.000000
_cell_angle_beta 90.000000
_cell_angle_gamma 90.000000
_cell_volume 2804.384499
_symmetry_space_group_name_H-M "A B M 2"
_symmetry_group_IT_number 39
_symmetry_cell_setting 'orthorhombic'
loop_
_space_group_symop_operation_xyz
x,y,z
-x,-y,z
-x,1/2+y,z
x,1/2-y,z
x,1/2+y,1/2+z
-x,1/2-y,1/2+z
-x,y,1/2+z
x,-y,1/2+z
loop_
_atom_site_type_symbol
_atom_site_label
_atom_site_fract_x
_atom_site_fract_y
_atom_site_fract_z
Si Si1 0.072284 0.930280 0.693150
Si Si2 0.437394 0.414315 0.290353
Si Si3 0.303183 0.576136 0.517719
Si Si4 0.843328 0.078536 0.534485
Si Si5 0.159443 0.429134 0.839210
Si Si6 0.704278 0.573954 0.343107
Si Si7 0.438893 0.587779 0.591764
O O1 0.070721 0.750000 0.697716
O O2 0.110402 0.992697 0.608266
O O3 0.105251 0.993298 0.779330
O O4 0.000000 0.000000 0.687274
O O5 0.500000 0.500000 0.333793
O O6 0.435087 0.250000 0.332938
O O7 0.364784 0.489627 0.302643
O O8 0.452462 0.401700 0.191163
O O9 0.308887 0.750000 0.486215
O O10 0.232992 0.558395 0.566979
O O11 0.302503 0.457066 0.442569
O O12 0.364822 0.522950 0.576352
O O13 0.863788 0.250000 0.528329
O O14 0.852749 0.014247 0.437651
O O15 0.155389 0.250000 0.832293
O O16 0.232341 0.483158 0.806988
O O17 0.714286 0.750000 0.323432
O O18 0.500000 0.500000 0.547624
O O19 0.441195 0.750000 0.548545
#
# Coordination Sequence:
#
# PCOD8181384 Si02
#       7
#     8   8   8   8   8   8   8
#     4  11  23  40  63  91 120 153 191 232 279 341
#     4   9  19  33  50  72 102 141 185 230 280 335
#     4   9  18  34  55  76 102 141 185 229 279 336
#     4   8  18  37  61  84 113 153 193 233 282 338
#     4  10  21  40  62  88 120 155 194 238 287 341
#     4  10  20  34  54  80 108 142 185 233 283 337
#     4   9  18  32  50  71 100 139 182 228 279 333
#
# _framework density 19.968730999999998
#
# number of rings (size 3 to 8) (size 9 to 14) (size 15 to 20)
#    0.000    2.571    0.000    2.143    2.000    2.857 
#    0.000   11.429    0.000    0.000    0.000    0.000 
#    0.000    0.000    0.000    0.000    0.000    0.000 
#
# Total GULP energy -346871.489985 kJ/mol
# GULP energy per Si atom -12388.267499 kJ/mol
# Density = 1.992328 g / cm^3
# Si number density = 19.968731 Si / 1000 Ang^3
#
#
#
# Elastic Constant Matrix: (Units=GPa)
#
#
# Indices 1 2 3 4 5 6 
#
# 1 191.5143 53.4057 63.4502 0.0000 0.0000 0.0000
# 2 53.4057 64.5198 27.3997 0.0000 0.0000 0.0000
# 3 63.4502 27.3997 71.2050 0.0000 0.0000 0.0000
# 4 0.0000 0.0000 0.0000 20.6601 0.0000 0.0000
# 5 0.0000 0.0000 0.0000 0.0000 26.3922 0.0000
# 6 0.0000 0.0000 0.0000 0.0000 0.0000 36.0044
#
#
#
# Elastic Compliance Matrix: (Units=1/GPa)
#
#
# Indices 1 2 3 4 5 6 
#
# 1 0.008375 -0.004498 -0.005732 0.000000 0.000000 0.000000
# 2 -0.004498 0.020942 -0.004050 0.000000 0.000000 0.000000
# 3 -0.005732 -0.004050 0.020710 0.000000 0.000000 0.000000
# 4 0.000000 0.000000 0.000000 0.048403 0.000000 0.000000
# 5 0.000000 0.000000 0.000000 0.000000 0.037890 0.000000
# 6 0.000000 0.000000 0.000000 0.000000 0.000000 0.027774
#
#
# Mechanical properties :
#
#
# Convention : Reuss Voigt Hill
#
# Bulk Modulus (GPa) = 46.58387 68.41670 57.50029
# Shear Modulus (GPa) = 25.02364 28.81025 26.91694
#
# Velocity S-wave (km/s) = 3.54381 3.80250 3.67543
# Velocity P-wave (km/s) = 6.33434 7.32222 6.84612
#
# Compressibility (1/GPa) = 0.02146666
#
# Stress axis : x y z
#
# Youngs Moduli (GPa) = 119.40423 47.74991 48.28520
#
# Poissons Ratio (x) = 0.21478 0.27677
# Poissons Ratio (y) = 0.53709 0.19558
# Poissons Ratio (z) = 0.68442 0.19341
#
# Static dielectric constant tensor:
#      x y z
#    x 3.988100 0.000000 0.000000 
#    y 0.000000 3.670300 0.000000 
#    z 0.000000 0.000000 3.517420 
# 
# 
# High freq. dielectric constant tensor:
#      x y z
#    x 1.794570 0.000000 0.000000 
#    y 0.000000 1.759660 0.000000 
#    z 0.000000 0.000000 1.761580 
# 
# From -- ./inp_files/10388.got.cif
#   From: 2010.03.12/outbox.cif.g09.slc.cpg/sg39_6_cif.got.tgz:10388.got - 2010.04.14 02:53:20.
