data_PCOD8181336
_publ_section_title
;
Structure prediction by ZEFSAII (Michael W. Deem and Ramdas Pophale) SiO2 
 PCOD8181336
Probable space group: A B M 2
;
_chemical_formula_sum "Si O2"
_cell_formula_units_Z 60
_cell_length_a 10.818787
_cell_length_b 13.566796
_cell_length_c 17.762035
_cell_angle_alpha 90.000000
_cell_angle_beta 90.000000
_cell_angle_gamma 90.000000
_cell_volume 2607.045355
_symmetry_space_group_name_H-M "A B M 2"
_symmetry_group_IT_number 39
_symmetry_cell_setting 'orthorhombic'
loop_
_space_group_symop_operation_xyz
x,y,z
-x,-y,z
-x,1/2+y,z
x,1/2-y,z
x,1/2+y,1/2+z
-x,1/2-y,1/2+z
-x,y,1/2+z
x,-y,1/2+z
loop_
_atom_site_type_symbol
_atom_site_label
_atom_site_fract_x
_atom_site_fract_y
_atom_site_fract_z
Si Si1 0.000000 0.500000 0.669250
Si Si2 0.624430 0.961349 0.014846
Si Si3 0.187039 0.059613 0.439775
Si Si4 0.787846 0.363997 0.635267
Si Si5 0.933915 0.856080 0.931157
Si Si6 0.160297 0.139713 0.772140
Si Si7 0.588000 0.133673 0.351759
Si Si8 0.319284 0.134522 0.297625
O O1 0.085701 0.573819 0.620216
O O2 0.099307 0.436087 0.715075
O O3 0.595485 0.913078 0.934039
O O4 0.500000 0.000000 0.054105
O O5 0.701547 0.064544 0.999795
O O6 0.688973 0.884889 0.070558
O O7 0.228621 0.077999 0.354621
O O8 0.073236 0.128664 0.461040
O O9 0.154556 0.943802 0.455071
O O10 0.825445 0.250000 0.634166
O O11 0.725114 0.392642 0.714393
O O12 0.886273 0.750000 0.962860
O O13 0.936508 0.854025 0.840900
O O14 0.173546 0.250000 0.736825
O O15 0.295403 0.100490 0.799851
O O16 0.594488 0.250000 0.362356
O O17 0.460720 0.099842 0.311232
O O18 0.307595 0.250000 0.314677
#
# Coordination Sequence:
#
# PCOD8181336 Si02
#       8
#     4   8   8   8   8   8   8   8
#     4  12  24  42  68  96 132 186 232 290 342 410
#     4  12  25  43  65  99 136 182 226 279 340 415
#     4  11  21  37  63  95 128 167 225 280 326 387
#     4  11  27  48  70  99 141 187 228 281 353 419
#     4  10  20  33  55  92 132 170 214 272 330 383
#     4  10  20  35  62 102 135 173 229 287 342 396
#     4  10  21  39  67 100 136 178 226 279 335 401
#     4  10  21  41  70 101 131 171 223 280 337 400
#
# _framework density 23.014558999999998
#
# number of rings (size 3 to 8) (size 9 to 14) (size 15 to 20)
#    0.000    1.333    2.667    3.600    0.000    4.800 
#    0.000    0.000    0.000    4.800    0.000    0.000 
#    0.000    0.000    0.000    0.000    0.000    0.000 
#
# Total GULP energy -371794.412796 kJ/mol
# GULP energy per Si atom -12393.147093 kJ/mol
# Density = 2.296218 g / cm^3
# Si number density = 23.014559 Si / 1000 Ang^3
#
#
#
# Elastic Constant Matrix: (Units=GPa)
#
#
# Indices 1 2 3 4 5 6 
#
# 1 165.3408 54.7459 42.1912 0.0000 0.0000 0.0000
# 2 54.7459 80.8004 29.0631 0.0000 0.0000 0.0000
# 3 42.1912 29.0631 72.6260 0.0000 0.0000 0.0000
# 4 0.0000 0.0000 0.0000 17.7780 0.0000 0.0000
# 5 0.0000 0.0000 0.0000 0.0000 33.8276 0.0000
# 6 0.0000 0.0000 0.0000 0.0000 0.0000 34.2343
#
#
#
# Elastic Compliance Matrix: (Units=1/GPa)
#
#
# Indices 1 2 3 4 5 6 
#
# 1 0.008326 -0.004557 -0.003013 0.000000 0.000000 0.000000
# 2 -0.004557 0.016952 -0.004136 0.000000 0.000000 0.000000
# 3 -0.003013 -0.004136 0.017175 0.000000 0.000000 0.000000
# 4 0.000000 0.000000 0.000000 0.056249 0.000000 0.000000
# 5 0.000000 0.000000 0.000000 0.000000 0.029562 0.000000
# 6 0.000000 0.000000 0.000000 0.000000 0.000000 0.029210
#
#
# Mechanical properties :
#
#
# Convention : Reuss Voigt Hill
#
# Bulk Modulus (GPa) = 52.52309 63.41862 57.97086
# Shear Modulus (GPa) = 26.70459 30.01911 28.36185
#
# Velocity S-wave (km/s) = 3.41006 3.61550 3.51428
# Velocity P-wave (km/s) = 6.19483 6.71154 6.45836
#
# Compressibility (1/GPa) = 0.01903925
#
# Stress axis : x y z
#
# Youngs Moduli (GPa) = 120.10548 58.99090 58.22495
#
# Poissons Ratio (x) = 0.26885 0.17544
# Poissons Ratio (y) = 0.54738 0.24082
# Poissons Ratio (z) = 0.36189 0.24399
#
# Static dielectric constant tensor:
#      x y z
#    x 4.680230 0.000000 0.000000 
#    y 0.000000 4.400200 0.000000 
#    z 0.000000 0.000000 3.783060 
# 
# 
# High freq. dielectric constant tensor:
#      x y z
#    x 1.928450 0.000000 0.000000 
#    y 0.000000 1.921160 0.000000 
#    z 0.000000 0.000000 1.876570 
# 
# From -- ./inp_files/12324.got.cif
#   From: 2010.03.12/outbox.cif.g09.slc.cpg/sg39_7_cif.got.tgz:12324.got - 2010.04.14 02:53:20.
