data_PCOD8181020
_publ_section_title
;
Structure prediction by ZEFSAII (Michael W. Deem and Ramdas Pophale) SiO2 
 PCOD8181020
Probable space group: A B M 2
;
_chemical_formula_sum "Si O2"
_cell_formula_units_Z 64
_cell_length_a 19.072089
_cell_length_b 8.890328
_cell_length_c 20.613261
_cell_angle_alpha 90.000000
_cell_angle_beta 90.000000
_cell_angle_gamma 90.000000
_cell_volume 3495.125310
_symmetry_space_group_name_H-M "A B M 2"
_symmetry_group_IT_number 39
_symmetry_cell_setting 'orthorhombic'
loop_
_space_group_symop_operation_xyz
x,y,z
-x,-y,z
-x,1/2+y,z
x,1/2-y,z
x,1/2+y,1/2+z
-x,1/2-y,1/2+z
-x,y,1/2+z
x,-y,1/2+z
loop_
_atom_site_type_symbol
_atom_site_label
_atom_site_fract_x
_atom_site_fract_y
_atom_site_fract_z
Si Si1 0.286370 0.922513 0.773400
Si Si2 0.928275 0.427693 0.339629
Si Si3 0.218613 0.074266 0.894422
Si Si4 0.569067 0.923605 0.213014
Si Si5 0.571727 0.927723 0.575811
Si Si6 0.281431 0.425771 0.520897
Si Si7 0.213571 0.577500 0.641853
Si Si8 0.069082 0.923608 0.702448
O O1 0.264857 0.750000 0.787294
O O2 0.369822 0.940440 0.765731
O O3 0.250076 0.979306 0.707574
O O4 0.262497 0.024678 0.832192
O O5 0.938072 0.250000 0.333398
O O6 0.863488 0.468923 0.386724
O O7 0.910450 0.494440 0.269181
O O8 0.000000 0.500000 0.367708
O O9 0.227690 0.250000 0.902262
O O10 0.250129 0.999728 0.957549
O O11 0.554277 0.750000 0.196650
O O12 0.500000 0.000000 0.243563
O O13 0.589485 0.005650 0.146291
O O14 0.561990 0.750000 0.581948
O O15 0.636522 0.969219 0.528770
O O16 0.500000 0.000000 0.547724
O O17 0.272486 0.250000 0.513263
O O18 0.237268 0.475562 0.582925
O O19 0.235029 0.750000 0.627942
O O20 0.130148 0.559481 0.649697
O O21 0.054304 0.750000 0.718795
O O22 0.000000 0.000000 0.671942
#
# Coordination Sequence:
#
# PCOD8181020 Si02
#       8
#     8   8   8   8   8   8   8   8
#     4  10  20  36  58  83 113 148 185 228 281 333
#     4  10  20  34  55  83 111 144 185 229 277 333
#     4  11  24  39  58  84 115 150 190 235 281 335
#     4  10  19  32  54  83 114 148 184 230 281 331
#     4  10  20  34  55  83 111 144 185 229 277 333
#     4  11  24  39  58  84 115 150 190 235 281 335
#     4  10  20  36  58  83 113 148 185 228 281 333
#     4  10  19  32  54  83 114 148 184 230 281 331
#
# _framework density 18.311219000000001
#
# number of rings (size 3 to 8) (size 9 to 14) (size 15 to 20)
#    0.000    1.750    2.500    3.750    0.000    5.500 
#    0.000    1.250    0.000    0.000    0.000    0.000 
#    0.000    0.000    0.000    0.000    0.000    0.000 
#
# Total GULP energy -396826.781717 kJ/mol
# GULP energy per Si atom -12400.836929 kJ/mol
# Density = 1.826954 g / cm^3
# Si number density = 18.311219 Si / 1000 Ang^3
#
#
#
# Elastic Constant Matrix: (Units=GPa)
#
#
# Indices 1 2 3 4 5 6 
#
# 1 144.4676 71.5170 69.3113 0.0000 0.0000 0.0000
# 2 71.5170 104.8293 47.9132 0.0000 0.0000 0.0000
# 3 69.3113 47.9132 101.4449 0.0000 0.0000 0.0000
# 4 0.0000 0.0000 0.0000 32.2708 0.0000 0.0000
# 5 0.0000 0.0000 0.0000 0.0000 26.4023 0.0000
# 6 0.0000 0.0000 0.0000 0.0000 0.0000 32.1447
#
#
#
# Elastic Compliance Matrix: (Units=1/GPa)
#
#
# Indices 1 2 3 4 5 6 
#
# 1 0.012688 -0.005986 -0.005842 0.000000 0.000000 0.000000
# 2 -0.005986 0.014990 -0.002990 0.000000 0.000000 0.000000
# 3 -0.005842 -0.002990 0.015261 0.000000 0.000000 0.000000
# 4 0.000000 0.000000 0.000000 0.030988 0.000000 0.000000
# 5 0.000000 0.000000 0.000000 0.000000 0.037875 0.000000
# 6 0.000000 0.000000 0.000000 0.000000 0.000000 0.031109
#
#
# Mechanical properties :
#
#
# Convention : Reuss Voigt Hill
#
# Bulk Modulus (GPa) = 75.16824 80.91388 78.04106
# Shear Modulus (GPa) = 28.25168 28.96359 28.60763
#
# Velocity S-wave (km/s) = 3.93219 3.98142 3.95688
# Velocity P-wave (km/s) = 7.85848 8.08825 7.97419
#
# Compressibility (1/GPa) = 0.01330349
#
# Stress axis : x y z
#
# Youngs Moduli (GPa) = 78.81505 66.71271 65.52666
#
# Poissons Ratio (x) = 0.39934 0.38279
# Poissons Ratio (y) = 0.47179 0.19591
# Poissons Ratio (z) = 0.46041 0.19946
#
# Static dielectric constant tensor:
#      x y z
#    x 3.466540 0.000000 0.000000 
#    y 0.000000 3.489570 0.000000 
#    z 0.000000 0.000000 3.588950 
# 
# 
# High freq. dielectric constant tensor:
#      x y z
#    x 1.729490 0.000000 0.000000 
#    y 0.000000 1.723280 0.000000 
#    z 0.000000 0.000000 1.675480 
# 
# From -- ./inp_files/13216.got.cif
#   From: 2010.03.12/outbox.cif.g09.slc.cpg/sg39_7_cif.got.tgz:13216.got - 2010.04.14 02:53:20.
