data_PCOD8181882
_publ_section_title
;
Structure prediction by ZEFSAII (Michael W. Deem and Ramdas Pophale) SiO2 
 PCOD8181882
Probable space group: A B M 2
;
_chemical_formula_sum "Si O2"
_cell_formula_units_Z 64
_cell_length_a 12.188912
_cell_length_b 17.736549
_cell_length_c 14.719708
_cell_angle_alpha 90.000000
_cell_angle_beta 90.000000
_cell_angle_gamma 90.000000
_cell_volume 3182.242411
_symmetry_space_group_name_H-M "A B M 2"
_symmetry_group_IT_number 39
_symmetry_cell_setting 'orthorhombic'
loop_
_space_group_symop_operation_xyz
x,y,z
-x,-y,z
-x,1/2+y,z
x,1/2-y,z
x,1/2+y,1/2+z
-x,1/2-y,1/2+z
-x,y,1/2+z
x,-y,1/2+z
loop_
_atom_site_type_symbol
_atom_site_label
_atom_site_fract_x
_atom_site_fract_y
_atom_site_fract_z
Si Si1 0.828885 0.830961 0.680730
Si Si2 0.459681 0.419817 0.767046
Si Si3 0.385957 0.165525 0.589645
Si Si4 0.629846 0.662056 0.391332
Si Si5 0.926389 0.839908 0.958194
Si Si6 0.077174 0.333898 0.160023
Si Si7 0.776091 0.431441 0.338025
Si Si8 0.137685 0.099055 0.350199
O O1 0.806232 0.750000 0.732818
O O2 0.746169 0.835794 0.596350
O O3 0.816640 0.905920 0.739578
O O4 0.948769 0.828866 0.641672
O O5 0.500000 0.500000 0.734824
O O6 0.436792 0.378763 0.673002
O O7 0.559103 0.378383 0.815546
O O8 0.356464 0.429064 0.835551
O O9 0.432999 0.250000 0.595300
O O10 0.409673 0.130817 0.490111
O O11 0.605961 0.750000 0.385742
O O12 0.758801 0.649622 0.375884
O O13 0.942730 0.750000 0.948806
O O14 0.818718 0.867416 0.905781
O O15 0.034213 0.880745 0.914861
O O16 0.889928 0.864213 0.060430
O O17 0.125018 0.250000 0.180150
O O18 0.108625 0.387893 0.243565
O O19 0.828175 0.511944 0.362943
#
# Coordination Sequence:
#
# PCOD8181882 Si02
#       8
#     8   8   8   8   8   8   8   8
#     4   9  17  35  63  90 121 165 209 250 301 371
#     4  11  23  45  64  90 127 169 208 266 317 369
#     4   9  20  39  66  96 120 161 219 258 304 374
#     4  11  23  42  69  96 124 166 214 261 313 372
#     4  11  23  41  64  95 128 165 212 255 312 380
#     4  10  21  38  63  92 125 167 208 255 313 372
#     4  11  23  41  61  89 129 166 208 255 315 372
#     4  12  23  42  62  96 135 165 204 259 318 377
#
# _framework density 20.111605000000001
#
# number of rings (size 3 to 8) (size 9 to 14) (size 15 to 20)
#    0.000    1.500    2.500    3.000    0.000    4.000 
#   11.250    0.000    0.000    0.000    0.000    0.000 
#    0.000    0.000    0.000    0.000    0.000    0.000 
#
# Total GULP energy -396487.937675 kJ/mol
# GULP energy per Si atom -12390.248052 kJ/mol
# Density = 2.006583 g / cm^3
# Si number density = 20.111605 Si / 1000 Ang^3
#
#
#
# Elastic Constant Matrix: (Units=GPa)
#
#
# Indices 1 2 3 4 5 6 
#
# 1 73.1665 17.0087 35.0508 0.0000 0.0000 0.0000
# 2 17.0087 77.6596 30.9630 0.0000 0.0000 0.0000
# 3 35.0508 30.9630 118.2675 0.0000 0.0000 0.0000
# 4 0.0000 0.0000 0.0000 -20.3453 0.0000 0.0000
# 5 0.0000 0.0000 0.0000 0.0000 19.2947 0.0000
# 6 0.0000 0.0000 0.0000 0.0000 0.0000 28.3749
#
#
#
# Elastic Compliance Matrix: (Units=1/GPa)
#
#
# Indices 1 2 3 4 5 6 
#
# 1 0.016156 -0.001819 -0.004312 0.000000 0.000000 0.000000
# 2 -0.001819 0.014582 -0.003279 0.000000 0.000000 0.000000
# 3 -0.004312 -0.003279 0.010592 0.000000 0.000000 0.000000
# 4 0.000000 0.000000 0.000000 -0.049151 0.000000 0.000000
# 5 0.000000 0.000000 0.000000 0.000000 0.051828 0.000000
# 6 0.000000 0.000000 0.000000 0.000000 0.000000 0.035242
#
#
# Mechanical properties :
#
#
# Convention : Reuss Voigt Hill
#
# Bulk Modulus (GPa) = 44.42348 48.34874 46.38611
# Shear Modulus (GPa) = 47.36115 17.86958 32.61536
#
# Velocity S-wave (km/s) = 4.85801 2.98404 4.03143
# Velocity P-wave (km/s) = 7.32144 5.99709 6.69211
#
# Compressibility (1/GPa) = 0.02251062
#
# Stress axis : x y z
#
# Youngs Moduli (GPa) = 61.89656 68.57617 94.41412
#
# Poissons Ratio (x) = 0.12476 0.40710
# Poissons Ratio (y) = 0.11261 0.30954
# Poissons Ratio (z) = 0.26689 0.22483
#
# Static dielectric constant tensor:
#      x y z
#    x 3.704260 0.000000 0.000000 
#    y 0.000000 3.922040 0.000000 
#    z 0.000000 0.000000 3.650320 
# 
# 
# High freq. dielectric constant tensor:
#      x y z
#    x 1.779980 0.000000 0.000000 
#    y 0.000000 1.787490 0.000000 
#    z 0.000000 0.000000 1.786760 
# 
# From -- ./inp_files/9461.got.cif
#   From: 2010.03.12/outbox.cif.g09.slc.cpg/sg39_5_cif.got.tgz:9461.got - 2010.04.14 02:53:20.
