data_PCOD8181430
_publ_section_title
;
Structure prediction by ZEFSAII (Michael W. Deem and Ramdas Pophale) SiO2 
 PCOD8181430
Probable space group: A B M 2
;
_chemical_formula_sum "Si O2"
_cell_formula_units_Z 64
_cell_length_a 20.604990
_cell_length_b 9.174210
_cell_length_c 18.287614
_cell_angle_alpha 90.000000
_cell_angle_beta 90.000000
_cell_angle_gamma 90.000000
_cell_volume 3456.990066
_symmetry_space_group_name_H-M "A B M 2"
_symmetry_group_IT_number 39
_symmetry_cell_setting 'orthorhombic'
loop_
_space_group_symop_operation_xyz
x,y,z
-x,-y,z
-x,1/2+y,z
x,1/2-y,z
x,1/2+y,1/2+z
-x,1/2-y,1/2+z
-x,y,1/2+z
x,-y,1/2+z
loop_
_atom_site_type_symbol
_atom_site_label
_atom_site_fract_x
_atom_site_fract_y
_atom_site_fract_z
Si Si1 0.182019 0.420237 0.769700
Si Si2 0.435749 0.420944 0.600496
Si Si3 0.064334 0.419946 0.517464
Si Si4 0.564496 0.920723 0.768002
Si Si5 0.065515 0.079023 0.348045
Si Si6 0.688936 0.919710 0.859613
Si Si7 0.689417 0.076764 0.012454
Si Si8 0.188791 0.922726 0.103090
O O1 0.163382 0.250000 0.774257
O O2 0.125375 0.515478 0.803856
O O3 0.248837 0.453342 0.810421
O O4 0.190949 0.473574 0.686672
O O5 0.500000 0.500000 0.571258
O O6 0.446643 0.250000 0.592584
O O7 0.421088 0.464542 0.684227
O O8 0.376489 0.475753 0.551029
O O9 0.053908 0.250000 0.531198
O O10 0.078525 0.454136 0.432960
O O11 0.124049 0.483134 0.564258
O O12 0.000000 0.500000 0.545230
O O13 0.552695 0.750000 0.775535
O O14 0.625489 0.972182 0.815741
O O15 0.500000 0.000000 0.797361
O O16 0.058658 0.250000 0.332425
O O17 0.000000 0.000000 0.321517
O O18 0.684392 0.750000 0.879328
O O19 0.694525 0.011761 0.932473
O O20 0.692245 0.250000 0.006545
O O21 0.748759 0.014932 0.060739
O O22 0.190019 0.750000 0.097856
#
# Coordination Sequence:
#
# PCOD8181430 Si02
#       8
#     8   8   8   8   8   8   8   8
#     4  10  20  35  55  77 103 136 172 212 259 308
#     4   9  18  33  54  77 101 133 171 211 256 306
#     4   9  18  33  53  75 100 131 165 203 246 293
#     4   9  18  34  54  76 103 136 174 214 258 309
#     4  10  20  35  55  79 107 138 172 210 253 303
#     4  10  21  35  52  76 106 137 170 213 262 309
#     4  10  20  35  55  76 100 134 175 214 254 306
#     4   9  18  34  55  76  99 131 171 211 251 298
#
# _framework density 18.513214000000001
#
# number of rings (size 3 to 8) (size 9 to 14) (size 15 to 20)
#    0.000    2.500    0.000    1.875    0.000    7.000 
#    0.000    5.625    0.000    3.000    0.000    0.000 
#    0.000    0.000    0.000    0.000    0.000    0.000 
#
# Total GULP energy -396880.506137 kJ/mol
# GULP energy per Si atom -12402.515817 kJ/mol
# Density = 1.847108 g / cm^3
# Si number density = 18.513214 Si / 1000 Ang^3
#
#
#
# Elastic Constant Matrix: (Units=GPa)
#
#
# Indices 1 2 3 4 5 6 
#
# 1 181.7664 53.8899 90.4329 0.0000 0.0000 0.0000
# 2 53.8899 43.4378 41.3162 0.0000 0.0000 0.0000
# 3 90.4329 41.3162 120.4979 0.0000 0.0000 0.0000
# 4 0.0000 0.0000 0.0000 21.5655 0.0000 0.0000
# 5 0.0000 0.0000 0.0000 0.0000 40.3609 0.0000
# 6 0.0000 0.0000 0.0000 0.0000 0.0000 33.3522
#
#
#
# Elastic Compliance Matrix: (Units=1/GPa)
#
#
# Indices 1 2 3 4 5 6 
#
# 1 0.010416 -0.008142 -0.005025 0.000000 0.000000 0.000000
# 2 -0.008142 0.040528 -0.007786 0.000000 0.000000 0.000000
# 3 -0.005025 -0.007786 0.014740 0.000000 0.000000 0.000000
# 4 0.000000 0.000000 0.000000 0.046370 0.000000 0.000000
# 5 0.000000 0.000000 0.000000 0.000000 0.024776 0.000000
# 6 0.000000 0.000000 0.000000 0.000000 0.000000 0.029983
#
#
# Mechanical properties :
#
#
# Convention : Reuss Voigt Hill
#
# Bulk Modulus (GPa) = 42.05610 79.66446 60.86028
# Shear Modulus (GPa) = 23.07922 29.72660 26.40291
#
# Velocity S-wave (km/s) = 3.53460 4.01146 3.78056
# Velocity P-wave (km/s) = 6.27885 8.03619 7.21125
#
# Compressibility (1/GPa) = 0.02377776
#
# Stress axis : x y z
#
# Youngs Moduli (GPa) = 96.00906 24.67419 67.84406
#
# Poissons Ratio (x) = 0.20090 0.34092
# Poissons Ratio (y) = 0.78173 0.52820
# Poissons Ratio (z) = 0.48245 0.19210
#
# Static dielectric constant tensor:
#      x y z
#    x 3.809320 0.000000 0.000000 
#    y 0.000000 3.209050 0.000000 
#    z 0.000000 0.000000 3.437570 
# 
# 
# High freq. dielectric constant tensor:
#      x y z
#    x 1.735360 0.000000 0.000000 
#    y 0.000000 1.697230 0.000000 
#    z 0.000000 0.000000 1.719960 
# 
# From -- ./inp_files/13100.got.cif
#   From: 2010.03.12/outbox.cif.g09.slc.cpg/sg39_7_cif.got.tgz:13100.got - 2010.04.14 02:53:20.
