data_PCOD8181551
_publ_section_title
;
Structure prediction by ZEFSAII (Michael W. Deem and Ramdas Pophale) SiO2 
 PCOD8181551
Probable space group: A B M 2
;
_chemical_formula_sum "Si O2"
_cell_formula_units_Z 48
_cell_length_a 8.412678
_cell_length_b 15.211471
_cell_length_c 18.380890
_cell_angle_alpha 90.000000
_cell_angle_beta 90.000000
_cell_angle_gamma 90.000000
_cell_volume 2352.187925
_symmetry_space_group_name_H-M "A B M 2"
_symmetry_group_IT_number 39
_symmetry_cell_setting 'orthorhombic'
loop_
_space_group_symop_operation_xyz
x,y,z
-x,-y,z
-x,1/2+y,z
x,1/2-y,z
x,1/2+y,1/2+z
-x,1/2-y,1/2+z
-x,y,1/2+z
x,-y,1/2+z
loop_
_atom_site_type_symbol
_atom_site_label
_atom_site_fract_x
_atom_site_fract_y
_atom_site_fract_z
Si Si1 0.669580 0.351543 0.530530
Si Si2 0.197975 0.346310 0.876384
Si Si3 0.687522 0.505042 0.297136
Si Si4 0.187494 0.489427 0.141984
Si Si5 0.698871 0.148798 0.057636
Si Si6 0.110963 0.584797 0.919308
O O1 0.718638 0.250000 0.544965
O O2 0.720103 0.382244 0.450174
O O3 0.761533 0.413492 0.586452
O O4 0.482140 0.364840 0.534819
O O5 0.262737 0.250000 0.857603
O O6 0.243435 0.407561 0.809000
O O7 0.007431 0.342085 0.886715
O O8 0.500000 0.500000 0.298011
O O9 0.751638 0.541185 0.220757
O O10 0.749504 0.567964 0.361370
O O11 0.000000 0.500000 0.141337
O O12 0.266741 0.583878 0.124620
O O13 0.732041 0.250000 0.079991
O O14 0.813975 0.120671 0.992706
O O15 0.000000 0.500000 0.934601
#
# Coordination Sequence:
#
# PCOD8181551 Si02
#       6
#     8   8   8   8   8   8
#     4  10  22  40  62  88 116 151 195 240 286 338
#     4  10  20  37  61  87 116 148 190 240 284 335
#     4  11  23  40  60  82 114 155 193 234 288 345
#     4  12  24  40  60  84 118 155 193 239 290 345
#     4  11  22  37  61  90 119 153 193 236 285 342
#     4  10  20  36  58  87 118 152 193 235 284 337
#
# _framework density 20.406534000000001
#
# number of rings (size 3 to 8) (size 9 to 14) (size 15 to 20)
#    0.000    1.333    0.000    8.000    0.000    2.667 
#    0.000    5.000    0.000    0.000    0.000    0.000 
#    0.000    0.000    0.000    0.000    0.000    0.000 
#
# Total GULP energy -297643.209784 kJ/mol
# GULP energy per Si atom -12401.800408 kJ/mol
# Density = 2.036009 g / cm^3
# Si number density = 20.406534 Si / 1000 Ang^3
#
#
#
# Elastic Constant Matrix: (Units=GPa)
#
#
# Indices 1 2 3 4 5 6 
#
# 1 127.3261 17.5804 12.4677 0.0000 0.0000 0.0000
# 2 17.5804 64.9430 12.1174 0.0000 0.0000 0.0000
# 3 12.4677 12.1174 46.1933 0.0000 0.0000 0.0000
# 4 0.0000 0.0000 0.0000 22.7487 0.0000 0.0000
# 5 0.0000 0.0000 0.0000 0.0000 32.2879 0.0000
# 6 0.0000 0.0000 0.0000 0.0000 0.0000 18.2645
#
#
#
# Elastic Compliance Matrix: (Units=1/GPa)
#
#
# Indices 1 2 3 4 5 6 
#
# 1 0.008289 -0.001920 -0.001733 0.000000 0.000000 0.000000
# 2 -0.001920 0.016635 -0.003845 0.000000 0.000000 0.000000
# 3 -0.001733 -0.003845 0.023125 0.000000 0.000000 0.000000
# 4 0.000000 0.000000 0.000000 0.043959 0.000000 0.000000
# 5 0.000000 0.000000 0.000000 0.000000 0.030971 0.000000
# 6 0.000000 0.000000 0.000000 0.000000 0.000000 0.054751
#
#
# Mechanical properties :
#
#
# Convention : Reuss Voigt Hill
#
# Bulk Modulus (GPa) = 30.25680 35.86594 33.06137
# Shear Modulus (GPa) = 24.54044 27.74667 26.14356
#
# Velocity S-wave (km/s) = 3.47158 3.69141 3.58318
# Velocity P-wave (km/s) = 5.56133 5.98185 5.77542
#
# Compressibility (1/GPa) = 0.03305043
#
# Stress axis : x y z
#
# Youngs Moduli (GPa) = 120.64565 60.11251 43.24373
#
# Poissons Ratio (x) = 0.11544 0.07496
# Poissons Ratio (y) = 0.23168 0.16629
# Poissons Ratio (z) = 0.20913 0.23116
#
# Static dielectric constant tensor:
#      x y z
#    x 4.003340 0.000000 0.000000 
#    y 0.000000 3.861930 0.000000 
#    z 0.000000 0.000000 3.682720 
# 
# 
# High freq. dielectric constant tensor:
#      x y z
#    x 1.816660 0.000000 0.000000 
#    y 0.000000 1.799230 0.000000 
#    z 0.000000 0.000000 1.789120 
# 
# From -- ./inp_files/8346.got.cif
#   From: 2010.03.12/outbox.cif.g09.slc.cpg/sg39_5_cif.got.tgz:8346.got - 2010.04.14 02:53:20.
