data_PCOD8181519
_publ_section_title
;
Structure prediction by ZEFSAII (Michael W. Deem and Ramdas Pophale) SiO2 
 PCOD8181519
Probable space group: A B M 2
;
_chemical_formula_sum "Si O2"
_cell_formula_units_Z 40
_cell_length_a 23.159888
_cell_length_b 16.009538
_cell_length_c 5.172667
_cell_angle_alpha 90.000000
_cell_angle_beta 90.000000
_cell_angle_gamma 90.000000
_cell_volume 1917.916851
_symmetry_space_group_name_H-M "A B M 2"
_symmetry_group_IT_number 39
_symmetry_cell_setting 'orthorhombic'
loop_
_space_group_symop_operation_xyz
x,y,z
-x,-y,z
-x,1/2+y,z
x,1/2-y,z
x,1/2+y,1/2+z
-x,1/2-y,1/2+z
-x,y,1/2+z
x,-y,1/2+z
loop_
_atom_site_type_symbol
_atom_site_label
_atom_site_fract_x
_atom_site_fract_y
_atom_site_fract_z
Si Si1 0.836390 0.650484 0.154210
Si Si2 0.464017 0.347353 0.618391
Si Si3 0.768920 0.349232 0.153847
Si Si4 0.652854 0.946445 0.615991
Si Si5 0.033410 0.650312 0.656007
O O1 0.837781 0.750000 0.155369
O O2 0.802642 0.616400 0.403873
O O3 0.901462 0.615232 0.155615
O O4 0.803392 0.616847 0.902246
O O5 0.448599 0.250000 0.630959
O O6 0.491670 0.372105 0.344733
O O7 0.406150 0.397989 0.661631
O O8 0.765963 0.250000 0.152532
O O9 0.704303 0.382168 0.161503
O O10 0.656602 0.979622 0.324077
O O11 0.034133 0.750000 0.655842
O O12 0.999901 0.615913 0.406259
#
# Coordination Sequence:
#
# PCOD8181519 Si02
#       5
#     8   8   8   8   8
#     4   9  17  29  48  73 102 142 184 221 269 329
#     4  10  22  41  64  88 115 149 186 221 265 325
#     4  10  20  36  55  75 106 146 187 226 268 325
#     4  12  25  39  58  85 116 146 183 230 277 322
#     4   9  15  23  38  65 103 138 167 211 274 332
#
# _framework density 20.855961000000001
#
# number of rings (size 3 to 8) (size 9 to 14) (size 15 to 20)
#    0.000    2.000    0.000    4.200    0.000    7.200 
#    0.000    8.000    0.000    0.000    0.000    0.000 
#    0.000   56.000    0.000    0.000    0.000    0.000 
#
# Total GULP energy -248079.807019 kJ/mol
# GULP energy per Si atom -12403.990351 kJ/mol
# Density = 2.080849 g / cm^3
# Si number density = 20.855961 Si / 1000 Ang^3
#
#
#
# Elastic Constant Matrix: (Units=GPa)
#
#
# Indices 1 2 3 4 5 6 
#
# 1 137.6695 34.3210 45.9168 0.0000 0.0000 0.0000
# 2 34.3210 22.3487 20.5477 0.0000 0.0000 0.0000
# 3 45.9168 20.5477 155.3311 0.0000 0.0000 0.0000
# 4 0.0000 0.0000 0.0000 14.2126 0.0000 0.0000
# 5 0.0000 0.0000 0.0000 0.0000 36.6164 0.0000
# 6 0.0000 0.0000 0.0000 0.0000 0.0000 0.2156
#
#
#
# Elastic Compliance Matrix: (Units=1/GPa)
#
#
# Indices 1 2 3 4 5 6 
#
# 1 0.011983 -0.017243 -0.001261 0.000000 0.000000 0.000000
# 2 -0.017243 0.075752 -0.004924 0.000000 0.000000 0.000000
# 3 -0.001261 -0.004924 0.007462 0.000000 0.000000 0.000000
# 4 0.000000 0.000000 0.000000 0.070360 0.000000 0.000000
# 5 0.000000 0.000000 0.000000 0.000000 0.027310 0.000000
# 6 0.000000 0.000000 0.000000 0.000000 0.000000 4.638166
#
#
# Mechanical properties :
#
#
# Convention : Reuss Voigt Hill
#
# Bulk Modulus (GPa) = 20.68610 57.43558 39.06084
# Shear Modulus (GPa) = 1.02166 24.51318 12.76742
#
# Velocity S-wave (km/s) = 0.70066 3.43207 2.47689
# Velocity P-wave (km/s) = 3.25494 6.58061 5.19129
#
# Compressibility (1/GPa) = 0.04834164
#
# Stress axis : x y z
#
# Youngs Moduli (GPa) = 83.45088 13.20095 134.01159
#
# Poissons Ratio (x) = 0.22762 0.16903
# Poissons Ratio (y) = 1.43893 0.65983
# Poissons Ratio (z) = 0.10526 0.06500
#
# Static dielectric constant tensor:
#      x y z
#    x 3.881120 0.000000 0.000000 
#    y 0.000000 3.279170 0.000000 
#    z 0.000000 0.000000 4.111780 
# 
# 
# High freq. dielectric constant tensor:
#      x y z
#    x 1.833780 0.000000 0.000000 
#    y 0.000000 1.777930 0.000000 
#    z 0.000000 0.000000 1.835650 
# 
# From -- ./inp_files/742.got.cif
#   From: 2010.03.12/outbox.cif.g09.slc.cpg/sg39_1_cif.got.tgz:742.got - 2010.04.14 02:53:20.
