data_PCOD8181489
_publ_section_title
;
Structure prediction by ZEFSAII (Michael W. Deem and Ramdas Pophale) SiO2 
 PCOD8181489
Probable space group: A B M 2
;
_chemical_formula_sum "Si O2"
_cell_formula_units_Z 64
_cell_length_a 24.380738
_cell_length_b 8.903691
_cell_length_c 14.904703
_cell_angle_alpha 90.000000
_cell_angle_beta 90.000000
_cell_angle_gamma 90.000000
_cell_volume 3235.491427
_symmetry_space_group_name_H-M "A B M 2"
_symmetry_group_IT_number 39
_symmetry_cell_setting 'orthorhombic'
loop_
_space_group_symop_operation_xyz
x,y,z
-x,-y,z
-x,1/2+y,z
x,1/2-y,z
x,1/2+y,1/2+z
-x,1/2-y,1/2+z
-x,y,1/2+z
x,-y,1/2+z
loop_
_atom_site_type_symbol
_atom_site_label
_atom_site_fract_x
_atom_site_fract_y
_atom_site_fract_z
Si Si1 0.055370 0.574523 0.741860
Si Si2 0.133038 0.575469 0.583985
Si Si3 0.327949 0.425856 0.748907
Si Si4 0.550960 0.423791 0.935386
Si Si5 0.672750 0.924608 0.441856
Si Si6 0.943536 0.927015 0.444913
Si Si7 0.739685 0.074233 0.595404
Si Si8 0.448614 0.076455 0.743334
O O1 0.045083 0.750000 0.740072
O O2 0.105576 0.527267 0.678162
O O3 0.068438 0.520489 0.842893
O O4 0.000000 0.500000 0.704722
O O5 0.123081 0.750000 0.563885
O O6 0.107465 0.481457 0.503181
O O7 0.196549 0.535907 0.589969
O O8 0.319336 0.250000 0.769568
O O9 0.321678 0.517926 0.840478
O O10 0.283157 0.482537 0.679393
O O11 0.388022 0.452456 0.702594
O O12 0.500000 0.500000 0.990958
O O13 0.537764 0.250000 0.920266
O O14 0.610603 0.443993 0.980812
O O15 0.553570 0.509850 0.842143
O O16 0.689799 0.750000 0.444439
O O17 0.712657 0.021296 0.503150
O O18 0.949453 0.750000 0.453302
O O19 0.000000 0.000000 0.480195
O O20 0.728548 0.250000 0.609732
O O21 0.462435 0.250000 0.746938
O O22 0.500000 0.000000 0.689832
#
# Coordination Sequence:
#
# PCOD8181489 Si02
#       8
#     8   8   8   8   8   8   8   8
#     4   9  19  36  57  83 115 146 178 218 266 321
#     4  10  22  39  57  81 113 147 187 234 278 325
#     4  10  21  38  59  83 112 147 188 235 287 344
#     4   9  16  27  48  77 106 137 175 222 279 341
#     4  10  21  38  59  82 111 148 189 235 287 343
#     4  10  20  35  58  87 117 150 184 222 272 327
#     4  11  24  40  58  82 113 151 195 242 288 336
#     4   9  16  27  48  77 107 138 175 222 277 339
#
# _framework density 19.780612000000001
#
# number of rings (size 3 to 8) (size 9 to 14) (size 15 to 20)
#    0.000    2.250    0.000    3.375    0.000    7.000 
#    0.000    1.875    0.000    0.000    0.000    0.000 
#    0.000    0.000    0.000    0.000    0.000    0.000 
#
# Total GULP energy -396672.722666 kJ/mol
# GULP energy per Si atom -12396.022583 kJ/mol
# Density = 1.973559 g / cm^3
# Si number density = 19.780612 Si / 1000 Ang^3
#
#
#
# Elastic Constant Matrix: (Units=GPa)
#
#
# Indices 1 2 3 4 5 6 
#
# 1 147.7307 53.7378 52.0975 0.0000 0.0000 0.0000
# 2 53.7378 69.8375 20.8912 0.0000 0.0000 0.0000
# 3 52.0975 20.8912 73.1655 0.0000 0.0000 0.0000
# 4 0.0000 0.0000 0.0000 27.4164 0.0000 0.0000
# 5 0.0000 0.0000 0.0000 0.0000 30.3188 0.0000
# 6 0.0000 0.0000 0.0000 0.0000 0.0000 34.4254
#
#
#
# Elastic Compliance Matrix: (Units=1/GPa)
#
#
# Indices 1 2 3 4 5 6 
#
# 1 0.011496 -0.006994 -0.006188 0.000000 0.000000 0.000000
# 2 -0.006994 0.019912 -0.000705 0.000000 0.000000 0.000000
# 3 -0.006188 -0.000705 0.018275 0.000000 0.000000 0.000000
# 4 0.000000 0.000000 0.000000 0.036474 0.000000 0.000000
# 5 0.000000 0.000000 0.000000 0.000000 0.032983 0.000000
# 6 0.000000 0.000000 0.000000 0.000000 0.000000 0.029048
#
#
# Mechanical properties :
#
#
# Convention : Reuss Voigt Hill
#
# Bulk Modulus (GPa) = 45.64719 60.46519 53.05619
# Shear Modulus (GPa) = 27.28265 29.36594 28.32430
#
# Velocity S-wave (km/s) = 3.71787 3.85721 3.78818
# Velocity P-wave (km/s) = 6.44647 7.10434 6.78338
#
# Compressibility (1/GPa) = 0.02190716
#
# Stress axis : x y z
#
# Youngs Moduli (GPa) = 86.98948 50.22139 54.71836
#
# Poissons Ratio (x) = 0.35127 0.33862
# Poissons Ratio (y) = 0.60844 0.03858
# Poissons Ratio (z) = 0.53832 0.03541
#
# Static dielectric constant tensor:
#      x y z
#    x 4.085760 0.000000 0.000000 
#    y 0.000000 3.657410 0.000000 
#    z 0.000000 0.000000 3.420340 
# 
# 
# High freq. dielectric constant tensor:
#      x y z
#    x 1.778620 0.000000 0.000000 
#    y 0.000000 1.780570 0.000000 
#    z 0.000000 0.000000 1.754750 
# 
# From -- ./inp_files/10663.got.cif
#   From: 2010.03.12/outbox.cif.g09.slc.cpg/sg39_6_cif.got.tgz:10663.got - 2010.04.14 02:53:20.
