data_PCOD8181196
_publ_section_title
;
Structure prediction by ZEFSAII (Michael W. Deem and Ramdas Pophale) SiO2 
 PCOD8181196
Probable space group: A B M 2
;
_chemical_formula_sum "Si O2"
_cell_formula_units_Z 64
_cell_length_a 14.451552
_cell_length_b 8.933974
_cell_length_c 24.611472
_cell_angle_alpha 90.000000
_cell_angle_beta 90.000000
_cell_angle_gamma 90.000000
_cell_volume 3177.581977
_symmetry_space_group_name_H-M "A B M 2"
_symmetry_group_IT_number 39
_symmetry_cell_setting 'orthorhombic'
loop_
_space_group_symop_operation_xyz
x,y,z
-x,-y,z
-x,1/2+y,z
x,1/2-y,z
x,1/2+y,1/2+z
-x,1/2-y,1/2+z
-x,y,1/2+z
x,-y,1/2+z
loop_
_atom_site_type_symbol
_atom_site_label
_atom_site_fract_x
_atom_site_fract_y
_atom_site_fract_z
Si Si1 0.228109 0.077724 0.483120
Si Si2 0.207179 0.427407 0.783788
Si Si3 0.101076 0.572411 0.882989
Si Si4 0.158313 0.919176 0.675748
Si Si5 0.589893 0.924909 0.750043
Si Si6 0.913221 0.923313 0.575110
Si Si7 0.406108 0.073220 0.020338
Si Si8 0.366522 0.418162 0.142285
O O1 0.255252 0.250000 0.474542
O O2 0.157590 0.024657 0.436508
O O3 0.179220 0.051278 0.540791
O O4 0.321791 0.981687 0.482478
O O5 0.195597 0.250000 0.790026
O O6 0.160884 0.512344 0.833235
O O7 0.155462 0.480971 0.729708
O O8 0.315695 0.474730 0.780255
O O9 0.089309 0.750000 0.878425
O O10 0.000000 0.500000 0.884229
O O11 0.126484 0.750000 0.689472
O O12 0.257135 0.918922 0.647338
O O13 0.090241 0.995542 0.633175
O O14 0.577497 0.750000 0.753588
O O15 0.500000 0.000000 0.778610
O O16 0.590128 0.972266 0.686863
O O17 0.933589 0.750000 0.583724
O O18 0.000000 0.000000 0.543941
O O19 0.412169 0.250000 0.015476
O O20 0.392562 0.020844 0.082703
O O21 0.500000 0.000000 0.997648
O O22 0.404935 0.250000 0.151527
#
# Coordination Sequence:
#
# PCOD8181196 Si02
#       8
#     8   8   8   8   8   8   8   8
#     4  10  23  42  63  88 120 156 199 249 302 357
#     4  10  22  40  61  89 121 157 201 249 302 355
#     4  11  24  44  69  94 117 151 198 251 306 362
#     4  10  19  35  57  85 121 158 197 243 297 355
#     4  10  20  33  54  84 120 160 201 243 291 349
#     4  11  22  36  57  86 120 157 195 241 297 363
#     4  11  22  36  57  87 122 162 204 247 297 355
#     4   9  18  32  52  81 117 159 201 241 288 344
#
# _framework density 20.141100999999999
#
# number of rings (size 3 to 8) (size 9 to 14) (size 15 to 20)
#    0.000    1.750    1.250    3.000    0.000    6.000 
#    0.000    3.125    0.000    1.500    0.000    0.000 
#    0.000    0.000    0.000    0.000    0.000    0.000 
#
# Total GULP energy -396830.896480 kJ/mol
# GULP energy per Si atom -12400.965515 kJ/mol
# Density = 2.009526 g / cm^3
# Si number density = 20.141101 Si / 1000 Ang^3
#
#
#
# Elastic Constant Matrix: (Units=GPa)
#
#
# Indices 1 2 3 4 5 6 
#
# 1 138.4067 69.8181 53.1689 0.0000 0.0000 0.0000
# 2 69.8181 96.0073 43.5127 0.0000 0.0000 0.0000
# 3 53.1689 43.5127 89.7613 0.0000 0.0000 0.0000
# 4 0.0000 0.0000 0.0000 28.1166 0.0000 0.0000
# 5 0.0000 0.0000 0.0000 0.0000 21.5181 0.0000
# 6 0.0000 0.0000 0.0000 0.0000 0.0000 39.4113
#
#
#
# Elastic Compliance Matrix: (Units=1/GPa)
#
#
# Indices 1 2 3 4 5 6 
#
# 1 0.012343 -0.007257 -0.003793 0.000000 0.000000 0.000000
# 2 -0.007257 0.017615 -0.004241 0.000000 0.000000 0.000000
# 3 -0.003793 -0.004241 0.015443 0.000000 0.000000 0.000000
# 4 0.000000 0.000000 0.000000 0.035566 0.000000 0.000000
# 5 0.000000 0.000000 0.000000 0.000000 0.046473 0.000000
# 6 0.000000 0.000000 0.000000 0.000000 0.000000 0.025373
#
#
# Mechanical properties :
#
#
# Convention : Reuss Voigt Hill
#
# Bulk Modulus (GPa) = 67.47750 73.01940 70.24845
# Shear Modulus (GPa) = 26.54846 28.32090 27.43468
#
# Velocity S-wave (km/s) = 3.63454 3.75390 3.69470
# Velocity P-wave (km/s) = 7.15460 7.42440 7.29074
#
# Compressibility (1/GPa) = 0.01481975
#
# Stress axis : x y z
#
# Youngs Moduli (GPa) = 81.01823 56.76969 64.75296
#
# Poissons Ratio (x) = 0.41196 0.24563
# Poissons Ratio (y) = 0.58793 0.27459
# Poissons Ratio (z) = 0.30733 0.24074
#
# Static dielectric constant tensor:
#      x y z
#    x 3.815760 0.000000 0.000000 
#    y 0.000000 3.681030 0.000000 
#    z 0.000000 0.000000 3.485330 
# 
# 
# High freq. dielectric constant tensor:
#      x y z
#    x 1.800640 0.000000 0.000000 
#    y 0.000000 1.794230 0.000000 
#    z 0.000000 0.000000 1.761940 
# 
# From -- ./inp_files/16151.got.cif
#   From: 2010.03.12/outbox.cif.g09.slc.cpg/sg39_9_cif.got.tgz:16151.got - 2010.04.14 02:53:20.
