data_PCOD8181352
_publ_section_title
;
Structure prediction by ZEFSAII (Michael W. Deem and Ramdas Pophale) SiO2 
 PCOD8181352
Probable space group: A B M 2
;
_chemical_formula_sum "Si O2"
_cell_formula_units_Z 60
_cell_length_a 30.696304
_cell_length_b 11.201646
_cell_length_c 8.641626
_cell_angle_alpha 90.000000
_cell_angle_beta 90.000000
_cell_angle_gamma 90.000000
_cell_volume 2971.415590
_symmetry_space_group_name_H-M "A B M 2"
_symmetry_group_IT_number 39
_symmetry_cell_setting 'orthorhombic'
loop_
_space_group_symop_operation_xyz
x,y,z
-x,-y,z
-x,1/2+y,z
x,1/2-y,z
x,1/2+y,1/2+z
-x,1/2-y,1/2+z
-x,y,1/2+z
x,-y,1/2+z
loop_
_atom_site_type_symbol
_atom_site_label
_atom_site_fract_x
_atom_site_fract_y
_atom_site_fract_z
Si Si1 0.966039 0.389106 0.253790
Si Si2 0.500000 0.500000 0.381445
Si Si3 0.555951 0.613667 0.636345
Si Si4 0.760514 0.615315 0.181510
Si Si5 0.146576 0.386393 0.285333
Si Si6 0.295132 0.965906 0.956179
Si Si7 0.350928 0.615092 0.230849
Si Si8 0.909226 0.481816 0.522294
O O1 0.984287 0.250000 0.245878
O O2 0.938525 0.399856 0.411114
O O3 0.936779 0.410854 0.101339
O O4 0.000000 0.500000 0.255585
O O5 0.539445 0.549528 0.482536
O O6 0.479371 0.602356 0.273411
O O7 0.562714 0.750000 0.592652
O O8 0.602498 0.557191 0.684808
O O9 0.767068 0.750000 0.124977
O O10 0.807179 0.560053 0.229584
O O11 0.727344 0.614810 0.326009
O O12 0.742239 0.544643 0.035330
O O13 0.152519 0.250000 0.335872
O O14 0.131265 0.460494 0.433235
O O15 0.109992 0.395029 0.152703
O O16 0.331961 0.046881 0.877850
O O17 0.318086 0.885473 0.085548
O O18 0.358053 0.750000 0.285625
#
# Coordination Sequence:
#
# PCOD8181352 Si02
#       8
#     8   4   8   8   8   8   8   8
#     4  11  24  40  60  86 115 148 187 229 275 327
#     4  10  20  34  52  74 100 130 168 214 260 306
#     4  10  20  34  52  74 100 132 170 211 258 310
#     4  10  20  34  54  79 106 138 176 216 260 310
#     4  10  20  36  57  80 108 142 178 219 266 315
#     4  10  20  34  52  76 106 136 172 214 258 308
#     4  10  20  34  52  74 102 136 171 210 258 310
#     4  10  22  38  58  82 112 144 182 224 270 320
#
# _framework density 20.192395000000001
#
# number of rings (size 3 to 8) (size 9 to 14) (size 15 to 20)
#    0.000    1.867    0.000    4.000    0.000    4.267 
#    0.000    0.000    0.000   25.600    0.000    0.000 
#    0.000    0.000    0.000    0.000    0.000    0.000 
#
# Total GULP energy -371967.829885 kJ/mol
# GULP energy per Si atom -12398.927663 kJ/mol
# Density = 2.014644 g / cm^3
# Si number density = 20.192395 Si / 1000 Ang^3
#
#
#
# Elastic Constant Matrix: (Units=GPa)
#
#
# Indices 1 2 3 4 5 6 
#
# 1 84.6375 16.1948 4.2107 0.0000 0.0000 0.0000
# 2 16.1948 74.8920 5.7039 0.0000 0.0000 0.0000
# 3 4.2107 5.7039 67.3099 0.0000 0.0000 0.0000
# 4 0.0000 0.0000 0.0000 9.0999 0.0000 0.0000
# 5 0.0000 0.0000 0.0000 0.0000 30.1690 0.0000
# 6 0.0000 0.0000 0.0000 0.0000 0.0000 27.3062
#
#
#
# Elastic Compliance Matrix: (Units=1/GPa)
#
#
# Indices 1 2 3 4 5 6 
#
# 1 0.012345 -0.002628 -0.000550 0.000000 0.000000 0.000000
# 2 -0.002628 0.013999 -0.001022 0.000000 0.000000 0.000000
# 3 -0.000550 -0.001022 0.014978 0.000000 0.000000 0.000000
# 4 0.000000 0.000000 0.000000 0.109891 0.000000 0.000000
# 5 0.000000 0.000000 0.000000 0.000000 0.033147 0.000000
# 6 0.000000 0.000000 0.000000 0.000000 0.000000 0.036622
#
#
# Mechanical properties :
#
#
# Convention : Reuss Voigt Hill
#
# Bulk Modulus (GPa) = 30.37380 31.00647 30.69014
# Shear Modulus (GPa) = 20.80266 26.69700 23.74983
#
# Velocity S-wave (km/s) = 3.21319 3.64006 3.43326
# Velocity P-wave (km/s) = 5.37038 5.74940 5.56312
#
# Compressibility (1/GPa) = 0.03292311
#
# Stress axis : x y z
#
# Youngs Moduli (GPa) = 81.00297 71.43568 66.76619
#
# Poissons Ratio (x) = 0.18771 0.03669
# Poissons Ratio (y) = 0.21285 0.06823
# Poissons Ratio (z) = 0.04452 0.07300
#
# Static dielectric constant tensor:
#      x y z
#    x 3.839510 0.000000 0.000000 
#    y 0.000000 3.371360 0.000000 
#    z 0.000000 0.000000 3.656800 
# 
# 
# High freq. dielectric constant tensor:
#      x y z
#    x 1.799550 0.000000 0.000000 
#    y 0.000000 1.772320 0.000000 
#    z 0.000000 0.000000 1.796730 
# 
# From -- ./inp_files/4117.got.cif
#   From: 2010.03.12/outbox.cif.g09.slc.cpg/sg39_3_cif.got.tgz:4117.got - 2010.04.14 02:53:20.
