data_PCOD8181776
_publ_section_title
;
Structure prediction by ZEFSAII (Michael W. Deem and Ramdas Pophale) SiO2 
 PCOD8181776
Probable space group: A B M 2
;
_chemical_formula_sum "Si O2"
_cell_formula_units_Z 48
_cell_length_a 27.819675
_cell_length_b 16.665711
_cell_length_c 5.214270
_cell_angle_alpha 90.000000
_cell_angle_beta 90.000000
_cell_angle_gamma 90.000000
_cell_volume 2417.516318
_symmetry_space_group_name_H-M "A B M 2"
_symmetry_group_IT_number 39
_symmetry_cell_setting 'orthorhombic'
loop_
_space_group_symop_operation_xyz
x,y,z
-x,-y,z
-x,1/2+y,z
x,1/2-y,z
x,1/2+y,1/2+z
-x,1/2-y,1/2+z
-x,y,1/2+z
x,-y,1/2+z
loop_
_atom_site_type_symbol
_atom_site_label
_atom_site_fract_x
_atom_site_fract_y
_atom_site_fract_z
Si Si1 0.683568 0.343333 0.131320
Si Si2 0.773850 0.550142 0.578257
Si Si3 0.881567 0.948985 0.628785
Si Si4 0.520884 0.409347 0.624008
Si Si5 0.027934 0.655048 0.081825
Si Si6 0.375591 0.344798 0.133840
O O1 0.692460 0.250000 0.117243
O O2 0.736155 0.380355 0.129925
O O3 0.656406 0.368009 0.390141
O O4 0.652439 0.371439 0.888370
O O5 0.766050 0.518821 0.289867
O O6 0.827549 0.585934 0.606312
O O7 0.917867 0.876235 0.586685
O O8 0.890156 0.015886 0.411815
O O9 0.500000 0.500000 0.625923
O O10 0.499633 0.364378 0.374884
O O11 0.578138 0.402237 0.620945
O O12 0.030875 0.750000 0.083048
O O13 0.001348 0.622863 0.827660
O O14 0.389227 0.250000 0.135590
#
# Coordination Sequence:
#
# PCOD8181776 Si02
#       6
#     8   8   8   8   8   8
#     4  10  21  39  60  85 113 145 185 229 275 336
#     4  10  21  39  56  86 116 146 187 232 285 331
#     4  10  21  36  57  80 114 150 189 237 279 339
#     4  10  21  38  53  78 112 140 177 223 262 321
#     4  10  21  36  54  81 115 149 193 241 284 334
#     4  10  21  38  59  82 110 144 183 224 272 325
#
# _framework density 19.855089
#
# number of rings (size 3 to 8) (size 9 to 14) (size 15 to 20)
#    0.000    2.000    0.000    3.000    0.000    3.333 
#   18.000    0.000    0.000   12.000    0.000    0.000 
#    0.000    0.000    0.000    0.000    0.000    0.000 
#
# Total GULP energy -297584.657988 kJ/mol
# GULP energy per Si atom -12399.360749 kJ/mol
# Density = 1.980990 g / cm^3
# Si number density = 19.855089 Si / 1000 Ang^3
#
#
#
# Elastic Constant Matrix: (Units=GPa)
#
#
# Indices 1 2 3 4 5 6 
#
# 1 149.8805 49.6653 40.4050 0.0000 0.0000 0.0000
# 2 49.6653 31.4532 13.6588 0.0000 0.0000 0.0000
# 3 40.4050 13.6588 144.4113 0.0000 0.0000 0.0000
# 4 0.0000 0.0000 0.0000 7.1962 0.0000 0.0000
# 5 0.0000 0.0000 0.0000 0.0000 29.9391 0.0000
# 6 0.0000 0.0000 0.0000 0.0000 0.0000 36.4899
#
#
#
# Elastic Compliance Matrix: (Units=1/GPa)
#
#
# Indices 1 2 3 4 5 6 
#
# 1 0.014515 -0.022062 -0.001974 0.000000 0.000000 0.000000
# 2 -0.022062 0.066687 -0.000135 0.000000 0.000000 0.000000
# 3 -0.001974 -0.000135 0.007490 0.000000 0.000000 0.000000
# 4 0.000000 0.000000 0.000000 0.138962 0.000000 0.000000
# 5 0.000000 0.000000 0.000000 0.000000 0.033401 0.000000
# 6 0.000000 0.000000 0.000000 0.000000 0.000000 0.027405
#
#
# Mechanical properties :
#
#
# Convention : Reuss Voigt Hill
#
# Bulk Modulus (GPa) = 24.78298 59.24479 42.01389
# Shear Modulus (GPa) = 14.27544 29.52612 21.90078
#
# Velocity S-wave (km/s) = 2.68429 3.86045 3.32479
# Velocity P-wave (km/s) = 4.70279 7.05508 5.99543
#
# Compressibility (1/GPa) = 0.04035027
#
# Stress axis : x y z
#
# Youngs Moduli (GPa) = 68.89566 14.99533 133.51395
#
# Poissons Ratio (x) = 0.33082 0.26362
# Poissons Ratio (y) = 1.51995 0.01800
# Poissons Ratio (z) = 0.13603 0.00202
#
# Static dielectric constant tensor:
#      x y z
#    x 3.700780 0.000000 0.000000 
#    y 0.000000 3.180230 0.000000 
#    z 0.000000 0.000000 5.380780 
# 
# 
# High freq. dielectric constant tensor:
#      x y z
#    x 1.785580 0.000000 0.000000 
#    y 0.000000 1.740170 0.000000 
#    z 0.000000 0.000000 1.807350 
# 
# From -- ./inp_files/1254.got.cif
#   From: 2010.03.12/outbox.cif.g09.slc.cpg/sg39_1_cif.got.tgz:1254.got - 2010.04.14 02:53:20.
