data_PCOD8181577
_publ_section_title
;
Structure prediction by ZEFSAII (Michael W. Deem and Ramdas Pophale) SiO2 
 PCOD8181577
Probable space group: A B M 2
;
_chemical_formula_sum "Si O2"
_cell_formula_units_Z 60
_cell_length_a 18.530045
_cell_length_b 18.513245
_cell_length_c 9.069256
_cell_angle_alpha 90.000000
_cell_angle_beta 90.000000
_cell_angle_gamma 90.000000
_cell_volume 3111.219725
_symmetry_space_group_name_H-M "A B M 2"
_symmetry_group_IT_number 39
_symmetry_cell_setting 'orthorhombic'
loop_
_space_group_symop_operation_xyz
x,y,z
-x,-y,z
-x,1/2+y,z
x,1/2-y,z
x,1/2+y,1/2+z
-x,1/2-y,1/2+z
-x,y,1/2+z
x,-y,1/2+z
loop_
_atom_site_type_symbol
_atom_site_label
_atom_site_fract_x
_atom_site_fract_y
_atom_site_fract_z
Si Si1 0.194376 0.569906 0.337630
Si Si2 0.734637 0.453221 0.648295
Si Si3 0.931524 0.836316 0.472067
Si Si4 0.774201 0.831296 0.360282
Si Si5 0.401888 0.451093 0.691524
Si Si6 0.709264 0.330908 0.172548
Si Si7 0.500000 0.000000 0.947032
Si Si8 0.963695 0.579075 0.769988
O O1 0.242613 0.554061 0.479671
O O2 0.208440 0.507078 0.220626
O O3 0.220235 0.644993 0.264684
O O4 0.108965 0.571811 0.368780
O O5 0.740887 0.376421 0.727080
O O6 0.653036 0.482446 0.662058
O O7 0.939115 0.750000 0.505005
O O8 0.853477 0.856375 0.408412
O O9 0.944242 0.886494 0.613285
O O10 0.987277 0.861489 0.348458
O O11 0.777131 0.750000 0.301332
O O12 0.721995 0.839551 0.499134
O O13 0.360173 0.376972 0.712973
O O14 0.443613 0.458243 0.845127
O O15 0.457092 0.444996 0.554499
O O16 0.692169 0.250000 0.218747
O O17 0.000000 0.500000 0.751850
#
# Coordination Sequence:
#
# PCOD8181577 Si02
#       8
#     8   8   8   8   8   8   4   8
#     4  11  24  37  61  85 118 155 202 265 308 357
#     4  11  22  39  62  91 117 152 204 250 302 355
#     4  11  25  44  60  83 122 167 208 254 326 388
#     4  10  21  39  61  84 119 159 201 255 309 363
#     4  10  20  36  60  90 119 157 194 239 287 360
#     4  10  20  39  63  87 118 159 202 248 301 354
#     4  10  20  36  60  88 124 154 192 230 296 358
#     4  12  26  39  62  88 118 160 213 269 316 373
#
# _framework density 19.285041
#
# number of rings (size 3 to 8) (size 9 to 14) (size 15 to 20)
#    0.000    1.333    1.333    5.600    5.600    1.067 
#    0.000    0.667    0.000    3.200    0.000    0.000 
#    0.000    0.000    0.000    0.000    0.000    0.000 
#
# Total GULP energy -372022.931021 kJ/mol
# GULP energy per Si atom -12400.764367 kJ/mol
# Density = 1.924115 g / cm^3
# Si number density = 19.285041 Si / 1000 Ang^3
#
#
#
# Elastic Constant Matrix: (Units=GPa)
#
#
# Indices 1 2 3 4 5 6 
#
# 1 107.0502 53.1574 25.3658 0.0000 0.0000 0.0000
# 2 53.1574 117.0783 42.3707 0.0000 0.0000 0.0000
# 3 25.3658 42.3707 84.3704 0.0000 0.0000 0.0000
# 4 0.0000 0.0000 0.0000 29.2483 0.0000 0.0000
# 5 0.0000 0.0000 0.0000 0.0000 28.6425 0.0000
# 6 0.0000 0.0000 0.0000 0.0000 0.0000 17.4920
#
#
#
# Elastic Compliance Matrix: (Units=1/GPa)
#
#
# Indices 1 2 3 4 5 6 
#
# 1 0.012140 -0.005122 -0.001078 0.000000 0.000000 0.000000
# 2 -0.005122 0.012599 -0.004788 0.000000 0.000000 0.000000
# 3 -0.001078 -0.004788 0.014581 0.000000 0.000000 0.000000
# 4 0.000000 0.000000 0.000000 0.034190 0.000000 0.000000
# 5 0.000000 0.000000 0.000000 0.000000 0.034913 0.000000
# 6 0.000000 0.000000 0.000000 0.000000 0.000000 0.057169
#
#
# Mechanical properties :
#
#
# Convention : Reuss Voigt Hill
#
# Bulk Modulus (GPa) = 57.65002 61.14296 59.39649
# Shear Modulus (GPa) = 25.85998 27.58357 26.72177
#
# Velocity S-wave (km/s) = 3.66585 3.78605 3.72643
# Velocity P-wave (km/s) = 6.91928 7.13343 7.02717
#
# Compressibility (1/GPa) = 0.01734605
#
# Stress axis : x y z
#
# Youngs Moduli (GPa) = 82.37102 79.36840 68.58352
#
# Poissons Ratio (x) = 0.40653 0.07391
# Poissons Ratio (y) = 0.42191 0.32834
# Poissons Ratio (z) = 0.08877 0.37998
#
# Static dielectric constant tensor:
#      x y z
#    x 3.678480 0.000000 0.000000 
#    y 0.000000 3.562260 0.000000 
#    z 0.000000 0.000000 3.543370 
# 
# 
# High freq. dielectric constant tensor:
#      x y z
#    x 1.756420 0.000000 0.000000 
#    y 0.000000 1.746210 0.000000 
#    z 0.000000 0.000000 1.758490 
# 
# From -- ./inp_files/3806.got.cif
#   From: 2010.03.12/outbox.cif.g09.slc.cpg/sg39_2_cif.got.tgz:3806.got - 2010.04.14 02:53:20.
