data_PCOD8181873
_publ_section_title
;
Structure prediction by ZEFSAII (Michael W. Deem and Ramdas Pophale) SiO2 
 PCOD8181873
Probable space group: A B M 2
;
_chemical_formula_sum "Si O2"
_cell_formula_units_Z 48
_cell_length_a 15.265415
_cell_length_b 8.575807
_cell_length_c 18.438160
_cell_angle_alpha 90.000000
_cell_angle_beta 90.000000
_cell_angle_gamma 90.000000
_cell_volume 2413.799502
_symmetry_space_group_name_H-M "A B M 2"
_symmetry_group_IT_number 39
_symmetry_cell_setting 'orthorhombic'
loop_
_space_group_symop_operation_xyz
x,y,z
-x,-y,z
-x,1/2+y,z
x,1/2-y,z
x,1/2+y,1/2+z
-x,1/2-y,1/2+z
-x,y,1/2+z
x,-y,1/2+z
loop_
_atom_site_type_symbol
_atom_site_label
_atom_site_fract_x
_atom_site_fract_y
_atom_site_fract_z
Si Si1 0.907051 0.567498 0.004910
Si Si2 0.407235 0.570032 0.510214
Si Si3 0.753530 0.569324 0.593736
Si Si4 0.093199 0.433335 0.350064
Si Si5 0.592895 0.930270 0.839882
Si Si6 0.252645 0.432032 0.249499
O O1 0.917019 0.750000 0.996351
O O2 0.835356 0.529364 0.065130
O O3 0.000000 0.500000 0.030431
O O4 0.877236 0.500069 0.927571
O O5 0.500000 0.500000 0.534287
O O6 0.402655 0.750000 0.533660
O O7 0.333627 0.473445 0.550873
O O8 0.392159 0.549476 0.425098
O O9 0.774107 0.750000 0.582267
O O10 0.739550 0.533735 0.677744
O O11 0.085578 0.250000 0.358434
O O12 0.164074 0.482216 0.290442
O O13 0.000000 0.500000 0.324719
O O14 0.598332 0.750000 0.816528
O O15 0.500000 0.000000 0.816039
O O16 0.665869 0.031495 0.800595
O O17 0.252311 0.250000 0.229819
#
# Coordination Sequence:
#
# PCOD8181873 Si02
#       6
#     8   8   8   8   8   8
#     4  11  22  39  63  89 118 152 194 241 289 343
#     4  10  21  39  63  90 119 152 194 241 290 344
#     4  12  25  40  59  85 119 157 197 240 291 348
#     4  10  21  38  62  89 117 151 192 239 288 341
#     4  10  21  38  62  89 116 150 191 238 289 343
#     4  11  24  40  58  84 119 156 195 239 289 345
#
# _framework density 19.885660999999999
#
# number of rings (size 3 to 8) (size 9 to 14) (size 15 to 20)
#    0.000    1.333    0.000    7.000    0.000    8.667 
#    0.000    5.000    0.000    0.000    0.000    0.000 
#    0.000    0.000    0.000    0.000    0.000    0.000 
#
# Total GULP energy -297765.837739 kJ/mol
# GULP energy per Si atom -12406.909906 kJ/mol
# Density = 1.984040 g / cm^3
# Si number density = 19.885661 Si / 1000 Ang^3
#
#
#
# Elastic Constant Matrix: (Units=GPa)
#
#
# Indices 1 2 3 4 5 6 
#
# 1 129.0798 37.4674 48.2078 0.0000 0.0000 0.0000
# 2 37.4674 81.2486 29.1196 0.0000 0.0000 0.0000
# 3 48.2078 29.1196 54.7964 0.0000 0.0000 0.0000
# 4 0.0000 0.0000 0.0000 69.2007 0.0000 0.0000
# 5 0.0000 0.0000 0.0000 0.0000 -131.1477 0.0000
# 6 0.0000 0.0000 0.0000 0.0000 0.0000 30.5124
#
#
#
# Elastic Compliance Matrix: (Units=1/GPa)
#
#
# Indices 1 2 3 4 5 6 
#
# 1 0.011830 -0.002131 -0.009275 0.000000 0.000000 0.000000
# 2 -0.002131 0.015587 -0.006409 0.000000 0.000000 0.000000
# 3 -0.009275 -0.006409 0.029815 0.000000 0.000000 0.000000
# 4 0.000000 0.000000 0.000000 0.014451 0.000000 0.000000
# 5 0.000000 0.000000 0.000000 0.000000 -0.007625 0.000000
# 6 0.000000 0.000000 0.000000 0.000000 0.000000 0.032774
#
#
# Mechanical properties :
#
#
# Convention : Reuss Voigt Hill
#
# Bulk Modulus (GPa) = 46.29022 54.96828 50.62925
# Shear Modulus (GPa) = 35.80108 3.73509 19.76808
#
# Velocity S-wave (km/s) = 4.24765 1.37199 3.15634
# Velocity P-wave (km/s) = 6.88371 5.49654 6.22886
#
# Compressibility (1/GPa) = 0.02160283
#
# Stress axis : x y z
#
# Youngs Moduli (GPa) = 84.53385 64.15399 33.54068
#
# Poissons Ratio (x) = 0.13672 0.31108
# Poissons Ratio (y) = 0.18015 0.21495
# Poissons Ratio (z) = 0.78403 0.41114
#
# Static dielectric constant tensor:
#      x y z
#    x 3.993310 0.000000 0.000000 
#    y 0.000000 3.718440 0.000000 
#    z 0.000000 0.000000 3.532640 
# 
# 
# High freq. dielectric constant tensor:
#      x y z
#    x 1.791000 0.000000 0.000000 
#    y 0.000000 1.794190 0.000000 
#    z 0.000000 0.000000 1.769830 
# 
# From -- ./inp_files/12658.got.cif
#   From: 2010.03.12/outbox.cif.g09.slc.cpg/sg39_7_cif.got.tgz:12658.got - 2010.04.14 02:53:20.
