data_PCOD8181897
_publ_section_title
;
Structure prediction by ZEFSAII (Michael W. Deem and Ramdas Pophale) SiO2 
 PCOD8181897
Probable space group: A B M 2
;
_chemical_formula_sum "Si O2"
_cell_formula_units_Z 56
_cell_length_a 14.043097
_cell_length_b 21.694757
_cell_length_c 8.958229
_cell_angle_alpha 90.000000
_cell_angle_beta 90.000000
_cell_angle_gamma 90.000000
_cell_volume 2729.228174
_symmetry_space_group_name_H-M "A B M 2"
_symmetry_group_IT_number 39
_symmetry_cell_setting 'orthorhombic'
loop_
_space_group_symop_operation_xyz
x,y,z
-x,-y,z
-x,1/2+y,z
x,1/2-y,z
x,1/2+y,1/2+z
-x,1/2-y,1/2+z
-x,y,1/2+z
x,-y,1/2+z
loop_
_atom_site_type_symbol
_atom_site_label
_atom_site_fract_x
_atom_site_fract_y
_atom_site_fract_z
Si Si1 0.890193 0.548162 0.583290
Si Si2 0.070384 0.577378 0.741207
Si Si3 0.323952 0.920791 0.519062
Si Si4 0.780175 0.821243 0.178334
Si Si5 0.595636 0.818666 0.354740
Si Si6 0.303269 0.464943 0.698930
Si Si7 0.479826 0.888171 0.110960
O O1 0.891498 0.475729 0.629647
O O2 0.921275 0.555680 0.412051
O O3 0.781536 0.570464 0.610185
O O4 0.959954 0.586923 0.693372
O O5 0.123558 0.642436 0.718523
O O6 0.272193 0.854441 0.537786
O O7 0.285035 0.956148 0.374339
O O8 0.437467 0.912955 0.501278
O O9 0.300462 0.961954 0.665244
O O10 0.803881 0.750000 0.137737
O O11 0.707398 0.825118 0.317408
O O12 0.560135 0.750000 0.322696
O O13 0.530166 0.863575 0.258346
O O14 0.579680 0.834778 0.527807
O O15 0.406482 0.441935 0.649404
#
# Coordination Sequence:
#
# PCOD8181897 Si02
#       7
#     8   8   8   8   8   8   8
#     4  11  23  37  68  97 130 162 207 269 326 395
#     4  11  22  41  65  99 126 166 212 262 331 380
#     4  11  25  39  64  94 129 170 211 263 331 385
#     4  10  23  43  67  89 126 171 218 267 323 388
#     4  10  21  39  60  86 122 176 220 253 310 384
#     4  12  24  39  62  97 130 162 211 266 331 386
#     4  11  22  38  58  92 130 165 210 268 312 380
#
# _framework density 20.518621
#
# number of rings (size 3 to 8) (size 9 to 14) (size 15 to 20)
#    0.000    1.143    2.857    4.286    6.000    1.714 
#    0.000    0.714    0.000    2.571    0.000    0.000 
#    0.000    0.000    0.000    0.000    0.000    0.000 
#
# Total GULP energy -347112.875029 kJ/mol
# GULP energy per Si atom -12396.888394 kJ/mol
# Density = 2.047192 g / cm^3
# Si number density = 20.518621 Si / 1000 Ang^3
#
#
#
# Elastic Constant Matrix: (Units=GPa)
#
#
# Indices 1 2 3 4 5 6 
#
# 1 106.7228 56.3094 16.3055 0.0000 0.0000 0.0000
# 2 56.3094 129.7412 48.9927 0.0000 0.0000 0.0000
# 3 16.3055 48.9927 95.8659 0.0000 0.0000 0.0000
# 4 0.0000 0.0000 0.0000 24.7302 0.0000 0.0000
# 5 0.0000 0.0000 0.0000 0.0000 21.0071 0.0000
# 6 0.0000 0.0000 0.0000 0.0000 0.0000 34.7724
#
#
#
# Elastic Compliance Matrix: (Units=1/GPa)
#
#
# Indices 1 2 3 4 5 6 
#
# 1 0.012200 -0.005590 0.000782 0.000000 0.000000 0.000000
# 2 -0.005590 0.012112 -0.005239 0.000000 0.000000 0.000000
# 3 0.000782 -0.005239 0.012976 0.000000 0.000000 0.000000
# 4 0.000000 0.000000 0.000000 0.040436 0.000000 0.000000
# 5 0.000000 0.000000 0.000000 0.000000 0.047603 0.000000
# 6 0.000000 0.000000 0.000000 0.000000 0.000000 0.028758
#
#
# Mechanical properties :
#
#
# Convention : Reuss Voigt Hill
#
# Bulk Modulus (GPa) = 58.16326 63.94945 61.05635
# Shear Modulus (GPa) = 27.79129 30.15010 28.97070
#
# Velocity S-wave (km/s) = 3.68427 3.83744 3.76163
# Velocity P-wave (km/s) = 6.81957 7.13223 6.97765
#
# Compressibility (1/GPa) = 0.01719298
#
# Stress axis : x y z
#
# Youngs Moduli (GPa) = 81.96602 82.56040 77.06661
#
# Poissons Ratio (x) = 0.46154 -0.06026
# Poissons Ratio (y) = 0.45821 0.40377
# Poissons Ratio (z) = -0.06409 0.43255
#
# Static dielectric constant tensor:
#      x y z
#    x 4.158850 0.000000 0.000000 
#    y 0.000000 3.526250 0.000000 
#    z 0.000000 0.000000 3.593690 
# 
# 
# High freq. dielectric constant tensor:
#      x y z
#    x 1.817530 0.000000 0.000000 
#    y 0.000000 1.777710 0.000000 
#    z 0.000000 0.000000 1.796230 
# 
# From -- ./inp_files/3390.got.cif
#   From: 2010.03.12/outbox.cif.g09.slc.cpg/sg39_2_cif.got.tgz:3390.got - 2010.04.14 02:53:20.
