data_PCOD8181252
_publ_section_title
;
Structure prediction by ZEFSAII (Michael W. Deem and Ramdas Pophale) SiO2 
 PCOD8181252
Probable space group: A B M 2
;
_chemical_formula_sum "Si O2"
_cell_formula_units_Z 64
_cell_length_a 15.395856
_cell_length_b 9.008264
_cell_length_c 23.541611
_cell_angle_alpha 90.000000
_cell_angle_beta 90.000000
_cell_angle_gamma 90.000000
_cell_volume 3264.984508
_symmetry_space_group_name_H-M "A B M 2"
_symmetry_group_IT_number 39
_symmetry_cell_setting 'orthorhombic'
loop_
_space_group_symop_operation_xyz
x,y,z
-x,-y,z
-x,1/2+y,z
x,1/2-y,z
x,1/2+y,1/2+z
-x,1/2-y,1/2+z
-x,y,1/2+z
x,-y,1/2+z
loop_
_atom_site_type_symbol
_atom_site_label
_atom_site_fract_x
_atom_site_fract_y
_atom_site_fract_z
Si Si1 0.654501 0.920709 0.612090
Si Si2 0.836088 0.423020 0.616300
Si Si3 0.748021 0.422984 0.421907
Si Si4 0.588236 0.578742 0.736462
Si Si5 0.743327 0.425958 0.802501
Si Si6 0.413424 0.576192 0.502297
Si Si7 0.088049 0.923426 0.497242
Si Si8 0.087453 0.421781 0.236576
O O1 0.660499 0.750000 0.592960
O O2 0.599870 0.939013 0.669309
O O3 0.750202 0.981448 0.622846
O O4 0.605482 0.013959 0.564543
O O5 0.809357 0.250000 0.611697
O O6 0.888176 0.475737 0.560798
O O7 0.896305 0.454874 0.670316
O O8 0.749235 0.250000 0.404810
O O9 0.741831 0.525797 0.367443
O O10 0.666131 0.460411 0.461167
O O11 0.834520 0.469335 0.455428
O O12 0.500000 0.500000 0.755665
O O13 0.584632 0.750000 0.754843
O O14 0.665743 0.501386 0.769303
O O15 0.733275 0.250000 0.797252
O O16 0.832713 0.481917 0.774022
O O17 0.500000 0.500000 0.477216
O O18 0.429786 0.750000 0.507785
O O19 0.071675 0.750000 0.495849
O O20 0.000000 0.000000 0.476362
O O21 0.074220 0.250000 0.248110
O O22 0.000000 0.500000 0.257158
#
# Coordination Sequence:
#
# PCOD8181252 Si02
#       8
#     8   8   8   8   8   8   8   8
#     4  11  22  36  61  95 125 159 199 242 298 359
#     4  10  19  37  61  87 124 161 196 243 303 364
#     4  10  23  43  63  84 119 163 203 250 306 357
#     4  11  24  41  63  92 124 160 200 245 301 361
#     4  11  24  42  64  89 119 159 206 256 305 354
#     4  11  23  41  64  90 123 160 199 245 301 360
#     4  10  21  38  61  89 120 160 199 244 302 357
#     4  10  22  38  61  90 122 160 200 247 302 360
#
# _framework density 19.601929999999999
#
# number of rings (size 3 to 8) (size 9 to 14) (size 15 to 20)
#    0.000    1.500    2.500    2.250    0.000    7.000 
#    0.000    3.750    0.000    0.000    0.000    0.000 
#    0.000    0.000    0.000    0.000    0.000    0.000 
#
# Total GULP energy -396973.401615 kJ/mol
# GULP energy per Si atom -12405.418800 kJ/mol
# Density = 1.955732 g / cm^3
# Si number density = 19.601930 Si / 1000 Ang^3
#
#
#
# Elastic Constant Matrix: (Units=GPa)
#
#
# Indices 1 2 3 4 5 6 
#
# 1 169.1772 71.1864 42.7439 0.0000 0.0000 0.0000
# 2 71.1864 91.7681 50.0190 0.0000 0.0000 0.0000
# 3 42.7439 50.0190 92.1123 0.0000 0.0000 0.0000
# 4 0.0000 0.0000 0.0000 41.3386 0.0000 0.0000
# 5 0.0000 0.0000 0.0000 0.0000 -26.8460 0.0000
# 6 0.0000 0.0000 0.0000 0.0000 0.0000 39.8289
#
#
#
# Elastic Compliance Matrix: (Units=1/GPa)
#
#
# Indices 1 2 3 4 5 6 
#
# 1 0.008794 -0.006530 -0.000535 0.000000 0.000000 0.000000
# 2 -0.006530 0.020327 -0.008008 0.000000 0.000000 0.000000
# 3 -0.000535 -0.008008 0.015453 0.000000 0.000000 0.000000
# 4 0.000000 0.000000 0.000000 0.024190 0.000000 0.000000
# 5 0.000000 0.000000 0.000000 0.000000 -0.037249 0.000000
# 6 0.000000 0.000000 0.000000 0.000000 0.000000 0.025107
#
#
# Mechanical properties :
#
#
# Convention : Reuss Voigt Hill
#
# Bulk Modulus (GPa) = 69.30689 75.66179 72.48434
# Shear Modulus (GPa) = 54.59849 23.47150 39.03500
#
# Velocity S-wave (km/s) = 5.28338 3.46411 4.46734
# Velocity P-wave (km/s) = 8.52366 7.39480 7.97922
#
# Compressibility (1/GPa) = 0.01442858
#
# Stress axis : x y z
#
# Youngs Moduli (GPa) = 113.71670 49.19476 64.71255
#
# Poissons Ratio (x) = 0.32125 0.03460
# Poissons Ratio (y) = 0.74258 0.51822
# Poissons Ratio (z) = 0.06080 0.39395
#
# Static dielectric constant tensor:
#      x y z
#    x 3.787620 0.000000 0.000000 
#    y 0.000000 3.535350 0.000000 
#    z 0.000000 0.000000 3.587090 
# 
# 
# High freq. dielectric constant tensor:
#      x y z
#    x 1.778300 0.000000 0.000000 
#    y 0.000000 1.765530 0.000000 
#    z 0.000000 0.000000 1.762670 
# 
# From -- ./inp_files/16140.got.cif
#   From: 2010.03.12/outbox.cif.g09.slc.cpg/sg39_9_cif.got.tgz:16140.got - 2010.04.14 02:53:20.
