data_PCOD8181592
_publ_section_title
;
Structure prediction by ZEFSAII (Michael W. Deem and Ramdas Pophale) SiO2 
 PCOD8181592
Probable space group: A B M 2
;
_chemical_formula_sum "Si O2"
_cell_formula_units_Z 56
_cell_length_a 20.114914
_cell_length_b 15.594255
_cell_length_c 8.953242
_cell_angle_alpha 90.000000
_cell_angle_beta 90.000000
_cell_angle_gamma 90.000000
_cell_volume 2808.426970
_symmetry_space_group_name_H-M "A B M 2"
_symmetry_group_IT_number 39
_symmetry_cell_setting 'orthorhombic'
loop_
_space_group_symop_operation_xyz
x,y,z
-x,-y,z
-x,1/2+y,z
x,1/2-y,z
x,1/2+y,1/2+z
-x,1/2-y,1/2+z
-x,y,1/2+z
x,-y,1/2+z
loop_
_atom_site_type_symbol
_atom_site_label
_atom_site_fract_x
_atom_site_fract_y
_atom_site_fract_z
Si Si1 0.836591 0.941237 0.668570
Si Si2 0.047682 0.153872 0.794972
Si Si3 0.052163 0.432772 0.095727
Si Si4 0.586643 0.151589 0.115532
Si Si5 0.451249 0.346606 0.275961
Si Si6 0.653446 0.472547 0.668455
Si Si7 0.746429 0.996337 0.421900
O O1 0.889334 0.864892 0.686787
O O2 0.789820 0.929655 0.522728
O O3 0.877597 0.029457 0.648729
O O4 0.793435 0.945004 0.819537
O O5 0.027580 0.250000 0.774453
O O6 0.981912 0.104089 0.744203
O O7 0.066330 0.135532 0.966163
O O8 0.000000 0.500000 0.024308
O O9 0.616400 0.250000 0.123995
O O10 0.528421 0.142904 0.237041
O O11 0.638990 0.075805 0.156141
O O12 0.557582 0.133547 0.950798
O O13 0.427111 0.250000 0.237654
O O14 0.412090 0.414409 0.171614
O O15 0.701542 0.445043 0.532053
O O16 0.694231 0.446710 0.817314
#
# Coordination Sequence:
#
# PCOD8181592 Si02
#       7
#     8   8   8   8   8   8   8
#     4  10  20  40  61  81 111 157 196 231 274 357
#     4  11  22  36  58  92 119 141 183 246 296 334
#     4  10  20  36  62  84 111 154 188 229 286 350
#     4  10  22  39  61  88 120 152 191 244 301 352
#     4  10  22  39  60  89 121 153 192 243 300 352
#     4  11  21  39  62  87 115 157 195 248 284 349
#     4  10  22  37  61  85 110 154 204 233 277 333
#
# _framework density 19.939988
#
# number of rings (size 3 to 8) (size 9 to 14) (size 15 to 20)
#    0.000    1.714    2.857    2.143    4.000    1.143 
#    0.000    4.286    0.000    1.714    0.000    0.000 
#    0.000    0.000    0.000    0.000    0.000    0.000 
#
# Total GULP energy -346995.468566 kJ/mol
# GULP energy per Si atom -12392.695306 kJ/mol
# Density = 1.989460 g / cm^3
# Si number density = 19.939988 Si / 1000 Ang^3
#
#
#
# Elastic Constant Matrix: (Units=GPa)
#
#
# Indices 1 2 3 4 5 6 
#
# 1 87.4909 31.7864 36.5917 0.0000 0.0000 0.0000
# 2 31.7864 89.9295 27.1895 0.0000 0.0000 0.0000
# 3 36.5917 27.1895 110.2919 0.0000 0.0000 0.0000
# 4 0.0000 0.0000 0.0000 19.6810 0.0000 0.0000
# 5 0.0000 0.0000 0.0000 0.0000 34.7875 0.0000
# 6 0.0000 0.0000 0.0000 0.0000 0.0000 6.4450
#
#
#
# Elastic Compliance Matrix: (Units=1/GPa)
#
#
# Indices 1 2 3 4 5 6 
#
# 1 0.014467 -0.003957 -0.003824 0.000000 0.000000 0.000000
# 2 -0.003957 0.013098 -0.001916 0.000000 0.000000 0.000000
# 3 -0.003824 -0.001916 0.010808 0.000000 0.000000 0.000000
# 4 0.000000 0.000000 0.000000 0.050811 0.000000 0.000000
# 5 0.000000 0.000000 0.000000 0.000000 0.028746 0.000000
# 6 0.000000 0.000000 0.000000 0.000000 0.000000 0.155158
#
#
# Mechanical properties :
#
#
# Convention : Reuss Voigt Hill
#
# Bulk Modulus (GPa) = 52.69305 53.20526 52.94915
# Shear Modulus (GPa) = 16.73317 24.99234 20.86276
#
# Velocity S-wave (km/s) = 2.90000 3.54415 3.23813
# Velocity P-wave (km/s) = 6.13975 6.59459 6.37123
#
# Compressibility (1/GPa) = 0.01897783
#
# Stress axis : x y z
#
# Youngs Moduli (GPa) = 69.12351 76.34845 92.52466
#
# Poissons Ratio (x) = 0.30213 0.35383
# Poissons Ratio (y) = 0.27354 0.17728
# Poissons Ratio (z) = 0.26434 0.14629
#
# Static dielectric constant tensor:
#      x y z
#    x 3.713780 0.000000 0.000000 
#    y 0.000000 3.378430 0.000000 
#    z 0.000000 0.000000 3.813590 
# 
# 
# High freq. dielectric constant tensor:
#      x y z
#    x 1.782660 0.000000 0.000000 
#    y 0.000000 1.738950 0.000000 
#    z 0.000000 0.000000 1.793990 
# 
# From -- ./inp_files/3959.got.cif
#   From: 2010.03.12/outbox.cif.g09.slc.cpg/sg39_2_cif.got.tgz:3959.got - 2010.04.14 02:53:20.
