data_PCOD8181708
_publ_section_title
;
Structure prediction by ZEFSAII (Michael W. Deem and Ramdas Pophale) SiO2 
 PCOD8181708
Probable space group: A B M 2
;
_chemical_formula_sum "Si O2"
_cell_formula_units_Z 44
_cell_length_a 9.329050
_cell_length_b 18.470752
_cell_length_c 12.031305
_cell_angle_alpha 90.000000
_cell_angle_beta 90.000000
_cell_angle_gamma 90.000000
_cell_volume 2073.169135
_symmetry_space_group_name_H-M "A B M 2"
_symmetry_group_IT_number 39
_symmetry_cell_setting 'orthorhombic'
loop_
_space_group_symop_operation_xyz
x,y,z
-x,-y,z
-x,1/2+y,z
x,1/2-y,z
x,1/2+y,1/2+z
-x,1/2-y,1/2+z
-x,y,1/2+z
x,-y,1/2+z
loop_
_atom_site_type_symbol
_atom_site_label
_atom_site_fract_x
_atom_site_fract_y
_atom_site_fract_z
Si Si1 0.896427 0.250000 0.018760
Si Si2 0.500000 0.500000 0.639693
Si Si3 0.989114 0.627718 0.144775
Si Si4 0.847501 0.250000 0.774037
Si Si5 0.655755 0.250000 0.194998
Si Si6 0.727354 0.594965 0.018542
Si Si7 0.362977 0.750000 0.585709
Si Si8 0.273230 0.903742 0.265927
O O1 0.798903 0.250000 0.125872
O O2 0.988724 0.323063 0.033453
O O3 0.811878 0.250000 0.903962
O O4 0.412413 0.553053 0.559793
O O5 0.394273 0.455741 0.718288
O O6 0.937801 0.678196 0.246394
O O7 0.861536 0.574925 0.101126
O O8 0.131444 0.587006 0.188042
O O9 0.696917 0.250000 0.711655
O O10 0.532272 0.250000 0.102334
O O11 0.659781 0.177386 0.268853
O O12 0.693161 0.680322 0.020571
O O13 0.763013 0.572474 0.891831
#
# Coordination Sequence:
#
# PCOD8181708 Si02
#       8
#     4   4   8   4   4   8   4   8
#     4   9  17  31  57  92 124 153 193 257 314 362
#     4  12  26  44  60  94 132 164 222 252 300 398
#     4   9  20  37  60  90 124 156 216 252 302 382
#     4   9  17  31  57  92 124 153 193 257 314 362
#     4  10  20  39  61  97 126 156 210 255 304 385
#     4  11  23  43  67  92 128 168 204 263 319 364
#     4  10  20  39  61  97 126 156 210 255 304 385
#     4  11  23  43  67  92 128 168 204 263 319 364
#
# _framework density 21.223548000000001
#
# number of rings (size 3 to 8) (size 9 to 14) (size 15 to 20)
#    0.000    1.818    1.818    3.273    0.000    2.182 
#    0.000    7.273    0.000    0.000    0.000    0.000 
#    0.000    0.000    0.000    0.000    0.000    0.000 
#
# Total GULP energy -272727.363034 kJ/mol
# GULP energy per Si atom -12396.698320 kJ/mol
# Density = 2.117524 g / cm^3
# Si number density = 21.223548 Si / 1000 Ang^3
#
#
#
# Elastic Constant Matrix: (Units=GPa)
#
#
# Indices 1 2 3 4 5 6 
#
# 1 127.2075 43.4329 36.6337 0.0000 0.0000 0.0000
# 2 43.4329 85.0899 35.1534 0.0000 0.0000 0.0000
# 3 36.6337 35.1534 131.8558 0.0000 0.0000 0.0000
# 4 0.0000 0.0000 0.0000 3.1310 0.0000 0.0000
# 5 0.0000 0.0000 0.0000 0.0000 27.7581 0.0000
# 6 0.0000 0.0000 0.0000 0.0000 0.0000 26.5295
#
#
#
# Elastic Compliance Matrix: (Units=1/GPa)
#
#
# Indices 1 2 3 4 5 6 
#
# 1 0.009798 -0.004356 -0.001561 0.000000 0.000000 0.000000
# 2 -0.004356 0.015144 -0.002827 0.000000 0.000000 0.000000
# 3 -0.001561 -0.002827 0.008771 0.000000 0.000000 0.000000
# 4 0.000000 0.000000 0.000000 0.319382 0.000000 0.000000
# 5 0.000000 0.000000 0.000000 0.000000 0.036026 0.000000
# 6 0.000000 0.000000 0.000000 0.000000 0.000000 0.037694
#
#
# Mechanical properties :
#
#
# Convention : Reuss Voigt Hill
#
# Bulk Modulus (GPa) = 61.63419 63.84370 62.73894
# Shear Modulus (GPa) = 11.11822 26.74594 18.93208
#
# Velocity S-wave (km/s) = 2.29129 3.55378 2.98993
# Velocity P-wave (km/s) = 6.00862 6.85463 6.44552
#
# Compressibility (1/GPa) = 0.01622476
#
# Stress axis : x y z
#
# Youngs Moduli (GPa) = 102.06063 66.03298 114.00708
#
# Poissons Ratio (x) = 0.28767 0.17794
# Poissons Ratio (y) = 0.44463 0.32231
# Poissons Ratio (z) = 0.15929 0.18668
#
# Static dielectric constant tensor:
#      x y z
#    x 3.974110 0.000000 0.000000 
#    y 0.000000 3.924830 0.000000 
#    z 0.000000 0.000000 3.489890 
# 
# 
# High freq. dielectric constant tensor:
#      x y z
#    x 1.845520 0.000000 0.000000 
#    y 0.000000 1.816230 0.000000 
#    z 0.000000 0.000000 1.821300 
# 
# From -- ./inp_files/5162.got.cif
#   From: 2010.03.12/outbox.cif.g09.slc.cpg/sg39_3_cif.got.tgz:5162.got - 2010.04.14 02:53:20.
