data_PCOD8181711
_publ_section_title
;
Structure prediction by ZEFSAII (Michael W. Deem and Ramdas Pophale) SiO2 
 PCOD8181711
Probable space group: A B M 2
;
_chemical_formula_sum "Si O2"
_cell_formula_units_Z 64
_cell_length_a 15.944926
_cell_length_b 18.426226
_cell_length_c 10.753907
_cell_angle_alpha 90.000000
_cell_angle_beta 90.000000
_cell_angle_gamma 90.000000
_cell_volume 3159.549603
_symmetry_space_group_name_H-M "A B M 2"
_symmetry_group_IT_number 39
_symmetry_cell_setting 'orthorhombic'
loop_
_space_group_symop_operation_xyz
x,y,z
-x,-y,z
-x,1/2+y,z
x,1/2-y,z
x,1/2+y,1/2+z
-x,1/2-y,1/2+z
-x,y,1/2+z
x,-y,1/2+z
loop_
_atom_site_type_symbol
_atom_site_label
_atom_site_fract_x
_atom_site_fract_y
_atom_site_fract_z
Si Si1 0.132209 0.103601 0.717610
Si Si2 0.578634 0.666004 0.966931
Si Si3 0.456319 0.165547 0.244092
Si Si4 0.827193 0.831837 0.464284
Si Si5 0.295633 0.578762 0.824488
Si Si6 0.264736 0.925328 0.407190
Si Si7 0.846806 0.557490 0.133587
Si Si8 0.960125 0.334878 0.754169
O O1 0.138253 0.155685 0.600360
O O2 0.218213 0.115169 0.794080
O O3 0.051133 0.133494 0.790391
O O4 0.119011 0.019372 0.682290
O O5 0.600775 0.750000 0.962725
O O6 0.526209 0.649539 0.095956
O O7 0.531510 0.643697 0.838630
O O8 0.667625 0.625582 0.973476
O O9 0.434126 0.250000 0.262730
O O10 0.380488 0.116763 0.287327
O O11 0.796722 0.750000 0.446205
O O12 0.745908 0.881787 0.442825
O O13 0.903563 0.850302 0.373527
O O14 0.314823 0.495752 0.859294
O O15 0.232156 0.585847 0.711042
O O16 0.187323 0.950285 0.494113
O O17 0.920472 0.617925 0.140598
O O18 0.963071 0.250000 0.716926
#
# Coordination Sequence:
#
# PCOD8181711 Si02
#       8
#     8   8   8   8   8   8   8   8
#     4  11  23  39  60  89 124 160 203 261 312 369
#     4  10  23  42  65  95 129 166 211 257 314 377
#     4  10  21  41  66  93 126 165 210 259 309 374
#     4  10  21  38  59  88 123 158 204 257 311 370
#     4  10  20  39  65  88 118 160 204 248 307 371
#     4  11  23  40  64  92 125 162 205 257 311 378
#     4  10  21  41  61  87 121 162 206 251 310 369
#     4  10  23  40  60  87 119 162 213 258 308 368
#
# _framework density 20.256053000000001
#
# number of rings (size 3 to 8) (size 9 to 14) (size 15 to 20)
#    0.000    1.750    2.500    1.125    1.750    3.500 
#    0.000    2.500    0.000    0.000    0.000    0.000 
#    0.000    0.000    0.000    0.000    0.000    0.000 
#
# Total GULP energy -396739.445889 kJ/mol
# GULP energy per Si atom -12398.107684 kJ/mol
# Density = 2.020995 g / cm^3
# Si number density = 20.256053 Si / 1000 Ang^3
#
#
#
# Elastic Constant Matrix: (Units=GPa)
#
#
# Indices 1 2 3 4 5 6 
#
# 1 82.0117 47.8625 36.2371 0.0000 0.0000 0.0000
# 2 47.8625 65.4206 30.8182 0.0000 0.0000 0.0000
# 3 36.2371 30.8182 100.2906 0.0000 0.0000 0.0000
# 4 0.0000 0.0000 0.0000 28.9862 0.0000 0.0000
# 5 0.0000 0.0000 0.0000 0.0000 26.9534 0.0000
# 6 0.0000 0.0000 0.0000 0.0000 0.0000 40.4150
#
#
#
# Elastic Compliance Matrix: (Units=1/GPa)
#
#
# Indices 1 2 3 4 5 6 
#
# 1 0.022317 -0.014649 -0.003562 0.000000 0.000000 0.000000
# 2 -0.014649 0.027489 -0.003154 0.000000 0.000000 0.000000
# 3 -0.003562 -0.003154 0.012227 0.000000 0.000000 0.000000
# 4 0.000000 0.000000 0.000000 0.034499 0.000000 0.000000
# 5 0.000000 0.000000 0.000000 0.000000 0.037101 0.000000
# 6 0.000000 0.000000 0.000000 0.000000 0.000000 0.024743
#
#
# Mechanical properties :
#
#
# Convention : Reuss Voigt Hill
#
# Bulk Modulus (GPa) = 51.80647 53.06205 52.43426
# Shear Modulus (GPa) = 24.09169 28.12462 26.10815
#
# Velocity S-wave (km/s) = 3.45245 3.73024 3.59403
# Velocity P-wave (km/s) = 6.44390 6.69369 6.56998
#
# Compressibility (1/GPa) = 0.01930261
#
# Stress axis : x y z
#
# Youngs Moduli (GPa) = 44.80980 36.37825 81.78477
#
# Poissons Ratio (x) = 0.53291 0.29131
# Poissons Ratio (y) = 0.65642 0.25795
# Poissons Ratio (z) = 0.15961 0.11474
#
# Static dielectric constant tensor:
#      x y z
#    x 3.534410 0.000000 0.000000 
#    y 0.000000 3.680620 0.000000 
#    z 0.000000 0.000000 3.892860 
# 
# 
# High freq. dielectric constant tensor:
#      x y z
#    x 1.779060 0.000000 0.000000 
#    y 0.000000 1.796320 0.000000 
#    z 0.000000 0.000000 1.793760 
# 
# From -- ./inp_files/6634.got.cif
#   From: 2010.03.12/outbox.cif.g09.slc.cpg/sg39_4_cif.got.tgz:6634.got - 2010.04.14 02:53:20.
