data_PCOD8181540
_publ_section_title
;
Structure prediction by ZEFSAII (Michael W. Deem and Ramdas Pophale) SiO2 
 PCOD8181540
Probable space group: A B M 2
;
_chemical_formula_sum "Si O2"
_cell_formula_units_Z 56
_cell_length_a 10.949561
_cell_length_b 15.821582
_cell_length_c 14.084760
_cell_angle_alpha 90.000000
_cell_angle_beta 90.000000
_cell_angle_gamma 90.000000
_cell_volume 2440.035051
_symmetry_space_group_name_H-M "A B M 2"
_symmetry_group_IT_number 39
_symmetry_cell_setting 'orthorhombic'
loop_
_space_group_symop_operation_xyz
x,y,z
-x,-y,z
-x,1/2+y,z
x,1/2-y,z
x,1/2+y,1/2+z
-x,1/2-y,1/2+z
-x,y,1/2+z
x,-y,1/2+z
loop_
_atom_site_type_symbol
_atom_site_label
_atom_site_fract_x
_atom_site_fract_y
_atom_site_fract_z
Si Si1 0.985885 0.654733 0.379950
Si Si2 0.341012 0.552973 0.558759
Si Si3 0.520493 0.348507 0.395904
Si Si4 0.107412 0.845240 0.569781
Si Si5 0.660847 0.045454 0.236993
Si Si6 0.112420 0.850153 0.193972
Si Si7 0.269173 0.073205 0.399161
O O1 0.947104 0.750000 0.358472
O O2 0.864117 0.610012 0.413877
O O3 0.094204 0.649375 0.456732
O O4 0.046472 0.614453 0.287835
O O5 0.431658 0.612434 0.496456
O O6 0.226240 0.604017 0.601608
O O7 0.403784 0.508821 0.651538
O O8 0.292412 0.481041 0.491331
O O9 0.560542 0.250000 0.389147
O O10 0.567159 0.401238 0.303491
O O11 0.374114 0.354887 0.394011
O O12 0.127334 0.750000 0.606448
O O13 0.978843 0.879319 0.610680
O O14 0.755890 0.107118 0.184051
O O15 0.732749 0.981444 0.304109
O O16 0.134972 0.750000 0.195361
#
# Coordination Sequence:
#
# PCOD8181540 Si02
#       7
#     8   8   8   8   8   8   8
#     4  10  20  36  57  84 123 166 207 253 308 369
#     4  11  23  40  65  94 126 163 210 268 323 374
#     4  11  25  47  69  90 124 171 220 262 314 382
#     4  10  21  37  59  89 125 164 207 253 308 380
#     4  11  23  40  65  94 126 163 210 268 323 374
#     4  10  21  37  59  89 125 164 207 253 308 380
#     4  11  24  39  61  91 126 165 212 268 318 371
#
# _framework density 22.950489999999999
#
# number of rings (size 3 to 8) (size 9 to 14) (size 15 to 20)
#    0.000    1.429    0.000    6.429    0.000    8.571 
#    0.000    5.714    0.000    0.000    0.000    0.000 
#    0.000    0.000    0.000    0.000    0.000    0.000 
#
# Total GULP energy -347064.635909 kJ/mol
# GULP energy per Si atom -12395.165568 kJ/mol
# Density = 2.289825 g / cm^3
# Si number density = 22.950490 Si / 1000 Ang^3
#
#
#
# Elastic Constant Matrix: (Units=GPa)
#
#
# Indices 1 2 3 4 5 6 
#
# 1 97.3109 31.9738 1.4102 0.0000 0.0000 0.0000
# 2 31.9738 90.1363 39.8104 0.0000 0.0000 0.0000
# 3 1.4102 39.8104 118.7855 0.0000 0.0000 0.0000
# 4 0.0000 0.0000 0.0000 29.0211 0.0000 0.0000
# 5 0.0000 0.0000 0.0000 0.0000 67.2698 0.0000
# 6 0.0000 0.0000 0.0000 0.0000 0.0000 490.2075
#
#
#
# Elastic Compliance Matrix: (Units=1/GPa)
#
#
# Indices 1 2 3 4 5 6 
#
# 1 0.011852 -0.004862 0.001489 0.000000 0.000000 0.000000
# 2 -0.004862 0.015016 -0.004975 0.000000 0.000000 0.000000
# 3 0.001489 -0.004975 0.010068 0.000000 0.000000 0.000000
# 4 0.000000 0.000000 0.000000 0.034458 0.000000 0.000000
# 5 0.000000 0.000000 0.000000 0.000000 0.014866 0.000000
# 6 0.000000 0.000000 0.000000 0.000000 0.000000 0.002040
#
#
# Mechanical properties :
#
#
# Convention : Reuss Voigt Hill
#
# Bulk Modulus (GPa) = 49.40569 50.29129 49.84849
# Shear Modulus (GPa) = 44.74568 132.83557 88.79063
#
# Velocity S-wave (km/s) = 4.42029 7.61609 6.22671
# Velocity P-wave (km/s) = 6.90114 9.96495 8.57106
#
# Compressibility (1/GPa) = 0.02024058
#
# Stress axis : x y z
#
# Youngs Moduli (GPa) = 84.37225 66.59484 99.32296
#
# Poissons Ratio (x) = 0.32377 -0.14786
# Poissons Ratio (y) = 0.41020 0.49412
# Poissons Ratio (z) = -0.12561 0.33130
#
# Static dielectric constant tensor:
#      x y z
#    x 4.039150 0.000000 0.000000 
#    y 0.000000 4.148750 0.000000 
#    z 0.000000 0.000000 4.320370 
# 
# 
# High freq. dielectric constant tensor:
#      x y z
#    x 1.910620 0.000000 0.000000 
#    y 0.000000 1.899290 0.000000 
#    z 0.000000 0.000000 1.916550 
# 
# From -- ./inp_files/9281.got.cif
#   From: 2010.03.12/outbox.cif.g09.slc.cpg/sg39_5_cif.got.tgz:9281.got - 2010.04.14 02:53:20.
