data_PCOD8181093
_publ_section_title
;
Structure prediction by ZEFSAII (Michael W. Deem and Ramdas Pophale) SiO2 
 PCOD8181093
Probable space group: A B M 2
;
_chemical_formula_sum "Si O2"
_cell_formula_units_Z 64
_cell_length_a 30.922184
_cell_length_b 18.791835
_cell_length_c 5.253092
_cell_angle_alpha 90.000000
_cell_angle_beta 90.000000
_cell_angle_gamma 90.000000
_cell_volume 3052.490756
_symmetry_space_group_name_H-M "A B M 2"
_symmetry_group_IT_number 39
_symmetry_cell_setting 'orthorhombic'
loop_
_space_group_symop_operation_xyz
x,y,z
-x,-y,z
-x,1/2+y,z
x,1/2-y,z
x,1/2+y,1/2+z
-x,1/2-y,1/2+z
-x,y,1/2+z
x,-y,1/2+z
loop_
_atom_site_type_symbol
_atom_site_label
_atom_site_fract_x
_atom_site_fract_y
_atom_site_fract_z
Si Si1 0.548121 0.469843 0.055720
Si Si2 0.590999 0.167824 0.143072
Si Si3 0.027801 0.670995 0.697626
Si Si4 0.064308 0.472255 0.109038
Si Si5 0.261205 0.833608 0.641845
Si Si6 0.839647 0.532534 0.588611
Si Si7 0.791263 0.166906 0.140352
Si Si8 0.643418 0.832476 0.132127
O O1 0.500000 0.500000 0.015394
O O2 0.571959 0.509682 0.290866
O O3 0.549746 0.384174 0.097377
O O4 0.575108 0.250000 0.158018
O O5 0.613343 0.139612 0.402137
O O6 0.623602 0.155347 0.910207
O O7 0.048338 0.750000 0.675024
O O8 0.065776 0.612824 0.657319
O O9 0.992133 0.660349 0.477622
O O10 0.039533 0.511111 0.343268
O O11 0.110654 0.508967 0.061029
O O12 0.267236 0.750000 0.644529
O O13 0.232843 0.855298 0.398797
O O14 0.309021 0.868899 0.624469
O O15 0.238909 0.855946 0.905473
O O16 0.816888 0.506907 0.327107
O O17 0.834409 0.618015 0.620916
O O18 0.804792 0.250000 0.134071
O O19 0.648947 0.750000 0.072938
#
# Coordination Sequence:
#
# PCOD8181093 Si02
#       8
#     8   8   8   8   8   8   8   8
#     4  10  21  38  56  76 105 145 181 218 274 323
#     4  10  19  33  56  82 107 140 183 225 264 318
#     4  10  21  37  58  85 115 145 181 227 274 324
#     4  10  21  37  56  82 111 146 187 224 272 328
#     4   9  17  30  52  83 112 139 176 224 276 323
#     4  10  21  38  55  76 109 148 186 227 277 323
#     4  10  19  33  56  81 106 141 185 227 267 320
#     4   9  17  30  52  83 113 138 173 225 274 317
#
# _framework density 20.966483
#
# number of rings (size 3 to 8) (size 9 to 14) (size 15 to 20)
#    0.000    2.250    0.000    3.000    0.000    4.500 
#    0.000    7.500    0.000   15.000    0.000    0.000 
#    0.000    0.000    0.000    0.000    0.000    0.000 
#
# Total GULP energy -396418.808567 kJ/mol
# GULP energy per Si atom -12388.087768 kJ/mol
# Density = 2.091876 g / cm^3
# Si number density = 20.966483 Si / 1000 Ang^3
#
#
#
# Elastic Constant Matrix: (Units=GPa)
#
#
# Indices 1 2 3 4 5 6 
#
# 1 78.1669 61.5466 12.7212 0.0000 0.0000 0.0000
# 2 61.5466 144.6455 33.5658 0.0000 0.0000 0.0000
# 3 12.7212 33.5658 178.1407 0.0000 0.0000 0.0000
# 4 0.0000 0.0000 0.0000 23.8386 0.0000 0.0000
# 5 0.0000 0.0000 0.0000 0.0000 -0.2584 0.0000
# 6 0.0000 0.0000 0.0000 0.0000 0.0000 23.9650
#
#
#
# Elastic Compliance Matrix: (Units=1/GPa)
#
#
# Indices 1 2 3 4 5 6 
#
# 1 0.019244 -0.008229 0.000176 0.000000 0.000000 0.000000
# 2 -0.008229 0.010749 -0.001438 0.000000 0.000000 0.000000
# 3 0.000176 -0.001438 0.005872 0.000000 0.000000 0.000000
# 4 0.000000 0.000000 0.000000 0.041949 0.000000 0.000000
# 5 0.000000 0.000000 0.000000 0.000000 -3.869508 0.000000
# 6 0.000000 0.000000 0.000000 0.000000 0.000000 0.041728
#
#
# Mechanical properties :
#
#
# Convention : Reuss Voigt Hill
#
# Bulk Modulus (GPa) = 59.22989 68.51335 63.87162
# Shear Modulus (GPa) = -1.34215 29.05034 13.85409
#
# Velocity S-wave (km/s) = -0.80096 3.72635 2.57334
# Velocity P-wave (km/s) = 5.23982 7.15980 6.27370
#
# Compressibility (1/GPa) = 0.01688337
#
# Stress axis : x y z
#
# Youngs Moduli (GPa) = 51.96446 93.03543 170.30469
#
# Poissons Ratio (x) = 0.76561 -0.03003
# Poissons Ratio (y) = 0.42763 0.24483
# Poissons Ratio (z) = -0.00916 0.13375
#
# Static dielectric constant tensor:
#      x y z
#    x 3.422670 0.000000 0.000000 
#    y 0.000000 3.763010 0.000000 
#    z 0.000000 0.000000 3.960270 
# 
# 
# High freq. dielectric constant tensor:
#      x y z
#    x 1.775230 0.000000 0.000000 
#    y 0.000000 1.805340 0.000000 
#    z 0.000000 0.000000 1.863480 
# 
# From -- ./inp_files/1541.got.cif
#   From: 2010.03.12/outbox.cif.g09.slc.cpg/sg39_1_cif.got.tgz:1541.got - 2010.04.14 02:53:20.
