data_PCOD8181723
_publ_section_title
;
Structure prediction by ZEFSAII (Michael W. Deem and Ramdas Pophale) SiO2 
 PCOD8181723
Probable space group: A B M 2
;
_chemical_formula_sum "Si O2"
_cell_formula_units_Z 64
_cell_length_a 13.832112
_cell_length_b 17.679490
_cell_length_c 12.156437
_cell_angle_alpha 90.000000
_cell_angle_beta 90.000000
_cell_angle_gamma 90.000000
_cell_volume 2972.792066
_symmetry_space_group_name_H-M "A B M 2"
_symmetry_group_IT_number 39
_symmetry_cell_setting 'orthorhombic'
loop_
_space_group_symop_operation_xyz
x,y,z
-x,-y,z
-x,1/2+y,z
x,1/2-y,z
x,1/2+y,1/2+z
-x,1/2-y,1/2+z
-x,y,1/2+z
x,-y,1/2+z
loop_
_atom_site_type_symbol
_atom_site_label
_atom_site_fract_x
_atom_site_fract_y
_atom_site_fract_z
Si Si1 0.660153 0.667567 0.755540
Si Si2 0.347737 0.077104 0.317211
Si Si3 0.037872 0.915701 0.739150
Si Si4 0.528001 0.838994 0.138696
Si Si5 0.626215 0.562397 0.956333
Si Si6 0.168023 0.667465 0.896949
Si Si7 0.783318 0.468039 0.624859
Si Si8 0.849509 0.133059 0.134935
O O1 0.639721 0.750000 0.805752
O O2 0.587401 0.653992 0.652877
O O3 0.637529 0.609283 0.848299
O O4 0.770201 0.664541 0.717703
O O5 0.423576 0.130055 0.251936
O O6 0.272505 0.130210 0.379907
O O7 0.290251 0.025602 0.228197
O O8 0.399937 0.022613 0.409528
O O9 0.079409 0.882649 0.852243
O O10 0.126630 0.913327 0.652031
O O11 0.952729 0.862515 0.695161
O O12 0.000000 0.000000 0.763130
O O13 0.558208 0.750000 0.117937
O O14 0.550392 0.896077 0.037477
O O15 0.729307 0.562490 0.017601
O O16 0.168459 0.750000 0.839407
O O17 0.148510 0.682034 0.025262
O O18 0.825634 0.548839 0.596460
#
# Coordination Sequence:
#
# PCOD8181723 Si02
#       8
#     8   8   8   8   8   8   8   8
#     4  11  25  43  63  92 132 174 218 274 336 394
#     4  10  20  40  65  98 127 163 215 281 325 395
#     4   9  22  40  66  90 125 169 219 269 322 392
#     4  10  24  45  65  93 135 181 223 271 339 408
#     4  11  21  41  71  94 128 167 229 271 328 400
#     4  11  23  38  62  94 130 173 211 263 347 412
#     4   9  19  39  62  96 124 159 206 268 329 385
#     4  11  21  40  61  92 129 164 213 271 325 386
#
# _framework density 21.528580999999999
#
# number of rings (size 3 to 8) (size 9 to 14) (size 15 to 20)
#    0.000    1.750    2.500    1.125    0.000    5.000 
#    2.250    1.875    0.000    0.000    0.000    0.000 
#    0.000    0.000    0.000    0.000    0.000    0.000 
#
# Total GULP energy -396662.251003 kJ/mol
# GULP energy per Si atom -12395.695344 kJ/mol
# Density = 2.147958 g / cm^3
# Si number density = 21.528581 Si / 1000 Ang^3
#
#
#
# Elastic Constant Matrix: (Units=GPa)
#
#
# Indices 1 2 3 4 5 6 
#
# 1 77.2858 27.3889 15.5576 0.0000 0.0000 0.0000
# 2 27.3889 106.9382 41.0215 0.0000 0.0000 0.0000
# 3 15.5576 41.0215 74.4870 0.0000 0.0000 0.0000
# 4 0.0000 0.0000 0.0000 16.9577 0.0000 0.0000
# 5 0.0000 0.0000 0.0000 0.0000 27.9439 0.0000
# 6 0.0000 0.0000 0.0000 0.0000 0.0000 11.8244
#
#
#
# Elastic Compliance Matrix: (Units=1/GPa)
#
#
# Indices 1 2 3 4 5 6 
#
# 1 0.014319 -0.003195 -0.001231 0.000000 0.000000 0.000000
# 2 -0.003195 0.012569 -0.006255 0.000000 0.000000 0.000000
# 3 -0.001231 -0.006255 0.017127 0.000000 0.000000 0.000000
# 4 0.000000 0.000000 0.000000 0.058970 0.000000 0.000000
# 5 0.000000 0.000000 0.000000 0.000000 0.035786 0.000000
# 6 0.000000 0.000000 0.000000 0.000000 0.000000 0.084571
#
#
# Mechanical properties :
#
#
# Convention : Reuss Voigt Hill
#
# Bulk Modulus (GPa) = 44.14402 47.40522 45.77462
# Shear Modulus (GPa) = 19.82124 22.99473 21.40799
#
# Velocity S-wave (km/s) = 3.03759 3.27173 3.15683
# Velocity P-wave (km/s) = 5.73166 6.02825 5.88182
#
# Compressibility (1/GPa) = 0.02265312
#
# Stress axis : x y z
#
# Youngs Moduli (GPa) = 69.83672 79.56227 58.38807
#
# Poissons Ratio (x) = 0.25421 0.07188
# Poissons Ratio (y) = 0.22314 0.36519
# Poissons Ratio (z) = 0.08598 0.49762
#
# Static dielectric constant tensor:
#      x y z
#    x 4.123640 0.000000 0.000000 
#    y 0.000000 4.002000 0.000000 
#    z 0.000000 0.000000 3.814740 
# 
# 
# High freq. dielectric constant tensor:
#      x y z
#    x 1.848430 0.000000 0.000000 
#    y 0.000000 1.850730 0.000000 
#    z 0.000000 0.000000 1.837300 
# 
# From -- ./inp_files/6673.got.cif
#   From: 2010.03.12/outbox.cif.g09.slc.cpg/sg39_4_cif.got.tgz:6673.got - 2010.04.14 02:53:20.
