data_PCOD8181749
_publ_section_title
;
Structure prediction by ZEFSAII (Michael W. Deem and Ramdas Pophale) SiO2 
 PCOD8181749
Probable space group: A B M 2
;
_chemical_formula_sum "Si O2"
_cell_formula_units_Z 56
_cell_length_a 14.737095
_cell_length_b 22.093148
_cell_length_c 8.877484
_cell_angle_alpha 90.000000
_cell_angle_beta 90.000000
_cell_angle_gamma 90.000000
_cell_volume 2890.409548
_symmetry_space_group_name_H-M "A B M 2"
_symmetry_group_IT_number 39
_symmetry_cell_setting 'orthorhombic'
loop_
_space_group_symop_operation_xyz
x,y,z
-x,-y,z
-x,1/2+y,z
x,1/2-y,z
x,1/2+y,1/2+z
-x,1/2-y,1/2+z
-x,y,1/2+z
x,-y,1/2+z
loop_
_atom_site_type_symbol
_atom_site_label
_atom_site_fract_x
_atom_site_fract_y
_atom_site_fract_z
Si Si1 0.841008 0.416206 0.760480
Si Si2 0.878929 0.502146 0.009947
Si Si3 0.447682 0.319911 0.227065
Si Si4 0.272552 0.818783 0.899976
Si Si5 0.791991 0.821174 0.732533
Si Si6 0.383947 0.822268 0.406780
Si Si7 0.048738 0.584389 0.260094
O O1 0.815090 0.453831 0.610279
O O2 0.781226 0.356741 0.774756
O O3 0.945268 0.393333 0.755576
O O4 0.818530 0.460098 0.901956
O O5 0.937379 0.459487 0.119096
O O6 0.943712 0.545110 0.911109
O O7 0.462705 0.250000 0.189977
O O8 0.378737 0.328633 0.367126
O O9 0.543259 0.347672 0.284041
O O10 0.408937 0.349445 0.072095
O O11 0.243842 0.750000 0.870380
O O12 0.248963 0.837880 0.069559
O O13 0.814739 0.750000 0.744910
O O14 0.717253 0.841822 0.856020
O O15 0.883938 0.858317 0.760257
O O16 0.388649 0.750000 0.408117
#
# Coordination Sequence:
#
# PCOD8181749 Si02
#       7
#     8   8   8   8   8   8   8
#     4  11  20  35  56  78 106 140 181 227 268 308
#     4  10  21  36  56  78  99 134 189 238 266 298
#     4   9  17  31  52  77 105 138 176 217 260 311
#     4  10  21  35  51  78 114 146 175 211 267 331
#     4  10  21  35  51  78 114 146 175 211 267 331
#     4   9  17  31  52  77 105 138 176 217 260 311
#     4  11  20  35  56  78 106 140 181 227 268 308
#
# _framework density 19.374417999999999
#
# number of rings (size 3 to 8) (size 9 to 14) (size 15 to 20)
#    0.000    2.000    1.429    4.286    2.000    4.000 
#    0.000    0.000    0.000    0.000    0.000    6.000 
#    0.000    0.000    0.000    0.000    0.000    0.000 
#
# Total GULP energy -347040.242827 kJ/mol
# GULP energy per Si atom -12394.294387 kJ/mol
# Density = 1.933032 g / cm^3
# Si number density = 19.374418 Si / 1000 Ang^3
#
#
#
# Elastic Constant Matrix: (Units=GPa)
#
#
# Indices 1 2 3 4 5 6 
#
# 1 74.9374 36.8208 21.5286 0.0000 0.0000 0.0000
# 2 36.8208 54.6799 24.4991 0.0000 0.0000 0.0000
# 3 21.5286 24.4991 103.3392 0.0000 0.0000 0.0000
# 4 0.0000 0.0000 0.0000 43.0630 0.0000 0.0000
# 5 0.0000 0.0000 0.0000 0.0000 22.5725 0.0000
# 6 0.0000 0.0000 0.0000 0.0000 0.0000 8.7331
#
#
#
# Elastic Compliance Matrix: (Units=1/GPa)
#
#
# Indices 1 2 3 4 5 6 
#
# 1 0.020053 -0.013014 -0.001092 0.000000 0.000000 0.000000
# 2 -0.013014 0.028907 -0.004142 0.000000 0.000000 0.000000
# 3 -0.001092 -0.004142 0.010886 0.000000 0.000000 0.000000
# 4 0.000000 0.000000 0.000000 0.023222 0.000000 0.000000
# 5 0.000000 0.000000 0.000000 0.000000 0.044302 0.000000
# 6 0.000000 0.000000 0.000000 0.000000 0.000000 0.114507
#
#
# Mechanical properties :
#
#
# Convention : Reuss Voigt Hill
#
# Bulk Modulus (GPa) = 42.82631 44.29483 43.56057
# Shear Modulus (GPa) = 17.47294 24.88091 21.17693
#
# Velocity S-wave (km/s) = 3.00635 3.58748 3.30970
# Velocity P-wave (km/s) = 5.84837 6.33026 6.09408
#
# Compressibility (1/GPa) = 0.02335013
#
# Stress axis : x y z
#
# Youngs Moduli (GPa) = 49.86864 34.59312 91.85761
#
# Poissons Ratio (x) = 0.45019 0.10034
# Poissons Ratio (y) = 0.64898 0.38048
# Poissons Ratio (z) = 0.05447 0.14329
#
# Static dielectric constant tensor:
#      x y z
#    x 3.354810 0.000000 0.000000 
#    y 0.000000 3.289830 0.000000 
#    z 0.000000 0.000000 3.936760 
# 
# 
# High freq. dielectric constant tensor:
#      x y z
#    x 1.737250 0.000000 0.000000 
#    y 0.000000 1.710570 0.000000 
#    z 0.000000 0.000000 1.778800 
# 
# From -- ./inp_files/3412.got.cif
#   From: 2010.03.12/outbox.cif.g09.slc.cpg/sg39_2_cif.got.tgz:3412.got - 2010.04.14 02:53:20.
