data_PCOD8181845
_publ_section_title
;
Structure prediction by ZEFSAII (Michael W. Deem and Ramdas Pophale) SiO2 
 PCOD8181845
Probable space group: A B M 2
;
_chemical_formula_sum "Si O2"
_cell_formula_units_Z 56
_cell_length_a 16.817123
_cell_length_b 21.794706
_cell_length_c 7.649142
_cell_angle_alpha 90.000000
_cell_angle_beta 90.000000
_cell_angle_gamma 90.000000
_cell_volume 2803.596047
_symmetry_space_group_name_H-M "A B M 2"
_symmetry_group_IT_number 39
_symmetry_cell_setting 'orthorhombic'
loop_
_space_group_symop_operation_xyz
x,y,z
-x,-y,z
-x,1/2+y,z
x,1/2-y,z
x,1/2+y,1/2+z
-x,1/2-y,1/2+z
-x,y,1/2+z
x,-y,1/2+z
loop_
_atom_site_type_symbol
_atom_site_label
_atom_site_fract_x
_atom_site_fract_y
_atom_site_fract_z
Si Si1 0.750588 0.624938 0.360010
Si Si2 0.309339 0.820880 0.223425
Si Si3 0.600610 0.053168 0.832990
Si Si4 0.817564 0.180414 0.522114
Si Si5 0.928279 0.578090 0.904318
Si Si6 0.568753 0.920494 0.725500
Si Si7 0.100869 0.444130 0.507425
O O1 0.720296 0.661762 0.529378
O O2 0.683174 0.582182 0.268307
O O3 0.822033 0.580354 0.410599
O O4 0.776582 0.672541 0.210946
O O5 0.334253 0.750000 0.224957
O O6 0.241609 0.835299 0.363969
O O7 0.387155 0.858822 0.288234
O O8 0.526924 0.083900 0.729778
O O9 0.599971 0.979391 0.831955
O O10 0.594519 0.071060 0.030661
O O11 0.847883 0.250000 0.507491
O O12 0.893808 0.136726 0.505011
O O13 0.898757 0.578296 0.705980
O O14 0.897968 0.517907 0.006466
O O15 0.023803 0.581451 0.905719
#
# Coordination Sequence:
#
# PCOD8181845 Si02
#       7
#     8   8   8   8   8   8   8
#     4  11  23  40  66  93 123 163 212 262 317 360
#     4  10  23  42  61  86 123 163 205 254 302 371
#     4  10  22  35  62  91 122 159 200 263 316 366
#     4  11  24  41  64  89 125 167 206 252 305 376
#     4  11  22  41  62  94 130 161 215 249 324 368
#     4  10  21  38  58  89 123 158 202 255 311 373
#     4  11  22  39  65  94 127 163 202 277 305 378
#
# _framework density 19.974347000000002
#
# number of rings (size 3 to 8) (size 9 to 14) (size 15 to 20)
#    0.000    1.429    1.429    5.571    6.000    1.143 
#    0.000    7.143    0.000    0.000    0.000    0.000 
#    0.000    0.000    0.000    0.000    0.000    0.000 
#
# Total GULP energy -347233.351903 kJ/mol
# GULP energy per Si atom -12401.191139 kJ/mol
# Density = 1.992888 g / cm^3
# Si number density = 19.974347 Si / 1000 Ang^3
#
#
#
# Elastic Constant Matrix: (Units=GPa)
#
#
# Indices 1 2 3 4 5 6 
#
# 1 123.5996 82.0871 19.2629 0.0000 0.0000 0.0000
# 2 82.0871 133.7966 23.6800 0.0000 0.0000 0.0000
# 3 19.2629 23.6800 67.7553 0.0000 0.0000 0.0000
# 4 0.0000 0.0000 0.0000 31.7968 0.0000 0.0000
# 5 0.0000 0.0000 0.0000 0.0000 26.9064 0.0000
# 6 0.0000 0.0000 0.0000 0.0000 0.0000 35.8921
#
#
#
# Elastic Compliance Matrix: (Units=1/GPa)
#
#
# Indices 1 2 3 4 5 6 
#
# 1 0.013720 -0.008237 -0.001022 0.000000 0.000000 0.000000
# 2 -0.008237 0.012912 -0.002171 0.000000 0.000000 0.000000
# 3 -0.001022 -0.002171 0.015808 0.000000 0.000000 0.000000
# 4 0.000000 0.000000 0.000000 0.031450 0.000000 0.000000
# 5 0.000000 0.000000 0.000000 0.000000 0.037166 0.000000
# 6 0.000000 0.000000 0.000000 0.000000 0.000000 0.027861
#
#
# Mechanical properties :
#
#
# Convention : Reuss Voigt Hill
#
# Bulk Modulus (GPa) = 51.06994 63.91239 57.49117
# Shear Modulus (GPa) = 29.70824 32.26047 30.98435
#
# Velocity S-wave (km/s) = 3.86076 4.02318 3.94281
# Velocity P-wave (km/s) = 6.74516 7.32448 7.04078
#
# Compressibility (1/GPa) = 0.01958099
#
# Stress axis : x y z
#
# Youngs Moduli (GPa) = 72.88465 77.44905 63.25817
#
# Poissons Ratio (x) = 0.63793 0.06465
# Poissons Ratio (y) = 0.60034 0.13732
# Poissons Ratio (z) = 0.07449 0.16813
#
# Static dielectric constant tensor:
#      x y z
#    x 3.521230 0.000000 0.000000 
#    y 0.000000 3.295870 0.000000 
#    z 0.000000 0.000000 3.745650 
# 
# 
# High freq. dielectric constant tensor:
#      x y z
#    x 1.781220 0.000000 0.000000 
#    y 0.000000 1.770040 0.000000 
#    z 0.000000 0.000000 1.793560 
# 
# From -- ./inp_files/3402.got.cif
#   From: 2010.03.12/outbox.cif.g09.slc.cpg/sg39_2_cif.got.tgz:3402.got - 2010.04.14 02:53:20.
