data_PCOD8181385
_publ_section_title
;
Structure prediction by ZEFSAII (Michael W. Deem and Ramdas Pophale) SiO2 
 PCOD8181385
Probable space group: A B M 2
;
_chemical_formula_sum "Si O2"
_cell_formula_units_Z 64
_cell_length_a 16.331222
_cell_length_b 8.723336
_cell_length_c 22.662548
_cell_angle_alpha 90.000000
_cell_angle_beta 90.000000
_cell_angle_gamma 90.000000
_cell_volume 3228.568611
_symmetry_space_group_name_H-M "A B M 2"
_symmetry_group_IT_number 39
_symmetry_cell_setting 'orthorhombic'
loop_
_space_group_symop_operation_xyz
x,y,z
-x,-y,z
-x,1/2+y,z
x,1/2-y,z
x,1/2+y,1/2+z
-x,1/2-y,1/2+z
-x,y,1/2+z
x,-y,1/2+z
loop_
_atom_site_type_symbol
_atom_site_label
_atom_site_fract_x
_atom_site_fract_y
_atom_site_fract_z
Si Si1 0.410413 0.423245 0.465920
Si Si2 0.229741 0.924869 0.793289
Si Si3 0.414949 0.922823 0.098096
Si Si4 0.079980 0.075727 0.735704
Si Si5 0.135049 0.421955 0.609524
Si Si6 0.088105 0.569375 0.489118
Si Si7 0.714606 0.574969 0.170625
Si Si8 0.752265 0.571489 0.916164
O O1 0.500000 0.500000 0.456042
O O2 0.420461 0.250000 0.442848
O O3 0.376727 0.424800 0.532790
O O4 0.335579 0.500906 0.431684
O O5 0.231126 0.750000 0.816619
O O6 0.295996 0.953330 0.741163
O O7 0.147505 0.959429 0.758151
O O8 0.238136 0.041289 0.846822
O O9 0.419361 0.750000 0.123193
O O10 0.500000 0.000000 0.088012
O O11 0.372321 0.034994 0.143919
O O12 0.093264 0.250000 0.758484
O O13 0.073083 0.072261 0.664598
O O14 0.000000 0.000000 0.763388
O O15 0.141030 0.250000 0.583615
O O16 0.103993 0.532004 0.557710
O O17 0.223081 0.466253 0.635682
O O18 0.080267 0.750000 0.481277
O O19 0.166562 0.507142 0.450804
O O20 0.000000 0.500000 0.468365
O O21 0.739967 0.750000 0.158236
O O22 0.746588 0.750000 0.929283
#
# Coordination Sequence:
#
# PCOD8181385 Si02
#       8
#     8   8   8   8   8   8   8   8
#     4  10  21  38  62  91 120 151 189 233 284 342
#     4  10  22  39  58  79 106 144 189 234 279 331
#     4  10  20  34  56  86 118 149 180 220 273 333
#     4  10  20  34  54  80 109 142 182 229 281 335
#     4  10  20  34  55  82 112 146 184 229 282 339
#     4  11  24  39  57  83 116 154 194 238 289 344
#     4  10  20  35  56  82 112 145 183 228 279 335
#     4  11  24  41  60  83 114 153 196 243 291 339
#
# _framework density 19.823027
#
# number of rings (size 3 to 8) (size 9 to 14) (size 15 to 20)
#    0.000    1.750    0.000    4.125    0.000   10.000 
#    0.000    1.875    0.000    3.000    0.000    0.000 
#    0.000    0.000    0.000    0.000    0.000    0.000 
#
# Total GULP energy -396572.071155 kJ/mol
# GULP energy per Si atom -12392.877224 kJ/mol
# Density = 1.977791 g / cm^3
# Si number density = 19.823027 Si / 1000 Ang^3
#
#
#
# Elastic Constant Matrix: (Units=GPa)
#
#
# Indices 1 2 3 4 5 6 
#
# 1 78.4623 32.8086 44.2678 0.0000 0.0000 0.0000
# 2 32.8086 76.1579 27.0038 0.0000 0.0000 0.0000
# 3 44.2678 27.0038 81.3410 0.0000 0.0000 0.0000
# 4 0.0000 0.0000 0.0000 31.0273 0.0000 0.0000
# 5 0.0000 0.0000 0.0000 0.0000 10.3736 0.0000
# 6 0.0000 0.0000 0.0000 0.0000 0.0000 33.5287
#
#
#
# Elastic Compliance Matrix: (Units=1/GPa)
#
#
# Indices 1 2 3 4 5 6 
#
# 1 0.020207 -0.005447 -0.009189 0.000000 0.000000 0.000000
# 2 -0.005447 0.016351 -0.002464 0.000000 0.000000 0.000000
# 3 -0.009189 -0.002464 0.018113 0.000000 0.000000 0.000000
# 4 0.000000 0.000000 0.000000 0.032230 0.000000 0.000000
# 5 0.000000 0.000000 0.000000 0.000000 0.096399 0.000000
# 6 0.000000 0.000000 0.000000 0.000000 0.000000 0.029825
#
#
# Mechanical properties :
#
#
# Convention : Reuss Voigt Hill
#
# Bulk Modulus (GPa) = 48.84916 49.34683 49.09799
# Shear Modulus (GPa) = 19.67372 23.77799 21.72585
#
# Velocity S-wave (km/s) = 3.15376 3.46716 3.31417
# Velocity P-wave (km/s) = 6.16099 6.40125 6.28227
#
# Compressibility (1/GPa) = 0.02047118
#
# Stress axis : x y z
#
# Youngs Moduli (GPa) = 49.48838 61.15933 55.21014
#
# Poissons Ratio (x) = 0.33313 0.50731
# Poissons Ratio (y) = 0.26956 0.13603
# Poissons Ratio (z) = 0.45474 0.15069
#
# Static dielectric constant tensor:
#      x y z
#    x 3.608080 0.000000 0.000000 
#    y 0.000000 3.655710 0.000000 
#    z 0.000000 0.000000 3.588650 
# 
# 
# High freq. dielectric constant tensor:
#      x y z
#    x 1.771180 0.000000 0.000000 
#    y 0.000000 1.784900 0.000000 
#    z 0.000000 0.000000 1.761120 
# 
# From -- ./inp_files/16169.got.cif
#   From: 2010.03.12/outbox.cif.g09.slc.cpg/sg39_9_cif.got.tgz:16169.got - 2010.04.14 02:53:20.
