data_PCOD8181357
_publ_section_title
;
Structure prediction by ZEFSAII (Michael W. Deem and Ramdas Pophale) SiO2 
 PCOD8181357
Probable space group: A B M 2
;
_chemical_formula_sum "Si O2"
_cell_formula_units_Z 48
_cell_length_a 9.435952
_cell_length_b 8.880542
_cell_length_c 30.691000
_cell_angle_alpha 90.000000
_cell_angle_beta 90.000000
_cell_angle_gamma 90.000000
_cell_volume 2571.794332
_symmetry_space_group_name_H-M "A B M 2"
_symmetry_group_IT_number 39
_symmetry_cell_setting 'orthorhombic'
loop_
_space_group_symop_operation_xyz
x,y,z
-x,-y,z
-x,1/2+y,z
x,1/2-y,z
x,1/2+y,1/2+z
-x,1/2-y,1/2+z
-x,y,1/2+z
x,-y,1/2+z
loop_
_atom_site_type_symbol
_atom_site_label
_atom_site_fract_x
_atom_site_fract_y
_atom_site_fract_z
Si Si1 0.846750 0.427882 0.788390
Si Si2 0.847487 0.928671 0.128030
Si Si3 0.346477 0.926871 0.708841
Si Si4 0.150989 0.929057 0.039389
Si Si5 0.354769 0.926661 0.963003
Si Si6 0.352452 0.572749 0.865203
O O1 0.866315 0.250000 0.786137
O O2 0.746819 0.485672 0.749324
O O3 0.773890 0.480092 0.833569
O O4 0.000000 0.500000 0.784225
O O5 0.866241 0.750000 0.123302
O O6 0.736054 0.972809 0.165123
O O7 0.784886 0.999270 0.083480
O O8 0.000000 0.000000 0.139289
O O9 0.368555 0.750000 0.712109
O O10 0.500000 0.000000 0.709438
O O11 0.142310 0.750000 0.044480
O O12 0.239565 0.980679 0.997576
O O13 0.000000 0.000000 0.030903
O O14 0.375555 0.750000 0.964357
O O15 0.311504 0.979079 0.914222
O O16 0.500000 0.000000 0.977935
O O17 0.500000 0.500000 0.850079
O O18 0.374251 0.750000 0.862005
#
# Coordination Sequence:
#
# PCOD8181357 Si02
#       6
#     8   8   8   8   8   8
#     4  10  21  36  54  78 106 135 169 208 251 301
#     4  10  20  35  54  76 102 133 171 211 253 301
#     4  10  22  37  54  78 105 134 169 209 252 301
#     4  10  20  34  52  75 103 135 171 210 254 301
#     4   9  19  34  52  75 103 135 170 210 254 300
#     4   9  18  34  54  76 103 134 170 210 252 300
#
# _framework density 18.664010999999999
#
# number of rings (size 3 to 8) (size 9 to 14) (size 15 to 20)
#    0.000    2.333    0.000    3.000    0.000    5.333 
#    0.000    3.333    0.000    0.000    0.000    0.000 
#    0.000    0.000    0.000    0.000    0.000    0.000 
#
# Total GULP energy -297597.284662 kJ/mol
# GULP energy per Si atom -12399.886861 kJ/mol
# Density = 1.862153 g / cm^3
# Si number density = 18.664011 Si / 1000 Ang^3
#
#
#
# Elastic Constant Matrix: (Units=GPa)
#
#
# Indices 1 2 3 4 5 6 
#
# 1 144.8425 45.6192 105.9111 0.0000 0.0000 0.0000
# 2 45.6192 48.5257 47.8687 0.0000 0.0000 0.0000
# 3 105.9111 47.8687 161.2819 0.0000 0.0000 0.0000
# 4 0.0000 0.0000 0.0000 24.8657 0.0000 0.0000
# 5 0.0000 0.0000 0.0000 0.0000 34.8759 0.0000
# 6 0.0000 0.0000 0.0000 0.0000 0.0000 35.3065
#
#
#
# Elastic Compliance Matrix: (Units=1/GPa)
#
#
# Indices 1 2 3 4 5 6 
#
# 1 0.014403 -0.005953 -0.007691 0.000000 0.000000 0.000000
# 2 -0.005953 0.031600 -0.005469 0.000000 0.000000 0.000000
# 3 -0.007691 -0.005469 0.012874 0.000000 0.000000 0.000000
# 4 0.000000 0.000000 0.000000 0.040216 0.000000 0.000000
# 5 0.000000 0.000000 0.000000 0.000000 0.028673 0.000000
# 6 0.000000 0.000000 0.000000 0.000000 0.000000 0.028323
#
#
# Mechanical properties :
#
#
# Convention : Reuss Voigt Hill
#
# Bulk Modulus (GPa) = 48.42803 83.71645 66.07224
# Shear Modulus (GPa) = 24.85078 29.35968 27.10523
#
# Velocity S-wave (km/s) = 3.65291 3.97049 3.81500
# Velocity P-wave (km/s) = 6.61780 8.12229 7.40833
#
# Compressibility (1/GPa) = 0.02064920
#
# Stress axis : x y z
#
# Youngs Moduli (GPa) = 69.42956 31.64588 77.67326
#
# Poissons Ratio (x) = 0.18839 0.59741
# Poissons Ratio (y) = 0.41333 0.42483
# Poissons Ratio (z) = 0.53401 0.17309
#
# Static dielectric constant tensor:
#      x y z
#    x 3.380180 0.000000 0.000000 
#    y 0.000000 3.364650 0.000000 
#    z 0.000000 0.000000 3.886700 
# 
# 
# High freq. dielectric constant tensor:
#      x y z
#    x 1.721220 0.000000 0.000000 
#    y 0.000000 1.721380 0.000000 
#    z 0.000000 0.000000 1.742480 
# 
# From -- ./inp_files/17599.got.cif
#   From: 2010.03.12/outbox.cif.g09.slc.cpg/sg39_9_cif.got.tgz:17599.got - 2010.04.14 02:53:20.
