data_PCOD8181628
_publ_section_title
;
Structure prediction by ZEFSAII (Michael W. Deem and Ramdas Pophale) SiO2 
 PCOD8181628
Probable space group: A B M 2
;
_chemical_formula_sum "Si O2"
_cell_formula_units_Z 48
_cell_length_a 15.305023
_cell_length_b 8.714229
_cell_length_c 18.650535
_cell_angle_alpha 90.000000
_cell_angle_beta 90.000000
_cell_angle_gamma 90.000000
_cell_volume 2487.449368
_symmetry_space_group_name_H-M "A B M 2"
_symmetry_group_IT_number 39
_symmetry_cell_setting 'orthorhombic'
loop_
_space_group_symop_operation_xyz
x,y,z
-x,-y,z
-x,1/2+y,z
x,1/2-y,z
x,1/2+y,1/2+z
-x,1/2-y,1/2+z
-x,y,1/2+z
x,-y,1/2+z
loop_
_atom_site_type_symbol
_atom_site_label
_atom_site_fract_x
_atom_site_fract_y
_atom_site_fract_z
Si Si1 0.091885 0.070578 0.172210
Si Si2 0.757284 0.069742 0.429457
Si Si3 0.589653 0.069022 0.679218
Si Si4 0.093564 0.568710 0.021856
Si Si5 0.249843 0.429264 0.276255
Si Si6 0.410120 0.068881 0.016978
O O1 0.080289 0.250000 0.157617
O O2 0.160795 0.037055 0.234212
O O3 0.125468 0.994898 0.098584
O O4 0.000000 0.000000 0.197189
O O5 0.771280 0.250000 0.441605
O O6 0.669761 0.010460 0.468593
O O7 0.839111 0.978821 0.460742
O O8 0.749468 0.033031 0.346156
O O9 0.582071 0.250000 0.680074
O O10 0.669706 0.013728 0.727795
O O11 0.605595 0.009791 0.598151
O O12 0.500000 0.000000 0.710606
O O13 0.085835 0.750000 0.025762
O O14 0.000000 0.500000 0.001016
O O15 0.258107 0.250000 0.295988
O O16 0.417653 0.250000 0.014026
O O17 0.500000 0.000000 0.985830
#
# Coordination Sequence:
#
# PCOD8181628 Si02
#       6
#     8   8   8   8   8   8
#     4  10  20  37  60  84 111 143 182 228 276 327
#     4  11  23  38  56  81 115 151 188 230 278 331
#     4   9  18  35  57  79 105 139 182 229 277 328
#     4  11  22  38  61  86 112 144 185 230 277 330
#     4  10  22  38  55  78 113 152 185 224 277 333
#     4   9  19  36  58  82 108 143 185 231 279 327
#
# _framework density 19.296875
#
# number of rings (size 3 to 8) (size 9 to 14) (size 15 to 20)
#    0.000    2.000    0.000    4.500    0.000    7.333 
#    0.000    8.333    0.000    0.000    0.000    0.000 
#    0.000    0.000    0.000    0.000    0.000    0.000 
#
# Total GULP energy -297697.438577 kJ/mol
# GULP energy per Si atom -12404.059941 kJ/mol
# Density = 1.925295 g / cm^3
# Si number density = 19.296875 Si / 1000 Ang^3
#
#
#
# Elastic Constant Matrix: (Units=GPa)
#
#
# Indices 1 2 3 4 5 6 
#
# 1 137.9425 50.7575 75.1725 0.0000 0.0000 0.0000
# 2 50.7575 83.0705 41.8214 0.0000 0.0000 0.0000
# 3 75.1725 41.8214 108.2933 0.0000 0.0000 0.0000
# 4 0.0000 0.0000 0.0000 32.2303 0.0000 0.0000
# 5 0.0000 0.0000 0.0000 0.0000 14.0190 0.0000
# 6 0.0000 0.0000 0.0000 0.0000 0.0000 31.0868
#
#
#
# Elastic Compliance Matrix: (Units=1/GPa)
#
#
# Indices 1 2 3 4 5 6 
#
# 1 0.012705 -0.004125 -0.007226 0.000000 0.000000 0.000000
# 2 -0.004125 0.016283 -0.003425 0.000000 0.000000 0.000000
# 3 -0.007226 -0.003425 0.015573 0.000000 0.000000 0.000000
# 4 0.000000 0.000000 0.000000 0.031027 0.000000 0.000000
# 5 0.000000 0.000000 0.000000 0.000000 0.071332 0.000000
# 6 0.000000 0.000000 0.000000 0.000000 0.000000 0.032168
#
#
# Mechanical properties :
#
#
# Convention : Reuss Voigt Hill
#
# Bulk Modulus (GPa) = 66.62853 73.86768 70.24811
# Shear Modulus (GPa) = 23.40355 26.23753 24.82054
#
# Velocity S-wave (km/s) = 3.48633 3.69138 3.59032
# Velocity P-wave (km/s) = 7.12805 7.51872 7.32599
#
# Compressibility (1/GPa) = 0.01500859
#
# Stress axis : x y z
#
# Youngs Moduli (GPa) = 78.70684 61.41524 64.21354
#
# Poissons Ratio (x) = 0.25334 0.46404
# Poissons Ratio (y) = 0.32467 0.21991
# Poissons Ratio (z) = 0.56877 0.21033
#
# Static dielectric constant tensor:
#      x y z
#    x 3.728580 0.000000 0.000000 
#    y 0.000000 3.458270 0.000000 
#    z 0.000000 0.000000 3.483080 
# 
# 
# High freq. dielectric constant tensor:
#      x y z
#    x 1.765000 0.000000 0.000000 
#    y 0.000000 1.751020 0.000000 
#    z 0.000000 0.000000 1.745170 
# 
# From -- ./inp_files/12646.got.cif
#   From: 2010.03.12/outbox.cif.g09.slc.cpg/sg39_7_cif.got.tgz:12646.got - 2010.04.14 02:53:20.
