data_PCOD8181113
_publ_section_title
;
Structure prediction by ZEFSAII (Michael W. Deem and Ramdas Pophale) SiO2 
 PCOD8181113
Probable space group: A B M 2
;
_chemical_formula_sum "Si O2"
_cell_formula_units_Z 64
_cell_length_a 14.308920
_cell_length_b 8.829851
_cell_length_c 30.957591
_cell_angle_alpha 90.000000
_cell_angle_beta 90.000000
_cell_angle_gamma 90.000000
_cell_volume 3911.356387
_symmetry_space_group_name_H-M "A B M 2"
_symmetry_group_IT_number 39
_symmetry_cell_setting 'orthorhombic'
loop_
_space_group_symop_operation_xyz
x,y,z
-x,-y,z
-x,1/2+y,z
x,1/2-y,z
x,1/2+y,1/2+z
-x,1/2-y,1/2+z
-x,y,1/2+z
x,-y,1/2+z
loop_
_atom_site_type_symbol
_atom_site_label
_atom_site_fract_x
_atom_site_fract_y
_atom_site_fract_z
Si Si1 0.898842 0.927676 0.537700
Si Si2 0.218645 0.570428 0.213432
Si Si3 0.789612 0.924251 0.377393
Si Si4 0.594152 0.427523 0.841145
Si Si5 0.595979 0.570455 0.242576
Si Si6 0.100095 0.574089 0.789164
Si Si7 0.101957 0.928174 0.453175
Si Si8 0.100269 0.573520 0.132494
O O1 0.904378 0.750000 0.528484
O O2 0.855017 0.962574 0.584979
O O3 0.847864 0.007658 0.496979
O O4 0.000000 0.000000 0.538479
O O5 0.227881 0.750000 0.216919
O O6 0.320311 0.495763 0.214225
O O7 0.154676 0.510999 0.251792
O O8 0.173028 0.517200 0.168294
O O9 0.796140 0.750000 0.392496
O O10 0.682317 0.974945 0.370235
O O11 0.844486 0.947823 0.333211
O O12 0.831579 0.032668 0.413434
O O13 0.500000 0.500000 0.860675
O O14 0.580435 0.250000 0.841269
O O15 0.611149 0.482620 0.792060
O O16 0.500000 0.500000 0.224529
O O17 0.593833 0.750000 0.237960
O O18 0.090347 0.750000 0.776822
O O19 0.000000 0.500000 0.795242
O O20 0.090075 0.750000 0.456669
O O21 0.000000 0.000000 0.445629
O O22 0.081587 0.750000 0.137176
O O23 0.000000 0.500000 0.140095
#
# Coordination Sequence:
#
# PCOD8181113 Si02
#       8
#     8   8   8   8   8   8   8   8
#     4   9  16  30  49  68  93 125 159 200 244 286
#     4  11  21  33  49  72  99 131 166 202 243 291
#     4  10  20  35  50  68  96 129 164 200 239 286
#     4   9  18  33  51  71  94 122 158 201 243 284
#     4  10  19  34  52  73  96 126 163 206 249 290
#     4  11  22  35  47  65  96 133 171 203 236 284
#     4  11  21  32  48  72  98 127 163 201 242 290
#     4   9  19  32  48  71  98 129 166 201 240 287
#
# _framework density 16.362611000000001
#
# number of rings (size 3 to 8) (size 9 to 14) (size 15 to 20)
#    0.000    2.000    1.250    4.125    0.000    5.500 
#    0.000    0.000    0.000    0.000    0.000    0.875 
#    0.000    4.000    0.000    0.000    0.000    0.000 
#
# Total GULP energy -396728.292995 kJ/mol
# GULP energy per Si atom -12397.759156 kJ/mol
# Density = 1.632537 g / cm^3
# Si number density = 16.362611 Si / 1000 Ang^3
#
#
#
# Elastic Constant Matrix: (Units=GPa)
#
#
# Indices 1 2 3 4 5 6 
#
# 1 100.2007 41.9761 41.2236 0.0000 0.0000 0.0000
# 2 41.9761 82.8705 43.9671 0.0000 0.0000 0.0000
# 3 41.2236 43.9671 96.1642 0.0000 0.0000 0.0000
# 4 0.0000 0.0000 0.0000 24.6902 0.0000 0.0000
# 5 0.0000 0.0000 0.0000 0.0000 -37.0723 0.0000
# 6 0.0000 0.0000 0.0000 0.0000 0.0000 28.0982
#
#
#
# Elastic Compliance Matrix: (Units=1/GPa)
#
#
# Indices 1 2 3 4 5 6 
#
# 1 0.013512 -0.004979 -0.003516 0.000000 0.000000 0.000000
# 2 -0.004979 0.017766 -0.005989 0.000000 0.000000 0.000000
# 3 -0.003516 -0.005989 0.014644 0.000000 0.000000 0.000000
# 4 0.000000 0.000000 0.000000 0.040502 0.000000 0.000000
# 5 0.000000 0.000000 0.000000 0.000000 -0.026974 0.000000
# 6 0.000000 0.000000 0.000000 0.000000 0.000000 0.035589
#
#
# Mechanical properties :
#
#
# Convention : Reuss Voigt Hill
#
# Bulk Modulus (GPa) = 58.97717 59.28545 59.13131
# Shear Modulus (GPa) = 38.56288 13.28113 25.92200
#
# Velocity S-wave (km/s) = 4.85992 2.85208 3.98455
# Velocity P-wave (km/s) = 8.22277 6.86708 7.57531
#
# Compressibility (1/GPa) = 0.01695571
#
# Stress axis : x y z
#
# Youngs Moduli (GPa) = 74.00689 56.28681 68.28673
#
# Poissons Ratio (x) = 0.28024 0.24010
# Poissons Ratio (y) = 0.36847 0.40894
# Poissons Ratio (z) = 0.26021 0.33707
#
# Static dielectric constant tensor:
#      x y z
#    x 3.061280 0.000000 0.000000 
#    y 0.000000 3.183530 0.000000 
#    z 0.000000 0.000000 3.726590 
# 
# 
# High freq. dielectric constant tensor:
#      x y z
#    x 1.609560 0.000000 0.000000 
#    y 0.000000 1.642220 0.000000 
#    z 0.000000 0.000000 1.622990 
# 
# From -- ./inp_files/17964.got.cif
#   From: 2010.03.12/outbox.cif.g09.slc.cpg/sg39_9_cif.got.tgz:17964.got - 2010.04.14 02:53:20.
