data_PCOD8181421
_publ_section_title
;
Structure prediction by ZEFSAII (Michael W. Deem and Ramdas Pophale) SiO2 
 PCOD8181421
Probable space group: A B M 2
;
_chemical_formula_sum "Si O2"
_cell_formula_units_Z 64
_cell_length_a 26.840903
_cell_length_b 9.376933
_cell_length_c 14.373523
_cell_angle_alpha 90.000000
_cell_angle_beta 90.000000
_cell_angle_gamma 90.000000
_cell_volume 3617.605154
_symmetry_space_group_name_H-M "A B M 2"
_symmetry_group_IT_number 39
_symmetry_cell_setting 'orthorhombic'
loop_
_space_group_symop_operation_xyz
x,y,z
-x,-y,z
-x,1/2+y,z
x,1/2-y,z
x,1/2+y,1/2+z
-x,1/2-y,1/2+z
-x,y,1/2+z
x,-y,1/2+z
loop_
_atom_site_type_symbol
_atom_site_label
_atom_site_fract_x
_atom_site_fract_y
_atom_site_fract_z
Si Si1 0.791703 0.082681 0.477890
Si Si2 0.869867 0.582999 0.131415
Si Si3 0.304010 0.086736 0.434969
Si Si4 0.050926 0.416263 0.977921
Si Si5 0.619701 0.413941 0.088150
Si Si6 0.546757 0.088516 0.690093
Si Si7 0.130091 0.417153 0.824508
Si Si8 0.348080 0.911117 0.743946
O O1 0.782795 0.250000 0.476912
O O2 0.821509 0.039161 0.571095
O O3 0.821871 0.037192 0.385246
O O4 0.738749 0.006902 0.480439
O O5 0.869065 0.750000 0.153934
O O6 0.918298 0.542948 0.070521
O O7 0.870527 0.499839 0.227878
O O8 0.286319 0.250000 0.438609
O O9 0.356605 0.068269 0.487094
O O10 0.315359 0.036729 0.330378
O O11 0.038853 0.250000 0.978199
O O12 0.000000 0.500000 0.978163
O O13 0.081406 0.456620 0.884902
O O14 0.608201 0.250000 0.112522
O O15 0.568734 0.507018 0.097739
O O16 0.661305 0.477452 0.160271
O O17 0.530726 0.250000 0.664617
O O18 0.591817 0.088162 0.765977
O O19 0.500000 0.000000 0.729689
O O20 0.131350 0.250000 0.802726
O O21 0.332582 0.750000 0.714733
#
# Coordination Sequence:
#
# PCOD8181421 Si02
#       8
#     8   8   8   8   8   8   8   8
#     4   9  20  36  52  72 101 135 169 210 257 306
#     4   9  19  36  54  74 103 137 173 212 256 307
#     4  10  20  35  53  75 103 134 169 212 256 302
#     4   9  19  35  53  76 107 139 171 212 259 305
#     4   9  18  32  51  74 101 130 164 205 248 296
#     4   9  17  32  54  74 101 135 167 204 251 300
#     4   9  19  36  54  74 103 136 173 214 255 304
#     4   8  18  34  50  70 101 133 162 201 249 298
#
# _framework density 17.691262999999999
#
# number of rings (size 3 to 8) (size 9 to 14) (size 15 to 20)
#    0.750    2.250    0.000    1.875    0.000    5.000 
#    0.000   10.625    0.000    1.500    0.000    0.000 
#    0.000    0.000    0.000    0.000    0.000    0.000 
#
# Total GULP energy -396491.297890 kJ/mol
# GULP energy per Si atom -12390.353059 kJ/mol
# Density = 1.765100 g / cm^3
# Si number density = 17.691263 Si / 1000 Ang^3
#
#
#
# Elastic Constant Matrix: (Units=GPa)
#
#
# Indices 1 2 3 4 5 6 
#
# 1 69.6058 31.6495 14.8097 0.0000 0.0000 0.0000
# 2 31.6495 76.5576 38.1958 0.0000 0.0000 0.0000
# 3 14.8097 38.1958 91.8904 0.0000 0.0000 0.0000
# 4 0.0000 0.0000 0.0000 31.1225 0.0000 0.0000
# 5 0.0000 0.0000 0.0000 0.0000 17.5109 0.0000
# 6 0.0000 0.0000 0.0000 0.0000 0.0000 34.9932
#
#
#
# Elastic Compliance Matrix: (Units=1/GPa)
#
#
# Indices 1 2 3 4 5 6 
#
# 1 0.017696 -0.007435 0.000238 0.000000 0.000000 0.000000
# 2 -0.007435 0.019603 -0.006950 0.000000 0.000000 0.000000
# 3 0.000238 -0.006950 0.013733 0.000000 0.000000 0.000000
# 4 0.000000 0.000000 0.000000 0.032131 0.000000 0.000000
# 5 0.000000 0.000000 0.000000 0.000000 0.057107 0.000000
# 6 0.000000 0.000000 0.000000 0.000000 0.000000 0.028577
#
#
# Mechanical properties :
#
#
# Convention : Reuss Voigt Hill
#
# Bulk Modulus (GPa) = 43.97635 45.26266 44.61950
# Shear Modulus (GPa) = 24.42346 26.95192 25.68769
#
# Velocity S-wave (km/s) = 3.71959 3.90739 3.81464
# Velocity P-wave (km/s) = 6.58474 6.78212 6.68416
#
# Compressibility (1/GPa) = 0.02273950
#
# Stress axis : x y z
#
# Youngs Moduli (GPa) = 56.50843 51.01209 72.81688
#
# Poissons Ratio (x) = 0.37926 -0.01735
# Poissons Ratio (y) = 0.42013 0.50609
# Poissons Ratio (z) = -0.01347 0.35454
#
# Static dielectric constant tensor:
#      x y z
#    x 3.174230 0.000000 0.000000 
#    y 0.000000 3.221870 0.000000 
#    z 0.000000 0.000000 3.110330 
# 
# 
# High freq. dielectric constant tensor:
#      x y z
#    x 1.677650 0.000000 0.000000 
#    y 0.000000 1.686100 0.000000 
#    z 0.000000 0.000000 1.669170 
# 
# From -- ./inp_files/7089.got.cif
#   From: 2010.03.12/outbox.cif.g09.slc.cpg/sg39_4_cif.got.tgz:7089.got - 2010.04.14 02:53:20.
