data_PCOD8181331
_publ_section_title
;
Structure prediction by ZEFSAII (Michael W. Deem and Ramdas Pophale) SiO2 
 PCOD8181331
Probable space group: A B M 2
;
_chemical_formula_sum "Si O2"
_cell_formula_units_Z 64
_cell_length_a 14.494577
_cell_length_b 8.909787
_cell_length_c 24.359210
_cell_angle_alpha 90.000000
_cell_angle_beta 90.000000
_cell_angle_gamma 90.000000
_cell_volume 3145.835920
_symmetry_space_group_name_H-M "A B M 2"
_symmetry_group_IT_number 39
_symmetry_cell_setting 'orthorhombic'
loop_
_space_group_symop_operation_xyz
x,y,z
-x,-y,z
-x,1/2+y,z
x,1/2-y,z
x,1/2+y,1/2+z
-x,1/2-y,1/2+z
-x,y,1/2+z
x,-y,1/2+z
loop_
_atom_site_type_symbol
_atom_site_label
_atom_site_fract_x
_atom_site_fract_y
_atom_site_fract_z
Si Si1 0.408723 0.575864 0.506780
Si Si2 0.905860 0.071999 0.458072
Si Si3 0.663043 0.415657 0.619827
Si Si4 0.275814 0.072977 0.427382
Si Si5 0.867074 0.918769 0.081880
Si Si6 0.707905 0.425604 0.225247
Si Si7 0.399644 0.926767 0.823893
Si Si8 0.909897 0.574363 0.690875
O O1 0.500000 0.500000 0.481621
O O2 0.404845 0.750000 0.489704
O O3 0.412595 0.554659 0.572789
O O4 0.320865 0.490317 0.482662
O O5 0.906751 0.250000 0.450899
O O6 0.894374 0.023505 0.521617
O O7 0.823921 0.004053 0.420955
O O8 0.000000 0.000000 0.435414
O O9 0.650053 0.250000 0.646298
O O10 0.757655 0.422433 0.586315
O O11 0.656755 0.538965 0.667664
O O12 0.262719 0.250000 0.431788
O O13 0.340816 0.026244 0.376834
O O14 0.904327 0.750000 0.092227
O O15 0.910651 0.028770 0.126922
O O16 0.699564 0.250000 0.237348
O O17 0.657844 0.517924 0.271941
O O18 0.815066 0.478654 0.220443
O O19 0.413319 0.750000 0.819566
O O20 0.500000 0.000000 0.826430
O O21 0.919643 0.750000 0.696005
O O22 0.000000 0.500000 0.719683
#
# Coordination Sequence:
#
# PCOD8181331 Si02
#       8
#     8   8   8   8   8   8   8   8
#     4  11  22  37  58  88 122 160 200 243 303 367
#     4  11  22  37  58  88 124 164 206 249 300 359
#     4   9  18  35  56  82 121 163 199 242 298 356
#     4  11  24  42  64  90 120 157 202 253 307 362
#     4   9  17  32  53  80 116 161 204 243 289 344
#     4  10  22  39  61  90 121 156 201 250 303 356
#     4  11  25  45  69  93 116 151 199 251 308 365
#     4  10  20  33  53  85 121 161 203 244 292 349
#
# _framework density 20.344356000000001
#
# number of rings (size 3 to 8) (size 9 to 14) (size 15 to 20)
#    0.000    1.750    1.250    3.000    0.000    8.000 
#    0.000    1.875    0.000    1.500    0.000    0.000 
#    0.000    0.000    0.000    0.000    0.000    0.000 
#
# Total GULP energy -396823.137848 kJ/mol
# GULP energy per Si atom -12400.723058 kJ/mol
# Density = 2.029805 g / cm^3
# Si number density = 20.344356 Si / 1000 Ang^3
#
#
#
# Elastic Constant Matrix: (Units=GPa)
#
#
# Indices 1 2 3 4 5 6 
#
# 1 144.7598 64.5935 51.2073 0.0000 0.0000 0.0000
# 2 64.5935 92.9727 45.6213 0.0000 0.0000 0.0000
# 3 51.2073 45.6213 83.3870 0.0000 0.0000 0.0000
# 4 0.0000 0.0000 0.0000 26.2176 0.0000 0.0000
# 5 0.0000 0.0000 0.0000 0.0000 23.5560 0.0000
# 6 0.0000 0.0000 0.0000 0.0000 0.0000 38.3894
#
#
#
# Elastic Compliance Matrix: (Units=1/GPa)
#
#
# Indices 1 2 3 4 5 6 
#
# 1 0.010679 -0.005743 -0.003416 0.000000 0.000000 0.000000
# 2 -0.005743 0.017792 -0.006207 0.000000 0.000000 0.000000
# 3 -0.003416 -0.006207 0.017486 0.000000 0.000000 0.000000
# 4 0.000000 0.000000 0.000000 0.038142 0.000000 0.000000
# 5 0.000000 0.000000 0.000000 0.000000 0.042452 0.000000
# 6 0.000000 0.000000 0.000000 0.000000 0.000000 0.026049
#
#
# Mechanical properties :
#
#
# Convention : Reuss Voigt Hill
#
# Bulk Modulus (GPa) = 65.68381 71.55152 68.61767
# Shear Modulus (GPa) = 26.53837 28.27911 27.40874
#
# Velocity S-wave (km/s) = 3.61565 3.73235 3.67446
# Velocity P-wave (km/s) = 7.05597 7.33624 7.19747
#
# Compressibility (1/GPa) = 0.01522445
#
# Stress axis : x y z
#
# Youngs Moduli (GPa) = 93.64208 56.20584 57.18934
#
# Poissons Ratio (x) = 0.32280 0.19534
# Poissons Ratio (y) = 0.53780 0.35498
# Poissons Ratio (z) = 0.31986 0.34887
#
# Static dielectric constant tensor:
#      x y z
#    x 3.946340 0.000000 0.000000 
#    y 0.000000 3.662930 0.000000 
#    z 0.000000 0.000000 3.469790 
# 
# 
# High freq. dielectric constant tensor:
#      x y z
#    x 1.807650 0.000000 0.000000 
#    y 0.000000 1.800430 0.000000 
#    z 0.000000 0.000000 1.769380 
# 
# From -- ./inp_files/16171.got.cif
#   From: 2010.03.12/outbox.cif.g09.slc.cpg/sg39_9_cif.got.tgz:16171.got - 2010.04.14 02:53:20.
