data_PCOD8181411
_publ_section_title
;
Structure prediction by ZEFSAII (Michael W. Deem and Ramdas Pophale) SiO2 
 PCOD8181411
Probable space group: A B M 2
;
_chemical_formula_sum "Si O2"
_cell_formula_units_Z 60
_cell_length_a 10.934596
_cell_length_b 15.348490
_cell_length_c 18.398193
_cell_angle_alpha 90.000000
_cell_angle_beta 90.000000
_cell_angle_gamma 90.000000
_cell_volume 3087.760219
_symmetry_space_group_name_H-M "A B M 2"
_symmetry_group_IT_number 39
_symmetry_cell_setting 'orthorhombic'
loop_
_space_group_symop_operation_xyz
x,y,z
-x,-y,z
-x,1/2+y,z
x,1/2-y,z
x,1/2+y,1/2+z
-x,1/2-y,1/2+z
-x,y,1/2+z
x,-y,1/2+z
loop_
_atom_site_type_symbol
_atom_site_label
_atom_site_fract_x
_atom_site_fract_y
_atom_site_fract_z
Si Si1 0.377003 0.045477 0.923160
Si Si2 0.860011 0.345815 0.253965
Si Si3 0.146682 0.349892 0.592327
Si Si4 0.115671 0.651450 0.534727
Si Si5 0.500000 0.000000 0.700315
Si Si6 0.118044 0.947509 0.393122
Si Si7 0.701047 0.983888 0.079535
Si Si8 0.586188 0.154865 0.293341
O O1 0.248484 0.999462 0.895270
O O2 0.386990 0.136467 0.878984
O O3 0.500000 0.000000 0.895901
O O4 0.378487 0.050380 0.010717
O O5 0.913021 0.250000 0.271772
O O6 0.899209 0.374836 0.173382
O O7 0.913577 0.412200 0.313224
O O8 0.714273 0.344598 0.251888
O O9 0.198270 0.250000 0.589725
O O10 0.248567 0.418259 0.564509
O O11 0.029151 0.359597 0.541909
O O12 0.157514 0.750000 0.552383
O O13 0.145147 0.629928 0.450602
O O14 0.187352 0.584865 0.588376
O O15 0.380475 0.985499 0.651262
O O16 0.503932 0.915793 0.751987
O O17 0.000000 0.000000 0.420424
O O18 0.523227 0.250000 0.287555
#
# Coordination Sequence:
#
# PCOD8181411 Si02
#       8
#     8   8   8   8   4   8   8   8
#     4  10  20  38  59  83 119 152 202 237 293 359
#     4   9  18  34  56  83 112 151 200 237 287 360
#     4  10  20  37  59  85 120 157 193 244 304 366
#     4  10  21  37  57  82 115 156 202 248 300 356
#     4  12  22  36  62  88 124 156 194 254 298 358
#     4  10  20  34  57  86 113 151 195 252 297 348
#     4  11  22  36  60  90 118 153 197 252 301 355
#     4  10  21  39  61  84 116 161 203 242 293 357
#
# _framework density 19.431560999999999
#
# number of rings (size 3 to 8) (size 9 to 14) (size 15 to 20)
#    0.000    1.867    2.667    2.400    0.000    4.800 
#    0.000    0.667    0.000    1.600    0.000    0.000 
#    0.000    0.000    0.000    0.000    0.000    0.000 
#
# Total GULP energy -371706.886470 kJ/mol
# GULP energy per Si atom -12390.229549 kJ/mol
# Density = 1.938733 g / cm^3
# Si number density = 19.431561 Si / 1000 Ang^3
#
#
#
# Elastic Constant Matrix: (Units=GPa)
#
#
# Indices 1 2 3 4 5 6 
#
# 1 91.1101 47.5726 19.5074 0.0000 0.0000 0.0000
# 2 47.5726 127.5582 44.3575 0.0000 0.0000 0.0000
# 3 19.5074 44.3575 100.0154 0.0000 0.0000 0.0000
# 4 0.0000 0.0000 0.0000 25.1304 0.0000 0.0000
# 5 0.0000 0.0000 0.0000 0.0000 20.7092 0.0000
# 6 0.0000 0.0000 0.0000 0.0000 0.0000 24.5808
#
#
#
# Elastic Compliance Matrix: (Units=1/GPa)
#
#
# Indices 1 2 3 4 5 6 
#
# 1 0.013649 -0.004924 -0.000478 0.000000 0.000000 0.000000
# 2 -0.004924 0.011046 -0.003938 0.000000 0.000000 0.000000
# 3 -0.000478 -0.003938 0.011838 0.000000 0.000000 0.000000
# 4 0.000000 0.000000 0.000000 0.039793 0.000000 0.000000
# 5 0.000000 0.000000 0.000000 0.000000 0.048288 0.000000
# 6 0.000000 0.000000 0.000000 0.000000 0.000000 0.040682
#
#
# Mechanical properties :
#
#
# Convention : Reuss Voigt Hill
#
# Bulk Modulus (GPa) = 56.01727 60.17316 58.09521
# Shear Modulus (GPa) = 26.32579 27.90048 27.11314
#
# Velocity S-wave (km/s) = 3.68475 3.79335 3.73944
# Velocity P-wave (km/s) = 6.85520 7.08660 6.97186
#
# Compressibility (1/GPa) = 0.01785164
#
# Stress axis : x y z
#
# Youngs Moduli (GPa) = 73.26415 90.53431 84.47058
#
# Poissons Ratio (x) = 0.44580 0.04040
# Poissons Ratio (y) = 0.36076 0.33267
# Poissons Ratio (z) = 0.03504 0.35656
#
# Static dielectric constant tensor:
#      x y z
#    x 3.540450 0.000000 0.000000 
#    y 0.000000 3.581680 0.000000 
#    z 0.000000 0.000000 3.480990 
# 
# 
# High freq. dielectric constant tensor:
#      x y z
#    x 1.744670 0.000000 0.000000 
#    y 0.000000 1.740310 0.000000 
#    z 0.000000 0.000000 1.762590 
# 
# From -- ./inp_files/12296.got.cif
#   From: 2010.03.12/outbox.cif.g09.slc.cpg/sg39_7_cif.got.tgz:12296.got - 2010.04.14 02:53:20.
