data_PCOD8181168
_publ_section_title
;
Structure prediction by ZEFSAII (Michael W. Deem and Ramdas Pophale) SiO2 
 PCOD8181168
Probable space group: A B M 2
;
_chemical_formula_sum "Si O2"
_cell_formula_units_Z 56
_cell_length_a 15.078429
_cell_length_b 9.313918
_cell_length_c 20.126675
_cell_angle_alpha 90.000000
_cell_angle_beta 90.000000
_cell_angle_gamma 90.000000
_cell_volume 2826.575168
_symmetry_space_group_name_H-M "A B M 2"
_symmetry_group_IT_number 39
_symmetry_cell_setting 'orthorhombic'
loop_
_space_group_symop_operation_xyz
x,y,z
-x,-y,z
-x,1/2+y,z
x,1/2-y,z
x,1/2+y,1/2+z
-x,1/2-y,1/2+z
-x,y,1/2+z
x,-y,1/2+z
loop_
_atom_site_type_symbol
_atom_site_label
_atom_site_fract_x
_atom_site_fract_y
_atom_site_fract_z
Si Si1 0.080838 0.090033 0.721940
Si Si2 0.587443 0.584494 0.444925
Si Si3 0.738860 0.916986 0.544872
Si Si4 0.276118 0.415758 0.692366
Si Si5 0.146758 0.410449 0.862555
Si Si6 0.311972 0.583776 0.815489
Si Si7 0.087797 0.918989 0.507693
O O1 0.068214 0.250000 0.694561
O O2 0.174681 0.028280 0.696897
O O3 0.077347 0.083924 0.802016
O O4 0.000000 0.000000 0.691497
O O5 0.500000 0.500000 0.465604
O O6 0.570452 0.750000 0.461465
O O7 0.669884 0.528956 0.489304
O O8 0.607372 0.560728 0.366896
O O9 0.764931 0.750000 0.534111
O O10 0.691512 0.937803 0.616899
O O11 0.826617 0.013393 0.543284
O O12 0.280523 0.250000 0.714651
O O13 0.334445 0.505034 0.745594
O O14 0.188301 0.250000 0.867556
O O15 0.224741 0.523160 0.850799
O O16 0.094818 0.449531 0.929195
O O17 0.296011 0.750000 0.800414
O O18 0.081887 0.750000 0.524120
O O19 0.000000 0.000000 0.534026
#
# Coordination Sequence:
#
# PCOD8181168 Si02
#       7
#     8   8   8   8   8   8   8
#     4   9  17  29  45  70 101 139 187 232 276 326
#     4  10  22  39  63  92 117 148 189 238 296 353
#     4  10  21  41  61  82 117 157 199 243 290 347
#     4   9  20  37  57  78 110 155 192 231 288 347
#     4   9  18  32  50  75 108 147 191 235 288 342
#     4  10  19  34  58  87 114 141 183 238 287 340
#     4  11  22  34  53  82 117 159 202 245 292 343
#
# _framework density 19.811962000000001
#
# number of rings (size 3 to 8) (size 9 to 14) (size 15 to 20)
#    0.000    2.286    1.429    2.143    0.000    5.714 
#    0.000    2.143    0.000    3.429    0.000    0.000 
#    0.000    0.000    0.000    0.000    0.000    0.000 
#
# Total GULP energy -347166.149119 kJ/mol
# GULP energy per Si atom -12398.791040 kJ/mol
# Density = 1.976687 g / cm^3
# Si number density = 19.811962 Si / 1000 Ang^3
#
#
#
# Elastic Constant Matrix: (Units=GPa)
#
#
# Indices 1 2 3 4 5 6 
#
# 1 80.0681 45.7454 24.6093 0.0000 0.0000 0.0000
# 2 45.7454 89.7442 38.3367 0.0000 0.0000 0.0000
# 3 24.6093 38.3367 95.9476 0.0000 0.0000 0.0000
# 4 0.0000 0.0000 0.0000 27.3070 0.0000 0.0000
# 5 0.0000 0.0000 0.0000 0.0000 9.9550 0.0000
# 6 0.0000 0.0000 0.0000 0.0000 0.0000 33.0814
#
#
#
# Elastic Compliance Matrix: (Units=1/GPa)
#
#
# Indices 1 2 3 4 5 6 
#
# 1 0.017722 -0.008551 -0.001129 0.000000 0.000000 0.000000
# 2 -0.008551 0.017562 -0.004824 0.000000 0.000000 0.000000
# 3 -0.001129 -0.004824 0.012639 0.000000 0.000000 0.000000
# 4 0.000000 0.000000 0.000000 0.036621 0.000000 0.000000
# 5 0.000000 0.000000 0.000000 0.000000 0.100452 0.000000
# 6 0.000000 0.000000 0.000000 0.000000 0.000000 0.030228
#
#
# Mechanical properties :
#
#
# Convention : Reuss Voigt Hill
#
# Bulk Modulus (GPa) = 52.86592 53.68252 53.27422
# Shear Modulus (GPa) = 19.95712 24.53992 22.24852
#
# Velocity S-wave (km/s) = 3.17728 3.52325 3.35473
# Velocity P-wave (km/s) = 6.34050 6.61104 6.47719
#
# Compressibility (1/GPa) = 0.01891578
#
# Stress axis : x y z
#
# Youngs Moduli (GPa) = 56.42751 56.94032 79.11845
#
# Poissons Ratio (x) = 0.48691 0.08930
# Poissons Ratio (y) = 0.48252 0.38166
# Poissons Ratio (z) = 0.06369 0.27467
#
# Static dielectric constant tensor:
#      x y z
#    x 3.197450 0.000000 0.000000 
#    y 0.000000 3.566580 0.000000 
#    z 0.000000 0.000000 3.737960 
# 
# 
# High freq. dielectric constant tensor:
#      x y z
#    x 1.736550 0.000000 0.000000 
#    y 0.000000 1.769850 0.000000 
#    z 0.000000 0.000000 1.779880 
# 
# From -- ./inp_files/14737.got.cif
#   From: 2010.03.12/outbox.cif.g09.slc.cpg/sg39_8_cif.got.tgz:14737.got - 2010.04.14 02:53:20.
