data_PCOD8181981
_publ_section_title
;
Structure prediction by ZEFSAII (Michael W. Deem and Ramdas Pophale) SiO2 
 PCOD8181981
Probable space group: A B M 2
;
_chemical_formula_sum "Si O2"
_cell_formula_units_Z 48
_cell_length_a 10.667436
_cell_length_b 17.624120
_cell_length_c 12.503421
_cell_angle_alpha 90.000000
_cell_angle_beta 90.000000
_cell_angle_gamma 90.000000
_cell_volume 2350.695314
_symmetry_space_group_name_H-M "A B M 2"
_symmetry_group_IT_number 39
_symmetry_cell_setting 'orthorhombic'
loop_
_space_group_symop_operation_xyz
x,y,z
-x,-y,z
-x,1/2+y,z
x,1/2-y,z
x,1/2+y,1/2+z
-x,1/2-y,1/2+z
-x,y,1/2+z
x,-y,1/2+z
loop_
_atom_site_type_symbol
_atom_site_label
_atom_site_fract_x
_atom_site_fract_y
_atom_site_fract_z
Si Si1 0.370954 0.834427 0.043620
Si Si2 0.000000 0.500000 0.522120
Si Si3 0.831237 0.094624 0.383960
Si Si4 0.923121 0.250000 0.430354
Si Si5 0.762899 0.539795 0.660280
Si Si6 0.239275 0.750000 0.640067
Si Si7 0.210701 0.750000 0.889236
Si Si8 0.635478 0.399514 0.563277
O O1 0.407051 0.750000 0.087065
O O2 0.290659 0.877487 0.132851
O O3 0.492218 0.887546 0.026536
O O4 0.289078 0.823884 0.933574
O O5 0.953619 0.432343 0.447659
O O6 0.887495 0.528725 0.593512
O O7 0.866519 0.181331 0.360279
O O8 0.804585 0.041723 0.282886
O O9 0.706601 0.088141 0.453210
O O10 0.873761 0.250000 0.553840
O O11 0.072707 0.250000 0.439914
O O12 0.661029 0.472890 0.638787
O O13 0.191585 0.750000 0.762053
O O14 0.321358 0.674933 0.626478
#
# Coordination Sequence:
#
# PCOD8181981 Si02
#       8
#     8   4   8   4   8   4   4   8
#     4  10  23  42  63  94 132 160 219 275 316 387
#     4  10  22  42  62  92 136 158 216 280 316 390
#     4  10  23  39  66  92 128 172 215 266 333 393
#     4  10  22  38  60  96 132 166 222 278 326 398
#     4  11  23  40  68  95 126 177 213 265 339 392
#     4  10  21  41  63  90 127 172 216 266 337 392
#     4  10  23  37  65  94 125 178 216 270 331 398
#     4  10  22  44  63  92 131 168 215 277 322 389
#
# _framework density 20.41949
#
# number of rings (size 3 to 8) (size 9 to 14) (size 15 to 20)
#    0.500    1.333    0.833    2.000    1.167   10.667 
#    0.000    3.333    0.000    0.000    0.000    0.000 
#    0.000    0.000    0.000    0.000    0.000    0.000 
#
# Total GULP energy -297447.274913 kJ/mol
# GULP energy per Si atom -12393.636455 kJ/mol
# Density = 2.037301 g / cm^3
# Si number density = 20.419490 Si / 1000 Ang^3
#
#
#
# Elastic Constant Matrix: (Units=GPa)
#
#
# Indices 1 2 3 4 5 6 
#
# 1 120.4107 37.7236 44.4744 0.0000 0.0000 0.0000
# 2 37.7236 120.9316 49.4273 0.0000 0.0000 0.0000
# 3 44.4744 49.4273 107.1530 0.0000 0.0000 0.0000
# 4 0.0000 0.0000 0.0000 41.9776 0.0000 0.0000
# 5 0.0000 0.0000 0.0000 0.0000 9.9464 0.0000
# 6 0.0000 0.0000 0.0000 0.0000 0.0000 24.4458
#
#
#
# Elastic Compliance Matrix: (Units=1/GPa)
#
#
# Indices 1 2 3 4 5 6 
#
# 1 0.010108 -0.001773 -0.003378 0.000000 0.000000 0.000000
# 2 -0.001773 0.010501 -0.004108 0.000000 0.000000 0.000000
# 3 -0.003378 -0.004108 0.012629 0.000000 0.000000 0.000000
# 4 0.000000 0.000000 0.000000 0.023822 0.000000 0.000000
# 5 0.000000 0.000000 0.000000 0.000000 0.100539 0.000000
# 6 0.000000 0.000000 0.000000 0.000000 0.000000 0.040907
#
#
# Mechanical properties :
#
#
# Convention : Reuss Voigt Hill
#
# Bulk Modulus (GPa) = 67.92790 67.97176 67.94983
# Shear Modulus (GPa) = 22.52959 29.73196 26.13078
#
# Velocity S-wave (km/s) = 3.32526 3.81997 3.58117
# Velocity P-wave (km/s) = 6.93408 7.26748 7.10274
#
# Compressibility (1/GPa) = 0.01472149
#
# Stress axis : x y z
#
# Youngs Moduli (GPa) = 98.93366 95.22719 79.18017
#
# Poissons Ratio (x) = 0.16879 0.26744
# Poissons Ratio (y) = 0.17536 0.32529
# Poissons Ratio (z) = 0.33416 0.39122
#
# Static dielectric constant tensor:
#      x y z
#    x 3.846510 0.000000 0.000000 
#    y 0.000000 3.859720 0.000000 
#    z 0.000000 0.000000 3.423630 
# 
# 
# High freq. dielectric constant tensor:
#      x y z
#    x 1.807680 0.000000 0.000000 
#    y 0.000000 1.809700 0.000000 
#    z 0.000000 0.000000 1.777290 
# 
# From -- ./inp_files/5884.got.cif
#   From: 2010.03.12/outbox.cif.g09.slc.cpg/sg39_3_cif.got.tgz:5884.got - 2010.04.14 02:53:20.
