data_PCOD8181765
_publ_section_title
;
Structure prediction by ZEFSAII (Michael W. Deem and Ramdas Pophale) SiO2 
 PCOD8181765
Probable space group: A B M 2
;
_chemical_formula_sum "Si O2"
_cell_formula_units_Z 48
_cell_length_a 11.951557
_cell_length_b 16.141937
_cell_length_c 11.939409
_cell_angle_alpha 90.000000
_cell_angle_beta 90.000000
_cell_angle_gamma 90.000000
_cell_volume 2303.366068
_symmetry_space_group_name_H-M "A B M 2"
_symmetry_group_IT_number 39
_symmetry_cell_setting 'orthorhombic'
loop_
_space_group_symop_operation_xyz
x,y,z
-x,-y,z
-x,1/2+y,z
x,1/2-y,z
x,1/2+y,1/2+z
-x,1/2-y,1/2+z
-x,y,1/2+z
x,-y,1/2+z
loop_
_atom_site_type_symbol
_atom_site_label
_atom_site_fract_x
_atom_site_fract_y
_atom_site_fract_z
Si Si1 0.793140 0.657437 0.542580
Si Si2 0.285407 0.153406 0.899955
Si Si3 0.595898 0.608759 0.678128
Si Si4 0.919483 0.348381 0.252997
Si Si5 0.831289 0.651246 0.298880
Si Si6 0.350520 0.581225 0.632420
O O1 0.837964 0.750000 0.523462
O O2 0.666318 0.661266 0.588009
O O3 0.871783 0.613189 0.636239
O O4 0.799922 0.614300 0.421230
O O5 0.287528 0.250000 0.935194
O O6 0.376908 0.136817 0.804001
O O7 0.162438 0.126600 0.855245
O O8 0.314959 0.095680 0.004528
O O9 0.465930 0.629060 0.658085
O O10 0.629173 0.514315 0.656350
O O11 0.916379 0.250000 0.242035
O O12 0.043893 0.381497 0.272887
O O13 0.823515 0.750000 0.291541
O O14 0.747626 0.613469 0.210228
#
# Coordination Sequence:
#
# PCOD8181765 Si02
#       6
#     8   8   8   8   8   8
#     4   9  19  37  61  84 115 157 198 247 301 359
#     4  10  22  41  65  90 121 161 205 253 304 362
#     4  10  24  42  60  84 125 164 198 248 315 361
#     4   8  17  36  60  87 119 157 196 246 312 361
#     4  10  21  35  61  93 118 152 205 254 296 365
#     4  11  25  38  63  89 121 162 205 249 302 365
#
# _framework density 20.839067
#
# number of rings (size 3 to 8) (size 9 to 14) (size 15 to 20)
#    0.000    2.333    0.000    2.000    7.000    4.000 
#    0.000    3.333    0.000    0.000    0.000    0.000 
#    0.000    0.000    0.000    0.000    0.000    0.000 
#
# Total GULP energy -297536.187379 kJ/mol
# GULP energy per Si atom -12397.341141 kJ/mol
# Density = 2.079164 g / cm^3
# Si number density = 20.839067 Si / 1000 Ang^3
#
#
#
# Elastic Constant Matrix: (Units=GPa)
#
#
# Indices 1 2 3 4 5 6 
#
# 1 174.3342 11.7201 78.2110 0.0000 0.0000 0.0000
# 2 11.7201 33.0838 6.7918 0.0000 0.0000 0.0000
# 3 78.2110 6.7918 137.3515 0.0000 0.0000 0.0000
# 4 0.0000 0.0000 0.0000 -29.5528 0.0000 0.0000
# 5 0.0000 0.0000 0.0000 0.0000 23.4064 0.0000
# 6 0.0000 0.0000 0.0000 0.0000 0.0000 45.0712
#
#
#
# Elastic Compliance Matrix: (Units=1/GPa)
#
#
# Indices 1 2 3 4 5 6 
#
# 1 0.007818 -0.001875 -0.004359 0.000000 0.000000 0.000000
# 2 -0.001875 0.030986 -0.000465 0.000000 0.000000 0.000000
# 3 -0.004359 -0.000465 0.009786 0.000000 0.000000 0.000000
# 4 0.000000 0.000000 0.000000 -0.033838 0.000000 0.000000
# 5 0.000000 0.000000 0.000000 0.000000 0.042723 0.000000
# 6 0.000000 0.000000 0.000000 0.000000 0.000000 0.022187
#
#
# Mechanical properties :
#
#
# Convention : Reuss Voigt Hill
#
# Bulk Modulus (GPa) = 28.41509 59.80168 44.10839
# Shear Modulus (GPa) = 47.71492 24.32139 36.01816
#
# Velocity S-wave (km/s) = 4.79026 3.42000 4.16191
# Velocity P-wave (km/s) = 6.65286 6.65991 6.65638
#
# Compressibility (1/GPa) = 0.03519257
#
# Stress axis : x y z
#
# Youngs Moduli (GPa) = 127.91614 32.27292 102.19110
#
# Poissons Ratio (x) = 0.06050 0.44543
# Poissons Ratio (y) = 0.23979 0.04750
# Poissons Ratio (z) = 0.55756 0.01500
#
# Static dielectric constant tensor:
#      x y z
#    x 4.048430 0.000000 0.000000 
#    y 0.000000 4.035220 0.000000 
#    z 0.000000 0.000000 3.927230 
# 
# 
# High freq. dielectric constant tensor:
#      x y z
#    x 1.822730 0.000000 0.000000 
#    y 0.000000 1.790220 0.000000 
#    z 0.000000 0.000000 1.826230 
# 
# From -- ./inp_files/5799.got.cif
#   From: 2010.03.12/outbox.cif.g09.slc.cpg/sg39_3_cif.got.tgz:5799.got - 2010.04.14 02:53:20.
