data_PCOD8181445
_publ_section_title
;
Structure prediction by ZEFSAII (Michael W. Deem and Ramdas Pophale) SiO2 
 PCOD8181445
Probable space group: A B M 2
;
_chemical_formula_sum "Si O2"
_cell_formula_units_Z 64
_cell_length_a 9.924685
_cell_length_b 31.541628
_cell_length_c 9.634387
_cell_angle_alpha 90.000000
_cell_angle_beta 90.000000
_cell_angle_gamma 90.000000
_cell_volume 3015.955465
_symmetry_space_group_name_H-M "A B M 2"
_symmetry_group_IT_number 39
_symmetry_cell_setting 'orthorhombic'
loop_
_space_group_symop_operation_xyz
x,y,z
-x,-y,z
-x,1/2+y,z
x,1/2-y,z
x,1/2+y,1/2+z
-x,1/2-y,1/2+z
-x,y,1/2+z
x,-y,1/2+z
loop_
_atom_site_type_symbol
_atom_site_label
_atom_site_fract_x
_atom_site_fract_y
_atom_site_fract_z
Si Si1 0.160007 0.578795 0.729530
Si Si2 0.665820 0.703174 0.559908
Si Si3 0.389567 0.859282 0.300615
Si Si4 0.645100 0.204773 0.519116
Si Si5 0.301237 0.337450 0.288956
Si Si6 0.348200 0.987636 0.599488
Si Si7 0.995541 0.950590 0.973867
Si Si8 0.268802 0.549287 0.316963
O O1 0.192572 0.628061 0.741916
O O2 0.294227 0.555316 0.671921
O O3 0.035345 0.572924 0.620198
O O4 0.128213 0.562794 0.887259
O O5 0.720557 0.750000 0.606739
O O6 0.674720 0.667207 0.675689
O O7 0.514508 0.709071 0.509458
O O8 0.749831 0.684860 0.429767
O O9 0.317112 0.837000 0.432076
O O10 0.550998 0.858189 0.305124
O O11 0.354690 0.908458 0.296055
O O12 0.704195 0.250000 0.462991
O O13 0.695830 0.199387 0.675057
O O14 0.334163 0.982321 0.433458
O O15 0.500000 0.000000 0.640316
O O16 0.258885 0.025610 0.667225
O O17 0.879248 0.938656 0.864646
O O18 0.000000 0.000000 0.009427
#
# Coordination Sequence:
#
# PCOD8181445 Si02
#       8
#     8   8   8   8   8   8   8   8
#     4  11  24  40  61  85 114 158 204 253 307 340
#     4   9  18  32  54  85 120 158 193 232 293 366
#     4  10  20  35  55  87 126 158 193 243 297 367
#     4   9  16  30  54  84 121 158 190 230 291 364
#     4  10  20  35  56  87 124 154 194 246 299 364
#     4  11  23  39  58  84 119 156 196 239 311 379
#     4  11  23  42  62  82 110 155 211 263 290 342
#     4  11  24  38  58  83 115 157 199 248 303 350
#
# _framework density 21.220471
#
# number of rings (size 3 to 8) (size 9 to 14) (size 15 to 20)
#    0.000    1.750    1.250    3.750    1.750    7.000 
#    0.000    0.000    0.000    0.000    0.000   15.750 
#    0.000    0.000    0.000    0.000    0.000    0.000 
#
# Total GULP energy -396526.995631 kJ/mol
# GULP energy per Si atom -12391.468613 kJ/mol
# Density = 2.117217 g / cm^3
# Si number density = 21.220471 Si / 1000 Ang^3
#
#
#
# Elastic Constant Matrix: (Units=GPa)
#
#
# Indices 1 2 3 4 5 6 
#
# 1 31.5125 8.6288 12.3885 0.0000 0.0000 0.0000
# 2 8.6288 129.5662 54.6583 0.0000 0.0000 0.0000
# 3 12.3885 54.6583 125.0044 0.0000 0.0000 0.0000
# 4 0.0000 0.0000 0.0000 193.4577 0.0000 0.0000
# 5 0.0000 0.0000 0.0000 0.0000 17.7048 0.0000
# 6 0.0000 0.0000 0.0000 0.0000 0.0000 -5.9588
#
#
#
# Elastic Compliance Matrix: (Units=1/GPa)
#
#
# Indices 1 2 3 4 5 6 
#
# 1 0.033127 -0.001007 -0.002843 0.000000 0.000000 0.000000
# 2 -0.001007 0.009494 -0.004052 0.000000 0.000000 0.000000
# 3 -0.002843 -0.004052 0.010053 0.000000 0.000000 0.000000
# 4 0.000000 0.000000 0.000000 0.005169 0.000000 0.000000
# 5 0.000000 0.000000 0.000000 0.000000 0.056482 0.000000
# 6 0.000000 0.000000 0.000000 0.000000 0.000000 -0.167820
#
#
# Mechanical properties :
#
#
# Convention : Reuss Voigt Hill
#
# Bulk Modulus (GPa) = 27.12120 48.60379 37.86250
# Shear Modulus (GPa) = -196.83316 55.06793 -70.88261
#
# Velocity S-wave (km/s) = -9.64145 5.09968 -5.78580
# Velocity P-wave (km/s) = 10.54206 7.59141 5.17231
#
# Compressibility (1/GPa) = 0.03687153
#
# Stress axis : x y z
#
# Youngs Moduli (GPa) = 30.18712 105.32619 99.47269
#
# Poissons Ratio (x) = 0.10606 0.28277
# Poissons Ratio (y) = 0.03040 0.40302
# Poissons Ratio (z) = 0.08581 0.42674
#
# Static dielectric constant tensor:
#      x y z
#    x 3.994510 0.000000 0.000000 
#    y 0.000000 3.540860 0.000000 
#    z 0.000000 0.000000 4.060500 
# 
# 
# High freq. dielectric constant tensor:
#      x y z
#    x 1.779110 0.000000 0.000000 
#    y 0.000000 1.833590 0.000000 
#    z 0.000000 0.000000 1.849050 
# 
# From -- ./inp_files/2919.got.cif
#   From: 2010.03.12/outbox.cif.g09.slc.cpg/sg39_2_cif.got.tgz:2919.got - 2010.04.14 02:53:20.
