data_PCOD8181572
_publ_section_title
;
Structure prediction by ZEFSAII (Michael W. Deem and Ramdas Pophale) SiO2 
 PCOD8181572
Probable space group: A B M 2
;
_chemical_formula_sum "Si O2"
_cell_formula_units_Z 64
_cell_length_a 11.332771
_cell_length_b 26.813497
_cell_length_c 9.828441
_cell_angle_alpha 90.000000
_cell_angle_beta 90.000000
_cell_angle_gamma 90.000000
_cell_volume 2986.580369
_symmetry_space_group_name_H-M "A B M 2"
_symmetry_group_IT_number 39
_symmetry_cell_setting 'orthorhombic'
loop_
_space_group_symop_operation_xyz
x,y,z
-x,-y,z
-x,1/2+y,z
x,1/2-y,z
x,1/2+y,1/2+z
-x,1/2-y,1/2+z
-x,y,1/2+z
x,-y,1/2+z
loop_
_atom_site_type_symbol
_atom_site_label
_atom_site_fract_x
_atom_site_fract_y
_atom_site_fract_z
Si Si1 0.135182 0.514165 0.322420
Si Si2 0.374424 0.193605 0.403930
Si Si3 0.171112 0.943968 0.050273
Si Si4 0.781150 0.333237 0.670749
Si Si5 0.239314 0.841973 0.148736
Si Si6 0.073230 0.104420 0.987926
Si Si7 0.640934 0.193822 0.408452
Si Si8 0.020161 0.194197 0.790483
O O1 0.187726 0.515609 0.170958
O O2 0.205620 0.472756 0.411404
O O3 0.146142 0.570216 0.382727
O O4 0.000000 0.500000 0.318466
O O5 0.373255 0.250000 0.345750
O O6 0.312131 0.157586 0.292720
O O7 0.306608 0.194820 0.547292
O O8 0.507506 0.174868 0.431110
O O9 0.252665 0.896304 0.078797
O O10 0.035385 0.926340 0.048658
O O11 0.839815 0.384317 0.615248
O O12 0.713932 0.306354 0.547820
O O13 0.887610 0.300941 0.734369
O O14 0.297521 0.841782 0.298215
O O15 0.103467 0.824682 0.166372
O O16 0.030265 0.155739 0.916172
O O17 0.641049 0.250000 0.351523
O O18 0.059442 0.250000 0.838265
#
# Coordination Sequence:
#
# PCOD8181572 Si02
#       8
#     8   8   8   8   8   8   8   8
#     4  10  20  36  60  84 122 166 207 255 315 383
#     4  11  25  41  60  88 123 172 233 277 309 369
#     4  11  22  38  60  93 124 166 206 263 328 388
#     4  12  23  38  61  90 126 169 219 261 326 380
#     4  12  23  41  62  92 133 168 209 266 335 391
#     4  11  21  40  58  89 132 167 213 252 317 395
#     4  11  23  42  63  85 122 177 232 273 308 368
#     4  12  24  36  59  93 138 176 204 249 325 409
#
# _framework density 21.429192
#
# number of rings (size 3 to 8) (size 9 to 14) (size 15 to 20)
#    0.000    0.750    3.750    4.875    0.000    6.000 
#    0.000    0.000    0.000    0.000    0.000   14.875 
#    0.000    0.000    0.000    0.000    0.000    0.000 
#
# Total GULP energy -396769.998294 kJ/mol
# GULP energy per Si atom -12399.062447 kJ/mol
# Density = 2.138042 g / cm^3
# Si number density = 21.429192 Si / 1000 Ang^3
#
#
#
# Elastic Constant Matrix: (Units=GPa)
#
#
# Indices 1 2 3 4 5 6 
#
# 1 109.0462 18.6285 44.5460 0.0000 0.0000 0.0000
# 2 18.6285 92.9733 30.3749 0.0000 0.0000 0.0000
# 3 44.5460 30.3749 118.5790 0.0000 0.0000 0.0000
# 4 0.0000 0.0000 0.0000 37.2090 0.0000 0.0000
# 5 0.0000 0.0000 0.0000 0.0000 28.4174 0.0000
# 6 0.0000 0.0000 0.0000 0.0000 0.0000 15.4541
#
#
#
# Elastic Compliance Matrix: (Units=1/GPa)
#
#
# Indices 1 2 3 4 5 6 
#
# 1 0.010905 -0.000924 -0.003860 0.000000 0.000000 0.000000
# 2 -0.000924 0.011816 -0.002680 0.000000 0.000000 0.000000
# 3 -0.003860 -0.002680 0.010570 0.000000 0.000000 0.000000
# 4 0.000000 0.000000 0.000000 0.026875 0.000000 0.000000
# 5 0.000000 0.000000 0.000000 0.000000 0.035190 0.000000
# 6 0.000000 0.000000 0.000000 0.000000 0.000000 0.064708
#
#
# Mechanical properties :
#
#
# Convention : Reuss Voigt Hill
#
# Bulk Modulus (GPa) = 54.45487 56.41080 55.43284
# Shear Modulus (GPa) = 27.60714 31.35270 29.47992
#
# Velocity S-wave (km/s) = 3.59318 3.82918 3.71305
# Velocity P-wave (km/s) = 6.53309 6.77728 6.65631
#
# Compressibility (1/GPa) = 0.01836383
#
# Stress axis : x y z
#
# Youngs Moduli (GPa) = 91.70031 84.62816 94.60999
#
# Poissons Ratio (x) = 0.07819 0.36519
# Poissons Ratio (y) = 0.08472 0.25353
# Poissons Ratio (z) = 0.35396 0.22678
#
# Static dielectric constant tensor:
#      x y z
#    x 3.717780 0.000000 0.000000 
#    y 0.000000 3.845680 0.000000 
#    z 0.000000 0.000000 4.073650 
# 
# 
# High freq. dielectric constant tensor:
#      x y z
#    x 1.805020 0.000000 0.000000 
#    y 0.000000 1.827820 0.000000 
#    z 0.000000 0.000000 1.858270 
# 
# From -- ./inp_files/2925.got.cif
#   From: 2010.03.12/outbox.cif.g09.slc.cpg/sg39_2_cif.got.tgz:2925.got - 2010.04.14 02:53:20.
