data_PCOD8181881
_publ_section_title
;
Structure prediction by ZEFSAII (Michael W. Deem and Ramdas Pophale) SiO2 
 PCOD8181881
Probable space group: A B M 2
;
_chemical_formula_sum "Si O2"
_cell_formula_units_Z 32
_cell_length_a 8.954964
_cell_length_b 16.339944
_cell_length_c 8.861078
_cell_angle_alpha 90.000000
_cell_angle_beta 90.000000
_cell_angle_gamma 90.000000
_cell_volume 1296.584924
_symmetry_space_group_name_H-M "A B M 2"
_symmetry_group_IT_number 39
_symmetry_cell_setting 'orthorhombic'
loop_
_space_group_symop_operation_xyz
x,y,z
-x,-y,z
-x,1/2+y,z
x,1/2-y,z
x,1/2+y,1/2+z
-x,1/2-y,1/2+z
-x,y,1/2+z
x,-y,1/2+z
loop_
_atom_site_type_symbol
_atom_site_label
_atom_site_fract_x
_atom_site_fract_y
_atom_site_fract_z
Si Si1 0.030009 0.092775 0.049510
Si Si2 0.680617 0.082533 0.392285
Si Si3 0.210253 0.599785 0.843285
Si Si4 0.473350 0.157896 0.163730
O O1 0.070376 0.097943 0.224961
O O2 0.168220 0.126580 0.949917
O O3 0.000000 0.000000 0.999649
O O4 0.871114 0.133717 0.996894
O O5 0.625217 0.125277 0.239579
O O6 0.558891 0.096645 0.525067
O O7 0.705653 0.987000 0.360665
O O8 0.337657 0.660610 0.785362
O O9 0.497233 0.250000 0.103925
#
# Coordination Sequence:
#
# PCOD8181881 Si02
#       4
#     8   8   8   8
#     4   9  18  35  60  91 120 151 202 261 309 360
#     4  10  22  39  62  88 123 168 212 258 312 372
#     4  10  21  38  63  91 121 160 206 256 311 372
#     4  11  24  42  61  92 132 169 208 259 316 378
#
# _framework density 24.680219000000001
#
# number of rings (size 3 to 8) (size 9 to 14) (size 15 to 20)
#    0.000    2.000    0.000    3.750    0.000   12.000 
#    0.000    6.250    0.000    0.000    0.000    0.000 
#    0.000    0.000    0.000    0.000    0.000    0.000 
#
# Total GULP energy -198221.407395 kJ/mol
# GULP energy per Si atom -12388.837962 kJ/mol
# Density = 2.462405 g / cm^3
# Si number density = 24.680219 Si / 1000 Ang^3
#
#
#
# Elastic Constant Matrix: (Units=GPa)
#
#
# Indices 1 2 3 4 5 6 
#
# 1 60.5053 25.0121 55.0877 0.0000 0.0000 0.0000
# 2 25.0121 64.6453 32.8129 0.0000 0.0000 0.0000
# 3 55.0877 32.8129 96.1292 0.0000 0.0000 0.0000
# 4 0.0000 0.0000 0.0000 20.4863 0.0000 0.0000
# 5 0.0000 0.0000 0.0000 0.0000 78.2063 0.0000
# 6 0.0000 0.0000 0.0000 0.0000 0.0000 13.9281
#
#
#
# Elastic Compliance Matrix: (Units=1/GPa)
#
#
# Indices 1 2 3 4 5 6 
#
# 1 0.035441 -0.004117 -0.018905 0.000000 0.000000 0.000000
# 2 -0.004117 0.019189 -0.004191 0.000000 0.000000 0.000000
# 3 -0.018905 -0.004191 0.022667 0.000000 0.000000 0.000000
# 4 0.000000 0.000000 0.000000 0.048813 0.000000 0.000000
# 5 0.000000 0.000000 0.000000 0.000000 0.012787 0.000000
# 6 0.000000 0.000000 0.000000 0.000000 0.000000 0.071797
#
#
# Mechanical properties :
#
#
# Convention : Reuss Voigt Hill
#
# Bulk Modulus (GPa) = 43.72117 49.67836 46.69977
# Shear Modulus (GPa) = 18.33224 29.74860 24.04042
#
# Velocity S-wave (km/s) = 2.72838 3.47560 3.12441
# Velocity P-wave (km/s) = 5.26107 6.02320 5.65499
#
# Compressibility (1/GPa) = 0.02287222
#
# Stress axis : x y z
#
# Youngs Moduli (GPa) = 28.21556 52.11289 44.11768
#
# Poissons Ratio (x) = 0.21455 0.83403
# Poissons Ratio (y) = 0.11617 0.18488
# Poissons Ratio (z) = 0.53341 0.21839
#
# Static dielectric constant tensor:
#      x y z
#    x 4.897580 0.000000 0.000000 
#    y 0.000000 3.726190 0.000000 
#    z 0.000000 0.000000 4.562550 
# 
# 
# High freq. dielectric constant tensor:
#      x y z
#    x 2.004020 0.000000 0.000000 
#    y 0.000000 1.917790 0.000000 
#    z 0.000000 0.000000 1.991040 
# 
# From -- ./inp_files/1989.got.cif
#   From: 2010.03.12/outbox.cif.g09.slc.cpg/sg39_1_cif.got.tgz:1989.got - 2010.04.14 02:53:20.
