data_PCOD8181655
_publ_section_title
;
Structure prediction by ZEFSAII (Michael W. Deem and Ramdas Pophale) SiO2 
 PCOD8181655
Probable space group: A B M 2
;
_chemical_formula_sum "Si O2"
_cell_formula_units_Z 64
_cell_length_a 15.443370
_cell_length_b 8.581164
_cell_length_c 23.824843
_cell_angle_alpha 90.000000
_cell_angle_beta 90.000000
_cell_angle_gamma 90.000000
_cell_volume 3157.318005
_symmetry_space_group_name_H-M "A B M 2"
_symmetry_group_IT_number 39
_symmetry_cell_setting 'orthorhombic'
loop_
_space_group_symop_operation_xyz
x,y,z
-x,-y,z
-x,1/2+y,z
x,1/2-y,z
x,1/2+y,1/2+z
-x,1/2-y,1/2+z
-x,y,1/2+z
x,-y,1/2+z
loop_
_atom_site_type_symbol
_atom_site_label
_atom_site_fract_x
_atom_site_fract_y
_atom_site_fract_z
Si Si1 0.254572 0.433431 0.842220
Si Si2 0.591330 0.433235 0.543102
Si Si3 0.749781 0.564962 0.970204
Si Si4 0.649758 0.068483 0.159155
Si Si5 0.411415 0.433743 0.273492
Si Si6 0.908011 0.069369 0.780598
Si Si7 0.091571 0.066278 0.042740
Si Si8 0.165105 0.429612 0.160680
O O1 0.272606 0.250000 0.837251
O O2 0.250615 0.491414 0.906267
O O3 0.331666 0.526638 0.813393
O O4 0.164280 0.472981 0.813217
O O5 0.500000 0.500000 0.522799
O O6 0.587402 0.250000 0.537856
O O7 0.665552 0.501808 0.502241
O O8 0.611640 0.476452 0.606793
O O9 0.750387 0.750000 0.974075
O O10 0.835214 0.498703 0.001082
O O11 0.635122 0.250000 0.148907
O O12 0.597839 0.015793 0.213613
O O13 0.750600 0.034397 0.168463
O O14 0.500000 0.500000 0.300882
O O15 0.416013 0.250000 0.265343
O O16 0.902275 0.250000 0.797727
O O17 0.896431 0.047258 0.714017
O O18 0.000000 0.000000 0.798646
O O19 0.087147 0.250000 0.038807
O O20 0.112993 0.012841 0.106155
O O21 0.000000 0.000000 0.023262
O O22 0.194955 0.250000 0.154108
#
# Coordination Sequence:
#
# PCOD8181655 Si02
#       8
#     8   8   8   8   8   8   8   8
#     4  11  23  42  65  92 123 161 210 260 311 367
#     4  11  22  41  64  90 125 162 201 248 303 365
#     4   9  21  41  64  86 121 165 203 250 308 361
#     4  12  23  37  62  95 126 160 201 248 304 366
#     4  12  25  43  65  92 125 163 204 251 310 370
#     4  11  23  39  62  92 125 166 207 254 311 369
#     4  10  20  38  61  89 121 161 200 245 301 359
#     4  10  20  37  62  88 124 162 199 246 308 371
#
# _framework density 20.270368000000001
#
# number of rings (size 3 to 8) (size 9 to 14) (size 15 to 20)
#    0.000    1.250    2.500    4.125    0.000    2.000 
#    0.000    6.250    0.000    0.000    0.000    0.000 
#    0.000    0.000    0.000    0.000    0.000    0.000 
#
# Total GULP energy -396971.260883 kJ/mol
# GULP energy per Si atom -12405.351903 kJ/mol
# Density = 2.022423 g / cm^3
# Si number density = 20.270368 Si / 1000 Ang^3
#
#
#
# Elastic Constant Matrix: (Units=GPa)
#
#
# Indices 1 2 3 4 5 6 
#
# 1 162.0815 22.3873 48.3090 0.0000 0.0000 0.0000
# 2 22.3873 53.7409 8.8220 0.0000 0.0000 0.0000
# 3 48.3090 8.8220 121.9256 0.0000 0.0000 0.0000
# 4 0.0000 0.0000 0.0000 21.8515 0.0000 0.0000
# 5 0.0000 0.0000 0.0000 0.0000 -49.0061 0.0000
# 6 0.0000 0.0000 0.0000 0.0000 0.0000 36.3497
#
#
#
# Elastic Compliance Matrix: (Units=1/GPa)
#
#
# Indices 1 2 3 4 5 6 
#
# 1 0.007341 -0.002612 -0.002720 0.000000 0.000000 0.000000
# 2 -0.002612 0.019761 -0.000395 0.000000 0.000000 0.000000
# 3 -0.002720 -0.000395 0.009308 0.000000 0.000000 0.000000
# 4 0.000000 0.000000 0.000000 0.045763 0.000000 0.000000
# 5 0.000000 0.000000 0.000000 0.000000 -0.020406 0.000000
# 6 0.000000 0.000000 0.000000 0.000000 0.000000 0.027511
#
#
# Mechanical properties :
#
#
# Convention : Reuss Voigt Hill
#
# Bulk Modulus (GPa) = 40.06913 55.19828 47.63370
# Shear Modulus (GPa) = 45.85067 19.05433 32.45250
#
# Velocity S-wave (km/s) = 4.76116 3.06928 4.00557
# Velocity P-wave (km/s) = 7.07355 6.31275 6.70395
#
# Compressibility (1/GPa) = 0.02495687
#
# Stress axis : x y z
#
# Youngs Moduli (GPa) = 136.21959 50.60568 107.43568
#
# Poissons Ratio (x) = 0.13217 0.29219
# Poissons Ratio (y) = 0.35576 0.04244
# Poissons Ratio (z) = 0.37048 0.01999
#
# Static dielectric constant tensor:
#      x y z
#    x 4.500920 0.000000 0.000000 
#    y 0.000000 3.565090 0.000000 
#    z 0.000000 0.000000 3.789720 
# 
# 
# High freq. dielectric constant tensor:
#      x y z
#    x 1.807940 0.000000 0.000000 
#    y 0.000000 1.783920 0.000000 
#    z 0.000000 0.000000 1.790170 
# 
# From -- ./inp_files/16167.got.cif
#   From: 2010.03.12/outbox.cif.g09.slc.cpg/sg39_9_cif.got.tgz:16167.got - 2010.04.14 02:53:20.
