data_PCOD8181970
_publ_section_title
;
Structure prediction by ZEFSAII (Michael W. Deem and Ramdas Pophale) SiO2 
 PCOD8181970
Probable space group: A B M 2
;
_chemical_formula_sum "Si O2"
_cell_formula_units_Z 64
_cell_length_a 11.319916
_cell_length_b 24.378443
_cell_length_c 10.941368
_cell_angle_alpha 90.000000
_cell_angle_beta 90.000000
_cell_angle_gamma 90.000000
_cell_volume 3019.400997
_symmetry_space_group_name_H-M "A B M 2"
_symmetry_group_IT_number 39
_symmetry_cell_setting 'orthorhombic'
loop_
_space_group_symop_operation_xyz
x,y,z
-x,-y,z
-x,1/2+y,z
x,1/2-y,z
x,1/2+y,1/2+z
-x,1/2-y,1/2+z
-x,y,1/2+z
x,-y,1/2+z
loop_
_atom_site_type_symbol
_atom_site_label
_atom_site_fract_x
_atom_site_fract_y
_atom_site_fract_z
Si Si1 0.457032 0.872399 0.334260
Si Si2 0.540502 0.187777 0.596716
Si Si3 0.040456 0.187865 0.734073
Si Si4 0.244641 0.953986 0.300498
Si Si5 0.702061 0.077601 0.846571
Si Si6 0.796354 0.651828 0.146401
Si Si7 0.067021 0.394085 0.940194
Si Si8 0.835832 0.099627 0.076331
O O1 0.472454 0.839822 0.462547
O O2 0.459947 0.836817 0.207647
O O3 0.338409 0.907598 0.339474
O O4 0.565122 0.914032 0.321070
O O5 0.499421 0.250000 0.579928
O O6 0.677036 0.187075 0.640416
O O7 0.086298 0.250000 0.749152
O O8 0.025604 0.159736 0.865796
O O9 0.138834 0.155147 0.653998
O O10 0.910879 0.189263 0.673275
O O11 0.114384 0.941768 0.353363
O O12 0.221564 0.949711 0.155356
O O13 0.282891 0.012595 0.348611
O O14 0.785398 0.103034 0.743644
O O15 0.739404 0.108673 0.970875
O O16 0.819060 0.622380 0.018796
O O17 0.960157 0.419152 0.018502
#
# Coordination Sequence:
#
# PCOD8181970 Si02
#       8
#     8   8   8   8   8   8   8   8
#     4  11  24  45  68  98 134 166 234 273 321 412
#     4  11  23  42  69  95 133 174 212 275 340 388
#     4  10  21  40  67  95 131 176 216 263 331 392
#     4  11  24  43  67  95 127 178 218 270 334 384
#     4  11  24  42  67  94 131 174 215 276 335 381
#     4  10  21  41  60  95 130 167 217 266 312 408
#     4  10  21  42  62  95 133 166 218 270 317 398
#     4  10  23  43  60  99 136 162 225 270 321 400
#
# _framework density 21.196258
#
# number of rings (size 3 to 8) (size 9 to 14) (size 15 to 20)
#    0.000    1.500    2.500    1.875    1.750    3.000 
#    2.250    6.875    0.000    0.000    0.000    0.000 
#    0.000    0.000    0.000    0.000    0.000    0.000 
#
# Total GULP energy -396623.569524 kJ/mol
# GULP energy per Si atom -12394.486548 kJ/mol
# Density = 2.114801 g / cm^3
# Si number density = 21.196258 Si / 1000 Ang^3
#
#
#
# Elastic Constant Matrix: (Units=GPa)
#
#
# Indices 1 2 3 4 5 6 
#
# 1 63.1009 24.9194 21.3978 0.0000 0.0000 0.0000
# 2 24.9194 113.0421 43.6649 0.0000 0.0000 0.0000
# 3 21.3978 43.6649 129.4611 0.0000 0.0000 0.0000
# 4 0.0000 0.0000 0.0000 18.1980 0.0000 0.0000
# 5 0.0000 0.0000 0.0000 0.0000 34.7323 0.0000
# 6 0.0000 0.0000 0.0000 0.0000 0.0000 19.4662
#
#
#
# Elastic Compliance Matrix: (Units=1/GPa)
#
#
# Indices 1 2 3 4 5 6 
#
# 1 0.017738 -0.003194 -0.001855 0.000000 0.000000 0.000000
# 2 -0.003194 0.010746 -0.003097 0.000000 0.000000 0.000000
# 3 -0.001855 -0.003097 0.009075 0.000000 0.000000 0.000000
# 4 0.000000 0.000000 0.000000 0.054951 0.000000 0.000000
# 5 0.000000 0.000000 0.000000 0.000000 0.028792 0.000000
# 6 0.000000 0.000000 0.000000 0.000000 0.000000 0.051371
#
#
# Mechanical properties :
#
#
# Convention : Reuss Voigt Hill
#
# Bulk Modulus (GPa) = 47.01579 53.95202 50.48391
# Shear Modulus (GPa) = 25.50324 28.85409 27.17867
#
# Velocity S-wave (km/s) = 3.47247 3.69356 3.58472
# Velocity P-wave (km/s) = 6.18925 6.61050 6.40334
#
# Compressibility (1/GPa) = 0.02126945
#
# Stress axis : x y z
#
# Youngs Moduli (GPa) = 56.37675 93.05368 110.18895
#
# Poissons Ratio (x) = 0.29720 0.20435
# Poissons Ratio (y) = 0.18006 0.34122
# Poissons Ratio (z) = 0.10455 0.28816
#
# Static dielectric constant tensor:
#      x y z
#    x 3.835960 0.000000 0.000000 
#    y 0.000000 3.463010 0.000000 
#    z 0.000000 0.000000 4.122830 
# 
# 
# High freq. dielectric constant tensor:
#      x y z
#    x 1.837460 0.000000 0.000000 
#    y 0.000000 1.806570 0.000000 
#    z 0.000000 0.000000 1.851240 
# 
# From -- ./inp_files/6067.got.cif
#   From: 2010.03.12/outbox.cif.g09.slc.cpg/sg39_4_cif.got.tgz:6067.got - 2010.04.14 02:53:20.
