data_PCOD8181888
_publ_section_title
;
Structure prediction by ZEFSAII (Michael W. Deem and Ramdas Pophale) SiO2 
 PCOD8181888
Probable space group: A B M 2
;
_chemical_formula_sum "Si O2"
_cell_formula_units_Z 64
_cell_length_a 9.302061
_cell_length_b 16.888798
_cell_length_c 19.408661
_cell_angle_alpha 90.000000
_cell_angle_beta 90.000000
_cell_angle_gamma 90.000000
_cell_volume 3049.112855
_symmetry_space_group_name_H-M "A B M 2"
_symmetry_group_IT_number 39
_symmetry_cell_setting 'orthorhombic'
loop_
_space_group_symop_operation_xyz
x,y,z
-x,-y,z
-x,1/2+y,z
x,1/2-y,z
x,1/2+y,1/2+z
-x,1/2-y,1/2+z
-x,y,1/2+z
x,-y,1/2+z
loop_
_atom_site_type_symbol
_atom_site_label
_atom_site_fract_x
_atom_site_fract_y
_atom_site_fract_z
Si Si1 0.210763 0.155746 0.621730
Si Si2 0.110128 0.071016 0.484674
Si Si3 0.883982 0.843197 0.901435
Si Si4 0.461297 0.343732 0.132619
Si Si5 0.038705 0.156268 0.754099
Si Si6 0.383978 0.343196 0.985283
Si Si7 0.610127 0.071016 0.902045
Si Si8 0.289238 0.844254 0.764988
O O1 0.196031 0.250000 0.610610
O O2 0.149715 0.110743 0.556315
O O3 0.373779 0.129262 0.635165
O O4 0.120892 0.124496 0.687226
O O5 0.250002 0.040626 0.443361
O O6 0.033909 0.137340 0.437980
O O7 0.000000 0.000000 0.497486
O O8 0.867505 0.750000 0.897836
O O9 0.750002 0.880491 0.943359
O O10 0.886114 0.878031 0.823477
O O11 0.451786 0.250000 0.131122
O O12 0.379110 0.375503 0.199491
O O13 0.386112 0.378029 0.063241
O O14 0.048228 0.250000 0.755596
O O15 0.873779 0.129266 0.751550
O O16 0.367496 0.250000 0.988880
O O17 0.533907 0.362657 0.948735
O O18 0.649721 0.110739 0.830402
O O19 0.500000 0.000000 0.889233
O O20 0.303974 0.750000 0.776109
#
# Coordination Sequence:
#
# PCOD8181888 Si02
#       8
#     8   8   8   8   8   8   8   8
#     4  10  21  39  65  94 125 160 203 255 315 376
#     4  12  25  43  62  87 123 171 215 260 310 367
#     4  10  21  38  65  96 124 158 206 260 315 375
#     4   9  19  36  61  95 126 155 197 255 311 367
#     4   9  19  36  61  95 126 155 197 255 311 367
#     4  10  21  38  65  96 124 158 206 260 315 375
#     4  12  25  43  62  87 123 171 215 260 310 367
#     4  10  21  39  65  94 125 160 203 255 315 376
#
# _framework density 20.989711
#
# number of rings (size 3 to 8) (size 9 to 14) (size 15 to 20)
#    0.000    1.750    2.500    1.500    3.500    1.000 
#    0.000    2.500    0.000    0.000    0.000    0.000 
#    0.000    0.000    0.000    0.000    0.000    0.000 
#
# Total GULP energy -396790.039186 kJ/mol
# GULP energy per Si atom -12399.688725 kJ/mol
# Density = 2.094194 g / cm^3
# Si number density = 20.989711 Si / 1000 Ang^3
#
#
#
# Elastic Constant Matrix: (Units=GPa)
#
#
# Indices 1 2 3 4 5 6 
#
# 1 157.7714 44.2691 102.8200 0.0000 0.0000 0.0000
# 2 44.2691 30.2929 47.7729 0.0000 0.0000 0.0000
# 3 102.8200 47.7729 224.0753 0.0000 0.0000 0.0000
# 4 0.0000 0.0000 0.0000 11.3277 0.0000 0.0000
# 5 0.0000 0.0000 0.0000 0.0000 51.4897 0.0000
# 6 0.0000 0.0000 0.0000 0.0000 0.0000 11.5414
#
#
#
# Elastic Compliance Matrix: (Units=1/GPa)
#
#
# Indices 1 2 3 4 5 6 
#
# 1 0.011661 -0.012961 -0.002588 0.000000 0.000000 0.000000
# 2 -0.012961 0.064137 -0.007727 0.000000 0.000000 0.000000
# 3 -0.002588 -0.007727 0.007298 0.000000 0.000000 0.000000
# 4 0.000000 0.000000 0.000000 0.088279 0.000000 0.000000
# 5 0.000000 0.000000 0.000000 0.000000 0.019421 0.000000
# 6 0.000000 0.000000 0.000000 0.000000 0.000000 0.086644
#
#
# Mechanical properties :
#
#
# Convention : Reuss Voigt Hill
#
# Bulk Modulus (GPa) = 27.36328 89.09598 58.22963
# Shear Modulus (GPa) = 14.87330 29.35692 22.11511
#
# Velocity S-wave (km/s) = 2.66484 3.74389 3.24947
# Velocity P-wave (km/s) = 4.74693 7.82487 6.47155
#
# Compressibility (1/GPa) = 0.03654532
#
# Stress axis : x y z
#
# Youngs Moduli (GPa) = 85.75338 15.59169 137.03148
#
# Poissons Ratio (x) = 0.20208 0.35461
# Poissons Ratio (y) = 1.11141 1.05882
# Poissons Ratio (z) = 0.22191 0.12047
#
# Static dielectric constant tensor:
#      x y z
#    x 4.150660 0.000000 0.000000 
#    y 0.000000 3.413410 0.000000 
#    z 0.000000 0.000000 4.246090 
# 
# 
# High freq. dielectric constant tensor:
#      x y z
#    x 1.835830 0.000000 0.000000 
#    y 0.000000 1.790890 0.000000 
#    z 0.000000 0.000000 1.839680 
# 
# From -- ./inp_files/11955.got.cif
#   From: 2010.03.12/outbox.cif.g09.slc.cpg/sg39_6_cif.got.tgz:11955.got - 2010.04.14 02:53:20.
