data_PCOD8181119
_publ_section_title
;
Structure prediction by ZEFSAII (Michael W. Deem and Ramdas Pophale) SiO2 
 PCOD8181119
Probable space group: A B M 2
;
_chemical_formula_sum "Si O2"
_cell_formula_units_Z 56
_cell_length_a 18.022688
_cell_length_b 8.714681
_cell_length_c 18.525294
_cell_angle_alpha 90.000000
_cell_angle_beta 90.000000
_cell_angle_gamma 90.000000
_cell_volume 2909.619294
_symmetry_space_group_name_H-M "A B M 2"
_symmetry_group_IT_number 39
_symmetry_cell_setting 'orthorhombic'
loop_
_space_group_symop_operation_xyz
x,y,z
-x,-y,z
-x,1/2+y,z
x,1/2-y,z
x,1/2+y,1/2+z
-x,1/2-y,1/2+z
-x,y,1/2+z
x,-y,1/2+z
loop_
_atom_site_type_symbol
_atom_site_label
_atom_site_fract_x
_atom_site_fract_y
_atom_site_fract_z
Si Si1 0.926435 0.431309 0.519750
Si Si2 0.205631 0.080748 0.110313
Si Si3 0.580409 0.068392 0.088618
Si Si4 0.693794 0.072791 0.212524
Si Si5 0.078615 0.932699 0.355913
Si Si6 0.684112 0.919432 0.980488
Si Si7 0.763240 0.930973 0.344823
O O1 0.925947 0.250000 0.520069
O O2 0.864869 0.496577 0.572994
O O3 0.915576 0.489880 0.438421
O O4 0.000000 0.500000 0.553729
O O5 0.189719 0.250000 0.144803
O O6 0.229738 0.959598 0.170410
O O7 0.265693 0.104154 0.049276
O O8 0.577670 0.250000 0.083852
O O9 0.627077 0.017790 0.159999
O O10 0.500000 0.000000 0.100689
O O11 0.612436 0.009492 0.011501
O O12 0.686607 0.250000 0.232898
O O13 0.699859 0.975891 0.286222
O O14 0.077137 0.750000 0.346616
O O15 0.155929 0.997365 0.322500
O O16 0.000000 0.000000 0.323676
O O17 0.661203 0.750000 0.950772
O O18 0.730826 0.009974 0.920602
O O19 0.772505 0.750000 0.348803
#
# Coordination Sequence:
#
# PCOD8181119 Si02
#       7
#     8   8   8   8   8   8   8
#     4   9  17  29  47  74 105 139 180 228 282 333
#     4   9  17  33  53  76 105 140 181 227 279 334
#     4  10  21  39  63  91 118 148 186 228 280 343
#     4  10  22  38  57  82 112 148 190 233 281 339
#     4  10  19  34  53  79 112 150 192 239 293 342
#     4  10  19  35  59  84 113 146 183 232 281 329
#     4  12  23  36  56  84 116 153 196 241 287 341
#
# _framework density 19.246506
#
# number of rings (size 3 to 8) (size 9 to 14) (size 15 to 20)
#    0.000    2.000    1.429    3.000    0.000    3.429 
#    0.000    1.429    0.000    3.429    0.000    0.000 
#    0.000    0.000    0.000    0.000    0.000    0.000 
#
# Total GULP energy -346947.019324 kJ/mol
# GULP energy per Si atom -12390.964976 kJ/mol
# Density = 1.920270 g / cm^3
# Si number density = 19.246506 Si / 1000 Ang^3
#
#
#
# Elastic Constant Matrix: (Units=GPa)
#
#
# Indices 1 2 3 4 5 6 
#
# 1 105.7976 40.3884 23.5533 0.0000 0.0000 0.0000
# 2 40.3884 97.2187 29.4002 0.0000 0.0000 0.0000
# 3 23.5533 29.4002 53.0803 0.0000 0.0000 0.0000
# 4 0.0000 0.0000 0.0000 15.0743 0.0000 0.0000
# 5 0.0000 0.0000 0.0000 0.0000 26.6621 0.0000
# 6 0.0000 0.0000 0.0000 0.0000 0.0000 29.7817
#
#
#
# Elastic Compliance Matrix: (Units=1/GPa)
#
#
# Indices 1 2 3 4 5 6 
#
# 1 0.011613 -0.003923 -0.002980 0.000000 0.000000 0.000000
# 2 -0.003923 0.013681 -0.005837 0.000000 0.000000 0.000000
# 3 -0.002980 -0.005837 0.023395 0.000000 0.000000 0.000000
# 4 0.000000 0.000000 0.000000 0.066338 0.000000 0.000000
# 5 0.000000 0.000000 0.000000 0.000000 0.037506 0.000000
# 6 0.000000 0.000000 0.000000 0.000000 0.000000 0.033578
#
#
# Mechanical properties :
#
#
# Convention : Reuss Voigt Hill
#
# Bulk Modulus (GPa) = 43.08765 49.19781 46.14273
# Shear Modulus (GPa) = 22.79694 25.15393 23.97543
#
# Velocity S-wave (km/s) = 3.44535 3.61908 3.53328
# Velocity P-wave (km/s) = 6.18572 6.56362 6.37747
#
# Compressibility (1/GPa) = 0.02320851
#
# Stress axis : x y z
#
# Youngs Moduli (GPa) = 86.10894 73.09340 42.74494
#
# Poissons Ratio (x) = 0.28677 0.12738
# Poissons Ratio (y) = 0.33784 0.24949
# Poissons Ratio (z) = 0.25661 0.42663
#
# Static dielectric constant tensor:
#      x y z
#    x 3.581940 0.000000 0.000000 
#    y 0.000000 3.788010 0.000000 
#    z 0.000000 0.000000 3.492940 
# 
# 
# High freq. dielectric constant tensor:
#      x y z
#    x 1.742950 0.000000 0.000000 
#    y 0.000000 1.754170 0.000000 
#    z 0.000000 0.000000 1.729780 
# 
# From -- ./inp_files/14927.got.cif
#   From: 2010.03.12/outbox.cif.g09.slc.cpg/sg39_8_cif.got.tgz:14927.got - 2010.04.14 02:53:20.
