data_PCOD8181468
_publ_section_title
;
Structure prediction by ZEFSAII (Michael W. Deem and Ramdas Pophale) SiO2 
 PCOD8181468
Probable space group: A B M 2
;
_chemical_formula_sum "Si O2"
_cell_formula_units_Z 56
_cell_length_a 19.365186
_cell_length_b 9.088498
_cell_length_c 15.906151
_cell_angle_alpha 90.000000
_cell_angle_beta 90.000000
_cell_angle_gamma 90.000000
_cell_volume 2799.489801
_symmetry_space_group_name_H-M "A B M 2"
_symmetry_group_IT_number 39
_symmetry_cell_setting 'orthorhombic'
loop_
_space_group_symop_operation_xyz
x,y,z
-x,-y,z
-x,1/2+y,z
x,1/2-y,z
x,1/2+y,1/2+z
-x,1/2-y,1/2+z
-x,y,1/2+z
x,-y,1/2+z
loop_
_atom_site_type_symbol
_atom_site_label
_atom_site_fract_x
_atom_site_fract_y
_atom_site_fract_z
Si Si1 0.842716 0.577886 0.192050
Si Si2 0.563205 0.411537 0.451654
Si Si3 0.684537 0.576839 0.191661
Si Si4 0.315465 0.576840 0.019984
Si Si5 0.436796 0.588465 0.259989
Si Si6 0.842716 0.077888 0.019586
Si Si7 0.073462 0.924709 0.855818
O O1 0.852652 0.750000 0.176979
O O2 0.763635 0.538885 0.213860
O O3 0.867212 0.500003 0.105817
O O4 0.886841 0.522427 0.271744
O O5 0.500000 0.500000 0.496275
O O6 0.572227 0.250000 0.494514
O O7 0.634058 0.505124 0.452000
O O8 0.542766 0.386382 0.355821
O O9 0.672617 0.750000 0.186764
O O10 0.662341 0.500019 0.105817
O O11 0.634060 0.505110 0.259640
O O12 0.327388 0.750000 0.024905
O O13 0.236366 0.538902 0.997777
O O14 0.500000 0.500000 0.215367
O O15 0.427777 0.750000 0.217127
O O16 0.852660 0.250000 0.034660
O O17 0.886837 0.022427 0.939890
O O18 0.065626 0.750000 0.855818
O O19 0.000000 0.000000 0.855821
#
# Coordination Sequence:
#
# PCOD8181468 Si02
#       7
#     8   8   8   8   8   8   8
#     4   9  20  38  60  85 118 153 192 237 287 342
#     4  10  21  36  53  77 109 144 185 232 280 334
#     4  10  20  35  57  81 108 143 184 231 282 337
#     4  10  20  35  57  81 108 143 184 231 282 337
#     4  10  21  36  53  77 109 144 185 232 280 334
#     4   9  20  38  60  85 118 153 192 237 287 342
#     4  10  22  40  60  88 119 154 193 232 281 344
#
# _framework density 20.003646
#
# number of rings (size 3 to 8) (size 9 to 14) (size 15 to 20)
#    0.000    2.286    0.000    1.714    2.000    5.143 
#    0.000    5.714    0.000    0.000    0.000    0.000 
#    0.000    0.000    0.000    0.000    0.000    0.000 
#
# Total GULP energy -347127.839499 kJ/mol
# GULP energy per Si atom -12397.422839 kJ/mol
# Density = 1.995812 g / cm^3
# Si number density = 20.003646 Si / 1000 Ang^3
#
#
#
# Elastic Constant Matrix: (Units=GPa)
#
#
# Indices 1 2 3 4 5 6 
#
# 1 130.4965 62.1198 64.7534 0.0000 0.0000 0.0000
# 2 62.1198 107.7304 44.7593 0.0000 0.0000 0.0000
# 3 64.7534 44.7593 104.2683 0.0000 0.0000 0.0000
# 4 0.0000 0.0000 0.0000 30.1145 0.0000 0.0000
# 5 0.0000 0.0000 0.0000 0.0000 16.3925 0.0000
# 6 0.0000 0.0000 0.0000 0.0000 0.0000 36.2769
#
#
#
# Elastic Compliance Matrix: (Units=1/GPa)
#
#
# Indices 1 2 3 4 5 6 
#
# 1 0.012991 -0.005038 -0.005906 0.000000 0.000000 0.000000
# 2 -0.005038 0.013251 -0.002560 0.000000 0.000000 0.000000
# 3 -0.005906 -0.002560 0.014357 0.000000 0.000000 0.000000
# 4 0.000000 0.000000 0.000000 0.033207 0.000000 0.000000
# 5 0.000000 0.000000 0.000000 0.000000 0.061004 0.000000
# 6 0.000000 0.000000 0.000000 0.000000 0.000000 0.027566
#
#
# Mechanical properties :
#
#
# Convention : Reuss Voigt Hill
#
# Bulk Modulus (GPa) = 73.56455 76.19556 74.88005
# Shear Modulus (GPa) = 25.78492 27.94762 26.86627
#
# Velocity S-wave (km/s) = 3.59418 3.74187 3.66877
# Velocity P-wave (km/s) = 7.35388 7.53938 7.44721
#
# Compressibility (1/GPa) = 0.01359350
#
# Stress axis : x y z
#
# Youngs Moduli (GPa) = 76.97379 75.46780 69.65273
#
# Poissons Ratio (x) = 0.38017 0.41134
# Poissons Ratio (y) = 0.38776 0.17829
# Poissons Ratio (z) = 0.45457 0.19317
#
# Static dielectric constant tensor:
#      x y z
#    x 3.586100 0.000000 0.000000 
#    y 0.000000 3.839420 0.000000 
#    z 0.000000 0.000000 3.551100 
# 
# 
# High freq. dielectric constant tensor:
#      x y z
#    x 1.780140 0.000000 0.000000 
#    y 0.000000 1.787560 0.000000 
#    z 0.000000 0.000000 1.768900 
# 
# From -- ./inp_files/10377.got.cif
#   From: 2010.03.12/outbox.cif.g09.slc.cpg/sg39_6_cif.got.tgz:10377.got - 2010.04.14 02:53:20.
