data_PCOD8181169
_publ_section_title
;
Structure prediction by ZEFSAII (Michael W. Deem and Ramdas Pophale) SiO2 
 PCOD8181169
Probable space group: A B M 2
;
_chemical_formula_sum "Si O2"
_cell_formula_units_Z 64
_cell_length_a 23.894266
_cell_length_b 8.948729
_cell_length_c 15.216916
_cell_angle_alpha 90.000000
_cell_angle_beta 90.000000
_cell_angle_gamma 90.000000
_cell_volume 3253.731364
_symmetry_space_group_name_H-M "A B M 2"
_symmetry_group_IT_number 39
_symmetry_cell_setting 'orthorhombic'
loop_
_space_group_symop_operation_xyz
x,y,z
-x,-y,z
-x,1/2+y,z
x,1/2-y,z
x,1/2+y,1/2+z
-x,1/2-y,1/2+z
-x,y,1/2+z
x,-y,1/2+z
loop_
_atom_site_type_symbol
_atom_site_label
_atom_site_fract_x
_atom_site_fract_y
_atom_site_fract_z
Si Si1 0.761676 0.582375 0.974110
Si Si2 0.750419 0.581018 0.178802
Si Si3 0.559557 0.924803 0.814782
Si Si4 0.859222 0.078096 0.222957
Si Si5 0.058457 0.427185 0.569431
Si Si6 0.363304 0.074298 0.653953
Si Si7 0.639384 0.071213 0.470377
Si Si8 0.121136 0.076097 0.916645
O O1 0.760901 0.750000 0.937554
O O2 0.701963 0.508915 0.947209
O O3 0.816631 0.505396 0.932839
O O4 0.768196 0.575495 0.078063
O O5 0.739470 0.750000 0.210253
O O6 0.801569 0.512115 0.233133
O O7 0.694408 0.486311 0.194645
O O8 0.551214 0.750000 0.825420
O O9 0.587774 0.965060 0.722339
O O10 0.597908 0.984162 0.894686
O O11 0.500000 0.000000 0.821170
O O12 0.843198 0.250000 0.207404
O O13 0.897018 0.019233 0.142737
O O14 0.893598 0.057543 0.313832
O O15 0.052003 0.250000 0.567749
O O16 0.076628 0.484259 0.473408
O O17 0.000000 0.500000 0.595843
O O18 0.357084 0.250000 0.639021
O O19 0.380507 0.996177 0.562979
O O20 0.641437 0.250000 0.480980
O O21 0.119002 0.250000 0.945744
#
# Coordination Sequence:
#
# PCOD8181169 Si02
#       8
#     8   8   8   8   8   8   8   8
#     4   8  15  30  56  83 111 147 187 226 278 343
#     4  10  19  34  58  87 119 156 193 236 290 349
#     4  10  23  40  60  83 115 156 199 241 289 348
#     4  10  22  37  59  90 120 152 193 240 291 345
#     4  11  24  42  61  85 117 155 197 243 287 338
#     4  10  21  37  58  86 116 152 194 243 295 345
#     4   9  19  37  58  84 114 153 194 234 288 349
#     4  10  20  37  61  88 117 155 192 234 289 347
#
# _framework density 19.669725
#
# number of rings (size 3 to 8) (size 9 to 14) (size 15 to 20)
#    0.000    2.250    1.250    1.875    1.750    3.500 
#    0.000    3.750    0.000    0.000    0.000    0.000 
#    0.000    0.000    0.000    0.000    0.000    0.000 
#
# Total GULP energy -396773.061465 kJ/mol
# GULP energy per Si atom -12399.158171 kJ/mol
# Density = 1.962496 g / cm^3
# Si number density = 19.669725 Si / 1000 Ang^3
#
#
#
# Elastic Constant Matrix: (Units=GPa)
#
#
# Indices 1 2 3 4 5 6 
#
# 1 99.1215 31.5869 30.4076 0.0000 0.0000 0.0000
# 2 31.5869 56.9545 27.3503 0.0000 0.0000 0.0000
# 3 30.4076 27.3503 69.7669 0.0000 0.0000 0.0000
# 4 0.0000 0.0000 0.0000 27.4407 0.0000 0.0000
# 5 0.0000 0.0000 0.0000 0.0000 25.0825 0.0000
# 6 0.0000 0.0000 0.0000 0.0000 0.0000 34.2039
#
#
#
# Elastic Compliance Matrix: (Units=1/GPa)
#
#
# Indices 1 2 3 4 5 6 
#
# 1 0.012903 -0.005489 -0.003472 0.000000 0.000000 0.000000
# 2 -0.005489 0.023965 -0.007003 0.000000 0.000000 0.000000
# 3 -0.003472 -0.007003 0.018592 0.000000 0.000000 0.000000
# 4 0.000000 0.000000 0.000000 0.036442 0.000000 0.000000
# 5 0.000000 0.000000 0.000000 0.000000 0.039868 0.000000
# 6 0.000000 0.000000 0.000000 0.000000 0.000000 0.029236
#
#
# Mechanical properties :
#
#
# Convention : Reuss Voigt Hill
#
# Bulk Modulus (GPa) = 42.49342 44.94805 43.72074
# Shear Modulus (GPa) = 24.90329 26.44529 25.67429
#
# Velocity S-wave (km/s) = 3.56205 3.67067 3.61677
# Velocity P-wave (km/s) = 6.21031 6.39266 6.30215
#
# Compressibility (1/GPa) = 0.02353305
#
# Stress axis : x y z
#
# Youngs Moduli (GPa) = 77.50277 41.72830 53.78707
#
# Poissons Ratio (x) = 0.22903 0.18675
# Poissons Ratio (y) = 0.42538 0.37664
# Poissons Ratio (z) = 0.26909 0.29220
#
# Static dielectric constant tensor:
#      x y z
#    x 3.620600 0.000000 0.000000 
#    y 0.000000 3.425310 0.000000 
#    z 0.000000 0.000000 3.558400 
# 
# 
# High freq. dielectric constant tensor:
#      x y z
#    x 1.766350 0.000000 0.000000 
#    y 0.000000 1.749090 0.000000 
#    z 0.000000 0.000000 1.769040 
# 
# From -- ./inp_files/10637.got.cif
#   From: 2010.03.12/outbox.cif.g09.slc.cpg/sg39_6_cif.got.tgz:10637.got - 2010.04.14 02:53:20.
