data_PCOD8181279
_publ_section_title
;
Structure prediction by ZEFSAII (Michael W. Deem and Ramdas Pophale) SiO2 
 PCOD8181279
Probable space group: A B M 2
;
_chemical_formula_sum "Si O2"
_cell_formula_units_Z 32
_cell_length_a 19.355347
_cell_length_b 14.078736
_cell_length_c 5.311286
_cell_angle_alpha 90.000000
_cell_angle_beta 90.000000
_cell_angle_gamma 90.000000
_cell_volume 1447.319171
_symmetry_space_group_name_H-M "A B M 2"
_symmetry_group_IT_number 39
_symmetry_cell_setting 'orthorhombic'
loop_
_space_group_symop_operation_xyz
x,y,z
-x,-y,z
-x,1/2+y,z
x,1/2-y,z
x,1/2+y,1/2+z
-x,1/2-y,1/2+z
-x,y,1/2+z
x,-y,1/2+z
loop_
_atom_site_type_symbol
_atom_site_label
_atom_site_fract_x
_atom_site_fract_y
_atom_site_fract_z
Si Si1 0.955693 0.750000 0.014601
Si Si2 0.881479 0.552743 0.992763
Si Si3 0.666669 0.112622 0.992052
Si Si4 0.544418 0.250000 0.012668
Si Si5 0.277581 0.408851 0.992049
O O1 0.989006 0.750000 0.290772
O O2 0.906664 0.659928 0.987541
O O3 0.909906 0.500488 0.243395
O O4 0.799046 0.549914 0.992786
O O5 0.706865 0.151824 0.743388
O O6 0.668849 0.998086 0.991711
O O7 0.589695 0.154148 0.991673
O O8 0.707065 0.151791 0.240431
O O9 0.509281 0.250000 0.285087
#
# Coordination Sequence:
#
# PCOD8181279 Si02
#       5
#     4   8   8   4   8
#     4  12  30  48  66 106 146 198 244 268 346 432
#     4  12  23  45  75 105 144 179 237 301 350 418
#     4  10  20  38  65  86 131 156 209 277 324 407
#     4  12  26  42  56  92 132 178 220 256 332 414
#     4  10  19  41  62 100 117 155 220 277 354 377
#
# _framework density 22.109845
#
# number of rings (size 3 to 8) (size 9 to 14) (size 15 to 20)
#    0.000    1.000    5.000    3.000    0.000    5.000 
#    0.000   15.000    0.000    0.000    0.000    0.000 
#    0.000    0.000    0.000    0.000    0.000    0.000 
#
# Total GULP energy -198308.924057 kJ/mol
# GULP energy per Si atom -12394.307754 kJ/mol
# Density = 2.205952 g / cm^3
# Si number density = 22.109845 Si / 1000 Ang^3
#
#
#
# Elastic Constant Matrix: (Units=GPa)
#
#
# Indices 1 2 3 4 5 6 
#
# 1 61.8725 46.3535 22.2115 0.0000 0.0000 0.0000
# 2 46.3535 133.5751 26.9982 0.0000 0.0000 0.0000
# 3 22.2115 26.9982 228.4552 0.0000 0.0000 0.0000
# 4 0.0000 0.0000 0.0000 18.6812 0.0000 0.0000
# 5 0.0000 0.0000 0.0000 0.0000 26.9400 0.0000
# 6 0.0000 0.0000 0.0000 0.0000 0.0000 19.6052
#
#
#
# Elastic Compliance Matrix: (Units=1/GPa)
#
#
# Indices 1 2 3 4 5 6 
#
# 1 0.022199 -0.007445 -0.001278 0.000000 0.000000 0.000000
# 2 -0.007445 0.010167 -0.000478 0.000000 0.000000 0.000000
# 3 -0.001278 -0.000478 0.004558 0.000000 0.000000 0.000000
# 4 0.000000 0.000000 0.000000 0.053530 0.000000 0.000000
# 5 0.000000 0.000000 0.000000 0.000000 0.037119 0.000000
# 6 0.000000 0.000000 0.000000 0.000000 0.000000 0.051007
#
#
# Mechanical properties :
#
#
# Convention : Reuss Voigt Hill
#
# Bulk Modulus (GPa) = 53.99237 68.33659 61.16448
# Shear Modulus (GPa) = 24.61165 34.93457 29.77311
#
# Velocity S-wave (km/s) = 3.34001 3.97929 3.67359
# Velocity P-wave (km/s) = 6.27275 7.21719 6.76148
#
# Compressibility (1/GPa) = 0.01852114
#
# Stress axis : x y z
#
# Youngs Moduli (GPa) = 45.04716 98.36141 219.39615
#
# Poissons Ratio (x) = 0.73231 0.28049
# Poissons Ratio (y) = 0.33538 0.10479
# Poissons Ratio (z) = 0.05759 0.04698
#
# Static dielectric constant tensor:
#      x y z
#    x 3.693080 0.000000 0.000000 
#    y 0.000000 4.139890 0.000000 
#    z 0.000000 0.000000 5.341290 
# 
# 
# High freq. dielectric constant tensor:
#      x y z
#    x 1.846850 0.000000 0.000000 
#    y 0.000000 1.857410 0.000000 
#    z 0.000000 0.000000 1.916160 
# 
# From -- ./inp_files/704.got.cif
#   From: 2010.03.12/outbox.cif.g09.slc.cpg/sg39_1_cif.got.tgz:704.got - 2010.04.14 02:53:20.
