data_PCOD8181956
_publ_section_title
;
Structure prediction by ZEFSAII (Michael W. Deem and Ramdas Pophale) SiO2 
 PCOD8181956
Probable space group: A B M 2
;
_chemical_formula_sum "Si O2"
_cell_formula_units_Z 56
_cell_length_a 5.079899
_cell_length_b 15.679388
_cell_length_c 32.389316
_cell_angle_alpha 90.000000
_cell_angle_beta 90.000000
_cell_angle_gamma 90.000000
_cell_volume 2579.799543
_symmetry_space_group_name_H-M "A B M 2"
_symmetry_group_IT_number 39
_symmetry_cell_setting 'orthorhombic'
loop_
_space_group_symop_operation_xyz
x,y,z
-x,-y,z
-x,1/2+y,z
x,1/2-y,z
x,1/2+y,1/2+z
-x,1/2-y,1/2+z
-x,y,1/2+z
x,-y,1/2+z
loop_
_atom_site_type_symbol
_atom_site_label
_atom_site_fract_x
_atom_site_fract_y
_atom_site_fract_z
Si Si1 0.460002 0.250000 0.154171
Si Si2 0.975346 0.402927 0.037714
Si Si3 0.042500 0.750000 0.208236
Si Si4 0.046325 0.654327 0.448449
Si Si5 0.543739 0.653353 0.314889
Si Si6 0.961266 0.404725 0.269884
Si Si7 0.545309 0.904977 0.403986
Si Si8 0.524457 0.901757 0.091655
O O1 0.659578 0.250000 0.192295
O O2 0.515090 0.163537 0.128947
O O3 0.162142 0.250000 0.170519
O O4 0.691291 0.383610 0.056737
O O5 0.000000 0.500000 0.022759
O O6 0.191698 0.382300 0.072292
O O7 0.009352 0.345233 0.997620
O O8 0.997322 0.663936 0.233984
O O9 0.012610 0.750000 0.432260
O O10 0.832145 0.598443 0.424478
O O11 0.337325 0.620696 0.438972
O O12 0.526113 0.750000 0.298626
O O13 0.322899 0.600027 0.291033
O O14 0.508661 0.654482 0.364166
O O15 0.826139 0.612579 0.305533
O O16 0.000000 0.500000 0.251560
O O17 0.500000 0.000000 0.388088
O O18 0.500000 0.000000 0.107565
#
# Coordination Sequence:
#
# PCOD8181956 Si02
#       8
#     4   8   4   8   8   8   8   8
#     4  12  26  42  72  94 134 164 210 256 342 386
#     4  10  21  40  64  89 125 168 214 266 318 379
#     4  12  26  46  66 104 128 170 206 272 322 398
#     4  12  25  40  62  95 130 173 224 277 330 377
#     4  12  23  44  69  96 134 173 225 278 323 384
#     4  12  25  45  71 100 133 177 221 264 328 396
#     4  12  25  42  62  92 133 178 223 271 331 385
#     4  10  23  41  65  96 127 167 215 262 318 390
#
# _framework density 21.707113
#
# number of rings (size 3 to 8) (size 9 to 14) (size 15 to 20)
#    0.000    0.571    1.429    7.286    2.000    2.286 
#    0.000    0.000    0.000    0.000    0.000    0.000 
#    0.000    0.000    0.000    0.000    0.000    0.000 
#
# Total GULP energy -347426.309323 kJ/mol
# GULP energy per Si atom -12408.082476 kJ/mol
# Density = 2.165771 g / cm^3
# Si number density = 21.707113 Si / 1000 Ang^3
#
#
#
# Elastic Constant Matrix: (Units=GPa)
#
#
# Indices 1 2 3 4 5 6 
#
# 1 88.2308 22.4058 11.0161 0.0000 0.0000 0.0000
# 2 22.4058 131.8277 41.1243 0.0000 0.0000 0.0000
# 3 11.0161 41.1243 86.1490 0.0000 0.0000 0.0000
# 4 0.0000 0.0000 0.0000 18.1706 0.0000 0.0000
# 5 0.0000 0.0000 0.0000 0.0000 31.7294 0.0000
# 6 0.0000 0.0000 0.0000 0.0000 0.0000 27.4913
#
#
#
# Elastic Compliance Matrix: (Units=1/GPa)
#
#
# Indices 1 2 3 4 5 6 
#
# 1 0.011876 -0.001815 -0.000652 0.000000 0.000000 0.000000
# 2 -0.001815 0.009190 -0.004155 0.000000 0.000000 0.000000
# 3 -0.000652 -0.004155 0.013675 0.000000 0.000000 0.000000
# 4 0.000000 0.000000 0.000000 0.055034 0.000000 0.000000
# 5 0.000000 0.000000 0.000000 0.000000 0.031517 0.000000
# 6 0.000000 0.000000 0.000000 0.000000 0.000000 0.036375
#
#
# Mechanical properties :
#
#
# Convention : Reuss Voigt Hill
#
# Bulk Modulus (GPa) = 46.51888 50.58890 48.55389
# Shear Modulus (GPa) = 28.07773 30.92233 29.50003
#
# Velocity S-wave (km/s) = 3.60040 3.77838 3.69047
# Velocity P-wave (km/s) = 6.22580 6.51082 6.36990
#
# Compressibility (1/GPa) = 0.02149665
#
# Stress axis : x y z
#
# Youngs Moduli (GPa) = 84.20153 108.80998 73.12807
#
# Poissons Ratio (x) = 0.19750 0.04769
# Poissons Ratio (y) = 0.15283 0.30385
# Poissons Ratio (z) = 0.05492 0.45211
#
# Static dielectric constant tensor:
#      x y z
#    x 4.026270 0.000000 0.000000 
#    y 0.000000 4.090200 0.000000 
#    z 0.000000 0.000000 3.645430 
# 
# 
# High freq. dielectric constant tensor:
#      x y z
#    x 1.870350 0.000000 0.000000 
#    y 0.000000 1.864480 0.000000 
#    z 0.000000 0.000000 1.843430 
# 
# From -- ./inp_files/17285.got.cif
#   From: 2010.03.12/outbox.cif.g09.slc.cpg/sg39_9_cif.got.tgz:17285.got - 2010.04.14 02:53:20.
