data_PCOD8181073
_publ_section_title
;
Structure prediction by ZEFSAII (Michael W. Deem and Ramdas Pophale) SiO2 
 PCOD8181073
Probable space group: A B M 2
;
_chemical_formula_sum "Si O2"
_cell_formula_units_Z 56
_cell_length_a 15.188367
_cell_length_b 8.693386
_cell_length_c 20.044273
_cell_angle_alpha 90.000000
_cell_angle_beta 90.000000
_cell_angle_gamma 90.000000
_cell_volume 2646.612474
_symmetry_space_group_name_H-M "A B M 2"
_symmetry_group_IT_number 39
_symmetry_cell_setting 'orthorhombic'
loop_
_space_group_symop_operation_xyz
x,y,z
-x,-y,z
-x,1/2+y,z
x,1/2-y,z
x,1/2+y,1/2+z
-x,1/2-y,1/2+z
-x,y,1/2+z
x,-y,1/2+z
loop_
_atom_site_type_symbol
_atom_site_label
_atom_site_fract_x
_atom_site_fract_y
_atom_site_fract_z
Si Si1 0.090907 0.430757 0.985450
Si Si2 0.729094 0.568003 0.438420
Si Si3 0.311998 0.073332 0.167980
Si Si4 0.407591 0.926720 0.537469
Si Si5 0.721515 0.433285 0.300594
Si Si6 0.913678 0.077489 0.266023
Si Si7 0.863533 0.075687 0.119572
O O1 0.094098 0.250000 0.972469
O O2 0.171591 0.508424 0.946836
O O3 0.000000 0.500000 0.956797
O O4 0.095664 0.463381 0.064509
O O5 0.728400 0.750000 0.433342
O O6 0.670965 0.514733 0.500564
O O7 0.687161 0.495920 0.371171
O O8 0.281565 0.250000 0.175039
O O9 0.394230 0.059187 0.117393
O O10 0.337354 0.004960 0.240689
O O11 0.235113 0.972465 0.136264
O O12 0.406113 0.750000 0.514464
O O13 0.500000 0.000000 0.517030
O O14 0.715230 0.250000 0.296813
O O15 0.821810 0.496029 0.290600
O O16 0.914667 0.250000 0.292275
O O17 0.921639 0.066572 0.186085
O O18 0.000000 0.000000 0.298003
O O19 0.861847 0.250000 0.091090
#
# Coordination Sequence:
#
# PCOD8181073 Si02
#       7
#     8   8   8   8   8   8   8
#     4  12  24  38  57  86 124 169 219 269 322 379
#     4  12  25  43  66  93 129 171 217 268 324 384
#     4  10  20  37  63  94 125 160 206 258 314 376
#     4  11  24  43  70 102 133 166 208 260 320 385
#     4  10  22  40  61  86 123 167 212 262 319 378
#     4   9  19  32  50  78 113 156 205 258 309 367
#     4  10  19  33  54  83 119 161 207 259 320 373
#
# _framework density 21.159123000000001
#
# number of rings (size 3 to 8) (size 9 to 14) (size 15 to 20)
#    0.000    1.429    1.429    5.571    0.000    6.857 
#    0.000    2.143    0.000    1.714    0.000    0.000 
#    0.000    0.000    0.000    0.000    0.000    0.000 
#
# Total GULP energy -347232.653673 kJ/mol
# GULP energy per Si atom -12401.166203 kJ/mol
# Density = 2.111096 g / cm^3
# Si number density = 21.159123 Si / 1000 Ang^3
#
#
#
# Elastic Constant Matrix: (Units=GPa)
#
#
# Indices 1 2 3 4 5 6 
#
# 1 71.0857 32.4726 18.6025 0.0000 0.0000 0.0000
# 2 32.4726 125.8593 38.0302 0.0000 0.0000 0.0000
# 3 18.6025 38.0302 111.1675 0.0000 0.0000 0.0000
# 4 0.0000 0.0000 0.0000 31.8521 0.0000 0.0000
# 5 0.0000 0.0000 0.0000 0.0000 5.9917 0.0000
# 6 0.0000 0.0000 0.0000 0.0000 0.0000 31.7524
#
#
#
# Elastic Compliance Matrix: (Units=1/GPa)
#
#
# Indices 1 2 3 4 5 6 
#
# 1 0.016147 -0.003736 -0.001424 0.000000 0.000000 0.000000
# 2 -0.003736 0.009726 -0.002702 0.000000 0.000000 0.000000
# 3 -0.001424 -0.002702 0.010158 0.000000 0.000000 0.000000
# 4 0.000000 0.000000 0.000000 0.031395 0.000000 0.000000
# 5 0.000000 0.000000 0.000000 0.000000 0.166899 0.000000
# 6 0.000000 0.000000 0.000000 0.000000 0.000000 0.031494
#
#
# Mechanical properties :
#
#
# Convention : Reuss Voigt Hill
#
# Bulk Modulus (GPa) = 49.24396 54.03592 51.63994
# Shear Modulus (GPa) = 17.34241 28.51970 22.93106
#
# Velocity S-wave (km/s) = 2.86600 3.67532 3.29560
# Velocity P-wave (km/s) = 5.85454 6.60333 6.24017
#
# Compressibility (1/GPa) = 0.02030706
#
# Stress axis : x y z
#
# Youngs Moduli (GPa) = 61.93230 102.82078 98.44387
#
# Poissons Ratio (x) = 0.38411 0.14018
# Poissons Ratio (y) = 0.23136 0.26600
# Poissons Ratio (z) = 0.08819 0.27782
#
# Static dielectric constant tensor:
#      x y z
#    x 3.573710 0.000000 0.000000 
#    y 0.000000 3.846520 0.000000 
#    z 0.000000 0.000000 3.975810 
# 
# 
# High freq. dielectric constant tensor:
#      x y z
#    x 1.801060 0.000000 0.000000 
#    y 0.000000 1.838760 0.000000 
#    z 0.000000 0.000000 1.833850 
# 
# From -- ./inp_files/14724.got.cif
#   From: 2010.03.12/outbox.cif.g09.slc.cpg/sg39_8_cif.got.tgz:14724.got - 2010.04.14 02:53:20.
