data_PCOD8181308
_publ_section_title
;
Structure prediction by ZEFSAII (Michael W. Deem and Ramdas Pophale) SiO2 
 PCOD8181308
Probable space group: A B M 2
;
_chemical_formula_sum "Si O2"
_cell_formula_units_Z 64
_cell_length_a 20.847840
_cell_length_b 8.976697
_cell_length_c 18.750015
_cell_angle_alpha 90.000000
_cell_angle_beta 90.000000
_cell_angle_gamma 90.000000
_cell_volume 3508.966734
_symmetry_space_group_name_H-M "A B M 2"
_symmetry_group_IT_number 39
_symmetry_cell_setting 'orthorhombic'
loop_
_space_group_symop_operation_xyz
x,y,z
-x,-y,z
-x,1/2+y,z
x,1/2-y,z
x,1/2+y,1/2+z
-x,1/2-y,1/2+z
-x,y,1/2+z
x,-y,1/2+z
loop_
_atom_site_type_symbol
_atom_site_label
_atom_site_fract_x
_atom_site_fract_y
_atom_site_fract_z
Si Si1 0.063098 0.418249 0.215230
Si Si2 0.190964 0.920946 0.215817
Si Si3 0.559456 0.077462 0.974045
Si Si4 0.559456 0.922539 0.126346
Si Si5 0.701493 0.076377 0.973793
Si Si6 0.298508 0.423625 0.126592
Si Si7 0.063098 0.418249 0.385155
Si Si8 0.809037 0.920945 0.884567
O O1 0.064657 0.250000 0.185802
O O2 0.125514 0.505144 0.187134
O O3 0.061583 0.418837 0.300192
O O4 0.000000 0.500000 0.184889
O O5 0.191328 0.750000 0.191439
O O6 0.196095 0.936832 0.300192
O O7 0.250907 0.005548 0.183024
O O8 0.543384 0.250000 0.982399
O O9 0.629971 0.053413 0.940206
O O10 0.500000 0.000000 0.930390
O O11 0.562122 0.999991 0.050193
O O12 0.543386 0.750000 0.118000
O O13 0.629972 0.946599 0.160182
O O14 0.500000 0.000000 0.169999
O O15 0.716780 0.250000 0.983623
O O16 0.749089 0.005532 0.917361
O O17 0.709554 0.000007 0.050194
O O18 0.283229 0.250000 0.116754
O O19 0.064655 0.250000 0.414583
O O20 0.125515 0.505136 0.413251
O O21 0.000000 0.500000 0.415496
O O22 0.808679 0.750000 0.908945
#
# Coordination Sequence:
#
# PCOD8181308 Si02
#       8
#     8   8   8   8   8   8   8   8
#     4   9  16  27  45  69  96 125 159 200 242 283
#     4  10  20  33  50  73 100 130 164 202 244 289
#     4   9  16  26  43  67  93 121 155 196 239 282
#     4   9  16  26  43  67  93 121 155 196 239 282
#     4  10  20  33  50  73 100 130 163 200 243 290
#     4  10  20  33  50  73 100 130 163 200 243 290
#     4   9  16  27  45  69  96 125 159 200 242 283
#     4  10  20  33  50  73 100 130 164 202 244 289
#
# _framework density 18.238987000000002
#
# number of rings (size 3 to 8) (size 9 to 14) (size 15 to 20)
#    0.000    2.500    0.000    3.750    0.000    7.500 
#    0.000    0.000    0.000    1.500    0.000    5.250 
#    0.000    0.000    0.000    0.000    0.000    0.000 
#
# Total GULP energy -396606.204605 kJ/mol
# GULP energy per Si atom -12393.943894 kJ/mol
# Density = 1.819747 g / cm^3
# Si number density = 18.238987 Si / 1000 Ang^3
#
#
#
# Elastic Constant Matrix: (Units=GPa)
#
#
# Indices 1 2 3 4 5 6 
#
# 1 184.4077 102.2580 25.8161 0.0000 0.0000 0.0000
# 2 102.2580 177.8803 24.1694 0.0000 0.0000 0.0000
# 3 25.8161 24.1694 14.0114 0.0000 0.0000 0.0000
# 4 0.0000 0.0000 0.0000 21.1807 0.0000 0.0000
# 5 0.0000 0.0000 0.0000 0.0000 23.1105 0.0000
# 6 0.0000 0.0000 0.0000 0.0000 0.0000 41.4167
#
#
#
# Elastic Compliance Matrix: (Units=1/GPa)
#
#
# Indices 1 2 3 4 5 6 
#
# 1 0.008899 -0.003772 -0.009890 0.000000 0.000000 0.000000
# 2 -0.003772 0.008942 -0.008474 0.000000 0.000000 0.000000
# 3 -0.009890 -0.008474 0.104210 0.000000 0.000000 0.000000
# 4 0.000000 0.000000 0.000000 0.047213 0.000000 0.000000
# 5 0.000000 0.000000 0.000000 0.000000 0.043270 0.000000
# 6 0.000000 0.000000 0.000000 0.000000 0.000000 0.024145
#
#
# Mechanical properties :
#
#
# Convention : Reuss Voigt Hill
#
# Bulk Modulus (GPa) = 12.85701 75.64294 44.24997
# Shear Modulus (GPa) = 16.29323 32.07866 24.18594
#
# Velocity S-wave (km/s) = 2.99209 4.19835 3.64546
# Velocity P-wave (km/s) = 4.35904 8.06627 6.48329
#
# Compressibility (1/GPa) = 0.07777857
#
# Stress axis : x y z
#
# Youngs Moduli (GPa) = 112.37343 111.83727 9.59603
#
# Poissons Ratio (x) = 0.42184 0.09490
# Poissons Ratio (y) = 0.42387 0.08132
# Poissons Ratio (z) = 1.11134 0.94773
#
# Static dielectric constant tensor:
#      x y z
#    x 4.216870 0.000000 0.000000 
#    y 0.000000 3.632820 0.000000 
#    z 0.000000 0.000000 2.699560 
# 
# 
# High freq. dielectric constant tensor:
#      x y z
#    x 1.735170 0.000000 0.000000 
#    y 0.000000 1.731160 0.000000 
#    z 0.000000 0.000000 1.630530 
# 
# From -- ./inp_files/15046.got.cif
#   From: 2010.03.12/outbox.cif.g09.slc.cpg/sg39_8_cif.got.tgz:15046.got - 2010.04.14 02:53:20.
