data_PCOD8181858
_publ_section_title
;
Structure prediction by ZEFSAII (Michael W. Deem and Ramdas Pophale) SiO2 
 PCOD8181858
Probable space group: A B M 2
;
_chemical_formula_sum "Si O2"
_cell_formula_units_Z 48
_cell_length_a 9.457248
_cell_length_b 8.508994
_cell_length_c 30.032844
_cell_angle_alpha 90.000000
_cell_angle_beta 90.000000
_cell_angle_gamma 90.000000
_cell_volume 2416.793006
_symmetry_space_group_name_H-M "A B M 2"
_symmetry_group_IT_number 39
_symmetry_cell_setting 'orthorhombic'
loop_
_space_group_symop_operation_xyz
x,y,z
-x,-y,z
-x,1/2+y,z
x,1/2-y,z
x,1/2+y,1/2+z
-x,1/2-y,1/2+z
-x,y,1/2+z
x,-y,1/2+z
loop_
_atom_site_type_symbol
_atom_site_label
_atom_site_fract_x
_atom_site_fract_y
_atom_site_fract_z
Si Si1 0.342562 0.434696 0.728900
Si Si2 0.845729 0.431870 0.654653
Si Si3 0.344394 0.934793 0.385806
Si Si4 0.843084 0.064956 0.808457
Si Si5 0.152508 0.431619 0.051964
Si Si6 0.649634 0.433153 0.979930
O O1 0.500000 0.500000 0.730415
O O2 0.346645 0.250000 0.736820
O O3 0.272706 0.473799 0.681516
O O4 0.250403 0.513944 0.766943
O O5 0.845017 0.250000 0.668765
O O6 0.804428 0.453758 0.603222
O O7 0.000000 0.500000 0.665325
O O8 0.349219 0.750000 0.379820
O O9 0.500000 0.000000 0.374483
O O10 0.226754 0.004091 0.353566
O O11 0.296276 0.979456 0.435609
O O12 0.851720 0.250000 0.810254
O O13 0.000000 0.000000 0.802987
O O14 0.159824 0.250000 0.037690
O O15 0.000000 0.500000 0.043226
O O16 0.251695 0.536904 0.021693
O O17 0.500000 0.500000 0.994620
O O18 0.638520 0.250000 0.969005
#
# Coordination Sequence:
#
# PCOD8181858 Si02
#       6
#     8   8   8   8   8   8
#     4  12  25  42  63  89 120 156 197 242 293 348
#     4  10  21  39  62  88 119 156 197 243 295 350
#     4  11  22  40  63  89 120 156 197 242 294 349
#     4  12  25  43  64  90 121 155 196 241 292 348
#     4  10  21  38  60  87 119 156 198 244 295 350
#     4  11  22  38  60  87 119 157 199 244 295 349
#
# _framework density 19.861031000000001
#
# number of rings (size 3 to 8) (size 9 to 14) (size 15 to 20)
#    0.000    1.000    0.000    9.000    0.000    3.333 
#    0.000    3.333    0.000    0.000    0.000    0.000 
#    0.000    0.000    0.000    0.000    0.000    0.000 
#
# Total GULP energy -297731.912989 kJ/mol
# GULP energy per Si atom -12405.496375 kJ/mol
# Density = 1.981583 g / cm^3
# Si number density = 19.861031 Si / 1000 Ang^3
#
#
#
# Elastic Constant Matrix: (Units=GPa)
#
#
# Indices 1 2 3 4 5 6 
#
# 1 119.2960 49.6652 72.0819 0.0000 0.0000 0.0000
# 2 49.6652 163.5017 38.5938 0.0000 0.0000 0.0000
# 3 72.0819 38.5938 102.5145 0.0000 0.0000 0.0000
# 4 0.0000 0.0000 0.0000 37.3244 0.0000 0.0000
# 5 0.0000 0.0000 0.0000 0.0000 38.4170 0.0000
# 6 0.0000 0.0000 0.0000 0.0000 0.0000 37.9423
#
#
#
# Elastic Compliance Matrix: (Units=1/GPa)
#
#
# Indices 1 2 3 4 5 6 
#
# 1 0.015336 -0.002319 -0.009910 0.000000 0.000000 0.000000
# 2 -0.002319 0.007063 -0.001028 0.000000 0.000000 0.000000
# 3 -0.009910 -0.001028 0.017110 0.000000 0.000000 0.000000
# 4 0.000000 0.000000 0.000000 0.026792 0.000000 0.000000
# 5 0.000000 0.000000 0.000000 0.000000 0.026030 0.000000
# 6 0.000000 0.000000 0.000000 0.000000 0.000000 0.026356
#
#
# Mechanical properties :
#
#
# Convention : Reuss Voigt Hill
#
# Bulk Modulus (GPa) = 76.95970 78.44379 77.70174
# Shear Modulus (GPa) = 33.43701 37.73483 35.58592
#
# Velocity S-wave (km/s) = 4.10756 4.36356 4.23749
# Velocity P-wave (km/s) = 7.83130 8.06038 7.94666
#
# Compressibility (1/GPa) = 0.01299381
#
# Stress axis : x y z
#
# Youngs Moduli (GPa) = 65.20558 141.57516 58.44469
#
# Poissons Ratio (x) = 0.32834 0.57920
# Poissons Ratio (y) = 0.15123 0.06011
# Poissons Ratio (z) = 0.64621 0.14560
#
# Static dielectric constant tensor:
#      x y z
#    x 4.511170 0.000000 0.000000 
#    y 0.000000 3.913300 0.000000 
#    z 0.000000 0.000000 3.760600 
# 
# 
# High freq. dielectric constant tensor:
#      x y z
#    x 1.778440 0.000000 0.000000 
#    y 0.000000 1.799400 0.000000 
#    z 0.000000 0.000000 1.787200 
# 
# From -- ./inp_files/17601.got.cif
#   From: 2010.03.12/outbox.cif.g09.slc.cpg/sg39_9_cif.got.tgz:17601.got - 2010.04.14 02:53:20.
