data_PCOD8181678
_publ_section_title
;
Structure prediction by ZEFSAII (Michael W. Deem and Ramdas Pophale) SiO2 
 PCOD8181678
Probable space group: A B M 2
;
_chemical_formula_sum "Si O2"
_cell_formula_units_Z 40
_cell_length_a 9.221080
_cell_length_b 8.572166
_cell_length_c 25.163632
_cell_angle_alpha 90.000000
_cell_angle_beta 90.000000
_cell_angle_gamma 90.000000
_cell_volume 1989.049942
_symmetry_space_group_name_H-M "A B M 2"
_symmetry_group_IT_number 39
_symmetry_cell_setting 'orthorhombic'
loop_
_space_group_symop_operation_xyz
x,y,z
-x,-y,z
-x,1/2+y,z
x,1/2-y,z
x,1/2+y,1/2+z
-x,1/2-y,1/2+z
-x,y,1/2+z
x,-y,1/2+z
loop_
_atom_site_type_symbol
_atom_site_label
_atom_site_fract_x
_atom_site_fract_y
_atom_site_fract_z
Si Si1 0.840330 0.065728 0.712020
Si Si2 0.149961 0.432099 0.905496
Si Si3 0.659590 0.934486 0.807823
Si Si4 0.341629 0.434220 0.615945
Si Si5 0.154564 0.064881 0.025126
O O1 0.844009 0.250000 0.704148
O O2 0.754422 0.022465 0.764712
O O3 0.766906 0.988947 0.661245
O O4 0.000000 0.000000 0.718045
O O5 0.127650 0.250000 0.907830
O O6 0.279625 0.478215 0.866061
O O7 0.000000 0.500000 0.883097
O O8 0.183696 0.493923 0.964844
O O9 0.662788 0.750000 0.796993
O O10 0.500000 0.000000 0.803885
O O11 0.500000 0.500000 0.627975
O O12 0.350156 0.250000 0.615146
O O13 0.284706 0.495151 0.559491
O O14 0.154294 0.250000 0.030485
O O15 0.000000 0.000000 0.045466
#
# Coordination Sequence:
#
# PCOD8181678 Si02
#       5
#     8   8   8   8   8
#     4  12  25  43  65  90 118 154 196 243 293 351
#     4   9  20  37  60  87 119 156 199 244 292 346
#     4  11  23  40  60  88 122 159 198 243 295 351
#     4  12  25  42  62  88 120 157 196 243 297 353
#     4  10  20  38  61  89 121 158 200 245 292 347
#
# _framework density 20.110101
#
# number of rings (size 3 to 8) (size 9 to 14) (size 15 to 20)
#    0.000    1.200    0.000    6.600    0.000    4.800 
#    0.000    2.000    0.000    0.000    0.000    0.000 
#    0.000    0.000    0.000    0.000    0.000    0.000 
#
# Total GULP energy -248102.609487 kJ/mol
# GULP energy per Si atom -12405.130474 kJ/mol
# Density = 2.006433 g / cm^3
# Si number density = 20.110101 Si / 1000 Ang^3
#
#
#
# Elastic Constant Matrix: (Units=GPa)
#
#
# Indices 1 2 3 4 5 6 
#
# 1 143.0916 33.5414 53.2088 0.0000 0.0000 0.0000
# 2 33.5414 106.9539 30.9642 0.0000 0.0000 0.0000
# 3 53.2088 30.9642 100.7875 0.0000 0.0000 0.0000
# 4 0.0000 0.0000 0.0000 29.1320 0.0000 0.0000
# 5 0.0000 0.0000 0.0000 0.0000 30.9075 0.0000
# 6 0.0000 0.0000 0.0000 0.0000 0.0000 39.7724
#
#
#
# Elastic Compliance Matrix: (Units=1/GPa)
#
#
# Indices 1 2 3 4 5 6 
#
# 1 0.008931 -0.001576 -0.004231 0.000000 0.000000 0.000000
# 2 -0.001576 0.010541 -0.002406 0.000000 0.000000 0.000000
# 3 -0.004231 -0.002406 0.012895 0.000000 0.000000 0.000000
# 4 0.000000 0.000000 0.000000 0.034326 0.000000 0.000000
# 5 0.000000 0.000000 0.000000 0.000000 0.032355 0.000000
# 6 0.000000 0.000000 0.000000 0.000000 0.000000 0.025143
#
#
# Mechanical properties :
#
#
# Convention : Reuss Voigt Hill
#
# Bulk Modulus (GPa) = 62.73420 65.14021 63.93720
# Shear Modulus (GPa) = 34.26286 35.50364 34.88325
#
# Velocity S-wave (km/s) = 4.13215 4.20630 4.16939
# Velocity P-wave (km/s) = 7.35046 7.48684 7.41896
#
# Compressibility (1/GPa) = 0.01594027
#
# Stress axis : x y z
#
# Youngs Moduli (GPa) = 111.96687 94.87017 77.55091
#
# Poissons Ratio (x) = 0.14952 0.32811
# Poissons Ratio (y) = 0.17646 0.18661
# Poissons Ratio (z) = 0.47372 0.22829
#
# Static dielectric constant tensor:
#      x y z
#    x 3.667570 0.000000 0.000000 
#    y 0.000000 3.806160 0.000000 
#    z 0.000000 0.000000 4.093960 
# 
# 
# High freq. dielectric constant tensor:
#      x y z
#    x 1.792030 0.000000 0.000000 
#    y 0.000000 1.799010 0.000000 
#    z 0.000000 0.000000 1.800790 
# 
# From -- ./inp_files/15453.got.cif
#   From: 2010.03.12/outbox.cif.g09.slc.cpg/sg39_8_cif.got.tgz:15453.got - 2010.04.14 02:53:20.
