data_PCOD8181094
_publ_section_title
;
Structure prediction by ZEFSAII (Michael W. Deem and Ramdas Pophale) SiO2 
 PCOD8181094
Probable space group: A B M 2
;
_chemical_formula_sum "Si O2"
_cell_formula_units_Z 48
_cell_length_a 8.606773
_cell_length_b 15.409308
_cell_length_c 18.709175
_cell_angle_alpha 90.000000
_cell_angle_beta 90.000000
_cell_angle_gamma 90.000000
_cell_volume 2481.293409
_symmetry_space_group_name_H-M "A B M 2"
_symmetry_group_IT_number 39
_symmetry_cell_setting 'orthorhombic'
loop_
_space_group_symop_operation_xyz
x,y,z
-x,-y,z
-x,1/2+y,z
x,1/2-y,z
x,1/2+y,1/2+z
-x,1/2-y,1/2+z
-x,y,1/2+z
x,-y,1/2+z
loop_
_atom_site_type_symbol
_atom_site_label
_atom_site_fract_x
_atom_site_fract_y
_atom_site_fract_z
Si Si1 0.288714 0.849461 0.411510
Si Si2 0.205133 0.845750 0.743144
Si Si3 0.102752 0.085054 0.777169
Si Si4 0.349039 0.650224 0.892375
Si Si5 0.316240 0.001550 0.663387
Si Si6 0.317273 0.991929 0.003765
O O1 0.258200 0.750000 0.436204
O O2 0.179296 0.873666 0.346257
O O3 0.466434 0.862016 0.387511
O O4 0.247998 0.916616 0.475195
O O5 0.268651 0.750000 0.727973
O O6 0.277628 0.881384 0.817437
O O7 0.017953 0.844428 0.746794
O O8 0.260084 0.904033 0.677635
O O9 0.236557 0.067327 0.718902
O O10 0.000000 0.000000 0.795021
O O11 0.303696 0.750000 0.909228
O O12 0.272262 0.589039 0.952987
O O13 0.257873 0.026788 0.583926
O O14 0.500000 0.000000 0.672750
O O15 0.500000 0.000000 0.007191
#
# Coordination Sequence:
#
# PCOD8181094 Si02
#       6
#     8   8   8   8   8   8
#     4  10  19  33  56  82 105 134 175 219 263 315
#     4  10  20  35  54  77 107 139 175 219 262 309
#     4  10  20  34  52  76 106 140 176 216 262 311
#     4   9  18  34  57  81 104 136 177 220 265 310
#     4  10  20  35  55  78 105 141 178 214 262 313
#     4   9  18  33  53  78 108 136 170 220 267 310
#
# _framework density 19.344749
#
# number of rings (size 3 to 8) (size 9 to 14) (size 15 to 20)
#    0.000    2.333    0.000    3.500    0.000    2.000 
#    0.000   12.500    0.000    2.000    0.000    0.000 
#    0.000    0.000    0.000    0.000    0.000    0.000 
#
# Total GULP energy -297530.525198 kJ/mol
# GULP energy per Si atom -12397.105217 kJ/mol
# Density = 1.930072 g / cm^3
# Si number density = 19.344749 Si / 1000 Ang^3
#
#
#
# Elastic Constant Matrix: (Units=GPa)
#
#
# Indices 1 2 3 4 5 6 
#
# 1 70.7411 15.4136 26.9728 0.0000 0.0000 0.0000
# 2 15.4136 87.6747 33.6895 0.0000 0.0000 0.0000
# 3 26.9728 33.6895 75.0476 0.0000 0.0000 0.0000
# 4 0.0000 0.0000 0.0000 22.5529 0.0000 0.0000
# 5 0.0000 0.0000 0.0000 0.0000 -1.6613 0.0000
# 6 0.0000 0.0000 0.0000 0.0000 0.0000 17.0856
#
#
#
# Elastic Compliance Matrix: (Units=1/GPa)
#
#
# Indices 1 2 3 4 5 6 
#
# 1 0.016421 -0.000748 -0.005566 0.000000 0.000000 0.000000
# 2 -0.000748 0.013817 -0.005934 0.000000 0.000000 0.000000
# 3 -0.005566 -0.005934 0.017989 0.000000 0.000000 0.000000
# 4 0.000000 0.000000 0.000000 0.044340 0.000000 0.000000
# 5 0.000000 0.000000 0.000000 0.000000 -0.601943 0.000000
# 6 0.000000 0.000000 0.000000 0.000000 0.000000 0.058529
#
#
# Mechanical properties :
#
#
# Convention : Reuss Voigt Hill
#
# Bulk Modulus (GPa) = 42.13781 42.84615 42.49198
# Shear Modulus (GPa) = -11.94916 18.08794 3.06939
#
# Velocity S-wave (km/s) = -2.48804 3.06115 1.26100
# Velocity P-wave (km/s) = 3.68457 5.88990 4.91258
#
# Compressibility (1/GPa) = 0.02373166
#
# Stress axis : x y z
#
# Youngs Moduli (GPa) = 60.89625 72.37219 55.58891
#
# Poissons Ratio (x) = 0.05414 0.30942
# Poissons Ratio (y) = 0.04556 0.32986
# Poissons Ratio (z) = 0.33896 0.42945
#
# Static dielectric constant tensor:
#      x y z
#    x 3.517600 0.000000 0.000000 
#    y 0.000000 3.677250 0.000000 
#    z 0.000000 0.000000 3.613560 
# 
# 
# High freq. dielectric constant tensor:
#      x y z
#    x 1.746120 0.000000 0.000000 
#    y 0.000000 1.757690 0.000000 
#    z 0.000000 0.000000 1.740980 
# 
# From -- ./inp_files/8357.got.cif
#   From: 2010.03.12/outbox.cif.g09.slc.cpg/sg39_5_cif.got.tgz:8357.got - 2010.04.14 02:53:20.
