data_PCOD8181976
_publ_section_title
;
Structure prediction by ZEFSAII (Michael W. Deem and Ramdas Pophale) SiO2 
 PCOD8181976
Probable space group: A B M 2
;
_chemical_formula_sum "Si O2"
_cell_formula_units_Z 64
_cell_length_a 16.754889
_cell_length_b 13.681121
_cell_length_c 12.305280
_cell_angle_alpha 90.000000
_cell_angle_beta 90.000000
_cell_angle_gamma 90.000000
_cell_volume 2820.685976
_symmetry_space_group_name_H-M "A B M 2"
_symmetry_group_IT_number 39
_symmetry_cell_setting 'orthorhombic'
loop_
_space_group_symop_operation_xyz
x,y,z
-x,-y,z
-x,1/2+y,z
x,1/2-y,z
x,1/2+y,1/2+z
-x,1/2-y,1/2+z
-x,y,1/2+z
x,-y,1/2+z
loop_
_atom_site_type_symbol
_atom_site_label
_atom_site_fract_x
_atom_site_fract_y
_atom_site_fract_z
Si Si1 0.150290 0.140537 0.160120
Si Si2 0.053765 0.861645 0.458555
Si Si3 0.802536 0.134695 0.312255
Si Si4 0.777523 0.453610 0.090884
Si Si5 0.502247 0.637533 0.190851
Si Si6 0.625325 0.363729 0.382177
Si Si7 0.603794 0.501215 0.086103
Si Si8 0.881018 0.134380 0.906711
O O1 0.185438 0.250000 0.154935
O O2 0.133655 0.106897 0.281982
O O3 0.214460 0.070666 0.103799
O O4 0.069733 0.132562 0.087993
O O5 0.046584 0.750000 0.418614
O O6 0.127700 0.910460 0.390741
O O7 0.967539 0.911261 0.437946
O O8 0.806654 0.250000 0.319990
O O9 0.821676 0.101941 0.189334
O O10 0.713333 0.100107 0.344133
O O11 0.683714 0.437492 0.096317
O O12 0.812858 0.415750 0.978039
O O13 0.522704 0.750000 0.170692
O O14 0.442560 0.621861 0.291003
O O15 0.584888 0.573228 0.192113
O O16 0.460607 0.587810 0.084046
O O17 0.628347 0.250000 0.417436
O O18 0.600705 0.432748 0.479816
O O19 0.877562 0.250000 0.926597
#
# Coordination Sequence:
#
# PCOD8181976 Si02
#       8
#     8   8   8   8   8   8   8   8
#     4  10  24  44  62  90 133 176 226 285 344 408
#     4   9  20  41  67  93 132 183 228 281 352 416
#     4  10  21  40  69 100 135 182 233 282 342 423
#     4  12  25  40  68  99 136 178 236 289 346 416
#     4  10  23  44  67  98 133 174 222 272 336 412
#     4  10  21  42  70  98 132 178 227 275 339 418
#     4  11  24  40  68 100 137 174 221 284 342 405
#     4  10  24  44  66  96 135 177 228 292 354 408
#
# _framework density 22.689516999999999
#
# number of rings (size 3 to 8) (size 9 to 14) (size 15 to 20)
#    0.000    1.750    1.250    1.500    5.250    5.000 
#    0.000    0.000    0.000    2.250    0.000    0.000 
#    0.000    0.000    0.000    0.000    0.000    0.000 
#
# Total GULP energy -396568.760934 kJ/mol
# GULP energy per Si atom -12392.773779 kJ/mol
# Density = 2.263787 g / cm^3
# Si number density = 22.689517 Si / 1000 Ang^3
#
#
#
# Elastic Constant Matrix: (Units=GPa)
#
#
# Indices 1 2 3 4 5 6 
#
# 1 111.1747 17.3517 44.0078 0.0000 0.0000 0.0000
# 2 17.3517 44.6245 27.1243 0.0000 0.0000 0.0000
# 3 44.0078 27.1243 124.0667 0.0000 0.0000 0.0000
# 4 0.0000 0.0000 0.0000 40.7605 0.0000 0.0000
# 5 0.0000 0.0000 0.0000 0.0000 32.1703 0.0000
# 6 0.0000 0.0000 0.0000 0.0000 0.0000 28.7286
#
#
#
# Elastic Compliance Matrix: (Units=1/GPa)
#
#
# Indices 1 2 3 4 5 6 
#
# 1 0.010636 -0.002125 -0.003308 0.000000 0.000000 0.000000
# 2 -0.002125 0.026268 -0.004989 0.000000 0.000000 0.000000
# 3 -0.003308 -0.004989 0.010324 0.000000 0.000000 0.000000
# 4 0.000000 0.000000 0.000000 0.024534 0.000000 0.000000
# 5 0.000000 0.000000 0.000000 0.000000 0.031085 0.000000
# 6 0.000000 0.000000 0.000000 0.000000 0.000000 0.034809
#
#
# Mechanical properties :
#
#
# Convention : Reuss Voigt Hill
#
# Bulk Modulus (GPa) = 37.90173 50.75928 44.33050
# Shear Modulus (GPa) = 29.88748 33.09069 31.48908
#
# Velocity S-wave (km/s) = 3.63331 3.82306 3.72939
# Velocity P-wave (km/s) = 5.86021 6.47360 6.17453
#
# Compressibility (1/GPa) = 0.02638402
#
# Stress axis : x y z
#
# Youngs Moduli (GPa) = 94.02027 38.06908 96.85811
#
# Poissons Ratio (x) = 0.08089 0.32042
# Poissons Ratio (y) = 0.19978 0.48324
# Poissons Ratio (z) = 0.31103 0.18993
#
# Static dielectric constant tensor:
#      x y z
#    x 4.262370 0.000000 0.000000 
#    y 0.000000 4.163830 0.000000 
#    z 0.000000 0.000000 4.012600 
# 
# 
# High freq. dielectric constant tensor:
#      x y z
#    x 1.892830 0.000000 0.000000 
#    y 0.000000 1.907070 0.000000 
#    z 0.000000 0.000000 1.887630 
# 
# From -- ./inp_files/6881.got.cif
#   From: 2010.03.12/outbox.cif.g09.slc.cpg/sg39_4_cif.got.tgz:6881.got - 2010.04.14 02:53:20.
