data_PCOD8181772
_publ_section_title
;
Structure prediction by ZEFSAII (Michael W. Deem and Ramdas Pophale) SiO2 
 PCOD8181772
Probable space group: A B M 2
;
_chemical_formula_sum "Si O2"
_cell_formula_units_Z 56
_cell_length_a 16.455503
_cell_length_b 17.358099
_cell_length_c 9.085676
_cell_angle_alpha 90.000000
_cell_angle_beta 90.000000
_cell_angle_gamma 90.000000
_cell_volume 2595.198423
_symmetry_space_group_name_H-M "A B M 2"
_symmetry_group_IT_number 39
_symmetry_cell_setting 'orthorhombic'
loop_
_space_group_symop_operation_xyz
x,y,z
-x,-y,z
-x,1/2+y,z
x,1/2-y,z
x,1/2+y,1/2+z
-x,1/2-y,1/2+z
-x,y,1/2+z
x,-y,1/2+z
loop_
_atom_site_type_symbol
_atom_site_label
_atom_site_fract_x
_atom_site_fract_y
_atom_site_fract_z
Si Si1 0.720085 0.165281 0.090230
Si Si2 0.109021 0.954859 0.696961
Si Si3 0.427169 0.842292 0.276128
Si Si4 0.250975 0.658218 0.766062
Si Si5 0.112499 0.368476 0.695374
Si Si6 0.583829 0.340913 0.605249
Si Si7 0.997568 0.104864 0.446078
O O1 0.686377 0.250000 0.052059
O O2 0.649069 0.123401 0.182845
O O3 0.802088 0.175124 0.186550
O O4 0.738220 0.126130 0.932757
O O5 0.178433 0.889976 0.693394
O O6 0.057161 0.949028 0.548608
O O7 0.140421 0.042001 0.699008
O O8 0.051292 0.946414 0.837136
O O9 0.423330 0.750000 0.281230
O O10 0.421552 0.875756 0.441215
O O11 0.510003 0.873638 0.203482
O O12 0.231203 0.750000 0.759224
O O13 0.331197 0.635717 0.677033
O O14 0.057364 0.345845 0.552298
O O15 0.062461 0.343548 0.842253
O O16 0.574799 0.250000 0.598683
#
# Coordination Sequence:
#
# PCOD8181772 Si02
#       7
#     8   8   8   8   8   8   8
#     4  10  21  36  53  80 116 145 174 219 273 323
#     4  11  20  36  57  79 104 141 187 229 267 315
#     4   9  17  31  53  79 107 143 182 217 258 315
#     4  10  21  36  53  80 116 145 174 219 273 323
#     4  11  20  36  57  79 104 141 187 229 267 315
#     4   9  17  31  53  79 107 143 182 217 258 315
#     4  10  21  36  57  78 103 140 189 232 265 314
#
# _framework density 21.578312
#
# number of rings (size 3 to 8) (size 9 to 14) (size 15 to 20)
#    0.000    2.000    1.429    4.286    2.000    3.429 
#    0.000    4.286    0.000    0.857    0.000    4.000 
#    0.000    0.000    0.000    0.000    0.000    0.000 
#
# Total GULP energy -347037.386517 kJ/mol
# GULP energy per Si atom -12394.192376 kJ/mol
# Density = 2.152920 g / cm^3
# Si number density = 21.578312 Si / 1000 Ang^3
#
#
#
# Elastic Constant Matrix: (Units=GPa)
#
#
# Indices 1 2 3 4 5 6 
#
# 1 171.5481 29.5938 76.3006 0.0000 0.0000 0.0000
# 2 29.5938 35.6922 16.1774 0.0000 0.0000 0.0000
# 3 76.3006 16.1774 158.5413 0.0000 0.0000 0.0000
# 4 0.0000 0.0000 0.0000 6.2027 0.0000 0.0000
# 5 0.0000 0.0000 0.0000 0.0000 75.4704 0.0000
# 6 0.0000 0.0000 0.0000 0.0000 0.0000 -5.5942
#
#
#
# Elastic Compliance Matrix: (Units=1/GPa)
#
#
# Indices 1 2 3 4 5 6 
#
# 1 0.008274 -0.005301 -0.003441 0.000000 0.000000 0.000000
# 2 -0.005301 0.032772 -0.000793 0.000000 0.000000 0.000000
# 3 -0.003441 -0.000793 0.008045 0.000000 0.000000 0.000000
# 4 0.000000 0.000000 0.000000 0.161220 0.000000 0.000000
# 5 0.000000 0.000000 0.000000 0.000000 0.013250 0.000000
# 6 0.000000 0.000000 0.000000 0.000000 0.000000 -0.178758
#
#
# Mechanical properties :
#
#
# Convention : Reuss Voigt Hill
#
# Bulk Modulus (GPa) = 33.31030 67.76946 50.53988
# Shear Modulus (GPa) = 67.67723 31.46311 49.57017
#
# Velocity S-wave (km/s) = 5.60639 3.82264 4.79813
# Velocity P-wave (km/s) = 7.57491 7.13848 7.35993
#
# Compressibility (1/GPa) = 0.03002074
#
# Stress axis : x y z
#
# Youngs Moduli (GPa) = 120.85616 30.51406 124.30739
#
# Poissons Ratio (x) = 0.16175 0.42777
# Poissons Ratio (y) = 0.64063 0.09856
# Poissons Ratio (z) = 0.41590 0.02419
#
# Static dielectric constant tensor:
#      x y z
#    x 4.038400 0.000000 0.000000 
#    y 0.000000 3.148230 0.000000 
#    z 0.000000 0.000000 4.313940 
# 
# 
# High freq. dielectric constant tensor:
#      x y z
#    x 1.856510 0.000000 0.000000 
#    y 0.000000 1.781920 0.000000 
#    z 0.000000 0.000000 1.868190 
# 
# From -- ./inp_files/3388.got.cif
#   From: 2010.03.12/outbox.cif.g09.slc.cpg/sg39_2_cif.got.tgz:3388.got - 2010.04.14 02:53:20.
