data_PCOD8181333
_publ_section_title
;
Structure prediction by ZEFSAII (Michael W. Deem and Ramdas Pophale) SiO2 
 PCOD8181333
Probable space group: A B M 2
;
_chemical_formula_sum "Si O2"
_cell_formula_units_Z 56
_cell_length_a 19.781783
_cell_length_b 9.382713
_cell_length_c 15.364839
_cell_angle_alpha 90.000000
_cell_angle_beta 90.000000
_cell_angle_gamma 90.000000
_cell_volume 2851.818484
_symmetry_space_group_name_H-M "A B M 2"
_symmetry_group_IT_number 39
_symmetry_cell_setting 'orthorhombic'
loop_
_space_group_symop_operation_xyz
x,y,z
-x,-y,z
-x,1/2+y,z
x,1/2-y,z
x,1/2+y,1/2+z
-x,1/2-y,1/2+z
-x,y,1/2+z
x,-y,1/2+z
loop_
_atom_site_type_symbol
_atom_site_label
_atom_site_fract_x
_atom_site_fract_y
_atom_site_fract_z
Si Si1 0.058007 0.404112 0.844050
Si Si2 0.796163 0.081245 0.599758
Si Si3 0.430316 0.582068 0.928801
Si Si4 0.652117 0.911890 0.788520
Si Si5 0.667222 0.585446 0.587057
Si Si6 0.198137 0.912860 0.271495
Si Si7 0.940883 0.906107 0.045675
O O1 0.050809 0.250000 0.799582
O O2 0.135172 0.457549 0.832245
O O3 0.000000 0.500000 0.798896
O O4 0.042125 0.392797 0.944989
O O5 0.786502 0.250000 0.591913
O O6 0.866035 0.028228 0.555885
O O7 0.731798 0.005993 0.555246
O O8 0.800439 0.031717 0.698319
O O9 0.500000 0.500000 0.936692
O O10 0.441885 0.750000 0.914167
O O11 0.390631 0.521836 0.845381
O O12 0.392357 0.552033 0.019637
O O13 0.625526 0.750000 0.802380
O O14 0.645371 0.954203 0.686017
O O15 0.730100 0.923099 0.821117
O O16 0.688894 0.750000 0.584218
O O17 0.190647 0.750000 0.235599
O O18 0.942732 0.750000 0.089962
O O19 0.000000 0.000000 0.090686
#
# Coordination Sequence:
#
# PCOD8181333 Si02
#       7
#     8   8   8   8   8   8   8
#     4   9  18  33  50  71 101 140 183 227 276 329
#     4  10  20  33  54  81 107 138 184 233 276 329
#     4  11  24  41  62  91 121 151 190 230 276 337
#     4   9  19  38  62  86 116 154 191 233 284 336
#     4   9  21  41  61  85 119 155 190 231 283 339
#     4   9  19  35  55  76 106 145 182 224 280 337
#     4   9  19  33  49  72 102 139 183 228 276 329
#
# _framework density 19.636592
#
# number of rings (size 3 to 8) (size 9 to 14) (size 15 to 20)
#    0.000    2.571    0.000    1.714    2.000    6.286 
#    0.000    4.286    0.000    0.000    0.000    0.000 
#    0.000    0.000    0.000    0.000    0.000    0.000 
#
# Total GULP energy -346982.202328 kJ/mol
# GULP energy per Si atom -12392.221512 kJ/mol
# Density = 1.959190 g / cm^3
# Si number density = 19.636592 Si / 1000 Ang^3
#
#
#
# Elastic Constant Matrix: (Units=GPa)
#
#
# Indices 1 2 3 4 5 6 
#
# 1 175.3789 88.9667 53.4930 0.0000 0.0000 0.0000
# 2 88.9667 99.7890 41.6542 0.0000 0.0000 0.0000
# 3 53.4930 41.6542 61.4601 0.0000 0.0000 0.0000
# 4 0.0000 0.0000 0.0000 19.9188 0.0000 0.0000
# 5 0.0000 0.0000 0.0000 0.0000 20.3781 0.0000
# 6 0.0000 0.0000 0.0000 0.0000 0.0000 38.8409
#
#
#
# Elastic Compliance Matrix: (Units=1/GPa)
#
#
# Indices 1 2 3 4 5 6 
#
# 1 0.011112 -0.008186 -0.004124 0.000000 0.000000 0.000000
# 2 -0.008186 0.020004 -0.006433 0.000000 0.000000 0.000000
# 3 -0.004124 -0.006433 0.024220 0.000000 0.000000 0.000000
# 4 0.000000 0.000000 0.000000 0.050204 0.000000 0.000000
# 5 0.000000 0.000000 0.000000 0.000000 0.049072 0.000000
# 6 0.000000 0.000000 0.000000 0.000000 0.000000 0.025746
#
#
# Mechanical properties :
#
#
# Convention : Reuss Voigt Hill
#
# Bulk Modulus (GPa) = 56.01926 78.31731 67.16828
# Shear Modulus (GPa) = 22.34180 25.99516 24.16848
#
# Velocity S-wave (km/s) = 3.37673 3.64237 3.51206
# Velocity P-wave (km/s) = 6.61763 7.59336 7.12222
#
# Compressibility (1/GPa) = 0.01785100
#
# Stress axis : x y z
#
# Youngs Moduli (GPa) = 89.99066 49.98878 41.28768
#
# Poissons Ratio (x) = 0.40919 0.17027
# Poissons Ratio (y) = 0.73663 0.26562
# Poissons Ratio (z) = 0.37112 0.32160
#
# Static dielectric constant tensor:
#      x y z
#    x 3.836670 0.000000 0.000000 
#    y 0.000000 3.833990 0.000000 
#    z 0.000000 0.000000 3.331090 
# 
# 
# High freq. dielectric constant tensor:
#      x y z
#    x 1.774390 0.000000 0.000000 
#    y 0.000000 1.764390 0.000000 
#    z 0.000000 0.000000 1.744110 
# 
# From -- ./inp_files/10343.got.cif
#   From: 2010.03.12/outbox.cif.g09.slc.cpg/sg39_6_cif.got.tgz:10343.got - 2010.04.14 02:53:20.
