data_PCOD8181547
_publ_section_title
;
Structure prediction by ZEFSAII (Michael W. Deem and Ramdas Pophale) SiO2 
 PCOD8181547
Probable space group: A B M 2
;
_chemical_formula_sum "Si O2"
_cell_formula_units_Z 48
_cell_length_a 9.532368
_cell_length_b 8.582421
_cell_length_c 30.282329
_cell_angle_alpha 90.000000
_cell_angle_beta 90.000000
_cell_angle_gamma 90.000000
_cell_volume 2477.421419
_symmetry_space_group_name_H-M "A B M 2"
_symmetry_group_IT_number 39
_symmetry_cell_setting 'orthorhombic'
loop_
_space_group_symop_operation_xyz
x,y,z
-x,-y,z
-x,1/2+y,z
x,1/2-y,z
x,1/2+y,1/2+z
-x,1/2-y,1/2+z
-x,y,1/2+z
x,-y,1/2+z
loop_
_atom_site_type_symbol
_atom_site_label
_atom_site_fract_x
_atom_site_fract_y
_atom_site_fract_z
Si Si1 0.151738 0.565432 0.230530
Si Si2 0.150216 0.065244 0.136015
Si Si3 0.147796 0.066701 0.980154
Si Si4 0.346073 0.433859 0.056382
Si Si5 0.150413 0.434683 0.879577
Si Si6 0.655259 0.434455 0.806165
O O1 0.144161 0.750000 0.231221
O O2 0.198103 0.507227 0.182382
O O3 0.266317 0.506997 0.264616
O O4 0.000000 0.500000 0.244036
O O5 0.140243 0.250000 0.140832
O O6 0.262325 0.011478 0.099688
O O7 0.000000 0.000000 0.121256
O O8 0.136445 0.250000 0.984211
O O9 0.181659 0.016533 0.930077
O O10 0.268511 0.001496 0.012503
O O11 0.000000 0.000000 0.996211
O O12 0.500000 0.500000 0.058505
O O13 0.354460 0.250000 0.054515
O O14 0.152913 0.250000 0.872307
O O15 0.270208 0.515767 0.851288
O O16 0.000000 0.500000 0.864392
O O17 0.500000 0.500000 0.807137
O O18 0.653022 0.250000 0.801875
#
# Coordination Sequence:
#
# PCOD8181547 Si02
#       6
#     8   8   8   8   8   8
#     4  11  22  39  62  87 114 147 188 232 280 332
#     4  10  20  36  58  84 112 144 187 234 279 329
#     4   9  19  36  58  84 112 145 187 232 276 326
#     4  10  22  37  54  80 114 150 187 228 276 332
#     4  10  20  37  60  86 115 148 189 234 280 331
#     4  12  25  41  59  83 115 150 188 230 282 338
#
# _framework density 19.374984999999999
#
# number of rings (size 3 to 8) (size 9 to 14) (size 15 to 20)
#    0.000    1.667    0.000    6.000    0.000    4.000 
#    0.000    3.333    0.000    0.000    0.000    0.000 
#    0.000    0.000    0.000    0.000    0.000    0.000 
#
# Total GULP energy -297686.374440 kJ/mol
# GULP energy per Si atom -12403.598935 kJ/mol
# Density = 1.933089 g / cm^3
# Si number density = 19.374985 Si / 1000 Ang^3
#
#
#
# Elastic Constant Matrix: (Units=GPa)
#
#
# Indices 1 2 3 4 5 6 
#
# 1 168.5460 44.2043 107.4573 0.0000 0.0000 0.0000
# 2 44.2043 95.3163 48.2133 0.0000 0.0000 0.0000
# 3 107.4573 48.2133 143.4062 0.0000 0.0000 0.0000
# 4 0.0000 0.0000 0.0000 27.5715 0.0000 0.0000
# 5 0.0000 0.0000 0.0000 0.0000 19.6218 0.0000
# 6 0.0000 0.0000 0.0000 0.0000 0.0000 37.9213
#
#
#
# Elastic Compliance Matrix: (Units=1/GPa)
#
#
# Indices 1 2 3 4 5 6 
#
# 1 0.011468 -0.001171 -0.008199 0.000000 0.000000 0.000000
# 2 -0.001171 0.012761 -0.003413 0.000000 0.000000 0.000000
# 3 -0.008199 -0.003413 0.014265 0.000000 0.000000 0.000000
# 4 0.000000 0.000000 0.000000 0.036269 0.000000 0.000000
# 5 0.000000 0.000000 0.000000 0.000000 0.050964 0.000000
# 6 0.000000 0.000000 0.000000 0.000000 0.000000 0.026370
#
#
# Mechanical properties :
#
#
# Convention : Reuss Voigt Hill
#
# Bulk Modulus (GPa) = 77.35817 89.66868 83.51343
# Shear Modulus (GPa) = 27.47686 30.84916 29.16301
#
# Velocity S-wave (km/s) = 3.76993 3.99459 3.88389
# Velocity P-wave (km/s) = 7.67876 8.22537 7.95676
#
# Compressibility (1/GPa) = 0.01292688
#
# Stress axis : x y z
#
# Youngs Moduli (GPa) = 87.20135 78.36577 70.10404
#
# Poissons Ratio (x) = 0.09176 0.57481
# Poissons Ratio (y) = 0.10210 0.23925
# Poissons Ratio (z) = 0.71499 0.26744
#
# Static dielectric constant tensor:
#      x y z
#    x 3.440830 0.000000 0.000000 
#    y 0.000000 3.618290 0.000000 
#    z 0.000000 0.000000 3.860950 
# 
# 
# High freq. dielectric constant tensor:
#      x y z
#    x 1.753270 0.000000 0.000000 
#    y 0.000000 1.763660 0.000000 
#    z 0.000000 0.000000 1.770820 
# 
# From -- ./inp_files/17589.got.cif
#   From: 2010.03.12/outbox.cif.g09.slc.cpg/sg39_9_cif.got.tgz:17589.got - 2010.04.14 02:53:20.
