data_PCOD8181908
_publ_section_title
;
Structure prediction by ZEFSAII (Michael W. Deem and Ramdas Pophale) SiO2 
 PCOD8181908
Probable space group: A B M 2
;
_chemical_formula_sum "Si O2"
_cell_formula_units_Z 64
_cell_length_a 23.857863
_cell_length_b 8.745921
_cell_length_c 15.347909
_cell_angle_alpha 90.000000
_cell_angle_beta 90.000000
_cell_angle_gamma 90.000000
_cell_volume 3202.479114
_symmetry_space_group_name_H-M "A B M 2"
_symmetry_group_IT_number 39
_symmetry_cell_setting 'orthorhombic'
loop_
_space_group_symop_operation_xyz
x,y,z
-x,-y,z
-x,1/2+y,z
x,1/2-y,z
x,1/2+y,1/2+z
-x,1/2-y,1/2+z
-x,y,1/2+z
x,-y,1/2+z
loop_
_atom_site_type_symbol
_atom_site_label
_atom_site_fract_x
_atom_site_fract_y
_atom_site_fract_z
Si Si1 0.638584 0.069084 0.488840
Si Si2 0.939711 0.429652 0.335668
Si Si3 0.246839 0.573752 0.748473
Si Si4 0.240873 0.070275 0.932290
Si Si5 0.858597 0.926880 0.681506
Si Si6 0.560939 0.930088 0.834831
Si Si7 0.127567 0.574385 0.987385
Si Si8 0.370495 0.573242 0.683526
O O1 0.641261 0.250000 0.479601
O O2 0.701199 0.006645 0.472648
O O3 0.596731 0.001799 0.415728
O O4 0.616961 0.021415 0.584352
O O5 0.946154 0.250000 0.334475
O O6 0.899606 0.485971 0.257654
O O7 0.914601 0.477679 0.428537
O O8 0.000000 0.500000 0.320345
O O9 0.241310 0.750000 0.777534
O O10 0.241179 0.461377 0.829804
O O11 0.197418 0.529737 0.681962
O O12 0.305300 0.543746 0.700777
O O13 0.232200 0.250000 0.948292
O O14 0.191305 0.978720 0.977438
O O15 0.842279 0.750000 0.695916
O O16 0.889181 0.948881 0.588490
O O17 0.555565 0.750000 0.841862
O O18 0.500000 0.000000 0.838492
O O19 0.590949 0.971032 0.744709
O O20 0.122550 0.750000 0.958768
O O21 0.386220 0.750000 0.698402
#
# Coordination Sequence:
#
# PCOD8181908 Si02
#       8
#     8   8   8   8   8   8   8   8
#     4   9  20  38  61  86 119 157 195 238 293 355
#     4  11  24  43  64  87 118 161 203 252 303 352
#     4  11  21  34  60  93 125 159 198 243 296 355
#     4  11  20  36  61  89 124 163 197 240 300 360
#     4  10  23  41  62  89 125 161 199 245 299 359
#     4  11  23  41  61  84 114 154 199 246 297 349
#     4  11  23  40  62  93 125 158 200 249 298 357
#     4  10  21  39  61  89 121 154 195 242 292 353
#
# _framework density 19.984517
#
# number of rings (size 3 to 8) (size 9 to 14) (size 15 to 20)
#    0.000    1.500    2.500    2.625    0.000    4.000 
#    0.000    5.000    0.000    0.000    0.000    0.000 
#    0.000    0.000    0.000    0.000    0.000    0.000 
#
# Total GULP energy -396928.149602 kJ/mol
# GULP energy per Si atom -12404.004675 kJ/mol
# Density = 1.993903 g / cm^3
# Si number density = 19.984517 Si / 1000 Ang^3
#
#
#
# Elastic Constant Matrix: (Units=GPa)
#
#
# Indices 1 2 3 4 5 6 
#
# 1 113.1433 29.4531 32.4353 0.0000 0.0000 0.0000
# 2 29.4531 48.4865 19.1588 0.0000 0.0000 0.0000
# 3 32.4353 19.1588 114.1097 0.0000 0.0000 0.0000
# 4 0.0000 0.0000 0.0000 27.0187 0.0000 0.0000
# 5 0.0000 0.0000 0.0000 0.0000 11.6032 0.0000
# 6 0.0000 0.0000 0.0000 0.0000 0.0000 22.6034
#
#
#
# Elastic Compliance Matrix: (Units=1/GPa)
#
#
# Indices 1 2 3 4 5 6 
#
# 1 0.010966 -0.005815 -0.002141 0.000000 0.000000 0.000000
# 2 -0.005815 0.025174 -0.002574 0.000000 0.000000 0.000000
# 3 -0.002141 -0.002574 0.009804 0.000000 0.000000 0.000000
# 4 0.000000 0.000000 0.000000 0.037011 0.000000 0.000000
# 5 0.000000 0.000000 0.000000 0.000000 0.086183 0.000000
# 6 0.000000 0.000000 0.000000 0.000000 0.000000 0.044241
#
#
# Mechanical properties :
#
#
# Convention : Reuss Voigt Hill
#
# Bulk Modulus (GPa) = 40.18569 48.64820 44.41694
# Shear Modulus (GPa) = 20.59875 25.22455 22.91165
#
# Velocity S-wave (km/s) = 3.21399 3.55661 3.38963
# Velocity P-wave (km/s) = 5.82452 6.42353 6.13134
#
# Compressibility (1/GPa) = 0.02488448
#
# Stress axis : x y z
#
# Youngs Moduli (GPa) = 91.19230 39.72387 101.99846
#
# Poissons Ratio (x) = 0.23101 0.21834
# Poissons Ratio (y) = 0.53032 0.26251
# Poissons Ratio (z) = 0.19521 0.10223
#
# Static dielectric constant tensor:
#      x y z
#    x 3.667290 0.000000 0.000000 
#    y 0.000000 3.562710 0.000000 
#    z 0.000000 0.000000 3.852900 
# 
# 
# High freq. dielectric constant tensor:
#      x y z
#    x 1.778150 0.000000 0.000000 
#    y 0.000000 1.771610 0.000000 
#    z 0.000000 0.000000 1.792460 
# 
# From -- ./inp_files/10593.got.cif
#   From: 2010.03.12/outbox.cif.g09.slc.cpg/sg39_6_cif.got.tgz:10593.got - 2010.04.14 02:53:20.
