data_PCOD8181999
_publ_section_title
;
Structure prediction by ZEFSAII (Michael W. Deem and Ramdas Pophale) SiO2 
 PCOD8181999
Probable space group: A B M 2
;
_chemical_formula_sum "Si O2"
_cell_formula_units_Z 64
_cell_length_a 11.795606
_cell_length_b 17.002449
_cell_length_c 15.202102
_cell_angle_alpha 90.000000
_cell_angle_beta 90.000000
_cell_angle_gamma 90.000000
_cell_volume 3048.845244
_symmetry_space_group_name_H-M "A B M 2"
_symmetry_group_IT_number 39
_symmetry_cell_setting 'orthorhombic'
loop_
_space_group_symop_operation_xyz
x,y,z
-x,-y,z
-x,1/2+y,z
x,1/2-y,z
x,1/2+y,1/2+z
-x,1/2-y,1/2+z
-x,y,1/2+z
x,-y,1/2+z
loop_
_atom_site_type_symbol
_atom_site_label
_atom_site_fract_x
_atom_site_fract_y
_atom_site_fract_z
Si Si1 0.789286 0.338291 0.639480
Si Si2 0.054937 0.838001 0.469747
Si Si3 0.781269 0.574564 0.864495
Si Si4 0.161951 0.441754 0.505710
Si Si5 0.129454 0.507819 0.699813
Si Si6 0.532056 0.657326 0.153442
Si Si7 0.619396 0.657496 0.498141
Si Si8 0.545708 0.843213 0.843208
O O1 0.796554 0.250000 0.679547
O O2 0.853953 0.343006 0.547707
O O3 0.843547 0.399186 0.708450
O O4 0.659549 0.365130 0.626417
O O5 0.003615 0.750000 0.462920
O O6 0.124160 0.857854 0.380755
O O7 0.958530 0.902778 0.484067
O O8 0.793510 0.541411 0.766438
O O9 0.656894 0.610821 0.874504
O O10 0.804600 0.507975 0.936586
O O11 0.155949 0.478496 0.602151
O O12 0.254280 0.374068 0.499982
O O13 0.000000 0.500000 0.727478
O O14 0.518709 0.750000 0.154518
O O15 0.449968 0.620429 0.079868
O O16 0.495309 0.624966 0.248609
O O17 0.627973 0.750000 0.508170
O O18 0.556136 0.634495 0.408434
O O19 0.571539 0.750000 0.844175
#
# Coordination Sequence:
#
# PCOD8181999 Si02
#       8
#     8   8   8   8   8   8   8   8
#     4  10  21  41  70  96 122 172 225 265 324 393
#     4  11  22  44  72  96 128 175 225 272 325 395
#     4  12  25  42  66  98 132 174 218 272 332 399
#     4  12  24  43  62  95 137 170 217 276 339 388
#     4  12  24  44  65  96 137 174 211 273 346 393
#     4   9  19  39  65  92 123 160 212 270 318 378
#     4  10  22  40  63  90 125 173 219 266 324 390
#     4  10  22  43  66  93 130 171 220 272 325 390
#
# _framework density 20.991555000000002
#
# number of rings (size 3 to 8) (size 9 to 14) (size 15 to 20)
#    0.000    1.250    2.500    3.375    1.750    2.500 
#    0.000    6.250    0.000    0.000    0.000    0.000 
#    0.000    0.000    0.000    0.000    0.000    0.000 
#
# Total GULP energy -396843.497569 kJ/mol
# GULP energy per Si atom -12401.359299 kJ/mol
# Density = 2.094378 g / cm^3
# Si number density = 20.991555 Si / 1000 Ang^3
#
#
#
# Elastic Constant Matrix: (Units=GPa)
#
#
# Indices 1 2 3 4 5 6 
#
# 1 129.8068 34.2827 25.8724 0.0000 0.0000 0.0000
# 2 34.2827 76.9770 23.5285 0.0000 0.0000 0.0000
# 3 25.8724 23.5285 85.4253 0.0000 0.0000 0.0000
# 4 0.0000 0.0000 0.0000 21.6455 0.0000 0.0000
# 5 0.0000 0.0000 0.0000 0.0000 29.0238 0.0000
# 6 0.0000 0.0000 0.0000 0.0000 0.0000 38.7151
#
#
#
# Elastic Compliance Matrix: (Units=1/GPa)
#
#
# Indices 1 2 3 4 5 6 
#
# 1 0.008968 -0.003455 -0.001765 0.000000 0.000000 0.000000
# 2 -0.003455 0.015516 -0.003227 0.000000 0.000000 0.000000
# 3 -0.001765 -0.003227 0.013129 0.000000 0.000000 0.000000
# 4 0.000000 0.000000 0.000000 0.046199 0.000000 0.000000
# 5 0.000000 0.000000 0.000000 0.000000 0.034454 0.000000
# 6 0.000000 0.000000 0.000000 0.000000 0.000000 0.025830
#
#
# Mechanical properties :
#
#
# Convention : Reuss Voigt Hill
#
# Bulk Modulus (GPa) = 48.26167 51.06403 49.66285
# Shear Modulus (GPa) = 29.78038 31.77858 30.77948
#
# Velocity S-wave (km/s) = 3.77063 3.89508 3.83336
# Velocity P-wave (km/s) = 6.48057 6.67889 6.58048
#
# Compressibility (1/GPa) = 0.02072038
#
# Stress axis : x y z
#
# Youngs Moduli (GPa) = 111.50969 64.45018 76.16479
#
# Poissons Ratio (x) = 0.22265 0.13440
# Poissons Ratio (y) = 0.38522 0.24580
# Poissons Ratio (z) = 0.19677 0.20800
#
# Static dielectric constant tensor:
#      x y z
#    x 3.906470 0.000000 0.000000 
#    y 0.000000 3.950270 0.000000 
#    z 0.000000 0.000000 3.897540 
# 
# 
# High freq. dielectric constant tensor:
#      x y z
#    x 1.834010 0.000000 0.000000 
#    y 0.000000 1.821490 0.000000 
#    z 0.000000 0.000000 1.821270 
# 
# From -- ./inp_files/9454.got.cif
#   From: 2010.03.12/outbox.cif.g09.slc.cpg/sg39_5_cif.got.tgz:9454.got - 2010.04.14 02:53:20.
