data_PCOD8181736
_publ_section_title
;
Structure prediction by ZEFSAII (Michael W. Deem and Ramdas Pophale) SiO2 
 PCOD8181736
Probable space group: A B M 2
;
_chemical_formula_sum "Si O2"
_cell_formula_units_Z 48
_cell_length_a 12.287102
_cell_length_b 21.379670
_cell_length_c 7.525775
_cell_angle_alpha 90.000000
_cell_angle_beta 90.000000
_cell_angle_gamma 90.000000
_cell_volume 1976.977338
_symmetry_space_group_name_H-M "A B M 2"
_symmetry_group_IT_number 39
_symmetry_cell_setting 'orthorhombic'
loop_
_space_group_symop_operation_xyz
x,y,z
-x,-y,z
-x,1/2+y,z
x,1/2-y,z
x,1/2+y,1/2+z
-x,1/2-y,1/2+z
-x,y,1/2+z
x,-y,1/2+z
loop_
_atom_site_type_symbol
_atom_site_label
_atom_site_fract_x
_atom_site_fract_y
_atom_site_fract_z
Si Si1 0.875591 0.009861 0.746230
Si Si2 0.197904 0.601697 0.448438
Si Si3 0.394792 0.678862 0.544319
Si Si4 0.633982 0.179174 0.957459
Si Si5 0.959859 0.177489 0.659233
Si Si6 0.851708 0.381086 0.993471
O O1 0.807602 0.053406 0.613992
O O2 0.870844 0.045829 0.939858
O O3 0.820613 0.940699 0.769274
O O4 0.000000 0.000000 0.687743
O O5 0.315565 0.633991 0.431540
O O6 0.106172 0.654465 0.482913
O O7 0.388073 0.750000 0.469609
O O8 0.357396 0.676252 0.746063
O O9 0.517549 0.653679 0.523849
O O10 0.650694 0.250000 0.025558
O O11 0.726821 0.134916 0.039959
O O12 0.983350 0.250000 0.636630
O O13 0.889091 0.164069 0.832404
O O14 0.073383 0.138724 0.661727
#
# Coordination Sequence:
#
# PCOD8181736 Si02
#       6
#     8   8   8   8   8   8
#     4  11  22  39  62  91 124 169 209 249 309 379
#     4  11  23  39  63  88 123 165 207 254 308 370
#     4  10  21  42  69  92 121 164 209 261 319 369
#     4  10  20  41  66  91 124 164 209 261 316 370
#     4  11  21  37  62  94 128 159 199 261 324 377
#     4  11  23  39  63  91 129 167 206 255 315 382
#
# _framework density 24.279491
#
# number of rings (size 3 to 8) (size 9 to 14) (size 15 to 20)
#    0.000    1.333    5.000    2.500    2.333    0.000 
#    6.000    0.833    0.000    0.000    0.000    0.000 
#    0.000    0.000    0.000    0.000    0.000    0.000 
#
# Total GULP energy -297703.238089 kJ/mol
# GULP energy per Si atom -12404.301587 kJ/mol
# Density = 2.422423 g / cm^3
# Si number density = 24.279491 Si / 1000 Ang^3
#
#
#
# Elastic Constant Matrix: (Units=GPa)
#
#
# Indices 1 2 3 4 5 6 
#
# 1 197.2524 76.5015 5.7617 0.0000 0.0000 0.0000
# 2 76.5015 154.8271 3.6620 0.0000 0.0000 0.0000
# 3 5.7617 3.6620 42.6677 0.0000 0.0000 0.0000
# 4 0.0000 0.0000 0.0000 33.1128 0.0000 0.0000
# 5 0.0000 0.0000 0.0000 0.0000 30.1907 0.0000
# 6 0.0000 0.0000 0.0000 0.0000 0.0000 45.5715
#
#
#
# Elastic Compliance Matrix: (Units=1/GPa)
#
#
# Indices 1 2 3 4 5 6 
#
# 1 0.006286 -0.003092 -0.000583 0.000000 0.000000 0.000000
# 2 -0.003092 0.007993 -0.000268 0.000000 0.000000 0.000000
# 3 -0.000583 -0.000268 0.023539 0.000000 0.000000 0.000000
# 4 0.000000 0.000000 0.000000 0.030200 0.000000 0.000000
# 5 0.000000 0.000000 0.000000 0.000000 0.033123 0.000000
# 6 0.000000 0.000000 0.000000 0.000000 0.000000 0.021944
#
#
# Mechanical properties :
#
#
# Convention : Reuss Voigt Hill
#
# Bulk Modulus (GPa) = 33.41168 62.95529 48.18348
# Shear Modulus (GPa) = 35.47397 42.36314 38.91855
#
# Velocity S-wave (km/s) = 3.82654 4.18163 4.00802
# Velocity P-wave (km/s) = 5.77186 7.02142 6.42708
#
# Compressibility (1/GPa) = 0.02992965
#
# Stress axis : x y z
#
# Youngs Moduli (GPa) = 159.08538 125.10912 42.48309
#
# Poissons Ratio (x) = 0.38685 0.02479
# Poissons Ratio (y) = 0.49191 0.01140
# Poissons Ratio (z) = 0.09282 0.03359
#
# Static dielectric constant tensor:
#      x y z
#    x 4.247140 0.000000 0.000000 
#    y 0.000000 4.498790 0.000000 
#    z 0.000000 0.000000 4.712570 
# 
# 
# High freq. dielectric constant tensor:
#      x y z
#    x 1.947670 0.000000 0.000000 
#    y 0.000000 1.969680 0.000000 
#    z 0.000000 0.000000 1.992160 
# 
# From -- ./inp_files/2694.got.cif
#   From: 2010.03.12/outbox.cif.g09.slc.cpg/sg39_2_cif.got.tgz:2694.got - 2010.04.14 02:53:20.
