data_PCOD8181853
_publ_section_title
;
Structure prediction by ZEFSAII (Michael W. Deem and Ramdas Pophale) SiO2 
 PCOD8181853
Probable space group: A B M 2
;
_chemical_formula_sum "Si O2"
_cell_formula_units_Z 64
_cell_length_a 20.485242
_cell_length_b 8.475189
_cell_length_c 18.406702
_cell_angle_alpha 90.000000
_cell_angle_beta 90.000000
_cell_angle_gamma 90.000000
_cell_volume 3195.703453
_symmetry_space_group_name_H-M "A B M 2"
_symmetry_group_IT_number 39
_symmetry_cell_setting 'orthorhombic'
loop_
_space_group_symop_operation_xyz
x,y,z
-x,-y,z
-x,1/2+y,z
x,1/2-y,z
x,1/2+y,1/2+z
-x,1/2-y,1/2+z
-x,y,1/2+z
x,-y,1/2+z
loop_
_atom_site_type_symbol
_atom_site_label
_atom_site_fract_x
_atom_site_fract_y
_atom_site_fract_z
Si Si1 0.431576 0.436786 0.814200
Si Si2 0.309436 0.566477 0.405518
Si Si3 0.930863 0.065418 0.911516
Si Si4 0.692418 0.935545 0.564449
Si Si5 0.568425 0.562897 0.649759
Si Si6 0.071566 0.563932 0.566920
Si Si7 0.806924 0.431841 0.817460
Si Si8 0.813207 0.564459 0.659018
O O1 0.500000 0.500000 0.845945
O O2 0.432110 0.250000 0.814895
O O3 0.372952 0.501718 0.863956
O O4 0.421148 0.499498 0.732040
O O5 0.317702 0.750000 0.421438
O O6 0.301363 0.477914 0.480853
O O7 0.246213 0.539943 0.356476
O O8 0.937477 0.250000 0.929652
O O9 0.878111 0.030109 0.849718
O O10 0.000000 0.000000 0.882929
O O11 0.908643 0.975923 0.984388
O O12 0.690519 0.750000 0.572513
O O13 0.626531 0.006894 0.600040
O O14 0.755249 0.999488 0.607531
O O15 0.500000 0.500000 0.618142
O O16 0.567684 0.750000 0.647895
O O17 0.075845 0.750000 0.580155
O O18 0.118665 0.473147 0.621414
O O19 0.000000 0.500000 0.584095
O O20 0.788476 0.250000 0.830511
O O21 0.808117 0.469277 0.733103
O O22 0.807373 0.750000 0.674784
#
# Coordination Sequence:
#
# PCOD8181853 Si02
#       8
#     8   8   8   8   8   8   8   8
#     4   9  19  36  57  82 111 146 188 232 282 339
#     4  11  23  38  58  84 114 149 191 237 284 338
#     4  10  21  38  60  86 116 150 188 231 280 335
#     4  10  22  39  58  81 113 151 188 232 286 340
#     4   9  18  35  57  80 109 145 185 229 279 335
#     4  11  22  38  61  88 118 152 191 233 280 337
#     4  11  24  40  59  85 116 150 191 236 285 343
#     4  11  23  40  61  84 114 151 191 238 289 339
#
# _framework density 20.026889000000001
#
# number of rings (size 3 to 8) (size 9 to 14) (size 15 to 20)
#    0.000    1.750    0.000    4.875    0.000   10.500 
#    0.000    6.250    0.000    0.000    0.000    0.000 
#    0.000    0.000    0.000    0.000    0.000    0.000 
#
# Total GULP energy -396937.709720 kJ/mol
# GULP energy per Si atom -12404.303429 kJ/mol
# Density = 1.998131 g / cm^3
# Si number density = 20.026889 Si / 1000 Ang^3
#
#
#
# Elastic Constant Matrix: (Units=GPa)
#
#
# Indices 1 2 3 4 5 6 
#
# 1 131.3788 19.1081 72.1414 0.0000 0.0000 0.0000
# 2 19.1081 33.0212 -0.1591 0.0000 0.0000 0.0000
# 3 72.1414 -0.1591 114.9973 0.0000 0.0000 0.0000
# 4 0.0000 0.0000 0.0000 -18.0128 0.0000 0.0000
# 5 0.0000 0.0000 0.0000 0.0000 36.6622 0.0000
# 6 0.0000 0.0000 0.0000 0.0000 0.0000 33.4026
#
#
#
# Elastic Compliance Matrix: (Units=1/GPa)
#
#
# Indices 1 2 3 4 5 6 
#
# 1 0.013342 -0.007761 -0.008381 0.000000 0.000000 0.000000
# 2 -0.007761 0.034798 0.004917 0.000000 0.000000 0.000000
# 3 -0.008381 0.004917 0.013960 0.000000 0.000000 0.000000
# 4 0.000000 0.000000 0.000000 -0.055516 0.000000 0.000000
# 5 0.000000 0.000000 0.000000 0.000000 0.027276 0.000000
# 6 0.000000 0.000000 0.000000 0.000000 0.000000 0.029938
#
#
# Mechanical properties :
#
#
# Convention : Reuss Voigt Hill
#
# Bulk Modulus (GPa) = 25.22010 51.28647 38.25329
# Shear Modulus (GPa) = 50.26866 22.96420 36.61643
#
# Velocity S-wave (km/s) = 5.01548 3.38992 4.28058
# Velocity P-wave (km/s) = 6.79416 6.40207 6.60103
#
# Compressibility (1/GPa) = 0.03965091
#
# Stress axis : x y z
#
# Youngs Moduli (GPa) = 74.94921 28.73701 71.63214
#
# Poissons Ratio (x) = 0.22303 0.60034
# Poissons Ratio (y) = 0.58169 -0.35221
# Poissons Ratio (z) = 0.62814 -0.14130
#
# Static dielectric constant tensor:
#      x y z
#    x 3.956870 0.000000 0.000000 
#    y 0.000000 3.646700 0.000000 
#    z 0.000000 0.000000 3.644960 
# 
# 
# High freq. dielectric constant tensor:
#      x y z
#    x 1.798110 0.000000 0.000000 
#    y 0.000000 1.778420 0.000000 
#    z 0.000000 0.000000 1.780600 
# 
# From -- ./inp_files/13091.got.cif
#   From: 2010.03.12/outbox.cif.g09.slc.cpg/sg39_7_cif.got.tgz:13091.got - 2010.04.14 02:53:20.
