data_PCOD8181453
_publ_section_title
;
Structure prediction by ZEFSAII (Michael W. Deem and Ramdas Pophale) SiO2 
 PCOD8181453
Probable space group: A B M 2
;
_chemical_formula_sum "Si O2"
_cell_formula_units_Z 64
_cell_length_a 20.362493
_cell_length_b 18.253061
_cell_length_c 8.878149
_cell_angle_alpha 90.000000
_cell_angle_beta 90.000000
_cell_angle_gamma 90.000000
_cell_volume 3299.811127
_symmetry_space_group_name_H-M "A B M 2"
_symmetry_group_IT_number 39
_symmetry_cell_setting 'orthorhombic'
loop_
_space_group_symop_operation_xyz
x,y,z
-x,-y,z
-x,1/2+y,z
x,1/2-y,z
x,1/2+y,1/2+z
-x,1/2-y,1/2+z
-x,y,1/2+z
x,-y,1/2+z
loop_
_atom_site_type_symbol
_atom_site_label
_atom_site_fract_x
_atom_site_fract_y
_atom_site_fract_z
Si Si1 0.697017 0.074416 0.158250
Si Si2 0.196558 0.834691 0.661382
Si Si3 0.439709 0.333508 0.989357
Si Si4 0.688131 0.082561 0.512748
Si Si5 0.573234 0.166684 0.135342
Si Si6 0.936723 0.918784 0.499458
Si Si7 0.807730 0.165451 0.007658
Si Si8 0.929881 0.927128 0.146200
O O1 0.692673 0.069730 0.336296
O O2 0.634539 0.116542 0.088025
O O3 0.762783 0.117091 0.115593
O O4 0.699865 0.992789 0.097378
O O5 0.182935 0.750000 0.632432
O O6 0.257380 0.859243 0.560822
O O7 0.131726 0.876624 0.608184
O O8 0.212874 0.850408 0.835760
O O9 0.428396 0.250000 0.044414
O O10 0.382546 0.384154 0.057726
O O11 0.440881 0.338151 0.810954
O O12 0.509303 0.363201 0.048964
O O13 0.589444 0.250000 0.086749
O O14 0.883516 0.856097 0.532910
O O15 0.943874 0.933778 0.322794
O O16 0.006511 0.892255 0.564887
O O17 0.914131 0.992910 0.581333
O O18 0.798866 0.250000 0.051309
#
# Coordination Sequence:
#
# PCOD8181453 Si02
#       8
#     8   8   8   8   8   8   8   8
#     4  11  23  38  57  82 112 146 186 230 275 326
#     4  10  22  39  58  82 112 145 183 228 277 329
#     4   9  19  36  57  81 109 142 181 224 271 325
#     4  11  23  38  57  82 112 146 186 230 275 326
#     4   9  19  36  57  81 109 142 181 224 271 325
#     4  10  20  35  56  81 110 144 182 224 270 323
#     4  10  22  39  58  82 112 145 183 228 277 329
#     4  10  20  35  56  81 110 144 182 224 270 323
#
# _framework density 19.395050000000001
#
# number of rings (size 3 to 8) (size 9 to 14) (size 15 to 20)
#    0.000    2.000    0.000    3.750    0.000    8.500 
#    0.000    5.000    0.000    0.000    0.000    0.000 
#    0.000    0.000    0.000    0.000    0.000    0.000 
#
# Total GULP energy -396932.353985 kJ/mol
# GULP energy per Si atom -12404.136062 kJ/mol
# Density = 1.935091 g / cm^3
# Si number density = 19.395050 Si / 1000 Ang^3
#
#
#
# Elastic Constant Matrix: (Units=GPa)
#
#
# Indices 1 2 3 4 5 6 
#
# 1 81.0581 8.4703 22.6187 0.0000 0.0000 0.0000
# 2 8.4703 42.9601 8.4602 0.0000 0.0000 0.0000
# 3 22.6187 8.4602 56.2435 0.0000 0.0000 0.0000
# 4 0.0000 0.0000 0.0000 19.1364 0.0000 0.0000
# 5 0.0000 0.0000 0.0000 0.0000 34.5530 0.0000
# 6 0.0000 0.0000 0.0000 0.0000 0.0000 42.5271
#
#
#
# Elastic Compliance Matrix: (Units=1/GPa)
#
#
# Indices 1 2 3 4 5 6 
#
# 1 0.014016 -0.001704 -0.005380 0.000000 0.000000 0.000000
# 2 -0.001704 0.024195 -0.002954 0.000000 0.000000 0.000000
# 3 -0.005380 -0.002954 0.020388 0.000000 0.000000 0.000000
# 4 0.000000 0.000000 0.000000 0.052257 0.000000 0.000000
# 5 0.000000 0.000000 0.000000 0.000000 0.028941 0.000000
# 6 0.000000 0.000000 0.000000 0.000000 0.000000 0.023514
#
#
# Mechanical properties :
#
#
# Convention : Reuss Voigt Hill
#
# Bulk Modulus (GPa) = 25.95904 28.81777 27.38840
# Shear Modulus (GPa) = 25.48041 28.62414 27.05227
#
# Velocity S-wave (km/s) = 3.62851 3.84584 3.73876
# Velocity P-wave (km/s) = 5.56491 5.88313 5.72623
#
# Compressibility (1/GPa) = 0.03852223
#
# Stress axis : x y z
#
# Youngs Moduli (GPa) = 71.34574 41.33064 49.04852
#
# Poissons Ratio (x) = 0.07043 0.26390
# Poissons Ratio (y) = 0.12157 0.14490
# Poissons Ratio (z) = 0.38387 0.12210
#
# Static dielectric constant tensor:
#      x y z
#    x 3.698840 0.000000 0.000000 
#    y 0.000000 3.537050 0.000000 
#    z 0.000000 0.000000 3.525240 
# 
# 
# High freq. dielectric constant tensor:
#      x y z
#    x 1.768440 0.000000 0.000000 
#    y 0.000000 1.753830 0.000000 
#    z 0.000000 0.000000 1.756070 
# 
# From -- ./inp_files/4025.got.cif
#   From: 2010.03.12/outbox.cif.g09.slc.cpg/sg39_3_cif.got.tgz:4025.got - 2010.04.14 02:53:20.
