data_PCOD8181029
_publ_section_title
;
Structure prediction by ZEFSAII (Michael W. Deem and Ramdas Pophale) SiO2 
 PCOD8181029
Probable space group: A B M 2
;
_chemical_formula_sum "Si O2"
_cell_formula_units_Z 64
_cell_length_a 23.879483
_cell_length_b 8.740484
_cell_length_c 15.466769
_cell_angle_alpha 90.000000
_cell_angle_beta 90.000000
_cell_angle_gamma 90.000000
_cell_volume 3228.196790
_symmetry_space_group_name_H-M "A B M 2"
_symmetry_group_IT_number 39
_symmetry_cell_setting 'orthorhombic'
loop_
_space_group_symop_operation_xyz
x,y,z
-x,-y,z
-x,1/2+y,z
x,1/2-y,z
x,1/2+y,1/2+z
-x,1/2-y,1/2+z
-x,y,1/2+z
x,-y,1/2+z
loop_
_atom_site_type_symbol
_atom_site_label
_atom_site_fract_x
_atom_site_fract_y
_atom_site_fract_z
Si Si1 0.938930 0.067779 0.224960
Si Si2 0.559689 0.429887 0.968255
Si Si3 0.374732 0.069455 0.631366
Si Si4 0.136389 0.927837 0.069920
Si Si5 0.867253 0.569392 0.374030
Si Si6 0.739387 0.428464 0.052881
Si Si7 0.630909 0.927408 0.820611
Si Si8 0.247455 0.074880 0.873347
O O1 0.940860 0.250000 0.224847
O O2 0.903373 0.000356 0.143631
O O3 0.912826 0.013135 0.315113
O O4 0.000000 0.000000 0.215188
O O5 0.500000 0.500000 0.946461
O O6 0.552917 0.250000 0.973987
O O7 0.603114 0.467937 0.892710
O O8 0.583552 0.499088 0.058662
O O9 0.377258 0.250000 0.624337
O O10 0.310461 0.018984 0.615639
O O11 0.393242 0.018390 0.727347
O O12 0.123695 0.750000 0.066209
O O13 0.200684 0.959454 0.098065
O O14 0.124917 0.992129 0.972957
O O15 0.875703 0.750000 0.367755
O O16 0.804572 0.528188 0.341727
O O17 0.734912 0.250000 0.025629
O O18 0.733417 0.532336 0.969110
O O19 0.616835 0.750000 0.839882
O O20 0.697890 0.951558 0.814380
O O21 0.227504 0.250000 0.869151
#
# Coordination Sequence:
#
# PCOD8181029 Si02
#       8
#     8   8   8   8   8   8   8   8
#     4  11  23  40  60  85 115 152 196 240 289 346
#     4  11  23  41  62  83 113 153 195 240 289 343
#     4   9  19  35  59  86 114 151 192 234 288 345
#     4   8  18  35  59  84 112 151 193 234 284 342
#     4  10  21  39  60  85 117 156 197 240 289 345
#     4   9  16  33  59  83 114 152 191 234 287 349
#     4  10  21  37  59  88 119 153 194 237 288 347
#     4  10  19  32  56  88 122 153 188 238 291 345
#
# _framework density 19.825308
#
# number of rings (size 3 to 8) (size 9 to 14) (size 15 to 20)
#    0.000    2.250    1.250    2.250    1.750    1.500 
#    0.000   10.625    0.000    0.000    0.000    0.000 
#    0.000    0.000    0.000    0.000    0.000    0.000 
#
# Total GULP energy -396696.713227 kJ/mol
# GULP energy per Si atom -12396.772288 kJ/mol
# Density = 1.978018 g / cm^3
# Si number density = 19.825308 Si / 1000 Ang^3
#
#
#
# Elastic Constant Matrix: (Units=GPa)
#
#
# Indices 1 2 3 4 5 6 
#
# 1 98.3913 27.9861 37.2367 0.0000 0.0000 0.0000
# 2 27.9861 52.0952 23.8151 0.0000 0.0000 0.0000
# 3 37.2367 23.8151 92.8363 0.0000 0.0000 0.0000
# 4 0.0000 0.0000 0.0000 22.5940 0.0000 0.0000
# 5 0.0000 0.0000 0.0000 0.0000 26.3990 0.0000
# 6 0.0000 0.0000 0.0000 0.0000 0.0000 29.6555
#
#
#
# Elastic Compliance Matrix: (Units=1/GPa)
#
#
# Indices 1 2 3 4 5 6 
#
# 1 0.013146 -0.005270 -0.003921 0.000000 0.000000 0.000000
# 2 -0.005270 0.023858 -0.004007 0.000000 0.000000 0.000000
# 3 -0.003921 -0.004007 0.013372 0.000000 0.000000 0.000000
# 4 0.000000 0.000000 0.000000 0.044260 0.000000 0.000000
# 5 0.000000 0.000000 0.000000 0.000000 0.037880 0.000000
# 6 0.000000 0.000000 0.000000 0.000000 0.000000 0.033721
#
#
# Mechanical properties :
#
#
# Convention : Reuss Voigt Hill
#
# Bulk Modulus (GPa) = 41.69843 46.82206 44.26025
# Shear Modulus (GPa) = 24.92194 26.01534 25.46864
#
# Velocity S-wave (km/s) = 3.54937 3.62640 3.58809
# Velocity P-wave (km/s) = 6.15435 6.41895 6.28804
#
# Compressibility (1/GPa) = 0.02398172
#
# Stress axis : x y z
#
# Youngs Moduli (GPa) = 76.06620 41.91422 74.78178
#
# Poissons Ratio (x) = 0.22088 0.29323
# Poissons Ratio (y) = 0.40086 0.29962
# Poissons Ratio (z) = 0.29827 0.16793
#
# Static dielectric constant tensor:
#      x y z
#    x 3.737110 0.000000 0.000000 
#    y 0.000000 3.361790 0.000000 
#    z 0.000000 0.000000 3.861940 
# 
# 
# High freq. dielectric constant tensor:
#      x y z
#    x 1.774200 0.000000 0.000000 
#    y 0.000000 1.748550 0.000000 
#    z 0.000000 0.000000 1.776280 
# 
# From -- ./inp_files/10675.got.cif
#   From: 2010.03.12/outbox.cif.g09.slc.cpg/sg39_6_cif.got.tgz:10675.got - 2010.04.14 02:53:20.
