data_PCOD8181049
_publ_section_title
;
Structure prediction by ZEFSAII (Michael W. Deem and Ramdas Pophale) SiO2 
 PCOD8181049
Probable space group: A B M 2
;
_chemical_formula_sum "Si O2"
_cell_formula_units_Z 64
_cell_length_a 9.271058
_cell_length_b 15.837014
_cell_length_c 20.687451
_cell_angle_alpha 90.000000
_cell_angle_beta 90.000000
_cell_angle_gamma 90.000000
_cell_volume 3037.453102
_symmetry_space_group_name_H-M "A B M 2"
_symmetry_group_IT_number 39
_symmetry_cell_setting 'orthorhombic'
loop_
_space_group_symop_operation_xyz
x,y,z
-x,-y,z
-x,1/2+y,z
x,1/2-y,z
x,1/2+y,1/2+z
-x,1/2-y,1/2+z
-x,y,1/2+z
x,-y,1/2+z
loop_
_atom_site_type_symbol
_atom_site_label
_atom_site_fract_x
_atom_site_fract_y
_atom_site_fract_z
Si Si1 0.410287 0.649153 0.632340
Si Si2 0.580845 0.649711 0.507691
Si Si3 0.912624 0.850755 0.124538
Si Si4 0.096790 0.651359 0.007581
Si Si5 0.401953 0.845839 0.249227
Si Si6 0.917857 0.149452 0.249780
Si Si7 0.440835 0.908411 0.868044
Si Si8 0.878849 0.150524 0.863899
O O1 0.407561 0.750000 0.635133
O O2 0.483890 0.617021 0.566469
O O3 0.248211 0.612759 0.633017
O O4 0.498125 0.611567 0.693689
O O5 0.582240 0.750000 0.502128
O O6 0.742604 0.614706 0.518752
O O7 0.514665 0.614403 0.441108
O O8 0.906726 0.750000 0.122885
O O9 0.983071 0.888131 0.058459
O O10 0.008298 0.882918 0.184249
O O11 0.102938 0.750000 0.021881
O O12 0.048213 0.633207 0.933876
O O13 0.376560 0.750000 0.227703
O O14 0.243662 0.888999 0.252715
O O15 0.479674 0.846331 0.318333
O O16 0.915159 0.250000 0.253481
O O17 0.010151 0.116000 0.310678
O O18 0.269550 0.900942 0.857501
O O19 0.500000 0.000000 0.850117
O O20 0.842794 0.250000 0.855919
#
# Coordination Sequence:
#
# PCOD8181049 Si02
#       8
#     8   8   8   8   8   8   8   8
#     4   9  17  28  49  78 106 132 163 207 260 308
#     4   9  17  32  52  74  99 131 168 212 259 305
#     4   9  15  24  41  72 105 127 153 200 255 309
#     4   8  14  24  41  64  94 126 158 196 244 295
#     4  10  19  33  53  79 106 133 168 215 262 311
#     4   9  17  28  48  75 102 130 164 206 257 308
#     4  11  22  35  51  74 103 140 179 214 258 310
#     4   9  17  32  52  74 100 135 173 214 259 306
#
# _framework density 21.070283
#
# number of rings (size 3 to 8) (size 9 to 14) (size 15 to 20)
#    0.000    2.750    0.000    3.375    0.000    6.000 
#    0.000    5.000    0.000    0.000    0.000    3.500 
#    0.000    0.000    0.000    0.000    0.000    0.000 
#
# Total GULP energy -396709.270898 kJ/mol
# GULP energy per Si atom -12397.164716 kJ/mol
# Density = 2.102233 g / cm^3
# Si number density = 21.070283 Si / 1000 Ang^3
#
#
#
# Elastic Constant Matrix: (Units=GPa)
#
#
# Indices 1 2 3 4 5 6 
#
# 1 176.6828 11.7464 113.3815 0.0000 0.0000 0.0000
# 2 11.7464 14.3539 6.9743 0.0000 0.0000 0.0000
# 3 113.3815 6.9743 190.6844 0.0000 0.0000 0.0000
# 4 0.0000 0.0000 0.0000 3.4771 0.0000 0.0000
# 5 0.0000 0.0000 0.0000 0.0000 48.4233 0.0000
# 6 0.0000 0.0000 0.0000 0.0000 0.0000 9.8762
#
#
#
# Elastic Compliance Matrix: (Units=1/GPa)
#
#
# Indices 1 2 3 4 5 6 
#
# 1 0.009508 -0.005125 -0.005466 0.000000 0.000000 0.000000
# 2 -0.005125 0.073690 0.000352 0.000000 0.000000 0.000000
# 3 -0.005466 0.000352 0.008482 0.000000 0.000000 0.000000
# 4 0.000000 0.000000 0.000000 0.287594 0.000000 0.000000
# 5 0.000000 0.000000 0.000000 0.000000 0.020651 0.000000
# 6 0.000000 0.000000 0.000000 0.000000 0.000000 0.101254
#
#
# Mechanical properties :
#
#
# Convention : Reuss Voigt Hill
#
# Bulk Modulus (GPa) = 14.04455 71.76949 42.90702
# Shear Modulus (GPa) = 9.16772 28.99659 19.08216
#
# Velocity S-wave (km/s) = 2.08817 3.71372 3.01266
# Velocity P-wave (km/s) = 3.53468 7.24740 5.70170
#
# Compressibility (1/GPa) = 0.07120199
#
# Stress axis : x y z
#
# Youngs Moduli (GPa) = 105.16956 13.57029 117.90141
#
# Poissons Ratio (x) = 0.06955 0.64448
# Poissons Ratio (y) = 0.53902 -0.04153
# Poissons Ratio (z) = 0.57489 -0.00478
#
# Static dielectric constant tensor:
#      x y z
#    x 4.028250 0.000000 0.000000 
#    y 0.000000 3.040450 0.000000 
#    z 0.000000 0.000000 4.006060 
# 
# 
# High freq. dielectric constant tensor:
#      x y z
#    x 1.830620 0.000000 0.000000 
#    y 0.000000 1.760010 0.000000 
#    z 0.000000 0.000000 1.841610 
# 
# From -- ./inp_files/11930.got.cif
#   From: 2010.03.12/outbox.cif.g09.slc.cpg/sg39_6_cif.got.tgz:11930.got - 2010.04.14 02:53:20.
