data_PCOD8181449
_publ_section_title
;
Structure prediction by ZEFSAII (Michael W. Deem and Ramdas Pophale) SiO2 
 PCOD8181449
Probable space group: A B M 2
;
_chemical_formula_sum "Si O2"
_cell_formula_units_Z 48
_cell_length_a 9.316176
_cell_length_b 17.935866
_cell_length_c 14.558079
_cell_angle_alpha 90.000000
_cell_angle_beta 90.000000
_cell_angle_gamma 90.000000
_cell_volume 2432.563057
_symmetry_space_group_name_H-M "A B M 2"
_symmetry_group_IT_number 39
_symmetry_cell_setting 'orthorhombic'
loop_
_space_group_symop_operation_xyz
x,y,z
-x,-y,z
-x,1/2+y,z
x,1/2-y,z
x,1/2+y,1/2+z
-x,1/2-y,1/2+z
-x,y,1/2+z
x,-y,1/2+z
loop_
_atom_site_type_symbol
_atom_site_label
_atom_site_fract_x
_atom_site_fract_y
_atom_site_fract_z
Si Si1 0.322524 0.164922 0.647590
Si Si2 0.198996 0.838003 0.745996
Si Si3 0.991841 0.665364 0.582360
Si Si4 0.490666 0.587503 0.783978
Si Si5 0.407697 0.430788 0.481268
Si Si6 0.907565 0.070604 0.914780
O O1 0.370452 0.250000 0.651993
O O2 0.153156 0.154557 0.640153
O O3 0.367962 0.124775 0.741607
O O4 0.403722 0.130793 0.559859
O O5 0.214482 0.750000 0.764882
O O6 0.352646 0.876768 0.734966
O O7 0.110060 0.873248 0.829915
O O8 0.121043 0.854890 0.650077
O O9 0.003088 0.750000 0.546464
O O10 0.996124 0.611528 0.495036
O O11 0.500000 0.500000 0.764877
O O12 0.487153 0.604393 0.892675
O O13 0.500000 0.500000 0.519024
O O14 0.247850 0.456309 0.451233
O O15 0.000000 0.000000 0.882031
#
# Coordination Sequence:
#
# PCOD8181449 Si02
#       6
#     8   8   8   8   8   8
#     4  10  20  35  56  80 108 143 182 225 273 325
#     4  10  21  38  59  81 110 147 184 224 272 327
#     4   9  20  37  55  78 108 143 182 222 268 323
#     4  10  21  36  56  81 108 142 182 227 273 324
#     4   9  20  37  54  75 107 142 178 221 271 325
#     4  10  21  35  56  81 108 143 181 225 274 324
#
# _framework density 19.732272999999999
#
# number of rings (size 3 to 8) (size 9 to 14) (size 15 to 20)
#    0.000    2.333    0.000    1.500    0.000   13.333 
#    0.000    0.000    0.000    5.000    0.000    0.000 
#    0.000    0.000    0.000    0.000    0.000    0.000 
#
# Total GULP energy -297654.197656 kJ/mol
# GULP energy per Si atom -12402.258236 kJ/mol
# Density = 1.968736 g / cm^3
# Si number density = 19.732273 Si / 1000 Ang^3
#
#
#
# Elastic Constant Matrix: (Units=GPa)
#
#
# Indices 1 2 3 4 5 6 
#
# 1 36.2551 27.5703 9.7662 0.0000 0.0000 0.0000
# 2 27.5703 97.1344 18.8784 0.0000 0.0000 0.0000
# 3 9.7662 18.8784 45.2114 0.0000 0.0000 0.0000
# 4 0.0000 0.0000 0.0000 20.9965 0.0000 0.0000
# 5 0.0000 0.0000 0.0000 0.0000 31.9635 0.0000
# 6 0.0000 0.0000 0.0000 0.0000 0.0000 40.2300
#
#
#
# Elastic Compliance Matrix: (Units=1/GPa)
#
#
# Indices 1 2 3 4 5 6 
#
# 1 0.035763 -0.009413 -0.003795 0.000000 0.000000 0.000000
# 2 -0.009413 0.013682 -0.003680 0.000000 0.000000 0.000000
# 3 -0.003795 -0.003680 0.024474 0.000000 0.000000 0.000000
# 4 0.000000 0.000000 0.000000 0.047627 0.000000 0.000000
# 5 0.000000 0.000000 0.000000 0.000000 0.031286 0.000000
# 6 0.000000 0.000000 0.000000 0.000000 0.000000 0.024857
#
#
# Mechanical properties :
#
#
# Convention : Reuss Voigt Hill
#
# Bulk Modulus (GPa) = 24.91017 32.33672 28.62345
# Shear Modulus (GPa) = 22.23751 26.79709 24.51730
#
# Velocity S-wave (km/s) = 3.36067 3.68915 3.52873
# Velocity P-wave (km/s) = 5.26405 5.87960 5.58032
#
# Compressibility (1/GPa) = 0.04014424
#
# Stress axis : x y z
#
# Youngs Moduli (GPa) = 27.96201 73.08877 40.85892
#
# Poissons Ratio (x) = 0.68801 0.15504
# Poissons Ratio (y) = 0.26321 0.15035
# Poissons Ratio (z) = 0.10610 0.26894
#
# Static dielectric constant tensor:
#      x y z
#    x 3.605480 0.000000 0.000000 
#    y 0.000000 3.618980 0.000000 
#    z 0.000000 0.000000 3.583560 
# 
# 
# High freq. dielectric constant tensor:
#      x y z
#    x 1.766890 0.000000 0.000000 
#    y 0.000000 1.771890 0.000000 
#    z 0.000000 0.000000 1.771150 
# 
# From -- ./inp_files/8314.got.cif
#   From: 2010.03.12/outbox.cif.g09.slc.cpg/sg39_5_cif.got.tgz:8314.got - 2010.04.14 02:53:20.
