data_PCOD8181041
_publ_section_title
;
Structure prediction by ZEFSAII (Michael W. Deem and Ramdas Pophale) SiO2 
 PCOD8181041
Probable space group: A B M 2
;
_chemical_formula_sum "Si O2"
_cell_formula_units_Z 64
_cell_length_a 32.666718
_cell_length_b 18.858006
_cell_length_c 5.248857
_cell_angle_alpha 90.000000
_cell_angle_beta 90.000000
_cell_angle_gamma 90.000000
_cell_volume 3233.448990
_symmetry_space_group_name_H-M "A B M 2"
_symmetry_group_IT_number 39
_symmetry_cell_setting 'orthorhombic'
loop_
_space_group_symop_operation_xyz
x,y,z
-x,-y,z
-x,1/2+y,z
x,1/2-y,z
x,1/2+y,1/2+z
-x,1/2-y,1/2+z
-x,y,1/2+z
x,-y,1/2+z
loop_
_atom_site_type_symbol
_atom_site_label
_atom_site_fract_x
_atom_site_fract_y
_atom_site_fract_z
Si Si1 0.523030 0.334552 0.289450
Si Si2 0.615562 0.165510 0.286984
Si Si3 0.026403 0.671287 0.650615
Si Si4 0.060945 0.527970 0.730272
Si Si5 0.246913 0.832425 0.795380
Si Si6 0.847883 0.532558 0.754401
Si Si7 0.802841 0.167696 0.304799
Si Si8 0.661800 0.834747 0.287686
O O1 0.522924 0.250000 0.289373
O O2 0.500070 0.363667 0.539685
O O3 0.569306 0.363651 0.289062
O O4 0.615484 0.250000 0.286803
O O5 0.638862 0.136891 0.536658
O O6 0.638324 0.136238 0.036324
O O7 0.045918 0.750000 0.673036
O O8 0.062260 0.613085 0.689932
O O9 0.007307 0.660787 0.371010
O O10 0.037396 0.490863 0.493239
O O11 0.104989 0.491058 0.762740
O O12 0.252337 0.750000 0.746516
O O13 0.219245 0.859739 0.561327
O O14 0.292157 0.866546 0.788805
O O15 0.226985 0.847246 0.068578
O O16 0.826163 0.503697 0.498840
O O17 0.843000 0.618048 0.769935
O O18 0.816793 0.250000 0.317126
O O19 0.662411 0.750000 0.292972
#
# Coordination Sequence:
#
# PCOD8181041 Si02
#       8
#     8   8   8   8   8   8   8   8
#     4   9  15  21  27  36  53  82 127 179 227 277
#     4   9  15  21  30  43  63  95 130 173 235 295
#     4  10  21  37  58  85 115 146 182 224 267 311
#     4  10  21  37  56  82 112 145 182 219 262 312
#     4   9  17  28  45  69  93 118 151 197 252 308
#     4  10  21  38  55  77 108 140 176 215 258 306
#     4  10  19  33  53  75  99 129 166 207 255 306
#     4   9  15  23  34  51  75  99 129 173 234 301
#
# _framework density 19.793105000000001
#
# number of rings (size 3 to 8) (size 9 to 14) (size 15 to 20)
#    0.000    2.500    0.000    3.000    0.000    7.500 
#    0.000    5.000    0.000    0.000    0.000    0.000 
#    0.000    0.000    0.000    0.000    0.000    0.000 
#
# Total GULP energy -396538.210191 kJ/mol
# GULP energy per Si atom -12391.819068 kJ/mol
# Density = 1.974806 g / cm^3
# Si number density = 19.793105 Si / 1000 Ang^3
#
#
#
# Elastic Constant Matrix: (Units=GPa)
#
#
# Indices 1 2 3 4 5 6 
#
# 1 80.0611 30.7205 10.4210 0.0000 0.0000 0.0000
# 2 30.7205 65.7944 13.6275 0.0000 0.0000 0.0000
# 3 10.4210 13.6275 155.8379 0.0000 0.0000 0.0000
# 4 0.0000 0.0000 0.0000 14.9528 0.0000 0.0000
# 5 0.0000 0.0000 0.0000 0.0000 45.7406 0.0000
# 6 0.0000 0.0000 0.0000 0.0000 0.0000 5.9576
#
#
#
# Elastic Compliance Matrix: (Units=1/GPa)
#
#
# Indices 1 2 3 4 5 6 
#
# 1 0.015242 -0.007033 -0.000404 0.000000 0.000000 0.000000
# 2 -0.007033 0.018724 -0.001167 0.000000 0.000000 0.000000
# 3 -0.000404 -0.001167 0.006546 0.000000 0.000000 0.000000
# 4 0.000000 0.000000 0.000000 0.066877 0.000000 0.000000
# 5 0.000000 0.000000 0.000000 0.000000 0.021862 0.000000
# 6 0.000000 0.000000 0.000000 0.000000 0.000000 0.167852
#
#
# Mechanical properties :
#
#
# Convention : Reuss Voigt Hill
#
# Bulk Modulus (GPa) = 42.91168 45.69239 44.30203
# Shear Modulus (GPa) = 15.52411 29.79184 22.65797
#
# Velocity S-wave (km/s) = 2.80361 3.88385 3.38707
# Velocity P-wave (km/s) = 5.67516 6.57628 6.14227
#
# Compressibility (1/GPa) = 0.02330368
#
# Stress axis : x y z
#
# Youngs Moduli (GPa) = 65.60957 53.40637 152.76478
#
# Poissons Ratio (x) = 0.37560 0.06175
# Poissons Ratio (y) = 0.46142 0.17829
# Poissons Ratio (z) = 0.02652 0.06233
#
# Static dielectric constant tensor:
#      x y z
#    x 3.457160 0.000000 0.000000 
#    y 0.000000 3.148630 0.000000 
#    z 0.000000 0.000000 5.212920 
# 
# 
# High freq. dielectric constant tensor:
#      x y z
#    x 1.754510 0.000000 0.000000 
#    y 0.000000 1.709130 0.000000 
#    z 0.000000 0.000000 1.807480 
# 
# From -- ./inp_files/1540.got.cif
#   From: 2010.03.12/outbox.cif.g09.slc.cpg/sg39_1_cif.got.tgz:1540.got - 2010.04.14 02:53:20.
