data_PCOD8181013
_publ_section_title
;
Structure prediction by ZEFSAII (Michael W. Deem and Ramdas Pophale) SiO2 
 PCOD8181013
Probable space group: A B M 2
;
_chemical_formula_sum "Si O2"
_cell_formula_units_Z 64
_cell_length_a 14.404007
_cell_length_b 9.012600
_cell_length_c 24.450563
_cell_angle_alpha 90.000000
_cell_angle_beta 90.000000
_cell_angle_gamma 90.000000
_cell_volume 3174.112270
_symmetry_space_group_name_H-M "A B M 2"
_symmetry_group_IT_number 39
_symmetry_cell_setting 'orthorhombic'
loop_
_space_group_symop_operation_xyz
x,y,z
-x,-y,z
-x,1/2+y,z
x,1/2-y,z
x,1/2+y,1/2+z
-x,1/2-y,1/2+z
-x,y,1/2+z
x,-y,1/2+z
loop_
_atom_site_type_symbol
_atom_site_label
_atom_site_fract_x
_atom_site_fract_y
_atom_site_fract_z
Si Si1 0.344949 0.583578 0.712820
Si Si2 0.707305 0.921985 0.818198
Si Si3 0.910705 0.076838 0.288729
Si Si4 0.094755 0.073709 0.057856
Si Si5 0.865927 0.416385 0.681633
Si Si6 0.274876 0.421959 0.519555
Si Si7 0.585340 0.081323 0.112820
Si Si8 0.400086 0.424732 0.929369
O O1 0.383852 0.750000 0.717230
O O2 0.348498 0.513319 0.772932
O O3 0.243813 0.581703 0.686752
O O4 0.408746 0.489130 0.672816
O O5 0.702236 0.750000 0.801866
O O6 0.815734 0.972820 0.819121
O O7 0.660658 0.955721 0.875713
O O8 0.925712 0.250000 0.292769
O O9 0.909469 0.029440 0.225049
O O10 0.000000 0.000000 0.317459
O O11 0.093340 0.250000 0.049407
O O12 0.107341 0.029085 0.121188
O O13 0.176670 0.005435 0.020885
O O14 0.000000 0.000000 0.036327
O O15 0.903840 0.250000 0.692809
O O16 0.261233 0.250000 0.503010
O O17 0.319825 0.436436 0.579458
O O18 0.344146 0.501346 0.478221
O O19 0.556629 0.250000 0.119643
O O20 0.500000 0.000000 0.081526
O O21 0.500000 0.500000 0.922808
O O22 0.413092 0.250000 0.940231
#
# Coordination Sequence:
#
# PCOD8181013 Si02
#       8
#     8   8   8   8   8   8   8   8
#     4  10  19  34  57  86 121 158 196 243 298 354
#     4   9  21  40  60  85 119 159 200 245 301 360
#     4  10  19  32  53  82 118 158 200 243 290 349
#     4  11  22  37  58  87 124 163 205 250 299 360
#     4   9  18  32  52  81 117 160 202 241 287 345
#     4  11  24  42  64  90 120 157 202 252 307 362
#     4  11  23  37  57  85 119 157 196 241 298 365
#     4  11  24  44  69  92 117 152 200 255 310 367
#
# _framework density 20.163117
#
# number of rings (size 3 to 8) (size 9 to 14) (size 15 to 20)
#    0.000    1.750    1.250    3.000    0.000    7.000 
#    0.000    1.875    0.000    1.500    0.000    0.000 
#    0.000    0.000    0.000    0.000    0.000    0.000 
#
# Total GULP energy -396843.480813 kJ/mol
# GULP energy per Si atom -12401.358775 kJ/mol
# Density = 2.011723 g / cm^3
# Si number density = 20.163117 Si / 1000 Ang^3
#
#
#
# Elastic Constant Matrix: (Units=GPa)
#
#
# Indices 1 2 3 4 5 6 
#
# 1 127.9832 63.1497 40.2684 0.0000 0.0000 0.0000
# 2 63.1497 133.1215 54.0437 0.0000 0.0000 0.0000
# 3 40.2684 54.0437 75.6602 0.0000 0.0000 0.0000
# 4 0.0000 0.0000 0.0000 27.5623 0.0000 0.0000
# 5 0.0000 0.0000 0.0000 0.0000 22.7937 0.0000
# 6 0.0000 0.0000 0.0000 0.0000 0.0000 39.3176
#
#
#
# Elastic Compliance Matrix: (Units=1/GPa)
#
#
# Indices 1 2 3 4 5 6 
#
# 1 0.010634 -0.003869 -0.002896 0.000000 0.000000 0.000000
# 2 -0.003869 0.011987 -0.006504 0.000000 0.000000 0.000000
# 3 -0.002896 -0.006504 0.019404 0.000000 0.000000 0.000000
# 4 0.000000 0.000000 0.000000 0.036281 0.000000 0.000000
# 5 0.000000 0.000000 0.000000 0.000000 0.043872 0.000000
# 6 0.000000 0.000000 0.000000 0.000000 0.000000 0.025434
#
#
# Mechanical properties :
#
#
# Convention : Reuss Voigt Hill
#
# Bulk Modulus (GPa) = 64.56521 72.40983 68.48752
# Shear Modulus (GPa) = 27.88447 29.88828 28.88637
#
# Velocity S-wave (km/s) = 3.72283 3.85427 3.78912
# Velocity P-wave (km/s) = 7.11128 7.46975 7.29272
#
# Compressibility (1/GPa) = 0.01548822
#
# Stress axis : x y z
#
# Youngs Moduli (GPa) = 94.04142 83.42123 51.53606
#
# Poissons Ratio (x) = 0.32272 0.14926
# Poissons Ratio (y) = 0.36380 0.33517
# Poissons Ratio (z) = 0.27236 0.54254
#
# Static dielectric constant tensor:
#      x y z
#    x 3.891380 0.000000 0.000000 
#    y 0.000000 3.775580 0.000000 
#    z 0.000000 0.000000 3.393850 
# 
# 
# High freq. dielectric constant tensor:
#      x y z
#    x 1.801970 0.000000 0.000000 
#    y 0.000000 1.798230 0.000000 
#    z 0.000000 0.000000 1.760510 
# 
# From -- ./inp_files/16181.got.cif
#   From: 2010.03.12/outbox.cif.g09.slc.cpg/sg39_9_cif.got.tgz:16181.got - 2010.04.14 02:53:20.
