data_PCOD8181088
_publ_section_title
;
Structure prediction by ZEFSAII (Michael W. Deem and Ramdas Pophale) SiO2 
 PCOD8181088
Probable space group: A B M 2
;
_chemical_formula_sum "Si O2"
_cell_formula_units_Z 64
_cell_length_a 20.769731
_cell_length_b 26.900720
_cell_length_c 5.460171
_cell_angle_alpha 90.000000
_cell_angle_beta 90.000000
_cell_angle_gamma 90.000000
_cell_volume 3050.710662
_symmetry_space_group_name_H-M "A B M 2"
_symmetry_group_IT_number 39
_symmetry_cell_setting 'orthorhombic'
loop_
_space_group_symop_operation_xyz
x,y,z
-x,-y,z
-x,1/2+y,z
x,1/2-y,z
x,1/2+y,1/2+z
-x,1/2-y,1/2+z
-x,y,1/2+z
x,-y,1/2+z
loop_
_atom_site_type_symbol
_atom_site_label
_atom_site_fract_x
_atom_site_fract_y
_atom_site_fract_z
Si Si1 0.894908 0.016911 0.283700
Si Si2 0.204414 0.805005 0.003154
Si Si3 0.138236 0.874141 0.342912
Si Si4 0.470100 0.692107 0.140354
Si Si5 0.250118 0.022221 0.307891
Si Si6 0.961489 0.692843 0.060169
Si Si7 0.740496 0.373487 0.627789
Si Si8 0.667205 0.305321 0.321134
O O1 0.895351 0.076018 0.249381
O O2 0.930908 0.004419 0.541390
O O3 0.826244 0.988108 0.307646
O O4 0.177006 0.750000 0.963315
O O5 0.145994 0.836158 0.117988
O O6 0.267847 0.805155 0.168167
O O7 0.222901 0.826802 0.743255
O O8 0.098695 0.845293 0.554530
O O9 0.209284 0.893084 0.424117
O O10 0.487622 0.750000 0.136031
O O11 0.497438 0.668387 0.887053
O O12 0.393510 0.682299 0.149294
O O13 0.269650 0.080770 0.313699
O O14 0.281143 0.000508 0.558173
O O15 0.937664 0.750000 0.057100
O O16 0.998317 0.681382 0.312557
O O17 0.674262 0.349929 0.520425
O O18 0.657121 0.250000 0.441041
#
# Coordination Sequence:
#
# PCOD8181088 Si02
#       8
#     8   8   8   8   8   8   8   8
#     4  10  19  33  55  84 109 140 175 225 272 333
#     4  10  21  33  50  80 115 149 184 228 280 343
#     4  11  22  36  60  82 108 147 191 223 288 347
#     4   9  18  32  52  72  99 150 202 233 267 317
#     4  10  19  34  52  78 110 144 179 222 270 335
#     4  10  24  44  62  82 109 144 189 240 278 322
#     4  11  21  32  56  82 115 152 181 225 287 351
#     4   9  20  34  47  77 119 152 187 234 278 326
#
# _framework density 20.978719000000002
#
# number of rings (size 3 to 8) (size 9 to 14) (size 15 to 20)
#    0.000    2.000    2.500    2.250    5.250    1.500 
#    0.000    0.000    0.000    2.250    0.000    0.000 
#    0.000    3.000    0.000    0.000    0.000    0.000 
#
# Total GULP energy -396528.752193 kJ/mol
# GULP energy per Si atom -12391.523506 kJ/mol
# Density = 2.093097 g / cm^3
# Si number density = 20.978719 Si / 1000 Ang^3
#
#
#
# Elastic Constant Matrix: (Units=GPa)
#
#
# Indices 1 2 3 4 5 6 
#
# 1 36.8760 8.5557 3.0407 0.0000 0.0000 0.0000
# 2 8.5557 96.0520 14.7555 0.0000 0.0000 0.0000
# 3 3.0407 14.7555 123.3977 0.0000 0.0000 0.0000
# 4 0.0000 0.0000 0.0000 25.1492 0.0000 0.0000
# 5 0.0000 0.0000 0.0000 0.0000 16.4066 0.0000
# 6 0.0000 0.0000 0.0000 0.0000 0.0000 11.0427
#
#
#
# Elastic Compliance Matrix: (Units=1/GPa)
#
#
# Indices 1 2 3 4 5 6 
#
# 1 0.027709 -0.002407 -0.000395 0.000000 0.000000 0.000000
# 2 -0.002407 0.010815 -0.001234 0.000000 0.000000 0.000000
# 3 -0.000395 -0.001234 0.008261 0.000000 0.000000 0.000000
# 4 0.000000 0.000000 0.000000 0.039763 0.000000 0.000000
# 5 0.000000 0.000000 0.000000 0.000000 0.060951 0.000000
# 6 0.000000 0.000000 0.000000 0.000000 0.000000 0.090557
#
#
# Mechanical properties :
#
#
# Convention : Reuss Voigt Hill
#
# Bulk Modulus (GPa) = 25.83139 34.33663 30.08401
# Shear Modulus (GPa) = 19.30257 25.85130 22.57693
#
# Velocity S-wave (km/s) = 3.03661 3.51417 3.28408
# Velocity P-wave (km/s) = 4.96332 5.73313 5.36205
#
# Compressibility (1/GPa) = 0.03871260
#
# Stress axis : x y z
#
# Youngs Moduli (GPa) = 36.08934 92.46396 121.04841
#
# Poissons Ratio (x) = 0.22261 0.04780
# Poissons Ratio (y) = 0.08688 0.14936
# Poissons Ratio (z) = 0.01425 0.11409
#
# Static dielectric constant tensor:
#      x y z
#    x 3.367070 0.000000 0.000000 
#    y 0.000000 3.770610 0.000000 
#    z 0.000000 0.000000 4.298400 
# 
# 
# High freq. dielectric constant tensor:
#      x y z
#    x 1.767140 0.000000 0.000000 
#    y 0.000000 1.807570 0.000000 
#    z 0.000000 0.000000 1.837170 
# 
# From -- ./inp_files/909.got.cif
#   From: 2010.03.12/outbox.cif.g09.slc.cpg/sg39_1_cif.got.tgz:909.got - 2010.04.14 02:53:20.
