data_PCOD8181561
_publ_section_title
;
Structure prediction by ZEFSAII (Michael W. Deem and Ramdas Pophale) SiO2 
 PCOD8181561
Probable space group: A B M 2
;
_chemical_formula_sum "Si O2"
_cell_formula_units_Z 56
_cell_length_a 8.697684
_cell_length_b 18.205796
_cell_length_c 17.781880
_cell_angle_alpha 90.000000
_cell_angle_beta 90.000000
_cell_angle_gamma 90.000000
_cell_volume 2815.729768
_symmetry_space_group_name_H-M "A B M 2"
_symmetry_group_IT_number 39
_symmetry_cell_setting 'orthorhombic'
loop_
_space_group_symop_operation_xyz
x,y,z
-x,-y,z
-x,1/2+y,z
x,1/2-y,z
x,1/2+y,1/2+z
-x,1/2-y,1/2+z
-x,y,1/2+z
x,-y,1/2+z
loop_
_atom_site_type_symbol
_atom_site_label
_atom_site_fract_x
_atom_site_fract_y
_atom_site_fract_z
Si Si1 0.438890 0.924423 0.140230
Si Si2 0.830474 0.978706 0.825496
Si Si3 0.339121 0.335799 0.053630
Si Si4 0.106380 0.057373 0.665774
Si Si5 0.331143 0.837283 0.382099
Si Si6 0.393929 0.899370 0.795128
Si Si7 0.145050 0.664962 0.690545
O O1 0.499172 0.858483 0.089402
O O2 0.257767 0.917045 0.123313
O O3 0.488192 0.922470 0.228259
O O4 0.500000 0.000000 0.104774
O O5 0.837851 0.992299 0.736012
O O6 0.789399 0.893421 0.843105
O O7 0.686653 0.034087 0.843689
O O8 0.000000 0.000000 0.860675
O O9 0.333608 0.250000 0.055543
O O10 0.209629 0.366725 0.110842
O O11 0.318702 0.362475 0.968799
O O12 0.019194 0.127166 0.700397
O O13 0.000000 0.000000 0.617642
O O14 0.289251 0.750000 0.370216
O O15 0.504555 0.851069 0.352808
O O16 0.258898 0.849831 0.759992
O O17 0.111826 0.750000 0.686108
#
# Coordination Sequence:
#
# PCOD8181561 Si02
#       7
#     8   8   8   8   8   8   8
#     4  11  19  34  59  85 108 146 191 238 280 338
#     4  11  21  38  60  85 121 153 186 240 296 344
#     4   9  22  41  57  79 118 154 188 238 290 336
#     4  11  19  34  56  86 116 146 181 238 292 339
#     4  11  23  40  60  85 116 157 199 241 288 342
#     4  11  19  37  60  87 116 149 193 240 292 337
#     4  10  20  36  59  85 115 151 190 236 290 347
#
# _framework density 19.888273000000002
#
# number of rings (size 3 to 8) (size 9 to 14) (size 15 to 20)
#    0.000    1.429    5.714    1.714    0.000    2.857 
#    0.000    3.571    0.000    3.429    0.000    0.000 
#    0.000    0.000    0.000    0.000    0.000    0.000 
#
# Total GULP energy -346872.897509 kJ/mol
# GULP energy per Si atom -12388.317768 kJ/mol
# Density = 1.984301 g / cm^3
# Si number density = 19.888273 Si / 1000 Ang^3
#
#
#
# Elastic Constant Matrix: (Units=GPa)
#
#
# Indices 1 2 3 4 5 6 
#
# 1 127.1835 39.7247 9.8872 0.0000 0.0000 0.0000
# 2 39.7247 61.8928 17.2805 0.0000 0.0000 0.0000
# 3 9.8872 17.2805 58.6803 0.0000 0.0000 0.0000
# 4 0.0000 0.0000 0.0000 20.9414 0.0000 0.0000
# 5 0.0000 0.0000 0.0000 0.0000 13.1968 0.0000
# 6 0.0000 0.0000 0.0000 0.0000 0.0000 37.2122
#
#
#
# Elastic Compliance Matrix: (Units=1/GPa)
#
#
# Indices 1 2 3 4 5 6 
#
# 1 0.009837 -0.006375 0.000220 0.000000 0.000000 0.000000
# 2 -0.006375 0.021736 -0.005327 0.000000 0.000000 0.000000
# 3 0.000220 -0.005327 0.018573 0.000000 0.000000 0.000000
# 4 0.000000 0.000000 0.000000 0.047752 0.000000 0.000000
# 5 0.000000 0.000000 0.000000 0.000000 0.075776 0.000000
# 6 0.000000 0.000000 0.000000 0.000000 0.000000 0.026873
#
#
# Mechanical properties :
#
#
# Convention : Reuss Voigt Hill
#
# Bulk Modulus (GPa) = 36.78891 42.39349 39.59120
# Shear Modulus (GPa) = 21.49884 26.32771 23.91328
#
# Velocity S-wave (km/s) = 3.29139 3.64233 3.47130
# Velocity P-wave (km/s) = 5.74302 6.24907 6.00138
#
# Compressibility (1/GPa) = 0.02718210
#
# Stress axis : x y z
#
# Youngs Moduli (GPa) = 101.66014 46.00706 53.84130
#
# Poissons Ratio (x) = 0.29329 -0.01184
# Poissons Ratio (y) = 0.64807 0.28680
# Poissons Ratio (z) = -0.02236 0.24507
#
# Static dielectric constant tensor:
#      x y z
#    x 3.809090 0.000000 0.000000 
#    y 0.000000 3.606990 0.000000 
#    z 0.000000 0.000000 3.689980 
# 
# 
# High freq. dielectric constant tensor:
#      x y z
#    x 1.784600 0.000000 0.000000 
#    y 0.000000 1.785120 0.000000 
#    z 0.000000 0.000000 1.733170 
# 
# From -- ./inp_files/14140.got.cif
#   From: 2010.03.12/outbox.cif.g09.slc.cpg/sg39_8_cif.got.tgz:14140.got - 2010.04.14 02:53:20.
