data_PCOD8181383
_publ_section_title
;
Structure prediction by ZEFSAII (Michael W. Deem and Ramdas Pophale) SiO2 
 PCOD8181383
Probable space group: A B M 2
;
_chemical_formula_sum "Si O2"
_cell_formula_units_Z 64
_cell_length_a 20.699255
_cell_length_b 8.897732
_cell_length_c 18.170316
_cell_angle_alpha 90.000000
_cell_angle_beta 90.000000
_cell_angle_gamma 90.000000
_cell_volume 3346.543816
_symmetry_space_group_name_H-M "A B M 2"
_symmetry_group_IT_number 39
_symmetry_cell_setting 'orthorhombic'
loop_
_space_group_symop_operation_xyz
x,y,z
-x,-y,z
-x,1/2+y,z
x,1/2-y,z
x,1/2+y,1/2+z
-x,1/2-y,1/2+z
-x,y,1/2+z
x,-y,1/2+z
loop_
_atom_site_type_symbol
_atom_site_label
_atom_site_fract_x
_atom_site_fract_y
_atom_site_fract_z
Si Si1 0.190952 0.928002 0.202240
Si Si2 0.065621 0.072833 0.956800
Si Si3 0.306269 0.078356 0.460285
Si Si4 0.435945 0.580303 0.460672
Si Si5 0.306269 0.578356 0.785764
Si Si6 0.809048 0.928001 0.043806
Si Si7 0.435945 0.419698 0.785379
Si Si8 0.065621 0.427167 0.789246
O O1 0.192576 0.750000 0.195367
O O2 0.124595 0.984412 0.239404
O O3 0.249449 0.979345 0.252945
O O4 0.197663 0.000002 0.123023
O O5 0.058084 0.250000 0.961189
O O6 0.078353 0.019813 0.873023
O O7 0.124595 0.015589 0.006642
O O8 0.000000 0.000000 0.987796
O O9 0.300642 0.250000 0.487261
O O10 0.301746 0.066891 0.373025
O O11 0.374020 0.011795 0.489055
O O12 0.249447 0.979351 0.493103
O O13 0.500000 0.500000 0.492023
O O14 0.432751 0.750000 0.491269
O O15 0.437761 0.581343 0.373026
O O16 0.300640 0.750000 0.758787
O O17 0.374021 0.511799 0.756996
O O18 0.807423 0.750000 0.050678
O O19 0.500000 0.500000 0.754028
O O20 0.432750 0.250000 0.754782
O O21 0.058088 0.250000 0.784858
O O22 0.000000 0.500000 0.758250
#
# Coordination Sequence:
#
# PCOD8181383 Si02
#       8
#     8   8   8   8   8   8   8   8
#     4  11  23  38  55  77 108 144 182 223 268 318
#     4   9  19  36  58  82 107 137 174 217 265 317
#     4  10  20  34  54  80 108 140 180 224 270 321
#     4   9  16  27  46  74 107 140 175 219 269 317
#     4  10  20  34  54  80 108 140 180 224 270 321
#     4  11  23  38  55  77 108 144 182 223 268 318
#     4   9  16  27  46  74 107 140 175 219 269 317
#     4   9  19  36  58  82 107 137 174 217 265 317
#
# _framework density 19.124207999999999
#
# number of rings (size 3 to 8) (size 9 to 14) (size 15 to 20)
#    0.000    2.250    0.000    3.000    0.000    8.000 
#    0.000    5.000    0.000    0.750    0.000    5.250 
#    0.000    0.000    0.000    0.000    0.000    0.000 
#
# Total GULP energy -396881.326763 kJ/mol
# GULP energy per Si atom -12402.541461 kJ/mol
# Density = 1.908068 g / cm^3
# Si number density = 19.124208 Si / 1000 Ang^3
#
#
#
# Elastic Constant Matrix: (Units=GPa)
#
#
# Indices 1 2 3 4 5 6 
#
# 1 164.2735 53.2612 28.8122 0.0000 0.0000 0.0000
# 2 53.2612 88.3430 25.4718 0.0000 0.0000 0.0000
# 3 28.8122 25.4718 24.4786 0.0000 0.0000 0.0000
# 4 0.0000 0.0000 0.0000 23.3389 0.0000 0.0000
# 5 0.0000 0.0000 0.0000 0.0000 -1.8454 0.0000
# 6 0.0000 0.0000 0.0000 0.0000 0.0000 41.0444
#
#
#
# Elastic Compliance Matrix: (Units=1/GPa)
#
#
# Indices 1 2 3 4 5 6 
#
# 1 0.008224 -0.003096 -0.006458 0.000000 0.000000 0.000000
# 2 -0.003096 0.017337 -0.014396 0.000000 0.000000 0.000000
# 3 -0.006458 -0.014396 0.063434 0.000000 0.000000 0.000000
# 4 0.000000 0.000000 0.000000 0.042847 0.000000 0.000000
# 5 0.000000 0.000000 0.000000 0.000000 -0.541887 0.000000
# 6 0.000000 0.000000 0.000000 0.000000 0.000000 0.024364
#
#
# Mechanical properties :
#
#
# Convention : Reuss Voigt Hill
#
# Bulk Modulus (GPa) = 24.33460 54.68727 39.51094
# Shear Modulus (GPa) = -15.42816 23.81091 4.19137
#
# Velocity S-wave (km/s) = -2.84339 3.53238 1.48203
# Velocity P-wave (km/s) = 1.40439 6.73014 4.86144
#
# Compressibility (1/GPa) = 0.04109375
#
# Stress axis : x y z
#
# Youngs Moduli (GPa) = 121.59641 57.68033 15.76450
#
# Poissons Ratio (x) = 0.17858 0.10181
# Poissons Ratio (y) = 0.37647 0.22695
# Poissons Ratio (z) = 0.78529 0.83038
#
# Static dielectric constant tensor:
#      x y z
#    x 3.737780 0.000000 0.000000 
#    y 0.000000 3.629910 0.000000 
#    z 0.000000 0.000000 3.180880 
# 
# 
# High freq. dielectric constant tensor:
#      x y z
#    x 1.762250 0.000000 0.000000 
#    y 0.000000 1.754370 0.000000 
#    z 0.000000 0.000000 1.706220 
# 
# From -- ./inp_files/3850.got.cif
#   From: 2010.03.12/outbox.cif.g09.slc.cpg/sg39_2_cif.got.tgz:3850.got - 2010.04.14 02:53:20.
