data_PCOD8181605
_publ_section_title
;
Structure prediction by ZEFSAII (Michael W. Deem and Ramdas Pophale) SiO2 
 PCOD8181605
Probable space group: A B M 2
;
_chemical_formula_sum "Si O2"
_cell_formula_units_Z 56
_cell_length_a 10.493706
_cell_length_b 24.116771
_cell_length_c 11.914106
_cell_angle_alpha 90.000000
_cell_angle_beta 90.000000
_cell_angle_gamma 90.000000
_cell_volume 3015.154090
_symmetry_space_group_name_H-M "A B M 2"
_symmetry_group_IT_number 39
_symmetry_cell_setting 'orthorhombic'
loop_
_space_group_symop_operation_xyz
x,y,z
-x,-y,z
-x,1/2+y,z
x,1/2-y,z
x,1/2+y,1/2+z
-x,1/2-y,1/2+z
-x,y,1/2+z
x,-y,1/2+z
loop_
_atom_site_type_symbol
_atom_site_label
_atom_site_fract_x
_atom_site_fract_y
_atom_site_fract_z
Si Si1 0.640053 0.484962 0.726380
Si Si2 0.253640 0.186691 0.036991
Si Si3 0.121646 0.815382 0.307797
Si Si4 0.832111 0.186535 0.780019
Si Si5 0.467735 0.101893 0.064033
Si Si6 0.272311 0.400677 0.653990
Si Si7 0.689843 0.096557 0.910108
O O1 0.500000 0.500000 0.772033
O O2 0.617702 0.449575 0.610359
O O3 0.731939 0.537577 0.705866
O O4 0.718131 0.451703 0.820897
O O5 0.293046 0.250000 0.027288
O O6 0.171127 0.174534 0.147270
O O7 0.385248 0.155216 0.042737
O O8 0.174685 0.168159 0.928873
O O9 0.141729 0.750000 0.277137
O O10 0.189055 0.854618 0.216407
O O11 0.973533 0.830552 0.316465
O O12 0.803146 0.250000 0.808088
O O13 0.723151 0.153631 0.846879
O O14 0.577730 0.117248 0.155549
O O15 0.540315 0.090039 0.945857
O O16 0.224786 0.406131 0.523808
#
# Coordination Sequence:
#
# PCOD8181605 Si02
#       7
#     8   8   8   8   8   8   8
#     4  10  20  37  57  88 123 157 194 237 295 371
#     4  10  21  36  58  88 118 154 194 246 305 352
#     4  10  23  41  62  85 117 160 206 249 293 359
#     4  10  22  41  62  84 118 163 204 246 298 355
#     4   9  21  35  57  90 120 153 190 246 299 357
#     4   9  23  36  60  91 114 155 199 240 301 355
#     4  10  22  36  62  90 120 155 199 242 303 356
#
# _framework density 18.572846999999999
#
# number of rings (size 3 to 8) (size 9 to 14) (size 15 to 20)
#    0.857    1.429    1.429    0.000    8.000    1.714 
#    0.000    3.571    0.000    1.714    0.000    0.000 
#    0.000    0.000    0.000    0.000    0.000    0.000 
#
# Total GULP energy -346884.418954 kJ/mol
# GULP energy per Si atom -12388.729248 kJ/mol
# Density = 1.853057 g / cm^3
# Si number density = 18.572847 Si / 1000 Ang^3
#
#
#
# Elastic Constant Matrix: (Units=GPa)
#
#
# Indices 1 2 3 4 5 6 
#
# 1 51.1070 43.4876 39.6603 0.0000 0.0000 0.0000
# 2 43.4876 100.5312 74.4259 0.0000 0.0000 0.0000
# 3 39.6603 74.4259 128.1957 0.0000 0.0000 0.0000
# 4 0.0000 0.0000 0.0000 30.4739 0.0000 0.0000
# 5 0.0000 0.0000 0.0000 0.0000 19.6053 0.0000
# 6 0.0000 0.0000 0.0000 0.0000 0.0000 18.4079
#
#
#
# Elastic Compliance Matrix: (Units=1/GPa)
#
#
# Indices 1 2 3 4 5 6 
#
# 1 0.031713 -0.011321 -0.003239 0.000000 0.000000 0.000000
# 2 -0.011321 0.021486 -0.008972 0.000000 0.000000 0.000000
# 3 -0.003239 -0.008972 0.014011 0.000000 0.000000 0.000000
# 4 0.000000 0.000000 0.000000 0.032815 0.000000 0.000000
# 5 0.000000 0.000000 0.000000 0.000000 0.051007 0.000000
# 6 0.000000 0.000000 0.000000 0.000000 0.000000 0.054324
#
#
# Mechanical properties :
#
#
# Convention : Reuss Voigt Hill
#
# Bulk Modulus (GPa) = 49.63254 66.10905 57.87080
# Shear Modulus (GPa) = 19.29494 21.84811 20.57153
#
# Velocity S-wave (km/s) = 3.22666 3.43351 3.33169
# Velocity P-wave (km/s) = 6.37675 7.16871 6.78430
#
# Compressibility (1/GPa) = 0.02014807
#
# Stress axis : x y z
#
# Youngs Moduli (GPa) = 31.53279 46.54120 71.37064
#
# Poissons Ratio (x) = 0.52687 0.23116
# Poissons Ratio (y) = 0.35697 0.64033
# Poissons Ratio (z) = 0.10213 0.41756
#
# Static dielectric constant tensor:
#      x y z
#    x 3.132100 0.000000 0.000000 
#    y 0.000000 3.392790 0.000000 
#    z 0.000000 0.000000 3.573240 
# 
# 
# High freq. dielectric constant tensor:
#      x y z
#    x 1.690340 0.000000 0.000000 
#    y 0.000000 1.720800 0.000000 
#    z 0.000000 0.000000 1.730530 
# 
# From -- ./inp_files/6051.got.cif
#   From: 2010.03.12/outbox.cif.g09.slc.cpg/sg39_4_cif.got.tgz:6051.got - 2010.04.14 02:53:20.
