data_PCOD8181821
_publ_section_title
;
Structure prediction by ZEFSAII (Michael W. Deem and Ramdas Pophale) SiO2 
 PCOD8181821
Probable space group: A B M 2
;
_chemical_formula_sum "Si O2"
_cell_formula_units_Z 64
_cell_length_a 7.649919
_cell_length_b 16.953537
_cell_length_c 24.264709
_cell_angle_alpha 90.000000
_cell_angle_beta 90.000000
_cell_angle_gamma 90.000000
_cell_volume 3146.967389
_symmetry_space_group_name_H-M "A B M 2"
_symmetry_group_IT_number 39
_symmetry_cell_setting 'orthorhombic'
loop_
_space_group_symop_operation_xyz
x,y,z
-x,-y,z
-x,1/2+y,z
x,1/2-y,z
x,1/2+y,1/2+z
-x,1/2-y,1/2+z
-x,y,1/2+z
x,-y,1/2+z
loop_
_atom_site_type_symbol
_atom_site_label
_atom_site_fract_x
_atom_site_fract_y
_atom_site_fract_z
Si Si1 0.945898 0.591074 0.066980
Si Si2 0.585111 0.157770 0.571021
Si Si3 0.257892 0.842693 0.000181
Si Si4 0.589488 0.841416 0.806077
Si Si5 0.967116 0.907423 0.803727
Si Si6 0.046645 0.909623 0.182845
Si Si7 0.589728 0.839806 0.681952
Si Si8 0.731423 0.156811 0.877224
O O1 0.746996 0.606198 0.048252
O O2 0.000000 0.500000 0.066920
O O3 0.955095 0.628065 0.129052
O O4 0.071862 0.636341 0.025770
O O5 0.620613 0.250000 0.559464
O O6 0.415849 0.126005 0.538131
O O7 0.557801 0.141828 0.636404
O O8 0.271831 0.750000 0.996093
O O9 0.270033 0.879333 0.938811
O O10 0.630385 0.750000 0.818549
O O11 0.516622 0.851770 0.743656
O O12 0.437533 0.876388 0.844941
O O13 0.764809 0.890691 0.818020
O O14 0.088828 0.865201 0.847611
O O15 0.006522 0.871936 0.742071
O O16 0.000000 0.000000 0.806257
O O17 0.252844 0.900256 0.172776
O O18 0.000000 0.000000 0.186217
O O19 0.658900 0.750000 0.673813
O O20 0.719024 0.250000 0.878783
#
# Coordination Sequence:
#
# PCOD8181821 Si02
#       8
#     8   8   8   8   8   8   8   8
#     4  11  23  38  58  87 120 156 196 235 292 348
#     4  10  21  37  60  86 111 151 196 241 295 343
#     4  10  22  42  61  84 118 152 195 247 290 340
#     4   9  19  36  57  85 116 149 193 246 291 336
#     4  10  21  37  58  85 121 157 194 234 290 349
#     4   9  19  36  54  84 123 157 188 231 293 348
#     4   9  17  33  58  85 115 148 193 248 290 335
#     4  10  22  39  62  86 114 154 197 241 291 347
#
# _framework density 20.337039999999998
#
# number of rings (size 3 to 8) (size 9 to 14) (size 15 to 20)
#    0.000    2.250    1.250    0.750    1.750    3.500 
#    0.000    3.750    0.000    0.000    0.000    0.000 
#    0.000    0.000    0.000    0.000    0.000    0.000 
#
# Total GULP energy -396679.762781 kJ/mol
# GULP energy per Si atom -12396.242587 kJ/mol
# Density = 2.029075 g / cm^3
# Si number density = 20.337040 Si / 1000 Ang^3
#
#
#
# Elastic Constant Matrix: (Units=GPa)
#
#
# Indices 1 2 3 4 5 6 
#
# 1 152.4727 33.4820 78.3771 0.0000 0.0000 0.0000
# 2 33.4820 33.8030 19.7191 0.0000 0.0000 0.0000
# 3 78.3771 19.7191 153.5844 0.0000 0.0000 0.0000
# 4 0.0000 0.0000 0.0000 15.7475 0.0000 0.0000
# 5 0.0000 0.0000 0.0000 0.0000 38.7158 0.0000
# 6 0.0000 0.0000 0.0000 0.0000 0.0000 29.9612
#
#
#
# Elastic Compliance Matrix: (Units=1/GPa)
#
#
# Indices 1 2 3 4 5 6 
#
# 1 0.010533 -0.007888 -0.004363 0.000000 0.000000 0.000000
# 2 -0.007888 0.037886 -0.000839 0.000000 0.000000 0.000000
# 3 -0.004363 -0.000839 0.008845 0.000000 0.000000 0.000000
# 4 0.000000 0.000000 0.000000 0.063502 0.000000 0.000000
# 5 0.000000 0.000000 0.000000 0.000000 0.025829 0.000000
# 6 0.000000 0.000000 0.000000 0.000000 0.000000 0.033377
#
#
# Mechanical properties :
#
#
# Convention : Reuss Voigt Hill
#
# Bulk Modulus (GPa) = 32.16980 67.00181 49.58580
# Shear Modulus (GPa) = 23.09330 30.77036 26.93183
#
# Velocity S-wave (km/s) = 3.37342 3.89398 3.64301
# Velocity P-wave (km/s) = 5.57009 7.29621 6.49078
#
# Compressibility (1/GPa) = 0.03108506
#
# Stress axis : x y z
#
# Youngs Moduli (GPa) = 94.93698 26.39505 113.05768
#
# Poissons Ratio (x) = 0.20821 0.49322
# Poissons Ratio (y) = 0.74890 0.09482
# Poissons Ratio (z) = 0.41417 0.02214
#
# Static dielectric constant tensor:
#      x y z
#    x 3.628400 0.000000 0.000000 
#    y 0.000000 3.407200 0.000000 
#    z 0.000000 0.000000 4.235120 
# 
# 
# High freq. dielectric constant tensor:
#      x y z
#    x 1.792660 0.000000 0.000000 
#    y 0.000000 1.769380 0.000000 
#    z 0.000000 0.000000 1.802930 
# 
# From -- ./inp_files/16607.got.cif
#   From: 2010.03.12/outbox.cif.g09.slc.cpg/sg39_9_cif.got.tgz:16607.got - 2010.04.14 02:53:20.
