data_PCOD8181992
_publ_section_title
;
Structure prediction by ZEFSAII (Michael W. Deem and Ramdas Pophale) SiO2 
 PCOD8181992
Probable space group: A B M 2
;
_chemical_formula_sum "Si O2"
_cell_formula_units_Z 64
_cell_length_a 23.655531
_cell_length_b 8.510010
_cell_length_c 15.048212
_cell_angle_alpha 90.000000
_cell_angle_beta 90.000000
_cell_angle_gamma 90.000000
_cell_volume 3029.337581
_symmetry_space_group_name_H-M "A B M 2"
_symmetry_group_IT_number 39
_symmetry_cell_setting 'orthorhombic'
loop_
_space_group_symop_operation_xyz
x,y,z
-x,-y,z
-x,1/2+y,z
x,1/2-y,z
x,1/2+y,1/2+z
-x,1/2-y,1/2+z
-x,y,1/2+z
x,-y,1/2+z
loop_
_atom_site_type_symbol
_atom_site_label
_atom_site_fract_x
_atom_site_fract_y
_atom_site_fract_z
Si Si1 0.753380 0.066046 0.302030
Si Si2 0.617160 0.934250 0.062628
Si Si3 0.131426 0.567061 0.825915
Si Si4 0.939047 0.434125 0.170383
Si Si5 0.263975 0.935026 0.499448
Si Si6 0.560629 0.565683 0.396940
Si Si7 0.633031 0.566749 0.742822
Si Si8 0.860415 0.934710 0.020952
O O1 0.768257 0.250000 0.303379
O O2 0.735677 0.003651 0.398921
O O3 0.700331 0.028708 0.238477
O O4 0.809882 0.972736 0.274092
O O5 0.611986 0.750000 0.043838
O O6 0.601477 0.972997 0.164326
O O7 0.680691 0.003547 0.048060
O O8 0.573374 0.023093 0.999079
O O9 0.127589 0.750000 0.847465
O O10 0.081241 0.519259 0.760082
O O11 0.126087 0.472377 0.918049
O O12 0.941368 0.250000 0.188425
O O13 0.000000 0.500000 0.144996
O O14 0.899468 0.466675 0.086045
O O15 0.269651 0.750000 0.499485
O O16 0.204456 0.984269 0.544396
O O17 0.500000 0.500000 0.368660
O O18 0.561483 0.750000 0.382292
O O19 0.608415 0.485796 0.336913
O O20 0.622042 0.750000 0.730650
O O21 0.870332 0.750000 0.036526
#
# Coordination Sequence:
#
# PCOD8181992 Si02
#       8
#     8   8   8   8   8   8   8   8
#     4   9  18  37  62  90 128 171 211 260 317 376
#     4  11  22  40  64  97 132 169 211 262 317 377
#     4  11  23  40  63  95 130 169 213 263 318 377
#     4  12  26  45  66  93 126 168 217 267 319 381
#     4   8  16  34  61  90 126 166 205 253 312 370
#     4  12  26  46  69  94 125 170 217 266 320 379
#     4  11  23  41  64  96 132 169 212 263 318 378
#     4  10  21  41  65  95 129 168 211 262 319 378
#
# _framework density 21.126729999999998
#
# number of rings (size 3 to 8) (size 9 to 14) (size 15 to 20)
#    0.000    1.500    1.250    5.250    1.750    2.000 
#    0.000    6.250    0.000    0.000    0.000    0.000 
#    0.000    0.000    0.000    0.000    0.000    0.000 
#
# Total GULP energy -396853.320482 kJ/mol
# GULP energy per Si atom -12401.666265 kJ/mol
# Density = 2.107865 g / cm^3
# Si number density = 21.126730 Si / 1000 Ang^3
#
#
#
# Elastic Constant Matrix: (Units=GPa)
#
#
# Indices 1 2 3 4 5 6 
#
# 1 86.0114 30.0571 9.8403 0.0000 0.0000 0.0000
# 2 30.0571 75.4752 3.0231 0.0000 0.0000 0.0000
# 3 9.8403 3.0231 59.1859 0.0000 0.0000 0.0000
# 4 0.0000 0.0000 0.0000 35.0162 0.0000 0.0000
# 5 0.0000 0.0000 0.0000 0.0000 24.4269 0.0000
# 6 0.0000 0.0000 0.0000 0.0000 0.0000 30.2471
#
#
#
# Elastic Compliance Matrix: (Units=1/GPa)
#
#
# Indices 1 2 3 4 5 6 
#
# 1 0.013740 -0.005391 -0.002009 0.000000 0.000000 0.000000
# 2 -0.005391 0.015392 0.000110 0.000000 0.000000 0.000000
# 3 -0.002009 0.000110 0.017224 0.000000 0.000000 0.000000
# 4 0.000000 0.000000 0.000000 0.028558 0.000000 0.000000
# 5 0.000000 0.000000 0.000000 0.000000 0.040939 0.000000
# 6 0.000000 0.000000 0.000000 0.000000 0.000000 0.033061
#
#
# Mechanical properties :
#
#
# Convention : Reuss Voigt Hill
#
# Bulk Modulus (GPa) = 31.47032 34.05706 32.76369
# Shear Modulus (GPa) = 28.72128 29.78819 29.25473
#
# Velocity S-wave (km/s) = 3.69111 3.75904 3.72523
# Velocity P-wave (km/s) = 5.75274 5.91573 5.83480
#
# Compressibility (1/GPa) = 0.03177597
#
# Stress axis : x y z
#
# Youngs Moduli (GPa) = 72.77872 64.96867 58.05748
#
# Poissons Ratio (x) = 0.35027 0.11664
# Poissons Ratio (y) = 0.39238 -0.00640
# Poissons Ratio (z) = 0.14622 -0.00716
#
# Static dielectric constant tensor:
#      x y z
#    x 3.954690 0.000000 0.000000 
#    y 0.000000 3.633990 0.000000 
#    z 0.000000 0.000000 3.692770 
# 
# 
# High freq. dielectric constant tensor:
#      x y z
#    x 1.829080 0.000000 0.000000 
#    y 0.000000 1.822250 0.000000 
#    z 0.000000 0.000000 1.828180 
# 
# From -- ./inp_files/10678.got.cif
#   From: 2010.03.12/outbox.cif.g09.slc.cpg/sg39_6_cif.got.tgz:10678.got - 2010.04.14 02:53:20.
