data_PCOD8181694
_publ_section_title
;
Structure prediction by ZEFSAII (Michael W. Deem and Ramdas Pophale) SiO2 
 PCOD8181694
Probable space group: A B M 2
;
_chemical_formula_sum "Si O2"
_cell_formula_units_Z 48
_cell_length_a 22.418889
_cell_length_b 10.508526
_cell_length_c 9.808323
_cell_angle_alpha 90.000000
_cell_angle_beta 90.000000
_cell_angle_gamma 90.000000
_cell_volume 2310.737695
_symmetry_space_group_name_H-M "A B M 2"
_symmetry_group_IT_number 39
_symmetry_cell_setting 'orthorhombic'
loop_
_space_group_symop_operation_xyz
x,y,z
-x,-y,z
-x,1/2+y,z
x,1/2-y,z
x,1/2+y,1/2+z
-x,1/2-y,1/2+z
-x,y,1/2+z
x,-y,1/2+z
loop_
_atom_site_type_symbol
_atom_site_label
_atom_site_fract_x
_atom_site_fract_y
_atom_site_fract_z
Si Si1 0.196493 0.393594 0.708790
Si Si2 0.064291 0.250000 0.057781
Si Si3 0.425818 0.750000 0.187582
Si Si4 0.366306 0.611797 0.528860
Si Si5 0.945396 0.750000 0.383659
Si Si6 0.130571 0.495998 0.460974
Si Si7 0.524938 0.250000 0.477357
Si Si8 0.669632 0.955709 0.756679
O O1 0.172637 0.250000 0.716500
O O2 0.182983 0.452518 0.561814
O O3 0.161398 0.475881 0.818406
O O4 0.266744 0.393068 0.734303
O O5 0.047132 0.250000 0.218815
O O6 0.100078 0.378907 0.024504
O O7 0.008698 0.250000 0.956765
O O8 0.474446 0.750000 0.311493
O O9 0.459331 0.750000 0.041600
O O10 0.383723 0.627836 0.193488
O O11 0.342110 0.750000 0.477217
O O12 0.438727 0.623748 0.531039
O O13 0.336568 0.586884 0.674572
O O14 0.342484 0.513062 0.415289
O O15 0.914075 0.621156 0.435774
#
# Coordination Sequence:
#
# PCOD8181694 Si02
#       8
#     8   4   4   8   4   8   4   8
#     4  12  24  43  69  99 134 178 222 284 331 393
#     4  12  28  47  74 102 140 183 218 281 328 388
#     4  10  20  38  64  90 124 170 216 264 345 393
#     4   9  21  42  58  92 125 163 218 271 328 399
#     4  12  28  47  71 110 136 180 232 269 328 400
#     4  12  26  46  71 102 141 175 230 273 335 394
#     4   8  20  38  57  90 126 159 216 276 321 405
#     4  11  21  42  67  89 132 172 216 273 333 395
#
# _framework density 20.772587999999999
#
# number of rings (size 3 to 8) (size 9 to 14) (size 15 to 20)
#    0.500    0.667    5.000    1.500    2.333    3.333 
#    4.500    3.333    0.000    0.000    0.000    0.000 
#    0.000    0.000    0.000    0.000    0.000    0.000 
#
# Total GULP energy -297414.453228 kJ/mol
# GULP energy per Si atom -12392.268884 kJ/mol
# Density = 2.072531 g / cm^3
# Si number density = 20.772588 Si / 1000 Ang^3
#
#
#
# Elastic Constant Matrix: (Units=GPa)
#
#
# Indices 1 2 3 4 5 6 
#
# 1 94.7518 29.7691 30.0056 0.0000 0.0000 0.0000
# 2 29.7691 79.2768 22.5954 0.0000 0.0000 0.0000
# 3 30.0056 22.5954 97.4803 0.0000 0.0000 0.0000
# 4 0.0000 0.0000 0.0000 32.8681 0.0000 0.0000
# 5 0.0000 0.0000 0.0000 0.0000 38.8191 0.0000
# 6 0.0000 0.0000 0.0000 0.0000 0.0000 23.6953
#
#
#
# Elastic Compliance Matrix: (Units=1/GPa)
#
#
# Indices 1 2 3 4 5 6 
#
# 1 0.012741 -0.003926 -0.003012 0.000000 0.000000 0.000000
# 2 -0.003926 0.014716 -0.002203 0.000000 0.000000 0.000000
# 3 -0.003012 -0.002203 0.011696 0.000000 0.000000 0.000000
# 4 0.000000 0.000000 0.000000 0.030425 0.000000 0.000000
# 5 0.000000 0.000000 0.000000 0.000000 0.025761 0.000000
# 6 0.000000 0.000000 0.000000 0.000000 0.000000 0.042203
#
#
# Mechanical properties :
#
#
# Convention : Reuss Voigt Hill
#
# Bulk Modulus (GPa) = 47.91017 48.47212 48.19115
# Shear Modulus (GPa) = 30.71641 31.68573 31.20107
#
# Velocity S-wave (km/s) = 3.84956 3.90983 3.87981
# Velocity P-wave (km/s) = 6.54775 6.61571 6.58182
#
# Compressibility (1/GPa) = 0.02087239
#
# Stress axis : x y z
#
# Youngs Moduli (GPa) = 78.48602 67.95294 85.49833
#
# Poissons Ratio (x) = 0.26678 0.25751
# Poissons Ratio (y) = 0.30813 0.18832
# Poissons Ratio (z) = 0.23639 0.14968
#
# Static dielectric constant tensor:
#      x y z
#    x 3.633080 0.000000 0.000000 
#    y 0.000000 3.789750 0.000000 
#    z 0.000000 0.000000 3.853180 
# 
# 
# High freq. dielectric constant tensor:
#      x y z
#    x 1.807250 0.000000 0.000000 
#    y 0.000000 1.810990 0.000000 
#    z 0.000000 0.000000 1.828600 
# 
# From -- ./inp_files/4064.got.cif
#   From: 2010.03.12/outbox.cif.g09.slc.cpg/sg39_3_cif.got.tgz:4064.got - 2010.04.14 02:53:20.
