data_PCOD8181944
_publ_section_title
;
Structure prediction by ZEFSAII (Michael W. Deem and Ramdas Pophale) SiO2 
 PCOD8181944
Probable space group: A B M 2
;
_chemical_formula_sum "Si O2"
_cell_formula_units_Z 64
_cell_length_a 9.580077
_cell_length_b 13.895597
_cell_length_c 22.076436
_cell_angle_alpha 90.000000
_cell_angle_beta 90.000000
_cell_angle_gamma 90.000000
_cell_volume 2938.834791
_symmetry_space_group_name_H-M "A B M 2"
_symmetry_group_IT_number 39
_symmetry_cell_setting 'orthorhombic'
loop_
_space_group_symop_operation_xyz
x,y,z
-x,-y,z
-x,1/2+y,z
x,1/2-y,z
x,1/2+y,1/2+z
-x,1/2-y,1/2+z
-x,y,1/2+z
x,-y,1/2+z
loop_
_atom_site_type_symbol
_atom_site_label
_atom_site_fract_x
_atom_site_fract_y
_atom_site_fract_z
Si Si1 0.057709 0.636136 0.047590
Si Si2 0.571790 0.358196 0.596310
Si Si3 0.710716 0.452454 0.130450
Si Si4 0.839707 0.857276 0.418337
Si Si5 0.655275 0.481844 0.387748
Si Si6 0.221379 0.456563 0.764559
Si Si7 0.770857 0.142682 0.493045
Si Si8 0.946424 0.141907 0.793681
O O1 0.076782 0.750000 0.060436
O O2 0.140135 0.576120 0.099684
O O3 0.892810 0.608052 0.040724
O O4 0.116020 0.600695 0.982894
O O5 0.586626 0.250000 0.624188
O O6 0.410582 0.391186 0.597563
O O7 0.675230 0.433877 0.628543
O O8 0.621626 0.356278 0.526575
O O9 0.706097 0.429643 0.201529
O O10 0.788650 0.750000 0.428562
O O11 0.960275 0.866435 0.367121
O O12 0.710213 0.910359 0.389008
O O13 0.500000 0.500000 0.409599
O O14 0.668417 0.440433 0.319392
O O15 0.751274 0.420393 0.433302
O O16 0.162149 0.565579 0.765262
O O17 0.099089 0.379117 0.769338
O O18 0.814872 0.250000 0.471617
O O19 0.900001 0.250000 0.774508
#
# Coordination Sequence:
#
# PCOD8181944 Si02
#       8
#     8   8   8   8   8   8   8   8
#     4  10  21  39  67  99 129 163 212 268 327 391
#     4  10  24  43  63  88 127 171 213 270 332 386
#     4  11  24  41  67  91 129 174 221 265 321 396
#     4   9  19  37  62  92 124 157 202 261 324 384
#     4  11  24  38  63  90 130 173 215 266 325 392
#     4  10  23  40  62  93 126 167 219 263 310 394
#     4  10  23  42  65  98 131 161 213 277 334 391
#     4   9  19  39  65  92 124 159 200 266 335 377
#
# _framework density 21.777338
#
# number of rings (size 3 to 8) (size 9 to 14) (size 15 to 20)
#    0.000    2.000    0.000    1.875    5.250    8.500 
#    0.000    1.250    0.000    0.000    0.000    0.000 
#    0.000    0.000    0.000    0.000    0.000    0.000 
#
# Total GULP energy -396483.064294 kJ/mol
# GULP energy per Si atom -12390.095759 kJ/mol
# Density = 2.172777 g / cm^3
# Si number density = 21.777338 Si / 1000 Ang^3
#
#
#
# Elastic Constant Matrix: (Units=GPa)
#
#
# Indices 1 2 3 4 5 6 
#
# 1 109.0250 42.3241 40.8782 0.0000 0.0000 0.0000
# 2 42.3241 99.7475 39.0616 0.0000 0.0000 0.0000
# 3 40.8782 39.0616 116.2177 0.0000 0.0000 0.0000
# 4 0.0000 0.0000 0.0000 22.4899 0.0000 0.0000
# 5 0.0000 0.0000 0.0000 0.0000 26.9424 0.0000
# 6 0.0000 0.0000 0.0000 0.0000 0.0000 23.9898
#
#
#
# Elastic Compliance Matrix: (Units=1/GPa)
#
#
# Indices 1 2 3 4 5 6 
#
# 1 0.011735 -0.003873 -0.002826 0.000000 0.000000 0.000000
# 2 -0.003873 0.012823 -0.002948 0.000000 0.000000 0.000000
# 3 -0.002826 -0.002948 0.010589 0.000000 0.000000 0.000000
# 4 0.000000 0.000000 0.000000 0.044464 0.000000 0.000000
# 5 0.000000 0.000000 0.000000 0.000000 0.037116 0.000000
# 6 0.000000 0.000000 0.000000 0.000000 0.000000 0.041684
#
#
# Mechanical properties :
#
#
# Convention : Reuss Voigt Hill
#
# Bulk Modulus (GPa) = 63.07360 63.27977 63.17669
# Shear Modulus (GPa) = 27.32389 28.19953 27.76171
#
# Velocity S-wave (km/s) = 3.54601 3.60238 3.57431
# Velocity P-wave (km/s) = 6.76693 6.81348 6.79025
#
# Compressibility (1/GPa) = 0.01585449
#
# Stress axis : x y z
#
# Youngs Moduli (GPa) = 85.21346 77.98568 94.43474
#
# Poissons Ratio (x) = 0.30201 0.26688
# Poissons Ratio (y) = 0.33001 0.27836
# Poissons Ratio (z) = 0.24082 0.22988
#
# Static dielectric constant tensor:
#      x y z
#    x 3.754990 0.000000 0.000000 
#    y 0.000000 4.076570 0.000000 
#    z 0.000000 0.000000 3.826530 
# 
# 
# High freq. dielectric constant tensor:
#      x y z
#    x 1.844110 0.000000 0.000000 
#    y 0.000000 1.865660 0.000000 
#    z 0.000000 0.000000 1.843580 
# 
# From -- ./inp_files/15726.got.cif
#   From: 2010.03.12/outbox.cif.g09.slc.cpg/sg39_8_cif.got.tgz:15726.got - 2010.04.14 02:53:20.
