data_PCOD8181544
_publ_section_title
;
Structure prediction by ZEFSAII (Michael W. Deem and Ramdas Pophale) SiO2 
 PCOD8181544
Probable space group: A B M 2
;
_chemical_formula_sum "Si O2"
_cell_formula_units_Z 48
_cell_length_a 18.897742
_cell_length_b 8.831198
_cell_length_c 15.085503
_cell_angle_alpha 90.000000
_cell_angle_beta 90.000000
_cell_angle_gamma 90.000000
_cell_volume 2517.615090
_symmetry_space_group_name_H-M "A B M 2"
_symmetry_group_IT_number 39
_symmetry_cell_setting 'orthorhombic'
loop_
_space_group_symop_operation_xyz
x,y,z
-x,-y,z
-x,1/2+y,z
x,1/2-y,z
x,1/2+y,1/2+z
-x,1/2-y,1/2+z
-x,y,1/2+z
x,-y,1/2+z
loop_
_atom_site_type_symbol
_atom_site_label
_atom_site_fract_x
_atom_site_fract_y
_atom_site_fract_z
Si Si1 0.073813 0.071178 0.300140
Si Si2 0.072534 0.072508 0.099299
Si Si3 0.426182 0.428003 0.605717
Si Si4 0.573847 0.928058 0.290406
Si Si5 0.678393 0.074667 0.948025
Si Si6 0.172040 0.572433 0.442306
O O1 0.067754 0.250000 0.308720
O O2 0.090340 0.019246 0.199266
O O3 0.137887 0.013119 0.359515
O O4 0.000000 0.000000 0.333101
O O5 0.061436 0.250000 0.096500
O O6 0.135057 0.020452 0.033926
O O7 0.000000 0.000000 0.064801
O O8 0.500000 0.500000 0.573946
O O9 0.437525 0.250000 0.617503
O O10 0.400939 0.500265 0.697979
O O11 0.366834 0.466097 0.534234
O O12 0.562576 0.750000 0.278921
O O13 0.633365 0.966400 0.361645
O O14 0.500000 0.000000 0.322136
O O15 0.701122 0.250000 0.947681
O O16 0.746355 0.969283 0.948870
O O17 0.163368 0.750000 0.426677
#
# Coordination Sequence:
#
# PCOD8181544 Si02
#       6
#     8   8   8   8   8   8
#     4  10  20  37  59  82 110 142 180 224 269 319
#     4   9  20  37  57  81 107 139 178 220 266 316
#     4  10  20  36  58  83 109 140 181 225 271 321
#     4  10  20  36  58  82 108 140 180 224 271 321
#     4  10  23  39  54  77 111 148 181 219 270 324
#     4  11  23  37  55  81 111 145 183 222 270 323
#
# _framework density 19.065664000000002
#
# number of rings (size 3 to 8) (size 9 to 14) (size 15 to 20)
#    0.000    2.000    0.000    4.000    0.000    7.333 
#    0.000    5.000    0.000    0.000    0.000    0.000 
#    0.000    0.000    0.000    0.000    0.000    0.000 
#
# Total GULP energy -297694.334873 kJ/mol
# GULP energy per Si atom -12403.930620 kJ/mol
# Density = 1.902227 g / cm^3
# Si number density = 19.065664 Si / 1000 Ang^3
#
#
#
# Elastic Constant Matrix: (Units=GPa)
#
#
# Indices 1 2 3 4 5 6 
#
# 1 131.7874 51.9220 78.3221 0.0000 0.0000 0.0000
# 2 51.9220 81.3233 50.5361 0.0000 0.0000 0.0000
# 3 78.3221 50.5361 117.7124 0.0000 0.0000 0.0000
# 4 0.0000 0.0000 0.0000 23.9766 0.0000 0.0000
# 5 0.0000 0.0000 0.0000 0.0000 36.6812 0.0000
# 6 0.0000 0.0000 0.0000 0.0000 0.0000 37.4269
#
#
#
# Elastic Compliance Matrix: (Units=1/GPa)
#
#
# Indices 1 2 3 4 5 6 
#
# 1 0.013503 -0.004143 -0.007205 0.000000 0.000000 0.000000
# 2 -0.004143 0.018042 -0.004989 0.000000 0.000000 0.000000
# 3 -0.007205 -0.004989 0.015431 0.000000 0.000000 0.000000
# 4 0.000000 0.000000 0.000000 0.041707 0.000000 0.000000
# 5 0.000000 0.000000 0.000000 0.000000 0.027262 0.000000
# 6 0.000000 0.000000 0.000000 0.000000 0.000000 0.026719
#
#
# Mechanical properties :
#
#
# Convention : Reuss Voigt Hill
#
# Bulk Modulus (GPa) = 69.92639 76.93149 73.42894
# Shear Modulus (GPa) = 27.76133 29.61981 28.69057
#
# Velocity S-wave (km/s) = 3.82002 3.94581 3.88342
# Velocity P-wave (km/s) = 7.49753 7.82289 7.66194
#
# Compressibility (1/GPa) = 0.01430075
#
# Stress axis : x y z
#
# Youngs Moduli (GPa) = 74.05994 55.42542 64.80291
#
# Poissons Ratio (x) = 0.22965 0.46693
# Poissons Ratio (y) = 0.30685 0.32330
# Poissons Ratio (z) = 0.53363 0.27652
#
# Static dielectric constant tensor:
#      x y z
#    x 3.405930 0.000000 0.000000 
#    y 0.000000 3.518190 0.000000 
#    z 0.000000 0.000000 3.808870 
# 
# 
# High freq. dielectric constant tensor:
#      x y z
#    x 1.736110 0.000000 0.000000 
#    y 0.000000 1.749330 0.000000 
#    z 0.000000 0.000000 1.755190 
# 
# From -- ./inp_files/10043.got.cif
#   From: 2010.03.12/outbox.cif.g09.slc.cpg/sg39_6_cif.got.tgz:10043.got - 2010.04.14 02:53:20.
