data_PCOD8181586
_publ_section_title
;
Structure prediction by ZEFSAII (Michael W. Deem and Ramdas Pophale) SiO2 
 PCOD8181586
Probable space group: A B M 2
;
_chemical_formula_sum "Si O2"
_cell_formula_units_Z 56
_cell_length_a 15.067311
_cell_length_b 9.045223
_cell_length_c 19.993261
_cell_angle_alpha 90.000000
_cell_angle_beta 90.000000
_cell_angle_gamma 90.000000
_cell_volume 2724.825321
_symmetry_space_group_name_H-M "A B M 2"
_symmetry_group_IT_number 39
_symmetry_cell_setting 'orthorhombic'
loop_
_space_group_symop_operation_xyz
x,y,z
-x,-y,z
-x,1/2+y,z
x,1/2-y,z
x,1/2+y,1/2+z
-x,1/2-y,1/2+z
-x,y,1/2+z
x,-y,1/2+z
loop_
_atom_site_type_symbol
_atom_site_label
_atom_site_fract_x
_atom_site_fract_y
_atom_site_fract_z
Si Si1 0.913632 0.579027 0.942120
Si Si2 0.684179 0.080301 0.751346
Si Si3 0.084205 0.085005 0.654857
Si Si4 0.146267 0.082538 0.798051
Si Si5 0.720171 0.425444 0.486397
Si Si6 0.591193 0.922148 0.385024
Si Si7 0.280336 0.926055 0.121089
O O1 0.931184 0.750000 0.950852
O O2 0.905604 0.533955 0.864272
O O3 0.824098 0.532033 0.980608
O O4 0.000000 0.500000 0.973271
O O5 0.694242 0.250000 0.729255
O O6 0.605726 0.060280 0.805320
O O7 0.773849 0.029896 0.787339
O O8 0.663808 0.983086 0.685169
O O9 0.075299 0.250000 0.627935
O O10 0.079673 0.077524 0.735398
O O11 0.178402 0.020183 0.630501
O O12 0.000000 0.000000 0.624219
O O13 0.184687 0.250000 0.806392
O O14 0.705148 0.250000 0.486450
O O15 0.670062 0.496276 0.423895
O O16 0.682025 0.497435 0.554418
O O17 0.588667 0.750000 0.405677
O O18 0.500000 0.000000 0.405503
O O19 0.289258 0.750000 0.116931
#
# Coordination Sequence:
#
# PCOD8181586 Si02
#       7
#     8   8   8   8   8   8   8
#     4  10  21  34  53  82 119 164 209 255 306 360
#     4  10  20  36  61  92 119 150 196 247 301 362
#     4   9  18  30  48  74 108 151 200 252 300 356
#     4   9  17  32  51  77 114 155 198 246 306 358
#     4  11  23  41  63  89 125 166 209 257 307 365
#     4  11  24  42  68  99 127 158 198 247 306 369
#     4  10  22  39  59  83 118 162 204 250 308 366
#
# _framework density 20.551776
#
# number of rings (size 3 to 8) (size 9 to 14) (size 15 to 20)
#    0.000    2.000    1.429    3.000    0.000    6.857 
#    0.000    3.571    0.000    1.714    0.000    0.000 
#    0.000    0.000    0.000    0.000    0.000    0.000 
#
# Total GULP energy -347189.243955 kJ/mol
# GULP energy per Si atom -12399.615856 kJ/mol
# Density = 2.050500 g / cm^3
# Si number density = 20.551776 Si / 1000 Ang^3
#
#
#
# Elastic Constant Matrix: (Units=GPa)
#
#
# Indices 1 2 3 4 5 6 
#
# 1 62.9256 40.5831 18.8654 0.0000 0.0000 0.0000
# 2 40.5831 109.8876 48.1487 0.0000 0.0000 0.0000
# 3 18.8654 48.1487 101.9675 0.0000 0.0000 0.0000
# 4 0.0000 0.0000 0.0000 29.9215 0.0000 0.0000
# 5 0.0000 0.0000 0.0000 0.0000 8.6457 0.0000
# 6 0.0000 0.0000 0.0000 0.0000 0.0000 32.5713
#
#
#
# Elastic Compliance Matrix: (Units=1/GPa)
#
#
# Indices 1 2 3 4 5 6 
#
# 1 0.020867 -0.007584 -0.000280 0.000000 0.000000 0.000000
# 2 -0.007584 0.014231 -0.005316 0.000000 0.000000 0.000000
# 3 -0.000280 -0.005316 0.012369 0.000000 0.000000 0.000000
# 4 0.000000 0.000000 0.000000 0.033421 0.000000 0.000000
# 5 0.000000 0.000000 0.000000 0.000000 0.115664 0.000000
# 6 0.000000 0.000000 0.000000 0.000000 0.000000 0.030702
#
#
# Mechanical properties :
#
#
# Convention : Reuss Voigt Hill
#
# Bulk Modulus (GPa) = 47.37851 54.44165 50.91008
# Shear Modulus (GPa) = 19.18292 25.37329 22.27810
#
# Velocity S-wave (km/s) = 3.05847 3.51750 3.29599
# Velocity P-wave (km/s) = 5.96453 6.56084 6.26978
#
# Compressibility (1/GPa) = 0.02110662
#
# Stress axis : x y z
#
# Youngs Moduli (GPa) = 47.92313 70.27140 80.84606
#
# Poissons Ratio (x) = 0.53293 0.02260
# Poissons Ratio (y) = 0.36344 0.42982
# Poissons Ratio (z) = 0.01340 0.37360
#
# Static dielectric constant tensor:
#      x y z
#    x 3.410190 0.000000 0.000000 
#    y 0.000000 3.674350 0.000000 
#    z 0.000000 0.000000 3.775300 
# 
# 
# High freq. dielectric constant tensor:
#      x y z
#    x 1.773490 0.000000 0.000000 
#    y 0.000000 1.806530 0.000000 
#    z 0.000000 0.000000 1.809040 
# 
# From -- ./inp_files/14791.got.cif
#   From: 2010.03.12/outbox.cif.g09.slc.cpg/sg39_8_cif.got.tgz:14791.got - 2010.04.14 02:53:20.
