data_PCOD8181488
_publ_section_title
;
Structure prediction by ZEFSAII (Michael W. Deem and Ramdas Pophale) SiO2 
 PCOD8181488
Probable space group: A B M 2
;
_chemical_formula_sum "Si O2"
_cell_formula_units_Z 64
_cell_length_a 23.877222
_cell_length_b 9.093222
_cell_length_c 15.423616
_cell_angle_alpha 90.000000
_cell_angle_beta 90.000000
_cell_angle_gamma 90.000000
_cell_volume 3348.789085
_symmetry_space_group_name_H-M "A B M 2"
_symmetry_group_IT_number 39
_symmetry_cell_setting 'orthorhombic'
loop_
_space_group_symop_operation_xyz
x,y,z
-x,-y,z
-x,1/2+y,z
x,1/2-y,z
x,1/2+y,1/2+z
-x,1/2-y,1/2+z
-x,y,1/2+z
x,-y,1/2+z
loop_
_atom_site_type_symbol
_atom_site_label
_atom_site_fract_x
_atom_site_fract_y
_atom_site_fract_z
Si Si1 0.757102 0.415290 0.951780
Si Si2 0.127543 0.925308 0.017302
Si Si3 0.363778 0.923206 0.266912
Si Si4 0.748757 0.584395 0.251560
Si Si5 0.867782 0.077374 0.688886
Si Si6 0.365746 0.074285 0.445811
Si Si7 0.941150 0.923632 0.351517
Si Si8 0.559070 0.422577 0.106326
O O1 0.754037 0.250000 0.986584
O O2 0.769470 0.419643 0.850042
O O3 0.696278 0.487656 0.971268
O O4 0.809932 0.491652 0.998714
O O5 0.129139 0.750000 0.021403
O O6 0.105783 0.992236 0.107270
O O7 0.085720 0.977250 0.941851
O O8 0.362194 0.750000 0.283247
O O9 0.407071 0.967182 0.191955
O O10 0.302579 0.974505 0.235254
O O11 0.384134 0.003351 0.354563
O O12 0.729460 0.750000 0.227647
O O13 0.802089 0.534504 0.195331
O O14 0.875045 0.250000 0.674606
O O15 0.900518 0.025435 0.774101
O O16 0.363776 0.250000 0.432968
O O17 0.408045 0.024223 0.520554
O O18 0.949740 0.750000 0.350844
O O19 0.000000 0.000000 0.337739
O O20 0.500000 0.500000 0.108781
O O21 0.549384 0.250000 0.101956
#
# Coordination Sequence:
#
# PCOD8181488 Si02
#       8
#     8   8   8   8   8   8   8   8
#     4   8  14  30  57  80 105 143 183 218 266 334
#     4  10  20  35  58  85 111 147 187 227 278 335
#     4  10  21  36  56  86 116 144 185 237 283 328
#     4   9  17  34  58  81 112 152 186 222 279 343
#     4  10  21  37  57  84 115 148 187 232 281 334
#     4   9  19  37  59  81 109 150 189 224 277 338
#     4  10  22  41  61  80 111 153 193 231 276 331
#     4  10  23  40  58  81 112 151 192 231 276 333
#
# _framework density 19.111387000000001
#
# number of rings (size 3 to 8) (size 9 to 14) (size 15 to 20)
#    0.000    2.500    1.250    1.125    1.750    4.000 
#    0.000    7.500    0.000    0.000    0.000    0.000 
#    0.000    0.000    0.000    0.000    0.000    0.000 
#
# Total GULP energy -396727.626595 kJ/mol
# GULP energy per Si atom -12397.738331 kJ/mol
# Density = 1.906789 g / cm^3
# Si number density = 19.111387 Si / 1000 Ang^3
#
#
#
# Elastic Constant Matrix: (Units=GPa)
#
#
# Indices 1 2 3 4 5 6 
#
# 1 114.5135 39.0119 62.5899 0.0000 0.0000 0.0000
# 2 39.0119 38.6719 41.5811 0.0000 0.0000 0.0000
# 3 62.5899 41.5811 121.1306 0.0000 0.0000 0.0000
# 4 0.0000 0.0000 0.0000 31.4279 0.0000 0.0000
# 5 0.0000 0.0000 0.0000 0.0000 23.4909 0.0000
# 6 0.0000 0.0000 0.0000 0.0000 0.0000 30.5760
#
#
#
# Elastic Compliance Matrix: (Units=1/GPa)
#
#
# Indices 1 2 3 4 5 6 
#
# 1 0.014371 -0.010324 -0.003882 0.000000 0.000000 0.000000
# 2 -0.010324 0.048403 -0.011281 0.000000 0.000000 0.000000
# 3 -0.003882 -0.011281 0.014134 0.000000 0.000000 0.000000
# 4 0.000000 0.000000 0.000000 0.031819 0.000000 0.000000
# 5 0.000000 0.000000 0.000000 0.000000 0.042570 0.000000
# 6 0.000000 0.000000 0.000000 0.000000 0.000000 0.032705
#
#
# Mechanical properties :
#
#
# Convention : Reuss Voigt Hill
#
# Bulk Modulus (GPa) = 38.55862 62.29797 50.42830
# Shear Modulus (GPa) = 20.52371 25.84115 23.18243
#
# Velocity S-wave (km/s) = 3.28060 3.68113 3.48662
# Velocity P-wave (km/s) = 5.87956 7.12290 6.53089
#
# Compressibility (1/GPa) = 0.02593454
#
# Stress axis : x y z
#
# Youngs Moduli (GPa) = 69.58228 20.65998 70.75154
#
# Poissons Ratio (x) = 0.21329 0.27466
# Poissons Ratio (y) = 0.71835 0.79815
# Poissons Ratio (z) = 0.27012 0.23307
#
# Static dielectric constant tensor:
#      x y z
#    x 3.538810 0.000000 0.000000 
#    y 0.000000 3.202160 0.000000 
#    z 0.000000 0.000000 3.547550 
# 
# 
# High freq. dielectric constant tensor:
#      x y z
#    x 1.744970 0.000000 0.000000 
#    y 0.000000 1.717170 0.000000 
#    z 0.000000 0.000000 1.749430 
# 
# From -- ./inp_files/10582.got.cif
#   From: 2010.03.12/outbox.cif.g09.slc.cpg/sg39_6_cif.got.tgz:10582.got - 2010.04.14 02:53:20.
