data_PCOD8181285
_publ_section_title
;
Structure prediction by ZEFSAII (Michael W. Deem and Ramdas Pophale) SiO2 
 PCOD8181285
Probable space group: A B M 2
;
_chemical_formula_sum "Si O2"
_cell_formula_units_Z 56
_cell_length_a 15.237682
_cell_length_b 8.868180
_cell_length_c 24.701019
_cell_angle_alpha 90.000000
_cell_angle_beta 90.000000
_cell_angle_gamma 90.000000
_cell_volume 3337.861215
_symmetry_space_group_name_H-M "A B M 2"
_symmetry_group_IT_number 39
_symmetry_cell_setting 'orthorhombic'
loop_
_space_group_symop_operation_xyz
x,y,z
-x,-y,z
-x,1/2+y,z
x,1/2-y,z
x,1/2+y,1/2+z
-x,1/2-y,1/2+z
-x,y,1/2+z
x,-y,1/2+z
loop_
_atom_site_type_symbol
_atom_site_label
_atom_site_fract_x
_atom_site_fract_y
_atom_site_fract_z
Si Si1 0.905604 0.925099 0.083690
Si Si2 0.412695 0.579709 0.785039
Si Si3 0.903630 0.071005 0.858653
Si Si4 0.234902 0.076118 0.783866
Si Si5 0.094088 0.074352 0.964491
Si Si6 0.762809 0.422984 0.156056
Si Si7 0.413484 0.919380 0.656156
O O1 0.918313 0.750000 0.095761
O O2 0.842957 0.993420 0.128450
O O3 0.862319 0.949482 0.023691
O O4 0.000000 0.000000 0.088867
O O5 0.500000 0.500000 0.808428
O O6 0.407943 0.750000 0.807495
O O7 0.327644 0.488303 0.805142
O O8 0.416416 0.580137 0.720612
O O9 0.910833 0.250000 0.859212
O O10 0.844119 0.018958 0.808948
O O11 0.857868 0.010999 0.914648
O O12 0.000000 0.000000 0.851740
O O13 0.228118 0.250000 0.801308
O O14 0.226927 0.056151 0.719879
O O15 0.085926 0.250000 0.949863
O O16 0.000000 0.000000 0.968940
O O17 0.763802 0.250000 0.138689
O O18 0.671807 0.493085 0.135059
O O19 0.410308 0.750000 0.633454
O O20 0.500000 0.000000 0.632654
#
# Coordination Sequence:
#
# PCOD8181285 Si02
#       7
#     8   8   8   8   8   8   8
#     4  10  20  33  50  70  94 124 157 194 235 277
#     4   9  16  27  44  66  91 121 155 192 232 274
#     4  11  21  33  50  70  93 123 157 195 236 278
#     4  10  20  33  47  67  96 128 160 194 232 278
#     4   9  17  31  50  70  90 115 151 195 237 275
#     4  10  20  32  47  68  96 128 160 193 232 278
#     4   9  16  27  44  65  91 121 155 193 232 274
#
# _framework density 16.777211000000001
#
# number of rings (size 3 to 8) (size 9 to 14) (size 15 to 20)
#    0.000    2.286    0.000    4.714    0.000    7.429 
#    0.000    0.000    0.000    0.000    0.000    1.000 
#    0.000    6.857    0.000    0.000    0.000    0.000 
#
# Total GULP energy -347109.475418 kJ/mol
# GULP energy per Si atom -12396.766979 kJ/mol
# Density = 1.673903 g / cm^3
# Si number density = 16.777211 Si / 1000 Ang^3
#
#
#
# Elastic Constant Matrix: (Units=GPa)
#
#
# Indices 1 2 3 4 5 6 
#
# 1 111.1822 64.1836 36.7076 0.0000 0.0000 0.0000
# 2 64.1836 158.3084 40.2711 0.0000 0.0000 0.0000
# 3 36.7076 40.2711 36.7627 0.0000 0.0000 0.0000
# 4 0.0000 0.0000 0.0000 18.6086 0.0000 0.0000
# 5 0.0000 0.0000 0.0000 0.0000 0.8131 0.0000
# 6 0.0000 0.0000 0.0000 0.0000 0.0000 34.0100
#
#
#
# Elastic Compliance Matrix: (Units=1/GPa)
#
#
# Indices 1 2 3 4 5 6 
#
# 1 0.014389 -0.003021 -0.011059 0.000000 0.000000 0.000000
# 2 -0.003021 0.009391 -0.007271 0.000000 0.000000 0.000000
# 3 -0.011059 -0.007271 0.046209 0.000000 0.000000 0.000000
# 4 0.000000 0.000000 0.000000 0.053739 0.000000 0.000000
# 5 0.000000 0.000000 0.000000 0.000000 1.229872 0.000000
# 6 0.000000 0.000000 0.000000 0.000000 0.000000 0.029403
#
#
# Mechanical properties :
#
#
# Convention : Reuss Voigt Hill
#
# Bulk Modulus (GPa) = 36.64631 65.39757 51.02194
# Shear Modulus (GPa) = 3.48481 21.69240 12.58860
#
# Velocity S-wave (km/s) = 1.44278 3.59969 2.74220
# Velocity P-wave (km/s) = 4.96647 7.50611 6.36425
#
# Compressibility (1/GPa) = 0.02728788
#
# Stress axis : x y z
#
# Youngs Moduli (GPa) = 69.49698 106.48306 21.64104
#
# Poissons Ratio (x) = 0.32166 0.23932
# Poissons Ratio (y) = 0.20993 0.15736
# Poissons Ratio (z) = 0.76853 0.77426
#
# Static dielectric constant tensor:
#      x y z
#    x 3.084760 0.000000 0.000000 
#    y 0.000000 3.409820 0.000000 
#    z 0.000000 0.000000 3.194180 
# 
# 
# High freq. dielectric constant tensor:
#      x y z
#    x 1.634650 0.000000 0.000000 
#    y 0.000000 1.672020 0.000000 
#    z 0.000000 0.000000 1.609850 
# 
# From -- ./inp_files/14744.got.cif
#   From: 2010.03.12/outbox.cif.g09.slc.cpg/sg39_8_cif.got.tgz:14744.got - 2010.04.14 02:53:20.
