data_PCOD8181269
_publ_section_title
;
Structure prediction by ZEFSAII (Michael W. Deem and Ramdas Pophale) SiO2 
 PCOD8181269
Probable space group: A B M 2
;
_chemical_formula_sum "Si O2"
_cell_formula_units_Z 64
_cell_length_a 15.422674
_cell_length_b 8.825392
_cell_length_c 23.530401
_cell_angle_alpha 90.000000
_cell_angle_beta 90.000000
_cell_angle_gamma 90.000000
_cell_volume 3202.749793
_symmetry_space_group_name_H-M "A B M 2"
_symmetry_group_IT_number 39
_symmetry_cell_setting 'orthorhombic'
loop_
_space_group_symop_operation_xyz
x,y,z
-x,-y,z
-x,1/2+y,z
x,1/2-y,z
x,1/2+y,1/2+z
-x,1/2-y,1/2+z
-x,y,1/2+z
x,-y,1/2+z
loop_
_atom_site_type_symbol
_atom_site_label
_atom_site_fract_x
_atom_site_fract_y
_atom_site_fract_z
Si Si1 0.749219 0.073355 0.962650
Si Si2 0.410956 0.071489 0.263387
Si Si3 0.087489 0.572176 0.262718
Si Si4 0.658523 0.429812 0.644071
Si Si5 0.241822 0.925435 0.830134
Si Si6 0.590258 0.429936 0.524323
Si Si7 0.910826 0.574428 0.024209
Si Si8 0.145668 0.575315 0.650470
O O1 0.736994 0.250000 0.975905
O O2 0.762073 0.041990 0.896466
O O3 0.664390 0.983864 0.981811
O O4 0.832381 0.012330 0.995167
O O5 0.422206 0.250000 0.262261
O O6 0.389780 0.008726 0.200141
O O7 0.334967 0.022268 0.306197
O O8 0.500000 0.000000 0.285702
O O9 0.077927 0.750000 0.265592
O O10 0.168572 0.522498 0.300003
O O11 0.096879 0.522374 0.197437
O O12 0.000000 0.500000 0.288468
O O13 0.660047 0.250000 0.643123
O O14 0.610392 0.491001 0.587940
O O15 0.757041 0.489028 0.643719
O O16 0.225840 0.750000 0.815280
O O17 0.500000 0.500000 0.503490
O O18 0.585054 0.250000 0.522385
O O19 0.907859 0.750000 0.006243
O O20 0.904752 0.555523 0.091736
O O21 0.000000 0.500000 0.002725
O O22 0.147307 0.750000 0.670308
#
# Coordination Sequence:
#
# PCOD8181269 Si02
#       8
#     8   8   8   8   8   8   8   8
#     4  11  24  42  64  90 119 159 210 260 311 363
#     4  10  20  37  61  87 119 154 193 241 297 355
#     4  12  25  40  63  94 124 159 201 248 304 363
#     4   9  17  34  61  88 119 159 195 240 301 359
#     4  10  23  44  65  85 118 162 205 255 308 357
#     4  11  22  39  62  92 125 163 205 250 309 368
#     4  11  23  40  64  92 124 162 201 248 307 367
#     4  10  19  38  64  90 123 161 199 243 303 364
#
# _framework density 19.982828999999999
#
# number of rings (size 3 to 8) (size 9 to 14) (size 15 to 20)
#    0.000    1.500    2.500    3.000    0.000    4.500 
#    0.000    1.875    0.000    0.000    0.000    0.000 
#    0.000    0.000    0.000    0.000    0.000    0.000 
#
# Total GULP energy -396951.343522 kJ/mol
# GULP energy per Si atom -12404.729485 kJ/mol
# Density = 1.993735 g / cm^3
# Si number density = 19.982829 Si / 1000 Ang^3
#
#
#
# Elastic Constant Matrix: (Units=GPa)
#
#
# Indices 1 2 3 4 5 6 
#
# 1 150.2085 54.7175 30.3239 0.0000 0.0000 0.0000
# 2 54.7175 95.7137 45.8001 0.0000 0.0000 0.0000
# 3 30.3239 45.8001 82.5481 0.0000 0.0000 0.0000
# 4 0.0000 0.0000 0.0000 24.5049 0.0000 0.0000
# 5 0.0000 0.0000 0.0000 0.0000 16.5542 0.0000
# 6 0.0000 0.0000 0.0000 0.0000 0.0000 37.3493
#
#
#
# Elastic Compliance Matrix: (Units=1/GPa)
#
#
# Indices 1 2 3 4 5 6 
#
# 1 0.008429 -0.004543 -0.000576 0.000000 0.000000 0.000000
# 2 -0.004543 0.016673 -0.007582 0.000000 0.000000 0.000000
# 3 -0.000576 -0.007582 0.016532 0.000000 0.000000 0.000000
# 4 0.000000 0.000000 0.000000 0.040808 0.000000 0.000000
# 5 0.000000 0.000000 0.000000 0.000000 0.060408 0.000000
# 6 0.000000 0.000000 0.000000 0.000000 0.000000 0.026774
#
#
# Mechanical properties :
#
#
# Convention : Reuss Voigt Hill
#
# Bulk Modulus (GPa) = 61.60328 65.57256 63.58792
# Shear Modulus (GPa) = 24.94568 28.85693 26.90131
#
# Velocity S-wave (km/s) = 3.53704 3.80424 3.67307
# Velocity P-wave (km/s) = 6.89753 7.22371 7.06250
#
# Compressibility (1/GPa) = 0.01623290
#
# Stress axis : x y z
#
# Youngs Moduli (GPa) = 118.64484 59.97764 60.48805
#
# Poissons Ratio (x) = 0.27248 0.03482
# Poissons Ratio (y) = 0.53900 0.45861
# Poissons Ratio (z) = 0.06830 0.45474
#
# Static dielectric constant tensor:
#      x y z
#    x 3.638960 0.000000 0.000000 
#    y 0.000000 3.498160 0.000000 
#    z 0.000000 0.000000 3.661500 
# 
# 
# High freq. dielectric constant tensor:
#      x y z
#    x 1.797220 0.000000 0.000000 
#    y 0.000000 1.768150 0.000000 
#    z 0.000000 0.000000 1.777240 
# 
# From -- ./inp_files/16193.got.cif
#   From: 2010.03.12/outbox.cif.g09.slc.cpg/sg39_9_cif.got.tgz:16193.got - 2010.04.14 02:53:20.
