data_PCOD8181068
_publ_section_title
;
Structure prediction by ZEFSAII (Michael W. Deem and Ramdas Pophale) SiO2 
 PCOD8181068
Probable space group: A B M 2
;
_chemical_formula_sum "Si O2"
_cell_formula_units_Z 56
_cell_length_a 9.433803
_cell_length_b 22.367135
_cell_length_c 13.467153
_cell_angle_alpha 90.000000
_cell_angle_beta 90.000000
_cell_angle_gamma 90.000000
_cell_volume 2841.665509
_symmetry_space_group_name_H-M "A B M 2"
_symmetry_group_IT_number 39
_symmetry_cell_setting 'orthorhombic'
loop_
_space_group_symop_operation_xyz
x,y,z
-x,-y,z
-x,1/2+y,z
x,1/2-y,z
x,1/2+y,1/2+z
-x,1/2-y,1/2+z
-x,y,1/2+z
x,-y,1/2+z
loop_
_atom_site_type_symbol
_atom_site_label
_atom_site_fract_x
_atom_site_fract_y
_atom_site_fract_z
Si Si1 0.649675 0.098676 0.073500
Si Si2 0.620290 0.320059 0.580809
Si Si3 0.344723 0.482253 0.389395
Si Si4 0.149942 0.681068 0.413509
Si Si5 0.647704 0.136243 0.799058
Si Si6 0.331428 0.599844 0.299926
Si Si7 0.838299 0.682404 0.463670
O O1 0.510911 0.138350 0.049403
O O2 0.657629 0.077417 0.186605
O O3 0.653213 0.039423 0.004176
O O4 0.785229 0.140086 0.052215
O O5 0.575405 0.250000 0.580469
O O6 0.750372 0.332701 0.507832
O O7 0.672411 0.339499 0.689517
O O8 0.500000 0.500000 0.350348
O O9 0.283596 0.429724 0.318240
O O10 0.269039 0.545819 0.369841
O O11 0.143929 0.750000 0.387581
O O12 0.213623 0.650615 0.314901
O O13 0.991907 0.657203 0.432688
O O14 0.482299 0.129592 0.830552
O O15 0.726760 0.181625 0.872658
O O16 0.851052 0.750000 0.503380
#
# Coordination Sequence:
#
# PCOD8181068 Si02
#       7
#     8   8   8   8   8   8   8
#     4  10  21  35  56  83 107 140 182 224 272 324
#     4  10  19  33  54  82 111 142 181 227 272 320
#     4   9  18  34  55  80 110 140 176 225 274 324
#     4  10  22  36  53  78 111 147 182 222 273 327
#     4   9  19  34  55  81 106 141 184 225 271 320
#     4  10  21  36  57  82 108 140 181 228 273 322
#     4  10  20  36  55  78 111 148 180 219 270 327
#
# _framework density 19.706752999999999
#
# number of rings (size 3 to 8) (size 9 to 14) (size 15 to 20)
#    0.000    2.286    0.000    3.429    0.000    9.714 
#    0.000    5.714    0.000    3.429    0.000    0.000 
#    0.000    0.000    0.000    0.000    0.000    0.000 
#
# Total GULP energy -347007.613440 kJ/mol
# GULP energy per Si atom -12393.129051 kJ/mol
# Density = 1.966190 g / cm^3
# Si number density = 19.706753 Si / 1000 Ang^3
#
#
#
# Elastic Constant Matrix: (Units=GPa)
#
#
# Indices 1 2 3 4 5 6 
#
# 1 96.9098 39.0590 34.1918 0.0000 0.0000 0.0000
# 2 39.0590 80.2075 43.9671 0.0000 0.0000 0.0000
# 3 34.1918 43.9671 108.4398 0.0000 0.0000 0.0000
# 4 0.0000 0.0000 0.0000 28.0545 0.0000 0.0000
# 5 0.0000 0.0000 0.0000 0.0000 18.6401 0.0000
# 6 0.0000 0.0000 0.0000 0.0000 0.0000 15.7110
#
#
#
# Elastic Compliance Matrix: (Units=1/GPa)
#
#
# Indices 1 2 3 4 5 6 
#
# 1 0.013166 -0.005318 -0.001995 0.000000 0.000000 0.000000
# 2 -0.005318 0.018178 -0.005694 0.000000 0.000000 0.000000
# 3 -0.001995 -0.005694 0.012159 0.000000 0.000000 0.000000
# 4 0.000000 0.000000 0.000000 0.035645 0.000000 0.000000
# 5 0.000000 0.000000 0.000000 0.000000 0.053648 0.000000
# 6 0.000000 0.000000 0.000000 0.000000 0.000000 0.063650
#
#
# Mechanical properties :
#
#
# Convention : Reuss Voigt Hill
#
# Bulk Modulus (GPa) = 57.17454 57.77699 57.47576
# Shear Modulus (GPa) = 21.90197 23.70375 22.80286
#
# Velocity S-wave (km/s) = 3.33737 3.47194 3.40532
# Velocity P-wave (km/s) = 6.62770 6.74199 6.68509
#
# Compressibility (1/GPa) = 0.01749030
#
# Stress axis : x y z
#
# Youngs Moduli (GPa) = 75.95218 55.01022 82.24127
#
# Poissons Ratio (x) = 0.29254 0.16409
# Poissons Ratio (y) = 0.40390 0.46826
# Poissons Ratio (z) = 0.15154 0.31321
#
# Static dielectric constant tensor:
#      x y z
#    x 3.488880 0.000000 0.000000 
#    y 0.000000 3.879810 0.000000 
#    z 0.000000 0.000000 3.451670 
# 
# 
# High freq. dielectric constant tensor:
#      x y z
#    x 1.743330 0.000000 0.000000 
#    y 0.000000 1.775440 0.000000 
#    z 0.000000 0.000000 1.764190 
# 
# From -- ./inp_files/8600.got.cif
#   From: 2010.03.12/outbox.cif.g09.slc.cpg/sg39_5_cif.got.tgz:8600.got - 2010.04.14 02:53:20.
