data_PCOD8181185
_publ_section_title
;
Structure prediction by ZEFSAII (Michael W. Deem and Ramdas Pophale) SiO2 
 PCOD8181185
Probable space group: A B M 2
;
_chemical_formula_sum "Si O2"
_cell_formula_units_Z 60
_cell_length_a 24.368468
_cell_length_b 23.848543
_cell_length_c 5.266053
_cell_angle_alpha 90.000000
_cell_angle_beta 90.000000
_cell_angle_gamma 90.000000
_cell_volume 3060.379639
_symmetry_space_group_name_H-M "A B M 2"
_symmetry_group_IT_number 39
_symmetry_cell_setting 'orthorhombic'
loop_
_space_group_symop_operation_xyz
x,y,z
-x,-y,z
-x,1/2+y,z
x,1/2-y,z
x,1/2+y,1/2+z
-x,1/2-y,1/2+z
-x,y,1/2+z
x,-y,1/2+z
loop_
_atom_site_type_symbol
_atom_site_label
_atom_site_fract_x
_atom_site_fract_y
_atom_site_fract_z
Si Si1 0.156049 0.816746 0.529950
Si Si2 0.611465 0.478061 0.507245
Si Si3 0.464908 0.750000 0.457770
Si Si4 0.736113 0.525560 0.502786
Si Si5 0.971145 0.683813 0.012781
Si Si6 0.216858 0.648260 0.028260
Si Si7 0.620155 0.151077 0.473057
Si Si8 0.671820 0.811106 0.474267
O O1 0.166398 0.750000 0.526742
O O2 0.092441 0.831780 0.508734
O O3 0.184896 0.846668 0.292360
O O4 0.176011 0.844219 0.792482
O O5 0.580411 0.504014 0.750140
O O6 0.672361 0.506330 0.492646
O O7 0.605531 0.412047 0.537932
O O8 0.510548 0.750000 0.675807
O O9 0.430809 0.807050 0.492641
O O10 0.764995 0.501795 0.248987
O O11 0.746616 0.591735 0.512065
O O12 0.979915 0.750000 0.014673
O O13 0.999730 0.657881 0.263495
O O14 0.263143 0.695980 0.016003
O O15 0.645594 0.149968 0.191272
O O16 0.664017 0.167830 0.687358
O O17 0.644388 0.750000 0.508175
#
# Coordination Sequence:
#
# PCOD8181185 Si02
#       8
#     8   8   4   8   8   8   8   8
#     4  11  22  36  50  80 124 166 202 241 309 370
#     4  10  20  36  59  87 115 153 199 245 289 332
#     4  12  26  46  70  96 126 158 200 256 314 354
#     4  10  19  35  52  77 106 149 195 237 283 332
#     4   9  17  31  52  73 101 150 209 262 300 349
#     4  12  23  34  53  81 123 163 192 239 298 362
#     4  12  23  42  64  92 122 159 203 249 295 360
#     4  12  21  35  55  86 123 160 202 230 281 364
#
# _framework density 19.605409999999999
#
# number of rings (size 3 to 8) (size 9 to 14) (size 15 to 20)
#    0.000    1.067    1.333    8.400    0.000    2.133 
#    0.000    0.000    0.000    2.400    0.000    0.000 
#    0.000   37.333    0.000    0.000    0.000    0.000 
#
# Total GULP energy -371828.422685 kJ/mol
# GULP energy per Si atom -12394.280756 kJ/mol
# Density = 1.956079 g / cm^3
# Si number density = 19.605410 Si / 1000 Ang^3
#
#
#
# Elastic Constant Matrix: (Units=GPa)
#
#
# Indices 1 2 3 4 5 6 
#
# 1 62.7392 21.0580 19.5111 0.0000 0.0000 0.0000
# 2 21.0580 87.6965 19.5830 0.0000 0.0000 0.0000
# 3 19.5111 19.5830 147.7273 0.0000 0.0000 0.0000
# 4 0.0000 0.0000 0.0000 31.1063 0.0000 0.0000
# 5 0.0000 0.0000 0.0000 0.0000 26.1970 0.0000
# 6 0.0000 0.0000 0.0000 0.0000 0.0000 8.0589
#
#
#
# Elastic Compliance Matrix: (Units=1/GPa)
#
#
# Indices 1 2 3 4 5 6 
#
# 1 0.017809 -0.003865 -0.001840 0.000000 0.000000 0.000000
# 2 -0.003865 0.012590 -0.001158 0.000000 0.000000 0.000000
# 3 -0.001840 -0.001158 0.007166 0.000000 0.000000 0.000000
# 4 0.000000 0.000000 0.000000 0.032148 0.000000 0.000000
# 5 0.000000 0.000000 0.000000 0.000000 0.038172 0.000000
# 6 0.000000 0.000000 0.000000 0.000000 0.000000 0.124086
#
#
# Mechanical properties :
#
#
# Convention : Reuss Voigt Hill
#
# Bulk Modulus (GPa) = 41.95139 46.49636 44.22388
# Shear Modulus (GPa) = 19.71275 28.93983 24.32629
#
# Velocity S-wave (km/s) = 3.17436 3.84619 3.52631
# Velocity P-wave (km/s) = 5.90591 6.59483 6.25986
#
# Compressibility (1/GPa) = 0.02383711
#
# Stress axis : x y z
#
# Youngs Moduli (GPa) = 56.15289 79.42921 139.55245
#
# Poissons Ratio (x) = 0.30703 0.25673
# Poissons Ratio (y) = 0.21706 0.16166
# Poissons Ratio (z) = 0.10330 0.09201
#
# Static dielectric constant tensor:
#      x y z
#    x 3.298290 0.000000 0.000000 
#    y 0.000000 3.472160 0.000000 
#    z 0.000000 0.000000 4.537570 
# 
# 
# High freq. dielectric constant tensor:
#      x y z
#    x 1.728980 0.000000 0.000000 
#    y 0.000000 1.747510 0.000000 
#    z 0.000000 0.000000 1.801900 
# 
# From -- ./inp_files/1128.got.cif
#   From: 2010.03.12/outbox.cif.g09.slc.cpg/sg39_1_cif.got.tgz:1128.got - 2010.04.14 02:53:20.
