data_PCOD8181448
_publ_section_title
;
Structure prediction by ZEFSAII (Michael W. Deem and Ramdas Pophale) SiO2 
 PCOD8181448
Probable space group: A B M 2
;
_chemical_formula_sum "Si O2"
_cell_formula_units_Z 64
_cell_length_a 24.301340
_cell_length_b 9.172873
_cell_length_c 14.683065
_cell_angle_alpha 90.000000
_cell_angle_beta 90.000000
_cell_angle_gamma 90.000000
_cell_volume 3273.047618
_symmetry_space_group_name_H-M "A B M 2"
_symmetry_group_IT_number 39
_symmetry_cell_setting 'orthorhombic'
loop_
_space_group_symop_operation_xyz
x,y,z
-x,-y,z
-x,1/2+y,z
x,1/2-y,z
x,1/2+y,1/2+z
-x,1/2-y,1/2+z
-x,y,1/2+z
x,-y,1/2+z
loop_
_atom_site_type_symbol
_atom_site_label
_atom_site_fract_x
_atom_site_fract_y
_atom_site_fract_z
Si Si1 0.133314 0.080814 0.884210
Si Si2 0.337674 0.421360 0.249380
Si Si3 0.944388 0.078036 0.750788
Si Si4 0.739767 0.418033 0.381836
Si Si5 0.946481 0.581975 0.043040
Si Si6 0.658474 0.082964 0.540497
Si Si7 0.552253 0.586486 0.535399
Si Si8 0.446987 0.084807 0.752354
O O1 0.124795 0.250000 0.858856
O O2 0.196900 0.039475 0.893042
O O3 0.107345 0.981678 0.806055
O O4 0.105734 0.042933 0.981045
O O5 0.344908 0.250000 0.265230
O O6 0.285495 0.480028 0.304246
O O7 0.326648 0.459594 0.143828
O O8 0.392380 0.501776 0.285897
O O9 0.950621 0.250000 0.765871
O O10 0.932669 0.035782 0.646098
O O11 0.000000 0.000000 0.785348
O O12 0.732123 0.250000 0.352639
O O13 0.711636 0.448254 0.479205
O O14 0.961756 0.750000 0.038028
O O15 0.000000 0.500000 0.005126
O O16 0.639258 0.250000 0.536022
O O17 0.608164 0.988505 0.501136
O O18 0.500000 0.500000 0.495337
O O19 0.550479 0.750000 0.497154
O O20 0.550481 0.584279 0.643939
O O21 0.446263 0.250000 0.789970
O O22 0.500000 0.000000 0.792033
#
# Coordination Sequence:
#
# PCOD8181448 Si02
#       8
#     8   8   8   8   8   8   8   8
#     4  10  21  37  56  79 109 145 183 223 267 314
#     4  10  20  35  56  80 106 138 178 224 271 320
#     4  10  20  35  57  85 115 145 178 218 265 316
#     4  10  22  39  56  76 106 144 184 224 267 317
#     4   9  19  35  56  82 112 144 177 215 262 316
#     4   9  19  36  56  76 103 141 179 218 269 324
#     4   9  16  27  48  77 106 135 170 215 267 324
#     4   9  16  28  49  77 107 138 173 215 268 327
#
# _framework density 19.553640999999999
#
# number of rings (size 3 to 8) (size 9 to 14) (size 15 to 20)
#    0.000    2.500    0.000    1.875    0.000    7.500 
#    0.000    3.125    0.000    3.000    0.000    0.000 
#    0.000    0.000    0.000    0.000    0.000    0.000 
#
# Total GULP energy -396906.713983 kJ/mol
# GULP energy per Si atom -12403.334812 kJ/mol
# Density = 1.950914 g / cm^3
# Si number density = 19.553641 Si / 1000 Ang^3
#
#
#
# Elastic Constant Matrix: (Units=GPa)
#
#
# Indices 1 2 3 4 5 6 
#
# 1 175.9192 81.3240 61.9964 0.0000 0.0000 0.0000
# 2 81.3240 114.7302 48.1401 0.0000 0.0000 0.0000
# 3 61.9964 48.1401 73.1524 0.0000 0.0000 0.0000
# 4 0.0000 0.0000 0.0000 19.8949 0.0000 0.0000
# 5 0.0000 0.0000 0.0000 0.0000 6.0867 0.0000
# 6 0.0000 0.0000 0.0000 0.0000 0.0000 35.7888
#
#
#
# Elastic Compliance Matrix: (Units=1/GPa)
#
#
# Indices 1 2 3 4 5 6 
#
# 1 0.009652 -0.004710 -0.005081 0.000000 0.000000 0.000000
# 2 -0.004710 0.014339 -0.005445 0.000000 0.000000 0.000000
# 3 -0.005081 -0.005445 0.021559 0.000000 0.000000 0.000000
# 4 0.000000 0.000000 0.000000 0.050264 0.000000 0.000000
# 5 0.000000 0.000000 0.000000 0.000000 0.164293 0.000000
# 6 0.000000 0.000000 0.000000 0.000000 0.000000 0.027942
#
#
# Mechanical properties :
#
#
# Convention : Reuss Voigt Hill
#
# Bulk Modulus (GPa) = 66.31403 82.96922 74.64162
# Shear Modulus (GPa) = 15.45371 23.84351 19.64861
#
# Velocity S-wave (km/s) = 2.81432 3.49576 3.17339
# Velocity P-wave (km/s) = 6.67443 7.66926 7.18907
#
# Compressibility (1/GPa) = 0.01507977
#
# Stress axis : x y z
#
# Youngs Moduli (GPa) = 103.60254 69.73892 46.38429
#
# Poissons Ratio (x) = 0.32847 0.23567
# Poissons Ratio (y) = 0.48796 0.25255
# Poissons Ratio (z) = 0.52638 0.37971
#
# Static dielectric constant tensor:
#      x y z
#    x 3.544220 0.000000 0.000000 
#    y 0.000000 3.625270 0.000000 
#    z 0.000000 0.000000 3.466450 
# 
# 
# High freq. dielectric constant tensor:
#      x y z
#    x 1.756910 0.000000 0.000000 
#    y 0.000000 1.765030 0.000000 
#    z 0.000000 0.000000 1.756220 
# 
# From -- ./inp_files/10567.got.cif
#   From: 2010.03.12/outbox.cif.g09.slc.cpg/sg39_6_cif.got.tgz:10567.got - 2010.04.14 02:53:20.
