data_PCOD8181342
_publ_section_title
;
Structure prediction by ZEFSAII (Michael W. Deem and Ramdas Pophale) SiO2 
 PCOD8181342
Probable space group: A B M 2
;
_chemical_formula_sum "Si O2"
_cell_formula_units_Z 48
_cell_length_a 9.460965
_cell_length_b 15.051527
_cell_length_c 17.911152
_cell_angle_alpha 90.000000
_cell_angle_beta 90.000000
_cell_angle_gamma 90.000000
_cell_volume 2550.583332
_symmetry_space_group_name_H-M "A B M 2"
_symmetry_group_IT_number 39
_symmetry_cell_setting 'orthorhombic'
loop_
_space_group_symop_operation_xyz
x,y,z
-x,-y,z
-x,1/2+y,z
x,1/2-y,z
x,1/2+y,1/2+z
-x,1/2-y,1/2+z
-x,y,1/2+z
x,-y,1/2+z
loop_
_atom_site_type_symbol
_atom_site_label
_atom_site_fract_x
_atom_site_fract_y
_atom_site_fract_z
Si Si1 0.213210 0.350643 0.299510
Si Si2 0.838673 0.514076 0.892891
Si Si3 0.432180 0.407197 0.177460
Si Si4 0.105054 0.147854 0.765178
Si Si5 0.659935 0.011259 0.531082
Si Si6 0.718411 0.651903 0.623608
O O1 0.220329 0.250000 0.331139
O O2 0.230914 0.420662 0.366765
O O3 0.336312 0.362846 0.239684
O O4 0.062564 0.369180 0.260295
O O5 0.823765 0.587143 0.828342
O O6 0.000000 0.500000 0.916743
O O7 0.754227 0.550511 0.964582
O O8 0.500000 0.500000 0.205304
O O9 0.338559 0.423604 0.102764
O O10 0.561711 0.342246 0.159128
O O11 0.140712 0.250000 0.784266
O O12 0.170269 0.119659 0.686135
O O13 0.724644 0.915825 0.554719
O O14 0.500000 0.000000 0.502100
O O15 0.759434 0.750000 0.594470
#
# Coordination Sequence:
#
# PCOD8181342 Si02
#       6
#     8   8   8   8   8   8
#     4  10  20  34  54  79 105 133 168 211 256 303
#     4  10  20  34  51  72 103 137 168 207 252 301
#     4   9  18  33  51  74 101 130 167 210 255 302
#     4   9  19  35  54  77 102 132 172 214 255 298
#     4   9  20  34  48  70 101 134 166 205 253 302
#     4   9  17  32  53  74  98 128 167 213 254 298
#
# _framework density 18.819223999999998
#
# number of rings (size 3 to 8) (size 9 to 14) (size 15 to 20)
#    0.000    3.000    0.000    2.500    0.000    4.000 
#    0.000    4.167    0.000    0.000    0.000    0.000 
#    0.000    0.000    0.000    0.000    0.000    0.000 
#
# Total GULP energy -297550.297547 kJ/mol
# GULP energy per Si atom -12397.929064 kJ/mol
# Density = 1.877639 g / cm^3
# Si number density = 18.819224 Si / 1000 Ang^3
#
#
#
# Elastic Constant Matrix: (Units=GPa)
#
#
# Indices 1 2 3 4 5 6 
#
# 1 45.0461 9.0569 27.2388 0.0000 0.0000 0.0000
# 2 9.0569 66.5976 17.4499 0.0000 0.0000 0.0000
# 3 27.2388 17.4499 51.5784 0.0000 0.0000 0.0000
# 4 0.0000 0.0000 0.0000 18.4094 0.0000 0.0000
# 5 0.0000 0.0000 0.0000 0.0000 37.8182 0.0000
# 6 0.0000 0.0000 0.0000 0.0000 0.0000 18.3342
#
#
#
# Elastic Compliance Matrix: (Units=1/GPa)
#
#
# Indices 1 2 3 4 5 6 
#
# 1 0.032615 0.000085 -0.017253 0.000000 0.000000 0.000000
# 2 0.000085 0.016476 -0.005619 0.000000 0.000000 0.000000
# 3 -0.017253 -0.005619 0.030400 0.000000 0.000000 0.000000
# 4 0.000000 0.000000 0.000000 0.054320 0.000000 0.000000
# 5 0.000000 0.000000 0.000000 0.000000 0.026442 0.000000
# 6 0.000000 0.000000 0.000000 0.000000 0.000000 0.054543
#
#
# Mechanical properties :
#
#
# Convention : Reuss Voigt Hill
#
# Bulk Modulus (GPa) = 29.48308 30.07923 29.78115
# Shear Modulus (GPa) = 18.40422 22.21080 20.30751
#
# Velocity S-wave (km/s) = 3.13061 3.43916 3.28850
# Velocity P-wave (km/s) = 5.36359 5.63812 5.50257
#
# Compressibility (1/GPa) = 0.03391776
#
# Stress axis : x y z
#
# Youngs Moduli (GPa) = 30.66075 60.69320 32.89436
#
# Poissons Ratio (x) = -0.00517 0.56752
# Poissons Ratio (y) = -0.00261 0.18484
# Poissons Ratio (z) = 0.52899 0.34105
#
# Static dielectric constant tensor:
#      x y z
#    x 3.429610 0.000000 0.000000 
#    y 0.000000 3.471950 0.000000 
#    z 0.000000 0.000000 3.132260 
# 
# 
# High freq. dielectric constant tensor:
#      x y z
#    x 1.730710 0.000000 0.000000 
#    y 0.000000 1.732080 0.000000 
#    z 0.000000 0.000000 1.707480 
# 
# From -- ./inp_files/11614.got.cif
#   From: 2010.03.12/outbox.cif.g09.slc.cpg/sg39_6_cif.got.tgz:11614.got - 2010.04.14 02:53:20.
