data_PCOD8181794
_publ_section_title
;
Structure prediction by ZEFSAII (Michael W. Deem and Ramdas Pophale) SiO2 
 PCOD8181794
Probable space group: A B M 2
;
_chemical_formula_sum "Si O2"
_cell_formula_units_Z 64
_cell_length_a 10.968364
_cell_length_b 15.478966
_cell_length_c 17.962523
_cell_angle_alpha 90.000000
_cell_angle_beta 90.000000
_cell_angle_gamma 90.000000
_cell_volume 3049.657997
_symmetry_space_group_name_H-M "A B M 2"
_symmetry_group_IT_number 39
_symmetry_cell_setting 'orthorhombic'
loop_
_space_group_symop_operation_xyz
x,y,z
-x,-y,z
-x,1/2+y,z
x,1/2-y,z
x,1/2+y,1/2+z
-x,1/2-y,1/2+z
-x,y,1/2+z
x,-y,1/2+z
loop_
_atom_site_type_symbol
_atom_site_label
_atom_site_fract_x
_atom_site_fract_y
_atom_site_fract_z
Si Si1 0.862401 0.996597 0.672070
Si Si2 0.134930 0.991621 0.004260
Si Si3 0.476515 0.400043 0.033393
Si Si4 0.698224 0.343177 0.959300
Si Si5 0.698343 0.344842 0.660594
Si Si6 0.260051 0.849351 0.441992
Si Si7 0.581631 0.118813 0.808171
Si Si8 0.683114 0.569754 0.793956
O O1 0.816459 0.094845 0.664240
O O2 0.865337 0.956723 0.589094
O O3 0.771373 0.937843 0.721901
O O4 0.000000 0.000000 0.705530
O O5 0.204557 0.920825 0.954169
O O6 0.191821 0.087963 0.000778
O O7 0.000000 0.000000 0.971458
O O8 0.500000 0.500000 0.016877
O O9 0.410186 0.387743 0.112255
O O10 0.609524 0.355927 0.030971
O O11 0.400991 0.357700 0.965361
O O12 0.764759 0.250000 0.967684
O O13 0.612346 0.338357 0.886688
O O14 0.732779 0.250000 0.627585
O O15 0.651648 0.330780 0.743796
O O16 0.214704 0.750000 0.447408
O O17 0.237216 0.886572 0.359394
O O18 0.438925 0.127130 0.784368
O O19 0.632394 0.022632 0.816178
#
# Coordination Sequence:
#
# PCOD8181794 Si02
#       8
#     8   8   8   8   8   8   8   8
#     4  10  23  44  68  89 129 181 228 269 333 398
#     4  11  25  45  67  94 129 177 226 275 327 397
#     4  12  22  38  64  94 131 169 210 272 340 407
#     4  12  23  40  64  97 133 171 216 274 341 403
#     4  11  23  38  62  96 127 166 221 277 336 404
#     4  12  23  40  67  96 129 169 216 273 332 393
#     4  10  21  36  62  92 131 169 206 267 338 407
#     4  10  21  39  62  93 128 171 213 264 328 397
#
# _framework density 20.985959000000001
#
# number of rings (size 3 to 8) (size 9 to 14) (size 15 to 20)
#    0.000    1.000    5.000    1.500    5.250    1.500 
#    0.000    3.125    0.000    0.000    0.000    0.000 
#    0.000    0.000    0.000    0.000    0.000    0.000 
#
# Total GULP energy -396630.213131 kJ/mol
# GULP energy per Si atom -12394.694160 kJ/mol
# Density = 2.093819 g / cm^3
# Si number density = 20.985959 Si / 1000 Ang^3
#
#
#
# Elastic Constant Matrix: (Units=GPa)
#
#
# Indices 1 2 3 4 5 6 
#
# 1 131.2700 44.1764 38.4153 0.0000 0.0000 0.0000
# 2 44.1764 125.8051 24.4995 0.0000 0.0000 0.0000
# 3 38.4153 24.4995 89.6832 0.0000 0.0000 0.0000
# 4 0.0000 0.0000 0.0000 12.2408 0.0000 0.0000
# 5 0.0000 0.0000 0.0000 0.0000 28.8318 0.0000
# 6 0.0000 0.0000 0.0000 0.0000 0.0000 12.8227
#
#
#
# Elastic Compliance Matrix: (Units=1/GPa)
#
#
# Indices 1 2 3 4 5 6 
#
# 1 0.009498 -0.002686 -0.003335 0.000000 0.000000 0.000000
# 2 -0.002686 0.009155 -0.001351 0.000000 0.000000 0.000000
# 3 -0.003335 -0.001351 0.012948 0.000000 0.000000 0.000000
# 4 0.000000 0.000000 0.000000 0.081694 0.000000 0.000000
# 5 0.000000 0.000000 0.000000 0.000000 0.034684 0.000000
# 6 0.000000 0.000000 0.000000 0.000000 0.000000 0.077987
#
#
# Mechanical properties :
#
#
# Convention : Reuss Voigt Hill
#
# Bulk Modulus (GPa) = 59.31706 62.32673 60.82189
# Shear Modulus (GPa) = 20.29835 26.75686 23.52761
#
# Velocity S-wave (km/s) = 3.11341 3.57457 3.35193
# Velocity P-wave (km/s) = 6.42269 6.84109 6.63519
#
# Compressibility (1/GPa) = 0.01685856
#
# Stress axis : x y z
#
# Youngs Moduli (GPa) = 105.29044 109.23134 77.23419
#
# Poissons Ratio (x) = 0.29336 0.25754
# Poissons Ratio (y) = 0.28278 0.10431
# Poissons Ratio (z) = 0.35110 0.14752
#
# Static dielectric constant tensor:
#      x y z
#    x 3.738120 0.000000 0.000000 
#    y 0.000000 3.736140 0.000000 
#    z 0.000000 0.000000 3.741470 
# 
# 
# High freq. dielectric constant tensor:
#      x y z
#    x 1.802250 0.000000 0.000000 
#    y 0.000000 1.817210 0.000000 
#    z 0.000000 0.000000 1.822400 
# 
# From -- ./inp_files/12356.got.cif
#   From: 2010.03.12/outbox.cif.g09.slc.cpg/sg39_7_cif.got.tgz:12356.got - 2010.04.14 02:53:20.
