data_PCOD8181126
_publ_section_title
;
Structure prediction by ZEFSAII (Michael W. Deem and Ramdas Pophale) SiO2 
 PCOD8181126
Probable space group: A B M 2
;
_chemical_formula_sum "Si O2"
_cell_formula_units_Z 56
_cell_length_a 23.892355
_cell_length_b 8.861332
_cell_length_c 14.383550
_cell_angle_alpha 90.000000
_cell_angle_beta 90.000000
_cell_angle_gamma 90.000000
_cell_volume 3045.257732
_symmetry_space_group_name_H-M "A B M 2"
_symmetry_group_IT_number 39
_symmetry_cell_setting 'orthorhombic'
loop_
_space_group_symop_operation_xyz
x,y,z
-x,-y,z
-x,1/2+y,z
x,1/2-y,z
x,1/2+y,1/2+z
-x,1/2-y,1/2+z
-x,y,1/2+z
x,-y,1/2+z
loop_
_atom_site_type_symbol
_atom_site_label
_atom_site_fract_x
_atom_site_fract_y
_atom_site_fract_z
Si Si1 0.439401 0.429241 0.268480
Si Si2 0.353642 0.569714 0.406163
Si Si3 0.944466 0.925790 0.413919
Si Si4 0.943117 0.572243 0.624102
Si Si5 0.859421 0.426798 0.759372
Si Si6 0.647710 0.927016 0.115805
Si Si7 0.268510 0.928708 0.770969
O O1 0.500000 0.500000 0.262273
O O2 0.442565 0.250000 0.280683
O O3 0.407618 0.497974 0.357011
O O4 0.407338 0.475383 0.173627
O O5 0.357691 0.750000 0.401803
O O6 0.352683 0.505029 0.511965
O O7 0.296883 0.514610 0.356971
O O8 0.955284 0.750000 0.411519
O O9 0.934839 0.983180 0.518442
O O10 0.890081 0.971224 0.355073
O O11 0.000000 0.000000 0.370125
O O12 0.948204 0.750000 0.633611
O O13 0.888291 0.515556 0.676164
O O14 0.000000 0.500000 0.665596
O O15 0.863616 0.250000 0.738231
O O16 0.795613 0.479916 0.766982
O O17 0.649345 0.750000 0.104470
O O18 0.702292 0.979294 0.174230
O O19 0.275558 0.750000 0.787278
#
# Coordination Sequence:
#
# PCOD8181126 Si02
#       7
#     8   8   8   8   8   8   8
#     4  10  20  36  55  79 110 140 171 209 252 299
#     4  10  19  34  55  78 103 135 174 213 251 295
#     4   9  19  34  50  71  99 131 164 204 252 306
#     4  10  20  34  51  72 100 130 165 207 254 305
#     4  10  20  34  53  75 101 133 169 207 254 305
#     4   8  17  34  54  74 102 138 172 207 251 299
#     4   9  19  36  53  73 103 137 170 209 255 303
#
# _framework density 18.389249
#
# number of rings (size 3 to 8) (size 9 to 14) (size 15 to 20)
#    0.000    2.571    0.000    2.571    0.000    4.571 
#    0.000    8.571    0.000    0.000    0.000    0.000 
#    0.000    0.000    0.000    0.000    0.000    0.000 
#
# Total GULP energy -347184.847664 kJ/mol
# GULP energy per Si atom -12399.458845 kJ/mol
# Density = 1.834739 g / cm^3
# Si number density = 18.389249 Si / 1000 Ang^3
#
#
#
# Elastic Constant Matrix: (Units=GPa)
#
#
# Indices 1 2 3 4 5 6 
#
# 1 186.2114 51.0514 86.4025 0.0000 0.0000 0.0000
# 2 51.0514 53.8554 42.8250 0.0000 0.0000 0.0000
# 3 86.4025 42.8250 151.5932 0.0000 0.0000 0.0000
# 4 0.0000 0.0000 0.0000 24.5211 0.0000 0.0000
# 5 0.0000 0.0000 0.0000 0.0000 19.5519 0.0000
# 6 0.0000 0.0000 0.0000 0.0000 0.0000 31.2519
#
#
#
# Elastic Compliance Matrix: (Units=1/GPa)
#
#
# Indices 1 2 3 4 5 6 
#
# 1 0.008336 -0.005318 -0.003249 0.000000 0.000000 0.000000
# 2 -0.005318 0.027341 -0.004693 0.000000 0.000000 0.000000
# 3 -0.003249 -0.004693 0.009774 0.000000 0.000000 0.000000
# 4 0.000000 0.000000 0.000000 0.040781 0.000000 0.000000
# 5 0.000000 0.000000 0.000000 0.000000 0.051146 0.000000
# 6 0.000000 0.000000 0.000000 0.000000 0.000000 0.031998
#
#
# Mechanical properties :
#
#
# Convention : Reuss Voigt Hill
#
# Bulk Modulus (GPa) = 52.82184 83.57975 68.20079
# Shear Modulus (GPa) = 24.72730 29.15705 26.94217
#
# Velocity S-wave (km/s) = 3.67094 3.98621 3.83182
# Velocity P-wave (km/s) = 6.83772 8.16918 7.53293
#
# Compressibility (1/GPa) = 0.01893156
#
# Stress axis : x y z
#
# Youngs Moduli (GPa) = 119.96612 36.57472 102.31422
#
# Poissons Ratio (x) = 0.19452 0.33237
# Poissons Ratio (y) = 0.63804 0.48012
# Poissons Ratio (z) = 0.38972 0.17163
#
# Static dielectric constant tensor:
#      x y z
#    x 3.466740 0.000000 0.000000 
#    y 0.000000 3.244230 0.000000 
#    z 0.000000 0.000000 3.697260 
# 
# 
# High freq. dielectric constant tensor:
#      x y z
#    x 1.715000 0.000000 0.000000 
#    y 0.000000 1.702600 0.000000 
#    z 0.000000 0.000000 1.719690 
# 
# From -- ./inp_files/10366.got.cif
#   From: 2010.03.12/outbox.cif.g09.slc.cpg/sg39_6_cif.got.tgz:10366.got - 2010.04.14 02:53:20.
