data_PCOD8181130
_publ_section_title
;
Structure prediction by ZEFSAII (Michael W. Deem and Ramdas Pophale) SiO2 
 PCOD8181130
Probable space group: A B M 2
;
_chemical_formula_sum "Si O2"
_cell_formula_units_Z 56
_cell_length_a 5.105953
_cell_length_b 14.291965
_cell_length_c 34.730276
_cell_angle_alpha 90.000000
_cell_angle_beta 90.000000
_cell_angle_gamma 90.000000
_cell_volume 2534.410688
_symmetry_space_group_name_H-M "A B M 2"
_symmetry_group_IT_number 39
_symmetry_cell_setting 'orthorhombic'
loop_
_space_group_symop_operation_xyz
x,y,z
-x,-y,z
-x,1/2+y,z
x,1/2-y,z
x,1/2+y,1/2+z
-x,1/2-y,1/2+z
-x,y,1/2+z
x,-y,1/2+z
loop_
_atom_site_type_symbol
_atom_site_label
_atom_site_fract_x
_atom_site_fract_y
_atom_site_fract_z
Si Si1 0.831802 0.642931 0.219310
Si Si2 0.743676 0.750000 0.985091
Si Si3 0.104170 0.098951 0.045955
Si Si4 0.743181 0.064106 0.884348
Si Si5 0.333596 0.362069 0.677596
Si Si6 0.253894 0.438867 0.298063
Si Si7 0.763267 0.750000 0.434473
Si Si8 0.595306 0.143988 0.091591
O O1 0.840806 0.750000 0.207313
O O2 0.591684 0.594730 0.197133
O O3 0.797643 0.638435 0.265469
O O4 0.095093 0.595117 0.202813
O O5 0.448039 0.750000 0.968961
O O6 0.943396 0.750000 0.950093
O O7 0.787846 0.842262 0.010305
O O8 0.351081 0.083654 0.074866
O O9 0.856719 0.147406 0.066031
O O10 0.000000 0.000000 0.030284
O O11 0.704510 0.103215 0.840715
O O12 0.737064 0.156122 0.910014
O O13 0.500000 0.000000 0.896533
O O14 0.000000 0.000000 0.889836
O O15 0.330679 0.250000 0.679959
O O16 0.324332 0.395704 0.633366
O O17 0.500000 0.500000 0.285131
O O18 0.000000 0.500000 0.300543
O O19 0.486559 0.250000 0.094219
#
# Coordination Sequence:
#
# PCOD8181130 Si02
#       8
#     8   4   8   8   8   8   4   8
#     4  10  19  34  55  86 120 160 216 258 304 371
#     4  12  26  46  68 104 131 168 209 264 328 400
#     4  12  25  43  67  97 130 167 214 266 321 387
#     4  10  23  44  68 100 137 173 219 272 321 387
#     4   9  19  33  56  87 119 163 210 261 316 359
#     4  10  21  38  59  85 123 168 207 256 321 369
#     4  12  26  44  76 100 133 172 221 254 336 410
#     4  11  20  41  67  88 126 175 219 268 323 380
#
# _framework density 22.095865
#
# number of rings (size 3 to 8) (size 9 to 14) (size 15 to 20)
#    0.000    1.429    1.429    3.857    1.000    4.000 
#    0.000    7.143    0.000    0.000    0.000    0.000 
#    0.000    0.000    0.000    0.000    0.000    0.000 
#
# Total GULP energy -347161.258179 kJ/mol
# GULP energy per Si atom -12398.616364 kJ/mol
# Density = 2.204557 g / cm^3
# Si number density = 22.095865 Si / 1000 Ang^3
#
#
#
# Elastic Constant Matrix: (Units=GPa)
#
#
# Indices 1 2 3 4 5 6 
#
# 1 153.3421 26.6534 40.4023 0.0000 0.0000 0.0000
# 2 26.6534 73.9908 42.8165 0.0000 0.0000 0.0000
# 3 40.4023 42.8165 122.6217 0.0000 0.0000 0.0000
# 4 0.0000 0.0000 0.0000 16.7274 0.0000 0.0000
# 5 0.0000 0.0000 0.0000 0.0000 41.7929 0.0000
# 6 0.0000 0.0000 0.0000 0.0000 0.0000 23.8958
#
#
#
# Elastic Compliance Matrix: (Units=1/GPa)
#
#
# Indices 1 2 3 4 5 6 
#
# 1 0.007280 -0.001547 -0.001858 0.000000 0.000000 0.000000
# 2 -0.001547 0.017266 -0.005519 0.000000 0.000000 0.000000
# 3 -0.001858 -0.005519 0.010695 0.000000 0.000000 0.000000
# 4 0.000000 0.000000 0.000000 0.059782 0.000000 0.000000
# 5 0.000000 0.000000 0.000000 0.000000 0.023928 0.000000
# 6 0.000000 0.000000 0.000000 0.000000 0.000000 0.041848
#
#
# Mechanical properties :
#
#
# Convention : Reuss Voigt Hill
#
# Bulk Modulus (GPa) = 57.49934 63.29989 60.39962
# Shear Modulus (GPa) = 27.10828 32.48870 29.79849
#
# Velocity S-wave (km/s) = 3.50644 3.83868 3.67631
# Velocity P-wave (km/s) = 6.51710 6.95394 6.73906
#
# Compressibility (1/GPa) = 0.01739150
#
# Stress axis : x y z
#
# Youngs Moduli (GPa) = 137.36404 57.91633 93.50425
#
# Poissons Ratio (x) = 0.08959 0.17378
# Poissons Ratio (y) = 0.21250 0.51607
# Poissons Ratio (z) = 0.25529 0.31966
#
# Static dielectric constant tensor:
#      x y z
#    x 4.340910 0.000000 0.000000 
#    y 0.000000 3.689260 0.000000 
#    z 0.000000 0.000000 4.246990 
# 
# 
# High freq. dielectric constant tensor:
#      x y z
#    x 1.892660 0.000000 0.000000 
#    y 0.000000 1.856770 0.000000 
#    z 0.000000 0.000000 1.871230 
# 
# From -- ./inp_files/17338.got.cif
#   From: 2010.03.12/outbox.cif.g09.slc.cpg/sg39_9_cif.got.tgz:17338.got - 2010.04.14 02:53:20.
