data_PCOD8181378
_publ_section_title
;
Structure prediction by ZEFSAII (Michael W. Deem and Ramdas Pophale) SiO2 
 PCOD8181378
Probable space group: A B M 2
;
_chemical_formula_sum "Si O2"
_cell_formula_units_Z 64
_cell_length_a 15.998950
_cell_length_b 22.171538
_cell_length_c 9.509088
_cell_angle_alpha 90.000000
_cell_angle_beta 90.000000
_cell_angle_gamma 90.000000
_cell_volume 3373.076322
_symmetry_space_group_name_H-M "A B M 2"
_symmetry_group_IT_number 39
_symmetry_cell_setting 'orthorhombic'
loop_
_space_group_symop_operation_xyz
x,y,z
-x,-y,z
-x,1/2+y,z
x,1/2-y,z
x,1/2+y,1/2+z
-x,1/2-y,1/2+z
-x,y,1/2+z
x,-y,1/2+z
loop_
_atom_site_type_symbol
_atom_site_label
_atom_site_fract_x
_atom_site_fract_y
_atom_site_fract_z
Si Si1 0.227222 0.818872 0.442300
Si Si2 0.596882 0.017650 0.029608
Si Si3 0.476713 0.873274 0.157187
Si Si4 0.363039 0.927301 0.754377
Si Si5 0.766936 0.180609 0.756052
Si Si6 0.588956 0.818246 0.917580
Si Si7 0.077123 0.322302 0.758996
Si Si8 0.923072 0.678803 0.441013
O O1 0.238595 0.750000 0.394702
O O2 0.191613 0.823116 0.601238
O O3 0.319489 0.849231 0.435966
O O4 0.160506 0.848378 0.335257
O O5 0.596757 0.080501 0.115606
O O6 0.500000 0.000000 0.002182
O O7 0.649519 0.966401 0.112265
O O8 0.648775 0.028196 0.886661
O O9 0.541091 0.906670 0.260258
O O10 0.436329 0.821095 0.253294
O O11 0.522411 0.850167 0.017850
O O12 0.307881 0.867034 0.764929
O O13 0.734959 0.250000 0.782295
O O14 0.835230 0.161219 0.870505
O O15 0.593148 0.750000 0.969066
O O16 0.076899 0.250000 0.760681
O O17 0.073794 0.347447 0.599543
O O18 0.998040 0.347848 0.846276
O O19 0.932966 0.750000 0.447156
#
# Coordination Sequence:
#
# PCOD8181378 Si02
#       8
#     8   8   8   8   8   8   8   8
#     4   9  18  31  47  70 109 152 189 226 272 335
#     4  10  22  38  58  78  99 141 196 252 294 322
#     4  11  21  37  55  77 108 148 196 243 283 342
#     4  11  22  37  58  79 107 144 189 245 289 339
#     4  10  20  34  53  81 116 151 183 225 286 356
#     4  11  22  35  52  80 118 159 193 230 291 359
#     4   9  16  29  48  74 110 155 194 227 265 327
#     4   9  17  29  49  76 112 152 190 224 271 339
#
# _framework density 18.973776999999998
#
# number of rings (size 3 to 8) (size 9 to 14) (size 15 to 20)
#    0.000    2.000    2.500    2.250    1.750    4.500 
#    0.000    1.250    0.000    0.000    0.000    0.000 
#    0.000   21.000    0.000    0.000    0.000    0.000 
#
# Total GULP energy -396584.518575 kJ/mol
# GULP energy per Si atom -12393.266205 kJ/mol
# Density = 1.893059 g / cm^3
# Si number density = 18.973777 Si / 1000 Ang^3
#
#
#
# Elastic Constant Matrix: (Units=GPa)
#
#
# Indices 1 2 3 4 5 6 
#
# 1 67.8975 28.3558 53.7082 0.0000 0.0000 0.0000
# 2 28.3558 63.0991 33.8760 0.0000 0.0000 0.0000
# 3 53.7082 33.8760 140.6160 0.0000 0.0000 0.0000
# 4 0.0000 0.0000 0.0000 26.3567 0.0000 0.0000
# 5 0.0000 0.0000 0.0000 0.0000 29.2492 0.0000
# 6 0.0000 0.0000 0.0000 0.0000 0.0000 9.1701
#
#
#
# Elastic Compliance Matrix: (Units=1/GPa)
#
#
# Indices 1 2 3 4 5 6 
#
# 1 0.023225 -0.006517 -0.007301 0.000000 0.000000 0.000000
# 2 -0.006517 0.020031 -0.002336 0.000000 0.000000 0.000000
# 3 -0.007301 -0.002336 0.010463 0.000000 0.000000 0.000000
# 4 0.000000 0.000000 0.000000 0.037941 0.000000 0.000000
# 5 0.000000 0.000000 0.000000 0.000000 0.034189 0.000000
# 6 0.000000 0.000000 0.000000 0.000000 0.000000 0.109050
#
#
# Mechanical properties :
#
#
# Convention : Reuss Voigt Hill
#
# Bulk Modulus (GPa) = 46.70693 55.94364 51.32528
# Shear Modulus (GPa) = 18.22521 23.33335 20.77928
#
# Velocity S-wave (km/s) = 3.10263 3.51061 3.31291
# Velocity P-wave (km/s) = 6.12414 6.78095 6.46090
#
# Compressibility (1/GPa) = 0.02141010
#
# Stress axis : x y z
#
# Youngs Moduli (GPa) = 43.05731 49.92195 95.57582
#
# Poissons Ratio (x) = 0.32536 0.69776
# Poissons Ratio (y) = 0.28062 0.22331
# Poissons Ratio (z) = 0.31434 0.11664
#
# Static dielectric constant tensor:
#      x y z
#    x 3.354770 0.000000 0.000000 
#    y 0.000000 3.143970 0.000000 
#    z 0.000000 0.000000 3.700570 
# 
# 
# High freq. dielectric constant tensor:
#      x y z
#    x 1.712520 0.000000 0.000000 
#    y 0.000000 1.689230 0.000000 
#    z 0.000000 0.000000 1.756620 
# 
# From -- ./inp_files/3864.got.cif
#   From: 2010.03.12/outbox.cif.g09.slc.cpg/sg39_2_cif.got.tgz:3864.got - 2010.04.14 02:53:20.
