data_PCOD8182996
_publ_section_title
;
Structure prediction by ZEFSAII (Michael W. Deem and Ramdas Pophale) SiO2 
 PCOD8182996
Probable space group: A M A 2
;
_chemical_formula_sum "Si O2"
_cell_formula_units_Z 64
_cell_length_a 8.677008
_cell_length_b 30.128727
_cell_length_c 14.268820
_cell_angle_alpha 90.000000
_cell_angle_beta 90.000000
_cell_angle_gamma 90.000000
_cell_volume 3730.257734
_symmetry_space_group_name_H-M "A M A 2"
_symmetry_group_IT_number 40
_symmetry_cell_setting 'orthorhombic'
loop_
_space_group_symop_operation_xyz
x,y,z
-x,-y,z
1/2-x,y,z
1/2+x,-y,z
x,1/2+y,1/2+z
-x,1/2-y,1/2+z
1/2-x,1/2+y,1/2+z
1/2+x,1/2-y,1/2+z
loop_
_atom_site_type_symbol
_atom_site_label
_atom_site_fract_x
_atom_site_fract_y
_atom_site_fract_z
Si Si1 0.922112 0.176388 0.797460
Si Si2 0.932339 0.453496 0.423556
Si Si3 0.575596 0.630519 0.491846
Si Si4 0.931987 0.787601 0.098369
Si Si5 0.567588 0.046248 0.719493
Si Si6 0.071400 0.629921 0.132288
Si Si7 0.071567 0.223469 0.311711
Si Si8 0.069268 0.302273 0.997094
O O1 0.750000 0.175476 0.752038
O O2 0.931223 0.143638 0.883790
O O3 0.960610 0.225179 0.833608
O O4 0.045130 0.162370 0.720209
O O5 0.750000 0.456503 0.417602
O O6 0.000000 0.500000 0.460328
O O7 0.982094 0.415662 0.498125
O O8 0.997361 0.442392 0.320732
O O9 0.750000 0.622843 0.525514
O O10 0.501774 0.668150 0.555380
O O11 0.750000 0.789714 0.087639
O O12 0.983511 0.787106 0.206636
O O13 0.992862 0.743006 0.046720
O O14 0.750000 0.042901 0.729588
O O15 0.523179 0.084471 0.645980
O O16 0.500000 0.000000 0.681108
O O17 0.250000 0.618266 0.123073
O O18 0.014104 0.654806 0.039623
O O19 0.250000 0.211121 0.325659
O O20 0.970479 0.196770 0.386844
O O21 0.250000 0.307072 0.012675
#
# Coordination Sequence:
#
# PCOD8182996 Si02
#       8
#     8   8   8   8   8   8   8   8
#     4  10  19  32  50  73 106 142 176 221 263 304
#     4  11  21  34  52  76 106 139 176 215 263 317
#     4  11  21  33  52  76 106 142 180 219 263 313
#     4  10  21  35  52  74 105 141 180 222 265 313
#     4  11  21  35  53  76 107 139 174 216 263 313
#     4  12  23  34  52  77 105 143 183 216 260 317
#     4  10  20  37  53  72 104 141 179 224 267 307
#     4  11  22  36  53  76 105 139 179 223 265 312
#
# _framework density 17.156991999999999
#
# number of rings (size 3 to 8) (size 9 to 14) (size 15 to 20)
#    0.000    1.250    3.750    4.875    0.000    2.000 
#    0.000    0.000    0.000    0.000    0.000    0.875 
#    0.000    6.000    0.000    0.000    0.000    0.000 
#
# Total GULP energy -396864.537726 kJ/mol
# GULP energy per Si atom -12402.016804 kJ/mol
# Density = 1.711794 g / cm^3
# Si number density = 17.156992 Si / 1000 Ang^3
#
#
#
# Elastic Constant Matrix: (Units=GPa)
#
#
# Indices 1 2 3 4 5 6 
#
# 1 94.8501 40.4061 27.9094 0.0000 0.0000 0.0000
# 2 40.4061 110.0195 28.3502 0.0000 0.0000 0.0000
# 3 27.9094 28.3502 61.7459 0.0000 0.0000 0.0000
# 4 0.0000 0.0000 0.0000 25.1177 0.0000 0.0000
# 5 0.0000 0.0000 0.0000 0.0000 25.8179 0.0000
# 6 0.0000 0.0000 0.0000 0.0000 0.0000 30.0354
#
#
#
# Elastic Compliance Matrix: (Units=1/GPa)
#
#
# Indices 1 2 3 4 5 6 
#
# 1 0.013443 -0.003824 -0.004321 0.000000 0.000000 0.000000
# 2 -0.003824 0.011397 -0.003504 0.000000 0.000000 0.000000
# 3 -0.004321 -0.003504 0.019757 0.000000 0.000000 0.000000
# 4 0.000000 0.000000 0.000000 0.039813 0.000000 0.000000
# 5 0.000000 0.000000 0.000000 0.000000 0.038733 0.000000
# 6 0.000000 0.000000 0.000000 0.000000 0.000000 0.033294
#
#
# Mechanical properties :
#
#
# Convention : Reuss Voigt Hill
#
# Bulk Modulus (GPa) = 46.94930 51.10519 49.02725
# Shear Modulus (GPa) = 26.76167 27.52418 27.14292
#
# Velocity S-wave (km/s) = 3.95373 4.00966 3.98179
# Velocity P-wave (km/s) = 6.94741 7.16156 7.05530
#
# Compressibility (1/GPa) = 0.02129957
#
# Stress axis : x y z
#
# Youngs Moduli (GPa) = 74.38664 87.74508 50.61402
#
# Poissons Ratio (x) = 0.33552 0.21869
# Poissons Ratio (y) = 0.28444 0.17737
# Poissons Ratio (z) = 0.32140 0.30748
#
# Static dielectric constant tensor:
#      x y z
#    x 3.255570 0.000000 0.000000 
#    y 0.000000 3.314340 0.000000 
#    z 0.000000 0.000000 2.972350 
# 
# 
# High freq. dielectric constant tensor:
#      x y z
#    x 1.671640 0.000000 0.000000 
#    y 0.000000 1.661450 0.000000 
#    z 0.000000 0.000000 1.629360 
# 
# From -- ./inp_files/15878.got.cif
#   From: 2010.03.12/outbox.cif.g09.slc.cpg/sg40_8_cif.got.tgz:15878.got - 2010.04.14 01:38:03.
