data_PCOD8182001
_publ_section_title
;
Structure prediction by ZEFSAII (Michael W. Deem and Ramdas Pophale) SiO2 
 PCOD8182001
Probable space group: A B M 2
;
_chemical_formula_sum "Si O2"
_cell_formula_units_Z 64
_cell_length_a 8.689880
_cell_length_b 28.651927
_cell_length_c 12.321439
_cell_angle_alpha 90.000000
_cell_angle_beta 90.000000
_cell_angle_gamma 90.000000
_cell_volume 3067.814152
_symmetry_space_group_name_H-M "A B M 2"
_symmetry_group_IT_number 39
_symmetry_cell_setting 'orthorhombic'
loop_
_space_group_symop_operation_xyz
x,y,z
-x,-y,z
-x,1/2+y,z
x,1/2-y,z
x,1/2+y,1/2+z
-x,1/2-y,1/2+z
-x,y,1/2+z
x,-y,1/2+z
loop_
_atom_site_type_symbol
_atom_site_label
_atom_site_fract_x
_atom_site_fract_y
_atom_site_fract_z
Si Si1 0.979670 0.196549 0.740600
Si Si2 0.771364 0.340682 0.922961
Si Si3 0.544649 0.124698 0.736141
Si Si4 0.626773 0.966443 0.706515
Si Si5 0.151916 0.106584 0.156699
Si Si6 0.878563 0.433171 0.036839
Si Si7 0.858735 0.972449 0.317466
Si Si8 0.690756 0.198328 0.146536
O O1 0.930103 0.250000 0.713747
O O2 0.161938 0.190437 0.725301
O O3 0.917649 0.182178 0.860039
O O4 0.907885 0.159730 0.655826
O O5 0.632506 0.352951 0.839595
O O6 0.816438 0.385475 0.990647
O O7 0.721231 0.304862 0.017159
O O8 0.447662 0.078440 0.766394
O O9 0.664133 0.109653 0.638892
O O10 0.437069 0.162808 0.683981
O O11 0.762323 0.949711 0.628821
O O12 0.500000 0.000000 0.647607
O O13 0.700514 0.000349 0.796673
O O14 0.140095 0.081196 0.275288
O O15 0.055730 0.074452 0.074983
O O16 0.883123 0.472587 0.946076
O O17 0.000000 0.000000 0.261476
O O18 0.626745 0.250000 0.167542
#
# Coordination Sequence:
#
# PCOD8182001 Si02
#       8
#     8   8   8   8   8   8   8   8
#     4  10  21  41  71  98 129 173 224 281 333 398
#     4  11  22  44  72 100 133 180 231 275 343 406
#     4  11  24  43  69 101 142 176 222 288 343 407
#     4  12  24  43  66  97 141 175 224 275 344 412
#     4  11  22  44  65  96 131 171 227 274 340 400
#     4  12  24  43  69  95 129 179 227 281 337 401
#     4  12  26  42  66  97 130 173 225 280 331 397
#     4  11  24  45  70 101 141 181 221 283 350 408
#
# _framework density 20.86176
#
# number of rings (size 3 to 8) (size 9 to 14) (size 15 to 20)
#    0.000    0.750    7.500    0.375    1.750    4.000 
#    4.500    0.000    0.000    0.000    0.000    0.000 
#    0.000    0.000    0.000    0.000    0.000    0.000 
#
# Total GULP energy -396474.522710 kJ/mol
# GULP energy per Si atom -12389.828835 kJ/mol
# Density = 2.081428 g / cm^3
# Si number density = 20.861760 Si / 1000 Ang^3
#
#
#
# Elastic Constant Matrix: (Units=GPa)
#
#
# Indices 1 2 3 4 5 6 
#
# 1 133.0566 71.0535 53.8229 0.0000 0.0000 0.0000
# 2 71.0535 136.8337 41.5625 0.0000 0.0000 0.0000
# 3 53.8229 41.5625 97.7328 0.0000 0.0000 0.0000
# 4 0.0000 0.0000 0.0000 26.9929 0.0000 0.0000
# 5 0.0000 0.0000 0.0000 0.0000 25.7369 0.0000
# 6 0.0000 0.0000 0.0000 0.0000 0.0000 41.9683
#
#
#
# Elastic Compliance Matrix: (Units=1/GPa)
#
#
# Indices 1 2 3 4 5 6 
#
# 1 0.011912 -0.004815 -0.004513 0.000000 0.000000 0.000000
# 2 -0.004815 0.010338 -0.001745 0.000000 0.000000 0.000000
# 3 -0.004513 -0.001745 0.013459 0.000000 0.000000 0.000000
# 4 0.000000 0.000000 0.000000 0.037047 0.000000 0.000000
# 5 0.000000 0.000000 0.000000 0.000000 0.038855 0.000000
# 6 0.000000 0.000000 0.000000 0.000000 0.000000 0.023828
#
#
# Mechanical properties :
#
#
# Convention : Reuss Voigt Hill
#
# Bulk Modulus (GPa) = 73.71978 77.83343 75.77661
# Shear Modulus (GPa) = 30.84411 32.35189 31.59800
#
# Velocity S-wave (km/s) = 3.84930 3.94226 3.89606
# Velocity P-wave (km/s) = 7.42766 7.62312 7.52603
#
# Compressibility (1/GPa) = 0.01356488
#
# Stress axis : x y z
#
# Youngs Moduli (GPa) = 83.94725 96.72663 74.29872
#
# Poissons Ratio (x) = 0.46574 0.33528
# Poissons Ratio (y) = 0.40420 0.12964
# Poissons Ratio (z) = 0.37882 0.16878
#
# Static dielectric constant tensor:
#      x y z
#    x 4.001600 0.000000 0.000000 
#    y 0.000000 4.127020 0.000000 
#    z 0.000000 0.000000 3.816820 
# 
# 
# High freq. dielectric constant tensor:
#      x y z
#    x 1.823840 0.000000 0.000000 
#    y 0.000000 1.842750 0.000000 
#    z 0.000000 0.000000 1.788260 
# 
# From -- ./inp_files/5402.got.cif
#   From: 2010.03.12/outbox.cif.g09.slc.cpg/sg39_3_cif.got.tgz:5402.got - 2010.04.14 02:53:20.
