data_PCOD8182820
_publ_section_title
;
Structure prediction by ZEFSAII (Michael W. Deem and Ramdas Pophale) SiO2 
 PCOD8182820
Probable space group: A M A 2
;
_chemical_formula_sum "Si O2"
_cell_formula_units_Z 52
_cell_length_a 12.882686
_cell_length_b 26.871525
_cell_length_c 7.618039
_cell_angle_alpha 90.000000
_cell_angle_beta 90.000000
_cell_angle_gamma 90.000000
_cell_volume 2637.193078
_symmetry_space_group_name_H-M "A M A 2"
_symmetry_group_IT_number 40
_symmetry_cell_setting 'orthorhombic'
loop_
_space_group_symop_operation_xyz
x,y,z
-x,-y,z
1/2-x,y,z
1/2+x,-y,z
x,1/2+y,1/2+z
-x,1/2-y,1/2+z
1/2-x,1/2+y,1/2+z
1/2+x,1/2-y,1/2+z
loop_
_atom_site_type_symbol
_atom_site_label
_atom_site_fract_x
_atom_site_fract_y
_atom_site_fract_z
Si Si1 0.363958 0.657856 0.216020
Si Si2 0.072214 0.837049 0.524498
Si Si3 0.132572 0.907052 0.821612
Si Si4 0.522994 0.644635 0.648603
Si Si5 0.367030 0.724606 0.529875
Si Si6 0.133557 0.578145 0.525124
Si Si7 0.500000 0.000000 0.880390
O O1 0.250000 0.653519 0.128139
O O2 0.449240 0.658752 0.064033
O O3 0.372791 0.709245 0.325132
O O4 0.381188 0.611737 0.349560
O O5 0.135828 0.874269 0.646606
O O6 0.116195 0.782558 0.557996
O O7 0.092898 0.851952 0.322283
O O8 0.250000 0.924770 0.862308
O O9 0.057497 0.954589 0.779207
O O10 0.092289 0.872093 0.981462
O O11 0.461068 0.696590 0.627792
O O12 0.435224 0.602437 0.678410
O O13 0.250000 0.710403 0.599086
O O14 0.250000 0.575613 0.591607
O O15 0.093062 0.522486 0.495716
#
# Coordination Sequence:
#
# PCOD8182820 Si02
#       7
#     8   8   8   8   8   8   4
#     4   9  18  35  57  82 116 155 199 242 289 351
#     4  12  21  38  60  90 123 158 201 250 299 355
#     4  11  24  42  63  91 122 158 201 252 312 359
#     4  10  22  37  62  85 122 158 202 246 293 360
#     4  10  20  37  58  85 123 166 203 243 295 353
#     4   9  17  35  60  85 114 150 192 243 297 352
#     4  10  18  38  66  90 112 160 198 250 302 368
#
# _framework density 19.717932999999999
#
# number of rings (size 3 to 8) (size 9 to 14) (size 15 to 20)
#    0.000    1.846    4.615    3.231    0.000    2.462 
#    0.000    3.846    0.000    3.692    0.000    0.000 
#    0.000    0.000    0.000    0.000    0.000    0.000 
#
# Total GULP energy -322132.545461 kJ/mol
# GULP energy per Si atom -12389.713287 kJ/mol
# Density = 1.967305 g / cm^3
# Si number density = 19.717933 Si / 1000 Ang^3
#
#
#
# Elastic Constant Matrix: (Units=GPa)
#
#
# Indices 1 2 3 4 5 6 
#
# 1 111.7513 28.0112 19.8796 0.0000 0.0000 0.0000
# 2 28.0112 118.1521 24.9122 0.0000 0.0000 0.0000
# 3 19.8796 24.9122 78.5974 0.0000 0.0000 0.0000
# 4 0.0000 0.0000 0.0000 16.8773 0.0000 0.0000
# 5 0.0000 0.0000 0.0000 0.0000 18.7919 0.0000
# 6 0.0000 0.0000 0.0000 0.0000 0.0000 29.9367
#
#
#
# Elastic Compliance Matrix: (Units=1/GPa)
#
#
# Indices 1 2 3 4 5 6 
#
# 1 0.009761 -0.001922 -0.001860 0.000000 0.000000 0.000000
# 2 -0.001922 0.009448 -0.002509 0.000000 0.000000 0.000000
# 3 -0.001860 -0.002509 0.013989 0.000000 0.000000 0.000000
# 4 0.000000 0.000000 0.000000 0.059251 0.000000 0.000000
# 5 0.000000 0.000000 0.000000 0.000000 0.053214 0.000000
# 6 0.000000 0.000000 0.000000 0.000000 0.000000 0.033404
#
#
# Mechanical properties :
#
#
# Convention : Reuss Voigt Hill
#
# Bulk Modulus (GPa) = 48.50285 50.45630 49.47957
# Shear Modulus (GPa) = 25.18638 28.83437 27.01037
#
# Velocity S-wave (km/s) = 3.57786 3.82821 3.70515
# Velocity P-wave (km/s) = 6.45909 6.72197 6.59184
#
# Compressibility (1/GPa) = 0.02061734
#
# Stress axis : x y z
#
# Youngs Moduli (GPa) = 102.44824 105.83951 71.48706
#
# Poissons Ratio (x) = 0.20343 0.13294
# Poissons Ratio (y) = 0.19691 0.17933
# Poissons Ratio (z) = 0.19052 0.26551
#
# Static dielectric constant tensor:
#      x y z
#    x 3.891610 0.000000 0.000000 
#    y 0.000000 3.612430 0.000000 
#    z 0.000000 0.000000 3.152480 
# 
# 
# High freq. dielectric constant tensor:
#      x y z
#    x 1.788300 0.000000 0.000000 
#    y 0.000000 1.770190 0.000000 
#    z 0.000000 0.000000 1.720590 
# 
# From -- ./inp_files/6812.got.cif
#   From: 2010.03.12/outbox.cif.g09.slc.cpg/sg40_4_cif.got.tgz:6812.got - 2010.04.14 01:38:03.
