data_PCOD8182051
_publ_section_title
;
Structure prediction by ZEFSAII (Michael W. Deem and Ramdas Pophale) SiO2 
 PCOD8182051
Probable space group: A B M 2
;
_chemical_formula_sum "Si O2"
_cell_formula_units_Z 40
_cell_length_a 29.636491
_cell_length_b 12.799354
_cell_length_c 4.981419
_cell_angle_alpha 90.000000
_cell_angle_beta 90.000000
_cell_angle_gamma 90.000000
_cell_volume 1889.591406
_symmetry_space_group_name_H-M "A B M 2"
_symmetry_group_IT_number 39
_symmetry_cell_setting 'orthorhombic'
loop_
_space_group_symop_operation_xyz
x,y,z
-x,-y,z
-x,1/2+y,z
x,1/2-y,z
x,1/2+y,1/2+z
-x,1/2-y,1/2+z
-x,y,1/2+z
x,-y,1/2+z
loop_
_atom_site_type_symbol
_atom_site_label
_atom_site_fract_x
_atom_site_fract_y
_atom_site_fract_z
Si Si1 0.969916 0.750000 0.727890
Si Si2 0.529951 0.750000 0.189573
Si Si3 0.098453 0.567892 0.245035
Si Si4 0.266168 0.750000 0.278771
Si Si5 0.198051 0.567923 0.164112
Si Si6 0.601997 0.573136 0.201025
Si Si7 0.673933 0.250000 0.778822
O O1 0.939810 0.850548 0.671463
O O2 0.012592 0.750000 0.531686
O O3 0.486923 0.750000 0.383908
O O4 0.558316 0.645306 0.242227
O O5 0.092724 0.531962 0.551774
O O6 0.148285 0.617960 0.205976
O O7 0.236676 0.648717 0.229436
O O8 0.283070 0.750000 0.583785
O O9 0.309489 0.750000 0.085080
O O10 0.203544 0.467633 0.356928
O O11 0.601868 0.477702 0.407877
O O12 0.646001 0.644662 0.229255
#
# Coordination Sequence:
#
# PCOD8182051 Si02
#       7
#     4   4   8   4   8   8   4
#     4  12  25  38  59  88 114 150 195 234 285 350
#     4  11  24  41  64  98 126 150 204 259 298 355
#     4  10  22  41  61  83 117 153 188 238 293 346
#     4  12  23  39  62  89 122 153 196 253 295 336
#     4  10  22  39  61  88 115 151 195 239 295 353
#     4  11  24  43  64  87 124 168 202 241 299 356
#     4  11  26  40  59  91 122 161 203 244 290 349
#
# _framework density 21.168596999999998
#
# number of rings (size 3 to 8) (size 9 to 14) (size 15 to 20)
#    0.000    1.200    0.000    5.400    0.000   12.800 
#    0.000    8.000    0.000    0.000    0.000    0.000 
#    0.000    0.000    0.000    0.000    0.000    0.000 
#
# Total GULP energy -248138.160750 kJ/mol
# GULP energy per Si atom -12406.908038 kJ/mol
# Density = 2.112042 g / cm^3
# Si number density = 21.168597 Si / 1000 Ang^3
#
#
#
# Elastic Constant Matrix: (Units=GPa)
#
#
# Indices 1 2 3 4 5 6 
#
# 1 107.4244 49.0536 12.5603 0.0000 0.0000 0.0000
# 2 49.0536 86.8364 6.6719 0.0000 0.0000 0.0000
# 3 12.5603 6.6719 80.3146 0.0000 0.0000 0.0000
# 4 0.0000 0.0000 0.0000 24.3372 0.0000 0.0000
# 5 0.0000 0.0000 0.0000 0.0000 40.9122 0.0000
# 6 0.0000 0.0000 0.0000 0.0000 0.0000 28.7662
#
#
#
# Elastic Compliance Matrix: (Units=1/GPa)
#
#
# Indices 1 2 3 4 5 6 
#
# 1 0.012699 -0.007066 -0.001399 0.000000 0.000000 0.000000
# 2 -0.007066 0.015522 -0.000184 0.000000 0.000000 0.000000
# 3 -0.001399 -0.000184 0.012685 0.000000 0.000000 0.000000
# 4 0.000000 0.000000 0.000000 0.041089 0.000000 0.000000
# 5 0.000000 0.000000 0.000000 0.000000 0.024443 0.000000
# 6 0.000000 0.000000 0.000000 0.000000 0.000000 0.034763
#
#
# Mechanical properties :
#
#
# Convention : Reuss Voigt Hill
#
# Bulk Modulus (GPa) = 42.36047 45.68298 44.02173
# Shear Modulus (GPa) = 30.05370 32.55577 31.30473
#
# Velocity S-wave (km/s) = 3.77202 3.92590 3.84973
# Velocity P-wave (km/s) = 6.24702 6.49443 6.37193
#
# Compressibility (1/GPa) = 0.02360691
#
# Stress axis : x y z
#
# Youngs Moduli (GPa) = 78.74572 64.42580 78.83242
#
# Poissons Ratio (x) = 0.45524 0.11029
# Poissons Ratio (y) = 0.55643 0.01453
# Poissons Ratio (z) = 0.11016 0.01188
#
# Static dielectric constant tensor:
#      x y z
#    x 3.901350 0.000000 0.000000 
#    y 0.000000 3.645380 0.000000 
#    z 0.000000 0.000000 3.867110 
# 
# 
# High freq. dielectric constant tensor:
#      x y z
#    x 1.841550 0.000000 0.000000 
#    y 0.000000 1.826260 0.000000 
#    z 0.000000 0.000000 1.845410 
# 
# From -- ./inp_files/1353.got.cif
#   From: 2010.03.12/outbox.cif.g09.slc.cpg/sg39_1_cif.got.tgz:1353.got - 2010.04.14 02:53:20.
