data_PCOD8182498
_publ_section_title
;
Structure prediction by ZEFSAII (Michael W. Deem and Ramdas Pophale) SiO2 
 PCOD8182498
Probable space group: A M A 2
;
_chemical_formula_sum "Si O2"
_cell_formula_units_Z 56
_cell_length_a 8.910880
_cell_length_b 13.479064
_cell_length_c 29.195187
_cell_angle_alpha 90.000000
_cell_angle_beta 90.000000
_cell_angle_gamma 90.000000
_cell_volume 3506.643306
_symmetry_space_group_name_H-M "A M A 2"
_symmetry_group_IT_number 40
_symmetry_cell_setting 'orthorhombic'
loop_
_space_group_symop_operation_xyz
x,y,z
-x,-y,z
1/2-x,y,z
1/2+x,-y,z
x,1/2+y,1/2+z
-x,1/2-y,1/2+z
1/2-x,1/2+y,1/2+z
1/2+x,1/2-y,1/2+z
loop_
_atom_site_type_symbol
_atom_site_label
_atom_site_fract_x
_atom_site_fract_y
_atom_site_fract_z
Si Si1 0.924177 0.893929 0.917440
Si Si2 0.575231 0.900283 0.651881
Si Si3 0.573436 0.199700 0.102721
Si Si4 0.074682 0.107305 0.018717
Si Si5 0.073861 0.100011 0.186910
Si Si6 0.926332 0.107360 0.829359
Si Si7 0.576320 0.698789 0.234196
O O1 0.750000 0.904570 0.905721
O O2 0.005626 0.838210 0.874921
O O3 0.948109 0.845871 0.967668
O O4 0.000000 0.000000 0.919575
O O5 0.750000 0.918681 0.655334
O O6 0.534581 0.811861 0.617146
O O7 0.517115 0.875691 0.702618
O O8 0.500000 0.000000 0.632722
O O9 0.750000 0.179561 0.102294
O O10 0.504097 0.184221 0.052695
O O11 0.497751 0.122927 0.137603
O O12 0.250000 0.096133 0.030233
O O13 0.000000 0.000000 0.023742
O O14 0.250000 0.084965 0.180523
O O15 0.035755 0.187310 0.222807
O O16 0.000000 0.000000 0.206701
O O17 0.750000 0.093372 0.835399
O O18 0.965446 0.178372 0.786781
O O19 0.000000 0.000000 0.821436
O O20 0.750000 0.677379 0.224026
#
# Coordination Sequence:
#
# PCOD8182498 Si02
#       7
#     8   8   8   8   8   8   8
#     4   9  17  28  42  62  87 115 145 176 214 258
#     4  10  20  32  47  66  89 117 148 182 218 257
#     4  10  20  32  46  66  89 116 150 181 215 260
#     4  10  19  30  45  65  90 119 148 180 218 260
#     4  10  19  32  47  64  89 118 148 183 220 257
#     4  10  18  28  43  64  89 117 146 177 215 257
#     4   9  19  32  46  65  89 118 150 181 216 259
#
# _framework density 15.969688
#
# number of rings (size 3 to 8) (size 9 to 14) (size 15 to 20)
#    0.000    2.286    0.000    4.286    0.000    6.286 
#    0.000    0.000    0.000    0.000    0.000    1.000 
#    0.000    2.286    0.000    0.000    0.000    0.000 
#
# Total GULP energy -347140.726146 kJ/mol
# GULP energy per Si atom -12397.883077 kJ/mol
# Density = 1.593334 g / cm^3
# Si number density = 15.969688 Si / 1000 Ang^3
#
#
#
# Elastic Constant Matrix: (Units=GPa)
#
#
# Indices 1 2 3 4 5 6 
#
# 1 96.3970 42.7464 57.0224 0.0000 0.0000 0.0000
# 2 42.7464 80.6145 47.0227 0.0000 0.0000 0.0000
# 3 57.0224 47.0227 131.9439 0.0000 0.0000 0.0000
# 4 0.0000 0.0000 0.0000 20.3387 0.0000 0.0000
# 5 0.0000 0.0000 0.0000 0.0000 27.8219 0.0000
# 6 0.0000 0.0000 0.0000 0.0000 0.0000 24.3342
#
#
#
# Elastic Compliance Matrix: (Units=1/GPa)
#
#
# Indices 1 2 3 4 5 6 
#
# 1 0.015655 -0.005497 -0.004806 0.000000 0.000000 0.000000
# 2 -0.005497 0.017591 -0.003893 0.000000 0.000000 0.000000
# 3 -0.004806 -0.003893 0.011044 0.000000 0.000000 0.000000
# 4 0.000000 0.000000 0.000000 0.049167 0.000000 0.000000
# 5 0.000000 0.000000 0.000000 0.000000 0.035943 0.000000
# 6 0.000000 0.000000 0.000000 0.000000 0.000000 0.041094
#
#
# Mechanical properties :
#
#
# Convention : Reuss Voigt Hill
#
# Bulk Modulus (GPa) = 62.91266 66.94871 64.93068
# Shear Modulus (GPa) = 24.48749 25.30988 24.89868
#
# Velocity S-wave (km/s) = 3.92008 3.98536 3.95285
# Velocity P-wave (km/s) = 7.74403 7.94927 7.84732
#
# Compressibility (1/GPa) = 0.01589505
#
# Stress axis : x y z
#
# Youngs Moduli (GPa) = 63.87871 56.84819 90.55017
#
# Poissons Ratio (x) = 0.31252 0.43521
# Poissons Ratio (y) = 0.35117 0.35253
# Poissons Ratio (z) = 0.30702 0.22132
#
# Static dielectric constant tensor:
#      x y z
#    x 3.190060 0.000000 0.000000 
#    y 0.000000 2.840250 0.000000 
#    z 0.000000 0.000000 3.459100 
# 
# 
# High freq. dielectric constant tensor:
#      x y z
#    x 1.634470 0.000000 0.000000 
#    y 0.000000 1.577810 0.000000 
#    z 0.000000 0.000000 1.613700 
# 
# From -- ./inp_files/26407.got.cif
#   From: 2010.03.12/outbox.cif.g09.slc.cpg/sg40_14_cif.got.tgz:26407.got - 2010.04.14 01:38:03.
