data_PCOD8182748
_publ_section_title
;
Structure prediction by ZEFSAII (Michael W. Deem and Ramdas Pophale) SiO2 
 PCOD8182748
Probable space group: A M A 2
;
_chemical_formula_sum "Si O2"
_cell_formula_units_Z 64
_cell_length_a 15.132953
_cell_length_b 9.835360
_cell_length_c 21.237932
_cell_angle_alpha 90.000000
_cell_angle_beta 90.000000
_cell_angle_gamma 90.000000
_cell_volume 3161.012186
_symmetry_space_group_name_H-M "A M A 2"
_symmetry_group_IT_number 40
_symmetry_cell_setting 'orthorhombic'
loop_
_space_group_symop_operation_xyz
x,y,z
-x,-y,z
1/2-x,y,z
1/2+x,-y,z
x,1/2+y,1/2+z
-x,1/2-y,1/2+z
1/2-x,1/2+y,1/2+z
1/2+x,1/2-y,1/2+z
loop_
_atom_site_type_symbol
_atom_site_label
_atom_site_fract_x
_atom_site_fract_y
_atom_site_fract_z
Si Si1 0.403726 0.977313 0.180370
Si Si2 0.649825 0.695720 0.405530
Si Si3 0.646235 0.814272 0.722557
Si Si4 0.152523 0.689454 0.582563
Si Si5 0.978850 0.344695 0.471325
Si Si6 0.148616 0.612117 0.363480
Si Si7 0.351263 0.401115 0.187278
Si Si8 0.352386 0.177940 0.277703
O O1 0.390654 0.816649 0.186510
O O2 0.500000 0.000000 0.153096
O O3 0.344926 0.057229 0.128746
O O4 0.393936 0.039123 0.250847
O O5 0.750000 0.706181 0.433608
O O6 0.575963 0.723913 0.459599
O O7 0.636648 0.550508 0.371102
O O8 0.634320 0.810614 0.352408
O O9 0.750000 0.799540 0.717807
O O10 0.618288 0.833642 0.795392
O O11 0.607510 0.947078 0.685921
O O12 0.250000 0.687646 0.549645
O O13 0.072343 0.700034 0.533682
O O14 0.140550 0.829332 0.620302
O O15 0.915249 0.312411 0.412541
O O16 0.000000 0.500000 0.479816
O O17 0.250000 0.652284 0.377163
O O18 0.250000 0.422924 0.208310
O O19 0.396696 0.305842 0.240680
O O20 0.250000 0.173307 0.259437
#
# Coordination Sequence:
#
# PCOD8182748 Si02
#       8
#     8   8   8   8   8   8   8   8
#     4  11  23  34  51  85 125 157 194 235 293 354
#     4   9  17  31  53  84 118 152 195 244 297 351
#     4  10  18  33  56  88 120 147 188 241 298 353
#     4  10  20  38  58  82 116 157 198 243 295 354
#     4  10  20  32  53  84 119 150 202 244 288 345
#     4   9  17  30  52  85 118 149 187 243 296 342
#     4   8  15  30  57  85 111 146 190 234 286 348
#     4   9  16  32  53  78 115 154 185 228 295 363
#
# _framework density 20.246679
#
# number of rings (size 3 to 8) (size 9 to 14) (size 15 to 20)
#    0.000    2.500    1.250    2.625    1.750    0.500 
#    0.000    2.500    0.000    0.000   19.500    0.000 
#    0.000    3.000    0.000    0.000    0.000    0.000 
#
# Total GULP energy -396452.381119 kJ/mol
# GULP energy per Si atom -12389.136910 kJ/mol
# Density = 2.020060 g / cm^3
# Si number density = 20.246679 Si / 1000 Ang^3
#
#
#
# Elastic Constant Matrix: (Units=GPa)
#
#
# Indices 1 2 3 4 5 6 
#
# 1 100.8603 25.1536 54.7057 0.0000 0.0000 0.0000
# 2 25.1536 109.9170 34.5957 0.0000 0.0000 0.0000
# 3 54.7057 34.5957 84.5167 0.0000 0.0000 0.0000
# 4 0.0000 0.0000 0.0000 14.3058 0.0000 0.0000
# 5 0.0000 0.0000 0.0000 0.0000 269.0778 0.0000
# 6 0.0000 0.0000 0.0000 0.0000 0.0000 19.8923
#
#
#
# Elastic Compliance Matrix: (Units=1/GPa)
#
#
# Indices 1 2 3 4 5 6 
#
# 1 0.015297 -0.000441 -0.009721 0.000000 0.000000 0.000000
# 2 -0.000441 0.010456 -0.003995 0.000000 0.000000 0.000000
# 3 -0.009721 -0.003995 0.019759 0.000000 0.000000 0.000000
# 4 0.000000 0.000000 0.000000 0.069902 0.000000 0.000000
# 5 0.000000 0.000000 0.000000 0.000000 0.003716 0.000000
# 6 0.000000 0.000000 0.000000 0.000000 0.000000 0.050271
#
#
# Mechanical properties :
#
#
# Convention : Reuss Voigt Hill
#
# Bulk Modulus (GPa) = 58.14180 58.24488 58.19334
# Shear Modulus (GPa) = 24.57634 72.71113 48.64373
#
# Velocity S-wave (km/s) = 3.48781 5.99922 4.90690
# Velocity P-wave (km/s) = 6.70811 8.76456 7.80437
#
# Compressibility (1/GPa) = 0.01719933
#
# Stress axis : x y z
#
# Youngs Moduli (GPa) = 65.37104 95.63932 50.60906
#
# Poissons Ratio (x) = 0.04218 0.49197
# Poissons Ratio (y) = 0.02883 0.20216
# Poissons Ratio (z) = 0.63548 0.38204
#
# Static dielectric constant tensor:
#      x y z
#    x 3.910610 0.000000 0.000000 
#    y 0.000000 3.632430 0.000000 
#    z 0.000000 0.000000 3.464840 
# 
# 
# High freq. dielectric constant tensor:
#      x y z
#    x 1.795410 0.000000 0.000000 
#    y 0.000000 1.762910 0.000000 
#    z 0.000000 0.000000 1.765590 
# 
# From -- ./inp_files/24824.got.cif
#   From: 2010.03.12/outbox.cif.g09.slc.cpg/sg40_13_cif.got.tgz:24824.got - 2010.04.14 01:38:03.
