data_PCOD8182254
_publ_section_title
;
Structure prediction by ZEFSAII (Michael W. Deem and Ramdas Pophale) SiO2 
 PCOD8182254
Probable space group: A B M 2
;
_chemical_formula_sum "Si O2"
_cell_formula_units_Z 64
_cell_length_a 8.917958
_cell_length_b 32.970354
_cell_length_c 9.363204
_cell_angle_alpha 90.000000
_cell_angle_beta 90.000000
_cell_angle_gamma 90.000000
_cell_volume 2753.046320
_symmetry_space_group_name_H-M "A B M 2"
_symmetry_group_IT_number 39
_symmetry_cell_setting 'orthorhombic'
loop_
_space_group_symop_operation_xyz
x,y,z
-x,-y,z
-x,1/2+y,z
x,1/2-y,z
x,1/2+y,1/2+z
-x,1/2-y,1/2+z
-x,y,1/2+z
x,-y,1/2+z
loop_
_atom_site_type_symbol
_atom_site_label
_atom_site_fract_x
_atom_site_fract_y
_atom_site_fract_z
Si Si1 0.529199 0.453347 0.963370
Si Si2 0.469654 0.203041 0.463295
Si Si3 0.678201 0.671547 0.732900
Si Si4 0.970801 0.546653 0.599435
Si Si5 0.179300 0.422078 0.329903
Si Si6 0.821798 0.328453 0.829912
Si Si7 0.030346 0.296959 0.599518
Si Si8 0.679300 0.922078 0.732903
O O1 0.500000 0.500000 0.997131
O O2 0.674773 0.449032 0.862265
O O3 0.384716 0.434140 0.886860
O O4 0.553316 0.429957 0.112076
O O5 0.497556 0.250000 0.495297
O O6 0.447975 0.179550 0.612292
O O7 0.614475 0.184130 0.386508
O O8 0.323671 0.198351 0.363322
O O9 0.823671 0.698351 0.699490
O O10 0.726409 0.624762 0.731333
O O11 0.946684 0.570043 0.450729
O O12 0.825227 0.550968 0.700540
O O13 0.000000 0.500000 0.565674
O O14 0.115285 0.565860 0.675945
O O15 0.226410 0.375238 0.331477
O O16 0.885525 0.315870 0.676304
O O17 0.947975 0.320450 0.950520
O O18 0.002445 0.250000 0.567516
#
# Coordination Sequence:
#
# PCOD8182254 Si02
#       8
#     8   8   8   8   8   8   8   8
#     4  11  23  40  62  89 120 156 199 248 298 355
#     4  11  22  39  60  87 119 157 200 249 299 353
#     4  11  22  40  62  87 120 159 199 247 299 356
#     4  11  23  40  62  89 120 156 199 248 298 355
#     4  11  23  41  61  89 121 158 200 246 299 358
#     4  11  22  40  62  87 120 159 199 247 299 356
#     4  11  22  39  60  87 119 157 200 249 299 353
#     4  11  23  41  61  89 121 158 200 246 299 358
#
# _framework density 23.246976
#
# number of rings (size 3 to 8) (size 9 to 14) (size 15 to 20)
#    0.000    1.000    0.000   10.500    0.000    4.000 
#    0.000    7.500    0.000    0.000    0.000    0.000 
#    0.000    0.000    0.000    0.000    0.000    0.000 
#
# Total GULP energy -397042.522423 kJ/mol
# GULP energy per Si atom -12407.578826 kJ/mol
# Density = 2.319406 g / cm^3
# Si number density = 23.246976 Si / 1000 Ang^3
#
#
#
# Elastic Constant Matrix: (Units=GPa)
#
#
# Indices 1 2 3 4 5 6 
#
# 1 21.7554 3.2516 -6.7919 0.0000 0.0000 0.0000
# 2 3.2516 122.4134 -2.8991 0.0000 0.0000 0.0000
# 3 -6.7919 -2.8991 25.2213 0.0000 0.0000 0.0000
# 4 0.0000 0.0000 0.0000 24.7650 0.0000 0.0000
# 5 0.0000 0.0000 0.0000 0.0000 50.5157 0.0000
# 6 0.0000 0.0000 0.0000 0.0000 0.0000 29.7706
#
#
#
# Elastic Compliance Matrix: (Units=1/GPa)
#
#
# Indices 1 2 3 4 5 6 
#
# 1 0.050311 -0.001018 0.013431 0.000000 0.000000 0.000000
# 2 -0.001018 0.008212 0.000670 0.000000 0.000000 0.000000
# 3 0.013431 0.000670 0.043343 0.000000 0.000000 0.000000
# 4 0.000000 0.000000 0.000000 0.040380 0.000000 0.000000
# 5 0.000000 0.000000 0.000000 0.000000 0.019796 0.000000
# 6 0.000000 0.000000 0.000000 0.000000 0.000000 0.033590
#
#
# Mechanical properties :
#
#
# Convention : Reuss Voigt Hill
#
# Bulk Modulus (GPa) = 7.81057 17.39014 12.60035
# Shear Modulus (GPa) = 23.56897 32.73222 28.15060
#
# Velocity S-wave (km/s) = 3.18756 3.75643 3.48363
# Velocity P-wave (km/s) = 4.11272 5.12945 4.64896
#
# Compressibility (1/GPa) = 0.12803157
#
# Stress axis : x y z
#
# Youngs Moduli (GPa) = 19.87635 121.77376 23.07175
#
# Poissons Ratio (x) = 0.12400 -0.30988
# Poissons Ratio (y) = 0.02024 -0.01545
# Poissons Ratio (z) = -0.26697 -0.08155
#
# Static dielectric constant tensor:
#      x y z
#    x 4.074310 0.000000 0.000000 
#    y 0.000000 4.099790 0.000000 
#    z 0.000000 0.000000 4.238630 
# 
# 
# High freq. dielectric constant tensor:
#      x y z
#    x 1.913880 0.000000 0.000000 
#    y 0.000000 1.926210 0.000000 
#    z 0.000000 0.000000 1.921180 
# 
# From -- ./inp_files/5417.got.cif
#   From: 2010.03.12/outbox.cif.g09.slc.cpg/sg39_3_cif.got.tgz:5417.got - 2010.04.14 02:53:20.
