data_PCOD8182171
_publ_section_title
;
Structure prediction by ZEFSAII (Michael W. Deem and Ramdas Pophale) SiO2 
 PCOD8182171
Probable space group: A B M 2
;
_chemical_formula_sum "Si O2"
_cell_formula_units_Z 32
_cell_length_a 17.012439
_cell_length_b 7.949446
_cell_length_c 10.245003
_cell_angle_alpha 90.000000
_cell_angle_beta 90.000000
_cell_angle_gamma 90.000000
_cell_volume 1385.528726
_symmetry_space_group_name_H-M "A B M 2"
_symmetry_group_IT_number 39
_symmetry_cell_setting 'orthorhombic'
loop_
_space_group_symop_operation_xyz
x,y,z
-x,-y,z
-x,1/2+y,z
x,1/2-y,z
x,1/2+y,1/2+z
-x,1/2-y,1/2+z
-x,y,1/2+z
x,-y,1/2+z
loop_
_atom_site_type_symbol
_atom_site_label
_atom_site_fract_x
_atom_site_fract_y
_atom_site_fract_z
Si Si1 0.584675 0.750000 0.479131
Si Si2 0.464116 0.750000 0.703812
Si Si3 0.176024 0.444169 0.184890
Si Si4 0.662148 0.061966 0.571388
Si Si5 0.088123 0.948679 0.934457
O O1 0.543178 0.750000 0.619952
O O2 0.521096 0.750000 0.360613
O O3 0.638313 0.581547 0.466477
O O4 0.411708 0.915683 0.670274
O O5 0.185606 0.250000 0.213092
O O6 0.262000 0.513729 0.146452
O O7 0.143595 0.525054 0.319315
O O8 0.113317 0.472350 0.070937
O O9 0.679780 0.250000 0.508858
O O10 0.095528 0.750000 0.943815
O O11 0.000000 0.000000 0.900884
#
# Coordination Sequence:
#
# PCOD8182171 Si02
#       5
#     4   4   8   8   8
#     4  12  24  48  72  98 141 185 220 284 345 399
#     4  10  26  46  68 102 141 173 234 278 333 413
#     4  10  23  43  65  97 135 170 223 276 326 396
#     4   9  24  44  66 104 134 179 227 282 329 403
#     4  11  24  41  66  95 134 173 219 274 332 397
#
# _framework density 23.095877999999999
#
# number of rings (size 3 to 8) (size 9 to 14) (size 15 to 20)
#    0.750    1.000    0.000    2.250    5.250    8.000 
#    2.250    0.000    0.000    0.000    0.000    0.000 
#    0.000    0.000    0.000    0.000    0.000    0.000 
#
# Total GULP energy -198262.109307 kJ/mol
# GULP energy per Si atom -12391.381832 kJ/mol
# Density = 2.304331 g / cm^3
# Si number density = 23.095878 Si / 1000 Ang^3
#
#
#
# Elastic Constant Matrix: (Units=GPa)
#
#
# Indices 1 2 3 4 5 6 
#
# 1 65.3385 3.9889 -16.0551 0.0000 0.0000 0.0000
# 2 3.9889 70.0137 10.8046 0.0000 0.0000 0.0000
# 3 -16.0551 10.8046 85.7493 0.0000 0.0000 0.0000
# 4 0.0000 0.0000 0.0000 19.3181 0.0000 0.0000
# 5 0.0000 0.0000 0.0000 0.0000 37.5085 0.0000
# 6 0.0000 0.0000 0.0000 0.0000 0.0000 11.9824
#
#
#
# Elastic Compliance Matrix: (Units=1/GPa)
#
#
# Indices 1 2 3 4 5 6 
#
# 1 0.016180 -0.001417 0.003208 0.000000 0.000000 0.000000
# 2 -0.001417 0.014690 -0.002116 0.000000 0.000000 0.000000
# 3 0.003208 -0.002116 0.012529 0.000000 0.000000 0.000000
# 4 0.000000 0.000000 0.000000 0.051765 0.000000 0.000000
# 5 0.000000 0.000000 0.000000 0.000000 0.026661 0.000000
# 6 0.000000 0.000000 0.000000 0.000000 0.000000 0.083455
#
#
# Mechanical properties :
#
#
# Convention : Reuss Voigt Hill
#
# Bulk Modulus (GPa) = 23.39259 24.28649 23.83954
# Shear Modulus (GPa) = 22.70866 28.58600 25.64733
#
# Velocity S-wave (km/s) = 3.13906 3.52193 3.33599
# Velocity P-wave (km/s) = 4.82584 5.20355 5.01825
#
# Compressibility (1/GPa) = 0.04274858
#
# Stress axis : x y z
#
# Youngs Moduli (GPa) = 61.80596 68.07242 79.81365
#
# Poissons Ratio (x) = 0.09645 -0.25603
# Poissons Ratio (y) = 0.08757 0.16891
# Poissons Ratio (z) = -0.19827 0.14406
#
# Static dielectric constant tensor:
#      x y z
#    x 4.227810 0.000000 0.000000 
#    y 0.000000 4.109890 0.000000 
#    z 0.000000 0.000000 3.991730 
# 
# 
# High freq. dielectric constant tensor:
#      x y z
#    x 1.917400 0.000000 0.000000 
#    y 0.000000 1.908390 0.000000 
#    z 0.000000 0.000000 1.892400 
# 
# From -- ./inp_files/6196.got.cif
#   From: 2010.03.12/outbox.cif.g09.slc.cpg/sg39_4_cif.got.tgz:6196.got - 2010.04.14 02:53:20.
