data_PCOD8182170
_publ_section_title
;
Structure prediction by ZEFSAII (Michael W. Deem and Ramdas Pophale) SiO2 
 PCOD8182170
Probable space group: A B M 2
;
_chemical_formula_sum "Si O2"
_cell_formula_units_Z 32
_cell_length_a 17.008188
_cell_length_b 8.129271
_cell_length_c 10.221614
_cell_angle_alpha 90.000000
_cell_angle_beta 90.000000
_cell_angle_gamma 90.000000
_cell_volume 1413.282970
_symmetry_space_group_name_H-M "A B M 2"
_symmetry_group_IT_number 39
_symmetry_cell_setting 'orthorhombic'
loop_
_space_group_symop_operation_xyz
x,y,z
-x,-y,z
-x,1/2+y,z
x,1/2-y,z
x,1/2+y,1/2+z
-x,1/2-y,1/2+z
-x,y,1/2+z
x,-y,1/2+z
loop_
_atom_site_type_symbol
_atom_site_label
_atom_site_fract_x
_atom_site_fract_y
_atom_site_fract_z
Si Si1 0.159746 0.431844 0.992700
Si Si2 0.913029 0.250000 0.076811
Si Si3 0.035003 0.250000 0.854534
Si Si4 0.414049 0.439074 0.140325
Si Si5 0.671237 0.441856 0.387973
O O1 0.171661 0.250000 0.063449
O O2 0.086204 0.412189 0.892506
O O3 0.237298 0.477928 0.911980
O O4 0.140290 0.584465 0.089387
O O5 0.976459 0.250000 0.196321
O O6 0.954298 0.250000 0.935151
O O7 0.500000 0.500000 0.179123
O O8 0.420277 0.250000 0.110430
O O9 0.352938 0.467555 0.256254
O O10 0.379708 0.519375 0.007477
O O11 0.654448 0.250000 0.369330
#
# Coordination Sequence:
#
# PCOD8182170 Si02
#       5
#     8   4   4   8   8
#     4   9  24  44  66 104 134 178 228 281 329 404
#     4  12  24  48  70 100 137 187 220 282 347 399
#     4  10  26  46  68 104 137 179 230 276 341 405
#     4  11  24  41  65  97 130 176 217 270 336 394
#     4  10  23  43  65  97 135 170 222 277 325 396
#
# _framework density 22.642315
#
# number of rings (size 3 to 8) (size 9 to 14) (size 15 to 20)
#    0.750    1.000    0.000    2.250    5.250    8.000 
#    2.250    0.000    0.000    0.000    0.000    0.000 
#    0.000    0.000    0.000    0.000    0.000    0.000 
#
# Total GULP energy -198274.863232 kJ/mol
# GULP energy per Si atom -12392.178952 kJ/mol
# Density = 2.259078 g / cm^3
# Si number density = 22.642315 Si / 1000 Ang^3
#
#
#
# Elastic Constant Matrix: (Units=GPa)
#
#
# Indices 1 2 3 4 5 6 
#
# 1 75.3023 13.7058 -7.5227 0.0000 0.0000 0.0000
# 2 13.7058 92.2149 20.5720 0.0000 0.0000 0.0000
# 3 -7.5227 20.5720 89.9487 0.0000 0.0000 0.0000
# 4 0.0000 0.0000 0.0000 20.2645 0.0000 0.0000
# 5 0.0000 0.0000 0.0000 0.0000 44.9297 0.0000
# 6 0.0000 0.0000 0.0000 0.0000 0.0000 16.6471
#
#
#
# Elastic Compliance Matrix: (Units=1/GPa)
#
#
# Indices 1 2 3 4 5 6 
#
# 1 0.013898 -0.002450 0.001723 0.000000 0.000000 0.000000
# 2 -0.002450 0.011859 -0.002917 0.000000 0.000000 0.000000
# 3 0.001723 -0.002917 0.011929 0.000000 0.000000 0.000000
# 4 0.000000 0.000000 0.000000 0.049347 0.000000 0.000000
# 5 0.000000 0.000000 0.000000 0.000000 0.022257 0.000000
# 6 0.000000 0.000000 0.000000 0.000000 0.000000 0.060071
#
#
# Mechanical properties :
#
#
# Convention : Reuss Voigt Hill
#
# Bulk Modulus (GPa) = 32.89823 34.55287 33.72555
# Shear Modulus (GPa) = 26.76922 31.74899 29.25911
#
# Velocity S-wave (km/s) = 3.44214 3.74865 3.59866
# Velocity P-wave (km/s) = 5.50989 5.83352 5.67401
#
# Compressibility (1/GPa) = 0.03039677
#
# Stress axis : x y z
#
# Youngs Moduli (GPa) = 71.95377 84.32315 83.83142
#
# Poissons Ratio (x) = 0.20658 -0.14441
# Poissons Ratio (y) = 0.17628 0.24455
# Poissons Ratio (z) = -0.12395 0.24599
#
# Static dielectric constant tensor:
#      x y z
#    x 0.660820 0.000000 0.000000 
#    y 0.000000 4.064080 0.000000 
#    z 0.000000 0.000000 3.773390 
# 
# 
# High freq. dielectric constant tensor:
#      x y z
#    x 1.896670 0.000000 0.000000 
#    y 0.000000 1.892070 0.000000 
#    z 0.000000 0.000000 1.872020 
# 
# From -- ./inp_files/6197.got.cif
#   From: 2010.03.12/outbox.cif.g09.slc.cpg/sg39_4_cif.got.tgz:6197.got - 2010.04.14 02:53:20.
