data_PCOD8182730
_publ_section_title
;
Structure prediction by ZEFSAII (Michael W. Deem and Ramdas Pophale) SiO2 
 PCOD8182730
Probable space group: A M A 2
;
_chemical_formula_sum "Si O2"
_cell_formula_units_Z 64
_cell_length_a 29.551031
_cell_length_b 12.500647
_cell_length_c 8.566400
_cell_angle_alpha 90.000000
_cell_angle_beta 90.000000
_cell_angle_gamma 90.000000
_cell_volume 3164.488185
_symmetry_space_group_name_H-M "A M A 2"
_symmetry_group_IT_number 40
_symmetry_cell_setting 'orthorhombic'
loop_
_space_group_symop_operation_xyz
x,y,z
-x,-y,z
1/2-x,y,z
1/2+x,-y,z
x,1/2+y,1/2+z
-x,1/2-y,1/2+z
1/2-x,1/2+y,1/2+z
1/2+x,1/2-y,1/2+z
loop_
_atom_site_type_symbol
_atom_site_label
_atom_site_fract_x
_atom_site_fract_y
_atom_site_fract_z
Si Si1 0.106623 0.186067 0.524280
Si Si2 0.889688 0.125801 0.233055
Si Si3 0.454494 0.253071 0.953712
Si Si4 0.980442 0.384032 0.170930
Si Si5 0.298717 0.134533 0.483478
Si Si6 0.392221 0.618591 0.673549
Si Si7 0.299680 0.207711 0.145662
Si Si8 0.699943 0.112318 0.403949
O O1 0.096644 0.306962 0.579552
O O2 0.071001 0.105890 0.605990
O O3 0.157393 0.158634 0.589046
O O4 0.105070 0.179706 0.338381
O O5 0.918322 0.166041 0.380342
O O6 0.836911 0.143562 0.274345
O O7 0.903140 0.005101 0.196395
O O8 0.482130 0.185186 0.827433
O O9 0.490572 0.324940 0.040965
O O10 0.430048 0.168426 0.064641
O O11 0.000000 0.500000 0.207802
O O12 0.250000 0.147812 0.571460
O O13 0.299206 0.214368 0.334065
O O14 0.305038 0.013263 0.428933
O O15 0.341987 0.632028 0.597113
O O16 0.250000 0.161971 0.091592
O O17 0.307529 0.324260 0.067546
O O18 0.750000 0.138675 0.336995
#
# Coordination Sequence:
#
# PCOD8182730 Si02
#       8
#     8   8   8   8   8   8   8   8
#     4  10  22  39  61  93 121 154 205 247 296 361
#     4  11  22  38  61  93 120 159 207 249 300 363
#     4  11  25  42  63  90 120 155 206 248 309 363
#     4  11  25  43  65  91 122 159 200 253 306 362
#     4   9  18  35  58  86 123 161 199 245 298 353
#     4  11  21  39  63  84 123 163 195 253 305 352
#     4   9  17  30  55  86 115 157 203 238 291 356
#     4  10  18  32  59  88 120 163 202 244 298 353
#
# _framework density 20.224440000000001
#
# number of rings (size 3 to 8) (size 9 to 14) (size 15 to 20)
#    0.000    1.750    3.750    1.500    0.000    3.500 
#    0.000    4.375    0.000    0.000    0.000    0.000 
#    0.000    0.000    0.000    0.000    0.000    0.000 
#
# Total GULP energy -396580.398140 kJ/mol
# GULP energy per Si atom -12393.137442 kJ/mol
# Density = 2.017841 g / cm^3
# Si number density = 20.224440 Si / 1000 Ang^3
#
#
#
# Elastic Constant Matrix: (Units=GPa)
#
#
# Indices 1 2 3 4 5 6 
#
# 1 103.0661 29.7409 7.8044 0.0000 0.0000 0.0000
# 2 29.7409 91.5955 33.7237 0.0000 0.0000 0.0000
# 3 7.8044 33.7237 44.8088 0.0000 0.0000 0.0000
# 4 0.0000 0.0000 0.0000 22.8249 0.0000 0.0000
# 5 0.0000 0.0000 0.0000 0.0000 28.3092 0.0000
# 6 0.0000 0.0000 0.0000 0.0000 0.0000 30.0961
#
#
#
# Elastic Compliance Matrix: (Units=1/GPa)
#
#
# Indices 1 2 3 4 5 6 
#
# 1 0.010741 -0.003872 0.001043 0.000000 0.000000 0.000000
# 2 -0.003872 0.016498 -0.011742 0.000000 0.000000 0.000000
# 3 0.001043 -0.011742 0.030973 0.000000 0.000000 0.000000
# 4 0.000000 0.000000 0.000000 0.043812 0.000000 0.000000
# 5 0.000000 0.000000 0.000000 0.000000 0.035324 0.000000
# 6 0.000000 0.000000 0.000000 0.000000 0.000000 0.033227
#
#
# Mechanical properties :
#
#
# Convention : Reuss Voigt Hill
#
# Bulk Modulus (GPa) = 34.39986 42.44539 38.42263
# Shear Modulus (GPa) = 23.87710 27.45947 25.66828
#
# Velocity S-wave (km/s) = 3.43972 3.68875 3.56641
# Velocity P-wave (km/s) = 5.72901 6.25901 5.99987
#
# Compressibility (1/GPa) = 0.02906989
#
# Stress axis : x y z
#
# Youngs Moduli (GPa) = 93.10378 60.61374 32.28647
#
# Poissons Ratio (x) = 0.23467 -0.03368
# Poissons Ratio (y) = 0.36045 0.37912
# Poissons Ratio (z) = -0.09711 0.71174
#
# Static dielectric constant tensor:
#      x y z
#    x 4.233600 0.000000 0.000000 
#    y 0.000000 3.565850 0.000000 
#    z 0.000000 0.000000 3.514560 
# 
# 
# High freq. dielectric constant tensor:
#      x y z
#    x 1.818290 0.000000 0.000000 
#    y 0.000000 1.780580 0.000000 
#    z 0.000000 0.000000 1.764120 
# 
# From -- ./inp_files/9437.got.cif
#   From: 2010.03.12/outbox.cif.g09.slc.cpg/sg40_5_cif.got.tgz:9437.got - 2010.04.14 01:38:03.
