data_PCOD8182127
_publ_section_title
;
Structure prediction by ZEFSAII (Michael W. Deem and Ramdas Pophale) SiO2 
 PCOD8182127
Probable space group: A B M 2
;
_chemical_formula_sum "Si O2"
_cell_formula_units_Z 56
_cell_length_a 10.799846
_cell_length_b 21.636094
_cell_length_c 11.154010
_cell_angle_alpha 90.000000
_cell_angle_beta 90.000000
_cell_angle_gamma 90.000000
_cell_volume 2606.318291
_symmetry_space_group_name_H-M "A B M 2"
_symmetry_group_IT_number 39
_symmetry_cell_setting 'orthorhombic'
loop_
_space_group_symop_operation_xyz
x,y,z
-x,-y,z
-x,1/2+y,z
x,1/2-y,z
x,1/2+y,1/2+z
-x,1/2-y,1/2+z
-x,y,1/2+z
x,-y,1/2+z
loop_
_atom_site_type_symbol
_atom_site_label
_atom_site_fract_x
_atom_site_fract_y
_atom_site_fract_z
Si Si1 0.821301 0.951281 0.031450
Si Si2 0.921123 0.250000 0.697600
Si Si3 0.781568 0.873842 0.257589
Si Si4 0.296288 0.642884 0.377847
Si Si5 0.107095 0.250000 0.927599
Si Si6 0.745677 0.180470 0.120616
Si Si7 0.897075 0.416606 0.993117
Si Si8 0.431788 0.180965 0.400864
O O1 0.765546 0.923633 0.153006
O O2 0.961800 0.930514 0.016263
O O3 0.811688 0.025453 0.032816
O O4 0.741990 0.925624 0.919839
O O5 0.835059 0.309474 0.711709
O O6 0.968138 0.250000 0.556383
O O7 0.020868 0.250000 0.807592
O O8 0.876523 0.902566 0.353607
O O9 0.644874 0.863221 0.312090
O O10 0.193821 0.689931 0.427876
O O11 0.304767 0.644804 0.235343
O O12 0.431732 0.656861 0.428644
O O13 0.789581 0.250000 0.154821
O O14 0.863921 0.143930 0.070191
O O15 0.634683 0.182326 0.028218
O O16 0.438173 0.250000 0.345873
#
# Coordination Sequence:
#
# PCOD8182127 Si02
#       8
#     8   4   8   8   4   8   8   8
#     4  11  26  43  70  97 135 181 228 278 346 426
#     4  12  26  41  68 104 150 169 237 293 362 422
#     4  11  24  43  69  99 134 183 225 284 351 412
#     4  12  24  41  67 100 134 180 234 277 342 418
#     4  12  26  41  64 110 144 181 219 301 352 424
#     4  10  23  42  69  98 131 175 224 289 348 405
#     4  10  26  46  68  98 135 182 225 285 357 417
#     4  10  22  43  66  99 138 182 226 288 349 407
#
# _framework density 21.486246000000001
#
# number of rings (size 3 to 8) (size 9 to 14) (size 15 to 20)
#    0.000    1.143    3.571    0.857    9.000    2.286 
#    1.286    2.857    0.000    0.000    0.000    0.000 
#    0.000    0.000    0.000    0.000    0.000    0.000 
#
# Total GULP energy -347218.131871 kJ/mol
# GULP energy per Si atom -12400.647567 kJ/mol
# Density = 2.143734 g / cm^3
# Si number density = 21.486246 Si / 1000 Ang^3
#
#
#
# Elastic Constant Matrix: (Units=GPa)
#
#
# Indices 1 2 3 4 5 6 
#
# 1 77.8200 19.4607 28.8809 0.0000 0.0000 0.0000
# 2 19.4607 85.2592 44.2177 0.0000 0.0000 0.0000
# 3 28.8809 44.2177 122.9159 0.0000 0.0000 0.0000
# 4 0.0000 0.0000 0.0000 27.9177 0.0000 0.0000
# 5 0.0000 0.0000 0.0000 0.0000 10.1357 0.0000
# 6 0.0000 0.0000 0.0000 0.0000 0.0000 27.5089
#
#
#
# Elastic Compliance Matrix: (Units=1/GPa)
#
#
# Indices 1 2 3 4 5 6 
#
# 1 0.014317 -0.001873 -0.002690 0.000000 0.000000 0.000000
# 2 -0.001873 0.014664 -0.004835 0.000000 0.000000 0.000000
# 3 -0.002690 -0.004835 0.010507 0.000000 0.000000 0.000000
# 4 0.000000 0.000000 0.000000 0.035820 0.000000 0.000000
# 5 0.000000 0.000000 0.000000 0.000000 0.098661 0.000000
# 6 0.000000 0.000000 0.000000 0.000000 0.000000 0.036352
#
#
# Mechanical properties :
#
#
# Convention : Reuss Voigt Hill
#
# Bulk Modulus (GPa) = 48.32830 52.34599 50.33714
# Shear Modulus (GPa) = 21.18512 26.00817 23.59665
#
# Velocity S-wave (km/s) = 3.14345 3.48294 3.31754
# Velocity P-wave (km/s) = 5.97633 6.37102 6.17683
#
# Compressibility (1/GPa) = 0.02069181
#
# Stress axis : x y z
#
# Youngs Moduli (GPa) = 69.84753 68.19392 95.17275
#
# Poissons Ratio (x) = 0.12770 0.25604
# Poissons Ratio (y) = 0.13080 0.46018
# Poissons Ratio (z) = 0.18791 0.32973
#
# Static dielectric constant tensor:
#      x y z
#    x 3.693740 0.000000 0.000000 
#    y 0.000000 4.289760 0.000000 
#    z 0.000000 0.000000 4.079320 
# 
# 
# High freq. dielectric constant tensor:
#      x y z
#    x 1.834710 0.000000 0.000000 
#    y 0.000000 1.843470 0.000000 
#    z 0.000000 0.000000 1.855380 
# 
# From -- ./inp_files/5990.got.cif
#   From: 2010.03.12/outbox.cif.g09.slc.cpg/sg39_3_cif.got.tgz:5990.got - 2010.04.14 02:53:20.
