data_PCOD8182941
_publ_section_title
;
Structure prediction by ZEFSAII (Michael W. Deem and Ramdas Pophale) SiO2 
 PCOD8182941
Probable space group: A M A 2
;
_chemical_formula_sum "Si O2"
_cell_formula_units_Z 64
_cell_length_a 9.488966
_cell_length_b 28.786188
_cell_length_c 12.575319
_cell_angle_alpha 90.000000
_cell_angle_beta 90.000000
_cell_angle_gamma 90.000000
_cell_volume 3434.962962
_symmetry_space_group_name_H-M "A M A 2"
_symmetry_group_IT_number 40
_symmetry_cell_setting 'orthorhombic'
loop_
_space_group_symop_operation_xyz
x,y,z
-x,-y,z
1/2-x,y,z
1/2+x,-y,z
x,1/2+y,1/2+z
-x,1/2-y,1/2+z
1/2-x,1/2+y,1/2+z
1/2+x,1/2-y,1/2+z
loop_
_atom_site_type_symbol
_atom_site_label
_atom_site_fract_x
_atom_site_fract_y
_atom_site_fract_z
Si Si1 0.917566 0.295173 0.387390
Si Si2 0.911969 0.894898 0.380503
Si Si3 0.592853 0.912213 0.146738
Si Si4 0.589695 0.693387 0.820240
Si Si5 0.086721 0.614630 0.276110
Si Si6 0.911040 0.670456 0.582182
Si Si7 0.594818 0.959677 0.941667
Si Si8 0.418745 0.048796 0.587507
O O1 0.750000 0.300401 0.403573
O O2 0.963520 0.243662 0.356135
O O3 0.969720 0.332703 0.297095
O O4 0.994452 0.302744 0.498395
O O5 0.750000 0.880980 0.398565
O O6 0.933957 0.923896 0.270618
O O7 0.963077 0.928294 0.475076
O O8 0.996941 0.846687 0.374950
O O9 0.750000 0.889400 0.135120
O O10 0.469833 0.880653 0.101200
O O11 0.586192 0.957202 0.070403
O O12 0.750000 0.683685 0.855314
O O13 0.576446 0.696730 0.693752
O O14 0.250000 0.618136 0.250995
O O15 0.051997 0.588814 0.387204
O O16 0.023773 0.585323 0.177000
O O17 0.750000 0.667188 0.542437
O O18 0.750000 0.973161 0.903386
O O19 0.500000 0.000000 0.894974
O O20 0.250000 0.040114 0.595164
O O21 0.500000 0.000000 0.600801
#
# Coordination Sequence:
#
# PCOD8182941 Si02
#       8
#     8   8   8   8   8   8   8   8
#     4  10  19  35  56  76 104 147 187 219 268 336
#     4   9  19  35  56  79 107 142 182 225 270 323
#     4   9  17  33  53  72  99 138 175 208 261 326
#     4   9  20  35  54  81 110 143 181 225 277 326
#     4   9  18  34  54  74 101 141 184 220 264 326
#     4  10  19  32  51  78 107 133 170 224 272 311
#     4  10  19  31  49  73  99 131 170 212 260 315
#     4  10  21  37  57  81 109 148 190 231 280 330
#
# _framework density 18.631931999999999
#
# number of rings (size 3 to 8) (size 9 to 14) (size 15 to 20)
#    0.000    2.500    1.250    0.750    0.000    3.500 
#    0.000    3.125    0.000    0.000    0.000    0.000 
#    0.000    0.000    0.000    0.000    0.000    0.000 
#
# Total GULP energy -396503.900120 kJ/mol
# GULP energy per Si atom -12390.746879 kJ/mol
# Density = 1.858953 g / cm^3
# Si number density = 18.631932 Si / 1000 Ang^3
#
#
#
# Elastic Constant Matrix: (Units=GPa)
#
#
# Indices 1 2 3 4 5 6 
#
# 1 48.0945 29.6808 25.4406 0.0000 0.0000 0.0000
# 2 29.6808 83.8950 33.1068 0.0000 0.0000 0.0000
# 3 25.4406 33.1068 95.4409 0.0000 0.0000 0.0000
# 4 0.0000 0.0000 0.0000 20.8096 0.0000 0.0000
# 5 0.0000 0.0000 0.0000 0.0000 21.5327 0.0000
# 6 0.0000 0.0000 0.0000 0.0000 0.0000 28.9204
#
#
#
# Elastic Compliance Matrix: (Units=1/GPa)
#
#
# Indices 1 2 3 4 5 6 
#
# 1 0.028324 -0.008158 -0.004720 0.000000 0.000000 0.000000
# 2 -0.008158 0.016160 -0.003431 0.000000 0.000000 0.000000
# 3 -0.004720 -0.003431 0.012926 0.000000 0.000000 0.000000
# 4 0.000000 0.000000 0.000000 0.048055 0.000000 0.000000
# 5 0.000000 0.000000 0.000000 0.000000 0.046441 0.000000
# 6 0.000000 0.000000 0.000000 0.000000 0.000000 0.034578
#
#
# Mechanical properties :
#
#
# Convention : Reuss Voigt Hill
#
# Bulk Modulus (GPa) = 40.33630 44.87631 42.60630
# Shear Modulus (GPa) = 21.99111 23.53268 22.76190
#
# Velocity S-wave (km/s) = 3.43926 3.55777 3.49902
# Velocity P-wave (km/s) = 6.12106 6.40429 6.26428
#
# Compressibility (1/GPa) = 0.02479157
#
# Stress axis : x y z
#
# Youngs Moduli (GPa) = 35.30616 61.88225 77.36332
#
# Poissons Ratio (x) = 0.50482 0.36516
# Poissons Ratio (y) = 0.28802 0.26543
# Poissons Ratio (z) = 0.16665 0.21232
#
# Static dielectric constant tensor:
#      x y z
#    x 3.382980 0.000000 0.000000 
#    y 0.000000 3.323110 0.000000 
#    z 0.000000 0.000000 3.642140 
# 
# 
# High freq. dielectric constant tensor:
#      x y z
#    x 1.707780 0.000000 0.000000 
#    y 0.000000 1.711130 0.000000 
#    z 0.000000 0.000000 1.730530 
# 
# From -- ./inp_files/10603.got.cif
#   From: 2010.03.12/outbox.cif.g09.slc.cpg/sg40_6_cif.got.tgz:10603.got - 2010.04.14 01:38:03.
