data_PCOD8182181
_publ_section_title
;
Structure prediction by ZEFSAII (Michael W. Deem and Ramdas Pophale) SiO2 
 PCOD8182181
Probable space group: A B M 2
;
_chemical_formula_sum "Si O2"
_cell_formula_units_Z 48
_cell_length_a 12.190353
_cell_length_b 21.516377
_cell_length_c 8.302019
_cell_angle_alpha 90.000000
_cell_angle_beta 90.000000
_cell_angle_gamma 90.000000
_cell_volume 2177.555085
_symmetry_space_group_name_H-M "A B M 2"
_symmetry_group_IT_number 39
_symmetry_cell_setting 'orthorhombic'
loop_
_space_group_symop_operation_xyz
x,y,z
-x,-y,z
-x,1/2+y,z
x,1/2-y,z
x,1/2+y,1/2+z
-x,1/2-y,1/2+z
-x,y,1/2+z
x,-y,1/2+z
loop_
_atom_site_type_symbol
_atom_site_label
_atom_site_fract_x
_atom_site_fract_y
_atom_site_fract_z
Si Si1 0.200493 0.092881 0.906380
Si Si2 0.629924 0.679697 0.365290
Si Si3 0.036633 0.178132 0.750429
Si Si4 0.394672 0.321218 0.986948
Si Si5 0.124414 0.010067 0.621930
Si Si6 0.143277 0.126760 0.434667
O O1 0.104826 0.143742 0.891252
O O2 0.196353 0.045571 0.755274
O O3 0.314674 0.129860 0.900651
O O4 0.183088 0.054536 0.072761
O O5 0.655390 0.750000 0.418678
O O6 0.622335 0.674335 0.175321
O O7 0.517229 0.656967 0.445168
O O8 0.726790 0.636835 0.431701
O O9 0.035444 0.250000 0.792107
O O10 0.088581 0.166590 0.577594
O O11 0.912839 0.150224 0.768016
O O12 0.374359 0.250000 0.925595
O O13 0.120362 0.053582 0.461037
O O14 0.000000 0.000000 0.683296
#
# Coordination Sequence:
#
# PCOD8182181 Si02
#       6
#     8   8   8   8   8   8
#     4  11  25  41  68  95 132 178 226 277 333 407
#     4  10  23  44  71 101 139 180 227 286 352 416
#     4  11  23  39  64 100 137 170 222 286 350 410
#     4  10  24  45  72 101 135 179 230 287 348 411
#     4  11  24  43  66  97 135 185 228 276 339 409
#     4  11  25  41  66  97 139 184 226 281 343 420
#
# _framework density 22.043068999999999
#
# number of rings (size 3 to 8) (size 9 to 14) (size 15 to 20)
#    0.000    1.333    1.667    2.500   11.667    0.000 
#    0.000    0.833    0.000    0.000    0.000    0.000 
#    0.000    0.000    0.000    0.000    0.000    0.000 
#
# Total GULP energy -297655.467997 kJ/mol
# GULP energy per Si atom -12402.311167 kJ/mol
# Density = 2.199290 g / cm^3
# Si number density = 22.043069 Si / 1000 Ang^3
#
#
#
# Elastic Constant Matrix: (Units=GPa)
#
#
# Indices 1 2 3 4 5 6 
#
# 1 170.1881 66.3751 44.0831 0.0000 0.0000 0.0000
# 2 66.3751 122.1838 26.7734 0.0000 0.0000 0.0000
# 3 44.0831 26.7734 52.4372 0.0000 0.0000 0.0000
# 4 0.0000 0.0000 0.0000 37.8478 0.0000 0.0000
# 5 0.0000 0.0000 0.0000 0.0000 37.3453 0.0000
# 6 0.0000 0.0000 0.0000 0.0000 0.0000 38.7097
#
#
#
# Elastic Compliance Matrix: (Units=1/GPa)
#
#
# Indices 1 2 3 4 5 6 
#
# 1 0.008666 -0.003503 -0.005497 0.000000 0.000000 0.000000
# 2 -0.003503 0.010632 -0.002483 0.000000 0.000000 0.000000
# 3 -0.005497 -0.002483 0.024959 0.000000 0.000000 0.000000
# 4 0.000000 0.000000 0.000000 0.026422 0.000000 0.000000
# 5 0.000000 0.000000 0.000000 0.000000 0.026777 0.000000
# 6 0.000000 0.000000 0.000000 0.000000 0.000000 0.025833
#
#
# Mechanical properties :
#
#
# Convention : Reuss Voigt Hill
#
# Bulk Modulus (GPa) = 46.96895 68.80804 57.88849
# Shear Modulus (GPa) = 32.60480 36.61907 34.61194
#
# Velocity S-wave (km/s) = 3.85013 4.08027 3.96687
# Velocity P-wave (km/s) = 6.41239 7.31308 6.87750
#
# Compressibility (1/GPa) = 0.02129066
#
# Stress axis : x y z
#
# Youngs Moduli (GPa) = 115.39482 94.05908 40.06543
#
# Poissons Ratio (x) = 0.32951 0.22022
# Poissons Ratio (y) = 0.40425 0.09949
# Poissons Ratio (z) = 0.63428 0.23357
#
# Static dielectric constant tensor:
#      x y z
#    x 4.053060 0.000000 0.000000 
#    y 0.000000 4.145370 0.000000 
#    z 0.000000 0.000000 3.902650 
# 
# 
# High freq. dielectric constant tensor:
#      x y z
#    x 1.855010 0.000000 0.000000 
#    y 0.000000 1.872620 0.000000 
#    z 0.000000 0.000000 1.875480 
# 
# From -- ./inp_files/2695.got.cif
#   From: 2010.03.12/outbox.cif.g09.slc.cpg/sg39_2_cif.got.tgz:2695.got - 2010.04.14 02:53:20.
