data_PCOD8182443
_publ_section_title
;
Structure prediction by ZEFSAII (Michael W. Deem and Ramdas Pophale) SiO2 
 PCOD8182443
Probable space group: A M A 2
;
_chemical_formula_sum "Si O2"
_cell_formula_units_Z 64
_cell_length_a 8.469986
_cell_length_b 18.647484
_cell_length_c 26.608513
_cell_angle_alpha 90.000000
_cell_angle_beta 90.000000
_cell_angle_gamma 90.000000
_cell_volume 4202.653073
_symmetry_space_group_name_H-M "A M A 2"
_symmetry_group_IT_number 40
_symmetry_cell_setting 'orthorhombic'
loop_
_space_group_symop_operation_xyz
x,y,z
-x,-y,z
1/2-x,y,z
1/2+x,-y,z
x,1/2+y,1/2+z
-x,1/2-y,1/2+z
1/2-x,1/2+y,1/2+z
1/2+x,1/2-y,1/2+z
loop_
_atom_site_type_symbol
_atom_site_label
_atom_site_fract_x
_atom_site_fract_y
_atom_site_fract_z
Si Si1 0.930454 0.791118 0.191870
Si Si2 0.061396 0.577747 0.635098
Si Si3 0.066177 0.578045 0.445380
Si Si4 0.936574 0.078799 0.839904
Si Si5 0.563143 0.579138 0.140495
Si Si6 0.438493 0.843447 0.742189
Si Si7 0.068331 0.845700 0.037755
Si Si8 0.932366 0.786334 0.600653
O O1 0.750000 0.802283 0.205655
O O2 0.001460 0.870314 0.180840
O O3 0.005364 0.738783 0.234661
O O4 0.946844 0.747284 0.140350
O O5 0.250000 0.579690 0.630318
O O6 0.000000 0.500000 0.649350
O O7 0.987592 0.603506 0.582944
O O8 0.250000 0.569293 0.436859
O O9 0.000000 0.500000 0.460182
O O10 0.992083 0.608250 0.393734
O O11 0.031241 0.635716 0.488432
O O12 0.750000 0.077749 0.838053
O O13 0.005900 0.127912 0.794953
O O14 0.000000 0.000000 0.830574
O O15 0.500000 0.500000 0.131155
O O16 0.750000 0.580379 0.134621
O O17 0.506939 0.605980 0.195861
O O18 0.484624 0.630280 0.097171
O O19 0.250000 0.841795 0.742525
O O20 0.250000 0.863814 0.027005
O O21 0.045020 0.760723 0.049772
O O22 0.750000 0.779874 0.618205
#
# Coordination Sequence:
#
# PCOD8182443 Si02
#       8
#     8   8   8   8   8   8   8   8
#     4   8  15  28  42  57  79 108 138 167 201 241
#     4  10  18  27  41  60  84 111 139 170 203 241
#     4  11  21  32  44  59  81 107 138 172 207 243
#     4  10  18  29  43  59  81 106 135 170 205 238
#     4  10  18  28  42  61  86 113 142 171 201 239
#     4   8  15  27  43  60  79 107 140 171 202 239
#     4  10  19  31  45  60  80 107 140 172 205 245
#     4   9  17  28  42  60  81 105 134 169 205 242
#
# _framework density 15.228474
#
# number of rings (size 3 to 8) (size 9 to 14) (size 15 to 20)
#    0.000    2.500    0.000    5.250    0.000    2.000 
#    0.000    5.625    0.000    0.000    0.000    0.000 
#    0.000    1.000    0.000    6.000    0.000    3.000 
#
# Total GULP energy -396438.092597 kJ/mol
# GULP energy per Si atom -12388.690394 kJ/mol
# Density = 1.519381 g / cm^3
# Si number density = 15.228474 Si / 1000 Ang^3
#
#
#
# Elastic Constant Matrix: (Units=GPa)
#
#
# Indices 1 2 3 4 5 6 
#
# 1 41.9401 15.8253 14.6863 0.0000 0.0000 0.0000
# 2 15.8253 121.9376 55.7051 0.0000 0.0000 0.0000
# 3 14.6863 55.7051 82.3037 0.0000 0.0000 0.0000
# 4 0.0000 0.0000 0.0000 26.5912 0.0000 0.0000
# 5 0.0000 0.0000 0.0000 0.0000 15.3825 0.0000
# 6 0.0000 0.0000 0.0000 0.0000 0.0000 19.9212
#
#
#
# Elastic Compliance Matrix: (Units=1/GPa)
#
#
# Indices 1 2 3 4 5 6 
#
# 1 0.025701 -0.001796 -0.003371 0.000000 0.000000 0.000000
# 2 -0.001796 0.011997 -0.007799 0.000000 0.000000 0.000000
# 3 -0.003371 -0.007799 0.018030 0.000000 0.000000 0.000000
# 4 0.000000 0.000000 0.000000 0.037606 0.000000 0.000000
# 5 0.000000 0.000000 0.000000 0.000000 0.065009 0.000000
# 6 0.000000 0.000000 0.000000 0.000000 0.000000 0.050198
#
#
# Mechanical properties :
#
#
# Convention : Reuss Voigt Hill
#
# Bulk Modulus (GPa) = 33.56039 46.51278 40.03659
# Shear Modulus (GPa) = 20.45775 23.04330 21.75053
#
# Velocity S-wave (km/s) = 3.66920 3.89417 3.78336
# Velocity P-wave (km/s) = 6.32744 7.12945 6.74038
#
# Compressibility (1/GPa) = 0.02979703
#
# Stress axis : x y z
#
# Youngs Moduli (GPa) = 38.90830 83.35420 55.46176
#
# Poissons Ratio (x) = 0.14968 0.18695
# Poissons Ratio (y) = 0.06987 0.43257
# Poissons Ratio (z) = 0.13115 0.65011
#
# Static dielectric constant tensor:
#      x y z
#    x 2.937210 0.000000 0.000000 
#    y 0.000000 3.249830 0.000000 
#    z 0.000000 0.000000 2.912840 
# 
# 
# High freq. dielectric constant tensor:
#      x y z
#    x 1.589420 0.000000 0.000000 
#    y 0.000000 1.579140 0.000000 
#    z 0.000000 0.000000 1.546360 
# 
# From -- ./inp_files/25534.got.cif
#   From: 2010.03.12/outbox.cif.g09.slc.cpg/sg40_13_cif.got.tgz:25534.got - 2010.04.14 01:38:03.
