data_PCOD8182574
_publ_section_title
;
Structure prediction by ZEFSAII (Michael W. Deem and Ramdas Pophale) SiO2 
 PCOD8182574
Probable space group: A M A 2
;
_chemical_formula_sum "Si O2"
_cell_formula_units_Z 60
_cell_length_a 18.819489
_cell_length_b 5.193660
_cell_length_c 30.600676
_cell_angle_alpha 90.000000
_cell_angle_beta 90.000000
_cell_angle_gamma 90.000000
_cell_volume 2990.972107
_symmetry_space_group_name_H-M "A M A 2"
_symmetry_group_IT_number 40
_symmetry_cell_setting 'orthorhombic'
loop_
_space_group_symop_operation_xyz
x,y,z
-x,-y,z
1/2-x,y,z
1/2+x,-y,z
x,1/2+y,1/2+z
-x,1/2-y,1/2+z
1/2-x,1/2+y,1/2+z
1/2+x,1/2-y,1/2+z
loop_
_atom_site_type_symbol
_atom_site_label
_atom_site_fract_x
_atom_site_fract_y
_atom_site_fract_z
Si Si1 0.332883 0.645600 0.776580
Si Si2 0.073631 0.131218 0.360166
Si Si3 0.328262 0.561199 0.933965
Si Si4 0.000000 0.500000 0.423323
Si Si5 0.876354 0.911661 0.978128
Si Si6 0.666419 0.352752 0.573549
Si Si7 0.667005 0.361590 0.126541
Si Si8 0.667831 0.842672 0.723098
O O1 0.250000 0.619714 0.790435
O O2 0.381579 0.710213 0.818075
O O3 0.363028 0.386549 0.753545
O O4 0.344529 0.881439 0.744231
O O5 0.124681 0.967885 0.392196
O O6 0.055770 0.370323 0.390826
O O7 0.000000 0.000000 0.345954
O O8 0.250000 0.635349 0.916954
O O9 0.321146 0.310351 0.964529
O O10 0.357244 0.801310 0.962123
O O11 0.047674 0.672629 0.456464
O O12 0.879600 0.907136 0.030414
O O13 0.750000 0.335401 0.561728
O O14 0.650768 0.588581 0.605475
O O15 0.636810 0.094893 0.596997
O O16 0.750000 0.418477 0.131627
O O17 0.632089 0.353876 0.175062
O O18 0.750000 0.772880 0.717537
#
# Coordination Sequence:
#
# PCOD8182574 Si02
#       8
#     8   8   8   4   8   8   8   8
#     4  10  21  35  58  87 114 145 189 236 281 331
#     4  11  23  40  58  82 113 151 196 235 279 346
#     4  11  22  37  58  82 115 152 188 244 294 331
#     4  10  24  42  58  80 112 156 206 230 288 346
#     4  11  22  37  57  82 116 152 195 239 281 344
#     4  10  18  29  50  83 113 144 182 228 278 331
#     4   9  17  30  51  80 116 144 174 221 284 343
#     4   9  18  34  54  84 117 147 178 226 287 343
#
# _framework density 20.060366999999999
#
# number of rings (size 3 to 8) (size 9 to 14) (size 15 to 20)
#    0.000    1.867    1.333    3.200    1.867    4.267 
#    0.000    2.667    0.000    0.000   10.400    0.000 
#    0.000    0.000    0.000    0.000    0.000    0.000 
#
# Total GULP energy -371762.427989 kJ/mol
# GULP energy per Si atom -12392.080933 kJ/mol
# Density = 2.001471 g / cm^3
# Si number density = 20.060367 Si / 1000 Ang^3
#
#
#
# Elastic Constant Matrix: (Units=GPa)
#
#
# Indices 1 2 3 4 5 6 
#
# 1 64.0334 14.4225 51.9011 0.0000 0.0000 0.0000
# 2 14.4225 93.2336 27.5445 0.0000 0.0000 0.0000
# 3 51.9011 27.5445 143.2638 0.0000 0.0000 0.0000
# 4 0.0000 0.0000 0.0000 31.7697 0.0000 0.0000
# 5 0.0000 0.0000 0.0000 0.0000 -12.3607 0.0000
# 6 0.0000 0.0000 0.0000 0.0000 0.0000 12.3502
#
#
#
# Elastic Compliance Matrix: (Units=1/GPa)
#
#
# Indices 1 2 3 4 5 6 
#
# 1 0.022219 -0.001123 -0.007834 0.000000 0.000000 0.000000
# 2 -0.001123 0.011428 -0.001791 0.000000 0.000000 0.000000
# 3 -0.007834 -0.001791 0.010162 0.000000 0.000000 0.000000
# 4 0.000000 0.000000 0.000000 0.031477 0.000000 0.000000
# 5 0.000000 0.000000 0.000000 0.000000 -0.080902 0.000000
# 6 0.000000 0.000000 0.000000 0.000000 0.000000 0.080970
#
#
# Mechanical properties :
#
#
# Convention : Reuss Voigt Hill
#
# Bulk Modulus (GPa) = 44.81082 54.25189 49.53135
# Shear Modulus (GPa) = 47.94445 20.12935 34.03690
#
# Velocity S-wave (km/s) = 4.89408 3.17115 4.12360
# Velocity P-wave (km/s) = 7.37038 6.36485 6.88599
#
# Compressibility (1/GPa) = 0.02231604
#
# Stress axis : x y z
#
# Youngs Moduli (GPa) = 45.00627 87.50122 98.40286
#
# Poissons Ratio (x) = 0.09825 0.77085
# Poissons Ratio (y) = 0.05053 0.17619
# Poissons Ratio (z) = 0.35256 0.15667
#
# Static dielectric constant tensor:
#      x y z
#    x 3.635900 0.000000 0.000000 
#    y 0.000000 3.576990 0.000000 
#    z 0.000000 0.000000 3.755360 
# 
# 
# High freq. dielectric constant tensor:
#      x y z
#    x 1.742070 0.000000 0.000000 
#    y 0.000000 1.788370 0.000000 
#    z 0.000000 0.000000 1.793390 
# 
# From -- ./inp_files/25802.got.cif
#   From: 2010.03.12/outbox.cif.g09.slc.cpg/sg40_13_cif.got.tgz:25802.got - 2010.04.14 01:38:03.
