data_PCOD8182710
_publ_section_title
;
Structure prediction by ZEFSAII (Michael W. Deem and Ramdas Pophale) SiO2 
 PCOD8182710
Probable space group: A M A 2
;
_chemical_formula_sum "Si O2"
_cell_formula_units_Z 52
_cell_length_a 9.222196
_cell_length_b 10.587460
_cell_length_c 26.959333
_cell_angle_alpha 90.000000
_cell_angle_beta 90.000000
_cell_angle_gamma 90.000000
_cell_volume 2632.299333
_symmetry_space_group_name_H-M "A M A 2"
_symmetry_group_IT_number 40
_symmetry_cell_setting 'orthorhombic'
loop_
_space_group_symop_operation_xyz
x,y,z
-x,-y,z
1/2-x,y,z
1/2+x,-y,z
x,1/2+y,1/2+z
-x,1/2-y,1/2+z
1/2-x,1/2+y,1/2+z
1/2+x,1/2-y,1/2+z
loop_
_atom_site_type_symbol
_atom_site_label
_atom_site_fract_x
_atom_site_fract_y
_atom_site_fract_z
Si Si1 0.000000 0.000000 0.031670
Si Si2 0.912027 0.273635 0.596602
Si Si3 0.416456 0.872403 0.181301
Si Si4 0.405552 0.823680 0.951349
Si Si5 0.421030 0.866204 0.295482
Si Si6 0.418293 0.375417 0.002474
Si Si7 0.918957 0.124212 0.839749
O O1 0.087898 0.094280 0.067076
O O2 0.890874 0.072879 0.994981
O O3 0.750000 0.249162 0.616228
O O4 0.961156 0.164580 0.558415
O O5 0.019018 0.267639 0.643874
O O6 0.250000 0.894932 0.168173
O O7 0.438360 0.830363 0.237745
O O8 0.500000 0.000000 0.169723
O O9 0.250000 0.751805 0.950244
O O10 0.432312 0.888918 0.898739
O O11 0.536409 0.729110 0.962438
O O12 0.250000 0.876096 0.309779
O O13 0.500379 0.753479 0.324247
O O14 0.500000 0.000000 0.307283
O O15 0.500000 0.500000 0.987319
O O16 0.250000 0.398123 0.996892
O O17 0.750000 0.126666 0.822347
O O18 0.000000 0.000000 0.817067
#
# Coordination Sequence:
#
# PCOD8182710 Si02
#       7
#     4   8   8   8   8   8   8
#     4  10  18  32  54  86 118 146 182 222 280 338
#     4  10  20  32  53  83 114 147 186 230 283 339
#     4  10  20  34  56  84 115 148 189 240 295 350
#     4  10  21  36  57  83 114 150 189 232 283 343
#     4  10  22  41  63  89 119 157 203 255 309 368
#     4  10  22  38  55  78 111 152 195 237 284 343
#     4  11  23  40  63  91 121 159 201 252 308 364
#
# _framework density 19.754591000000001
#
# number of rings (size 3 to 8) (size 9 to 14) (size 15 to 20)
#    0.000    1.846    1.538    2.308    0.000    7.385 
#    0.000    0.769    0.000    1.846    0.000    0.000 
#    0.000    0.000    0.000    0.000    0.000    0.000 
#
# Total GULP energy -322290.088378 kJ/mol
# GULP energy per Si atom -12395.772630 kJ/mol
# Density = 1.970963 g / cm^3
# Si number density = 19.754591 Si / 1000 Ang^3
#
#
#
# Elastic Constant Matrix: (Units=GPa)
#
#
# Indices 1 2 3 4 5 6 
#
# 1 132.0731 48.0842 34.9225 0.0000 0.0000 0.0000
# 2 48.0842 95.5663 17.0886 0.0000 0.0000 0.0000
# 3 34.9225 17.0886 60.2273 0.0000 0.0000 0.0000
# 4 0.0000 0.0000 0.0000 14.3498 0.0000 0.0000
# 5 0.0000 0.0000 0.0000 0.0000 29.0150 0.0000
# 6 0.0000 0.0000 0.0000 0.0000 0.0000 32.0783
#
#
#
# Elastic Compliance Matrix: (Units=1/GPa)
#
#
# Indices 1 2 3 4 5 6 
#
# 1 0.010443 -0.004395 -0.004808 0.000000 0.000000 0.000000
# 2 -0.004395 0.012873 -0.001104 0.000000 0.000000 0.000000
# 3 -0.004808 -0.001104 0.019705 0.000000 0.000000 0.000000
# 4 0.000000 0.000000 0.000000 0.069687 0.000000 0.000000
# 5 0.000000 0.000000 0.000000 0.000000 0.034465 0.000000
# 6 0.000000 0.000000 0.000000 0.000000 0.000000 0.031174
#
#
# Mechanical properties :
#
#
# Convention : Reuss Voigt Hill
#
# Bulk Modulus (GPa) = 44.63031 54.22858 49.42945
# Shear Modulus (GPa) = 24.22132 27.60672 25.91402
#
# Velocity S-wave (km/s) = 3.50539 3.74235 3.62580
# Velocity P-wave (km/s) = 6.24700 6.79590 6.52723
#
# Compressibility (1/GPa) = 0.02240630
#
# Stress axis : x y z
#
# Youngs Moduli (GPa) = 95.75869 77.68495 50.74811
#
# Poissons Ratio (x) = 0.34139 0.24402
# Poissons Ratio (y) = 0.42082 0.05604
# Poissons Ratio (z) = 0.46044 0.08578
#
# Static dielectric constant tensor:
#      x y z
#    x 3.734130 0.000000 0.000000 
#    y 0.000000 3.431560 0.000000 
#    z 0.000000 0.000000 3.602370 
# 
# 
# High freq. dielectric constant tensor:
#      x y z
#    x 1.783410 0.000000 0.000000 
#    y 0.000000 1.750520 0.000000 
#    z 0.000000 0.000000 1.764570 
# 
# From -- ./inp_files/25318.got.cif
#   From: 2010.03.12/outbox.cif.g09.slc.cpg/sg40_13_cif.got.tgz:25318.got - 2010.04.14 01:38:03.
