data_PCOD8182143
_publ_section_title
;
Structure prediction by ZEFSAII (Michael W. Deem and Ramdas Pophale) SiO2 
 PCOD8182143
Probable space group: A B M 2
;
_chemical_formula_sum "Si O2"
_cell_formula_units_Z 40
_cell_length_a 9.656511
_cell_length_b 14.712989
_cell_length_c 10.620251
_cell_angle_alpha 90.000000
_cell_angle_beta 90.000000
_cell_angle_gamma 90.000000
_cell_volume 1508.884269
_symmetry_space_group_name_H-M "A B M 2"
_symmetry_group_IT_number 39
_symmetry_cell_setting 'orthorhombic'
loop_
_space_group_symop_operation_xyz
x,y,z
-x,-y,z
-x,1/2+y,z
x,1/2-y,z
x,1/2+y,1/2+z
-x,1/2-y,1/2+z
-x,y,1/2+z
x,-y,1/2+z
loop_
_atom_site_type_symbol
_atom_site_label
_atom_site_fract_x
_atom_site_fract_y
_atom_site_fract_z
Si Si1 0.256333 0.349660 0.576500
Si Si2 0.246150 0.458795 0.328410
Si Si3 0.254292 0.350750 0.934096
Si Si4 0.552775 0.353053 0.659556
Si Si5 0.032571 0.902704 0.627384
O O1 0.276417 0.250000 0.515448
O O2 0.247444 0.425847 0.470746
O O3 0.388031 0.371273 0.664771
O O4 0.112457 0.351472 0.655256
O O5 0.759034 0.430936 0.330708
O O6 0.382086 0.424854 0.255707
O O7 0.110992 0.418209 0.259671
O O8 0.264070 0.250000 0.868572
O O9 0.392199 0.368888 0.017390
O O10 0.124667 0.346458 0.029686
O O11 0.588093 0.250000 0.702986
O O12 0.000000 0.000000 0.564117
#
# Coordination Sequence:
#
# PCOD8182143 Si02
#       5
#     8   8   8   8   8
#     4  11  24  47  78 112 152 195 251 312 376 452
#     4  11  24  46  80 105 154 204 249 303 383 446
#     4  10  22  47  77 109 153 198 253 312 369 445
#     4   9  22  48  77 112 150 192 247 311 377 450
#     4  11  24  46  70 108 154 198 248 309 371 449
#
# _framework density 26.509654999999999
#
# number of rings (size 3 to 8) (size 9 to 14) (size 15 to 20)
#    0.000    1.600    2.000    1.200    2.800    3.200 
#    7.200    2.000    0.000    1.200    0.000    0.000 
#    0.000    0.000    0.000    0.000    0.000    0.000 
#
# Total GULP energy -248015.652816 kJ/mol
# GULP energy per Si atom -12400.782641 kJ/mol
# Density = 2.644932 g / cm^3
# Si number density = 26.509655 Si / 1000 Ang^3
#
#
#
# Elastic Constant Matrix: (Units=GPa)
#
#
# Indices 1 2 3 4 5 6 
#
# 1 206.7569 58.7430 38.1771 0.0000 0.0000 0.0000
# 2 58.7430 167.5820 57.9120 0.0000 0.0000 0.0000
# 3 38.1771 57.9120 66.8715 0.0000 0.0000 0.0000
# 4 0.0000 0.0000 0.0000 40.7645 0.0000 0.0000
# 5 0.0000 0.0000 0.0000 0.0000 24.1374 0.0000
# 6 0.0000 0.0000 0.0000 0.0000 0.0000 32.2205
#
#
#
# Elastic Compliance Matrix: (Units=1/GPa)
#
#
# Indices 1 2 3 4 5 6 
#
# 1 0.005576 -0.001219 -0.002127 0.000000 0.000000 0.000000
# 2 -0.001219 0.008782 -0.006910 0.000000 0.000000 0.000000
# 3 -0.002127 -0.006910 0.022152 0.000000 0.000000 0.000000
# 4 0.000000 0.000000 0.000000 0.024531 0.000000 0.000000
# 5 0.000000 0.000000 0.000000 0.000000 0.041430 0.000000
# 6 0.000000 0.000000 0.000000 0.000000 0.000000 0.031036
#
#
# Mechanical properties :
#
#
# Convention : Reuss Voigt Hill
#
# Bulk Modulus (GPa) = 62.50726 83.43051 72.96888
# Shear Modulus (GPa) = 31.37695 38.51637 34.94666
#
# Velocity S-wave (km/s) = 3.44409 3.81585 3.63473
# Velocity P-wave (km/s) = 6.28060 7.13823 6.72310
#
# Compressibility (1/GPa) = 0.01599814
#
# Stress axis : x y z
#
# Youngs Moduli (GPa) = 179.34536 113.86338 45.14192
#
# Poissons Ratio (x) = 0.13884 0.09603
# Poissons Ratio (y) = 0.21869 0.31191
# Poissons Ratio (z) = 0.38151 0.78675
#
# Static dielectric constant tensor:
#      x y z
#    x 5.255720 0.000000 0.000000 
#    y 0.000000 4.931580 0.000000 
#    z 0.000000 0.000000 4.226650 
# 
# 
# High freq. dielectric constant tensor:
#      x y z
#    x 2.080810 0.000000 0.000000 
#    y 0.000000 2.074020 0.000000 
#    z 0.000000 0.000000 2.044440 
# 
# From -- ./inp_files/4933.got.cif
#   From: 2010.03.12/outbox.cif.g09.slc.cpg/sg39_3_cif.got.tgz:4933.got - 2010.04.14 02:53:20.
