data_PCOD8182866
_publ_section_title
;
Structure prediction by ZEFSAII (Michael W. Deem and Ramdas Pophale) SiO2 
 PCOD8182866
Probable space group: A M A 2
;
_chemical_formula_sum "Si O2"
_cell_formula_units_Z 64
_cell_length_a 8.673251
_cell_length_b 33.417301
_cell_length_c 11.600303
_cell_angle_alpha 90.000000
_cell_angle_beta 90.000000
_cell_angle_gamma 90.000000
_cell_volume 3362.192837
_symmetry_space_group_name_H-M "A M A 2"
_symmetry_group_IT_number 40
_symmetry_cell_setting 'orthorhombic'
loop_
_space_group_symop_operation_xyz
x,y,z
-x,-y,z
1/2-x,y,z
1/2+x,-y,z
x,1/2+y,1/2+z
-x,1/2-y,1/2+z
1/2-x,1/2+y,1/2+z
1/2+x,1/2-y,1/2+z
loop_
_atom_site_type_symbol
_atom_site_label
_atom_site_fract_x
_atom_site_fract_y
_atom_site_fract_z
Si Si1 0.069365 0.814767 0.543830
Si Si2 0.433492 0.957587 0.294174
Si Si3 0.069070 0.267676 0.491541
Si Si4 0.923255 0.886497 0.949500
Si Si5 0.069088 0.172414 0.151157
Si Si6 0.433307 0.624584 0.876927
Si Si7 0.572299 0.539737 0.533133
Si Si8 0.073953 0.682814 0.286155
O O1 0.250000 0.810264 0.519098
O O2 0.975095 0.778713 0.486074
O O3 0.004867 0.856286 0.492174
O O4 0.040867 0.813632 0.680039
O O5 0.250000 0.957740 0.306481
O O6 0.501504 0.920261 0.365171
O O7 0.490877 0.951759 0.162234
O O8 0.500000 0.000000 0.341425
O O9 0.250000 0.273036 0.472174
O O10 0.019422 0.286569 0.616062
O O11 0.976608 0.288035 0.388124
O O12 0.750000 0.901315 0.972886
O O13 0.935789 0.862893 0.829929
O O14 0.979342 0.859192 0.054515
O O15 0.033542 0.924672 0.945538
O O16 0.250000 0.181961 0.150152
O O17 0.014750 0.154013 0.272507
O O18 0.250000 0.622067 0.885293
O O19 0.500000 0.500000 0.479825
O O20 0.750000 0.532379 0.540578
O O21 0.250000 0.693315 0.250398
#
# Coordination Sequence:
#
# PCOD8182866 Si02
#       8
#     8   8   8   8   8   8   8   8
#     4  12  26  42  60  84 116 153 197 244 290 347
#     4  10  20  34  54  84 120 158 196 240 295 353
#     4  11  23  39  61  86 115 151 191 239 293 344
#     4   9  17  33  56  80 109 144 181 227 279 334
#     4   9  19  35  56  82 114 150 189 232 283 343
#     4  11  22  38  60  86 119 156 197 244 296 352
#     4  10  19  29  48  79 116 150 185 227 277 337
#     4  10  22  42  62  83 111 148 193 237 288 346
#
# _framework density 19.035197
#
# number of rings (size 3 to 8) (size 9 to 14) (size 15 to 20)
#    0.000    1.750    1.250    4.500    1.750    4.500 
#    0.000    0.000    0.000    0.750    0.000    1.750 
#    0.000    0.000    0.000    0.000    0.000    0.000 
#
# Total GULP energy -396845.352956 kJ/mol
# GULP energy per Si atom -12401.417280 kJ/mol
# Density = 1.899187 g / cm^3
# Si number density = 19.035197 Si / 1000 Ang^3
#
#
#
# Elastic Constant Matrix: (Units=GPa)
#
#
# Indices 1 2 3 4 5 6 
#
# 1 81.0317 37.2253 14.6166 0.0000 0.0000 0.0000
# 2 37.2253 121.1414 28.0826 0.0000 0.0000 0.0000
# 3 14.6166 28.0826 60.3049 0.0000 0.0000 0.0000
# 4 0.0000 0.0000 0.0000 18.4395 0.0000 0.0000
# 5 0.0000 0.0000 0.0000 0.0000 21.1983 0.0000
# 6 0.0000 0.0000 0.0000 0.0000 0.0000 36.4909
#
#
#
# Elastic Compliance Matrix: (Units=1/GPa)
#
#
# Indices 1 2 3 4 5 6 
#
# 1 0.014508 -0.004084 -0.001615 0.000000 0.000000 0.000000
# 2 -0.004084 0.010403 -0.003855 0.000000 0.000000 0.000000
# 3 -0.001615 -0.003855 0.018769 0.000000 0.000000 0.000000
# 4 0.000000 0.000000 0.000000 0.054231 0.000000 0.000000
# 5 0.000000 0.000000 0.000000 0.000000 0.047174 0.000000
# 6 0.000000 0.000000 0.000000 0.000000 0.000000 0.027404
#
#
# Mechanical properties :
#
#
# Convention : Reuss Voigt Hill
#
# Bulk Modulus (GPa) = 40.69390 46.92524 43.80957
# Shear Modulus (GPa) = 25.02661 27.39599 26.21130
#
# Velocity S-wave (km/s) = 3.62989 3.79783 3.71481
# Velocity P-wave (km/s) = 6.24442 6.62848 6.43931
#
# Compressibility (1/GPa) = 0.02457370
#
# Stress axis : x y z
#
# Youngs Moduli (GPa) = 68.92650 96.12292 53.27983
#
# Poissons Ratio (x) = 0.39256 0.08603
# Poissons Ratio (y) = 0.28149 0.20538
# Poissons Ratio (z) = 0.11129 0.37053
#
# Static dielectric constant tensor:
#      x y z
#    x 3.451470 0.000000 0.000000 
#    y 0.000000 3.783060 0.000000 
#    z 0.000000 0.000000 3.312660 
# 
# 
# High freq. dielectric constant tensor:
#      x y z
#    x 1.748410 0.000000 0.000000 
#    y 0.000000 1.744550 0.000000 
#    z 0.000000 0.000000 1.708840 
# 
# From -- ./inp_files/10629.got.cif
#   From: 2010.03.12/outbox.cif.g09.slc.cpg/sg40_6_cif.got.tgz:10629.got - 2010.04.14 01:38:03.
