data_PCOD8182330
_publ_section_title
;
Structure prediction by ZEFSAII (Michael W. Deem and Ramdas Pophale) SiO2 
 PCOD8182330
Probable space group: A M A 2
;
_chemical_formula_sum "Si O2"
_cell_formula_units_Z 40
_cell_length_a 13.805836
_cell_length_b 9.000998
_cell_length_c 17.045320
_cell_angle_alpha 90.000000
_cell_angle_beta 90.000000
_cell_angle_gamma 90.000000
_cell_volume 2118.158887
_symmetry_space_group_name_H-M "A M A 2"
_symmetry_group_IT_number 40
_symmetry_cell_setting 'orthorhombic'
loop_
_space_group_symop_operation_xyz
x,y,z
-x,-y,z
1/2-x,y,z
1/2+x,-y,z
x,1/2+y,1/2+z
-x,1/2-y,1/2+z
1/2-x,1/2+y,1/2+z
1/2+x,1/2-y,1/2+z
loop_
_atom_site_type_symbol
_atom_site_label
_atom_site_fract_x
_atom_site_fract_y
_atom_site_fract_z
Si Si1 0.500000 0.500000 0.811560
Si Si2 0.641730 0.195655 0.412104
Si Si3 0.859892 0.045059 0.896021
Si Si4 0.861289 0.751954 0.254015
Si Si5 0.358843 0.230271 0.081714
Si Si6 0.500000 0.500000 0.522493
O O1 0.566168 0.599359 0.866148
O O2 0.569159 0.395089 0.759894
O O3 0.750000 0.146155 0.388467
O O4 0.626482 0.368103 0.390076
O O5 0.624901 0.166181 0.505494
O O6 0.750000 0.087583 0.917439
O O7 0.891452 0.122558 0.814600
O O8 0.930405 0.100909 0.965849
O O9 0.750000 0.801376 0.269071
O O10 0.872162 0.686213 0.165240
O O11 0.250000 0.162819 0.075943
O O12 0.435345 0.097385 0.079910
#
# Coordination Sequence:
#
# PCOD8182330 Si02
#       6
#     4   8   8   8   8   4
#     4  12  21  32  51  78 106 132 162 210 255 298
#     4   9  19  36  55  74  99 133 169 205 248 297
#     4   9  18  33  54  75  97 131 174 210 241 292
#     4  10  20  33  51  76 103 133 169 208 251 296
#     4   9  18  32  50  72 101 134 165 203 251 296
#     4  10  15  28  51  76  98 128 168 204 245 300
#
# _framework density 18.884323999999999
#
# number of rings (size 3 to 8) (size 9 to 14) (size 15 to 20)
#    0.000    2.400    0.000    5.400    0.000    0.000 
#    0.000    3.000    0.000    0.000    0.000   25.200 
#    0.000    0.000    0.000    0.000    0.000    0.000 
#
# Total GULP energy -247808.791617 kJ/mol
# GULP energy per Si atom -12390.439581 kJ/mol
# Density = 1.884134 g / cm^3
# Si number density = 18.884324 Si / 1000 Ang^3
#
#
#
# Elastic Constant Matrix: (Units=GPa)
#
#
# Indices 1 2 3 4 5 6 
#
# 1 88.5793 19.1061 30.5757 0.0000 0.0000 0.0000
# 2 19.1061 42.9617 31.4805 0.0000 0.0000 0.0000
# 3 30.5757 31.4805 117.9218 0.0000 0.0000 0.0000
# 4 0.0000 0.0000 0.0000 25.6436 0.0000 0.0000
# 5 0.0000 0.0000 0.0000 0.0000 22.2778 0.0000
# 6 0.0000 0.0000 0.0000 0.0000 0.0000 30.8794
#
#
#
# Elastic Compliance Matrix: (Units=1/GPa)
#
#
# Indices 1 2 3 4 5 6 
#
# 1 0.012956 -0.004103 -0.002264 0.000000 0.000000 0.000000
# 2 -0.004103 0.030236 -0.007008 0.000000 0.000000 0.000000
# 3 -0.002264 -0.007008 0.010938 0.000000 0.000000 0.000000
# 4 0.000000 0.000000 0.000000 0.038996 0.000000 0.000000
# 5 0.000000 0.000000 0.000000 0.000000 0.044888 0.000000
# 6 0.000000 0.000000 0.000000 0.000000 0.000000 0.032384
#
#
# Mechanical properties :
#
#
# Convention : Reuss Voigt Hill
#
# Bulk Modulus (GPa) = 36.52239 45.75418 41.13828
# Shear Modulus (GPa) = 24.23951 26.98019 25.60985
#
# Velocity S-wave (km/s) = 3.58659 3.78393 3.68658
# Velocity P-wave (km/s) = 6.04430 6.58575 6.32082
#
# Compressibility (1/GPa) = 0.02738047
#
# Stress axis : x y z
#
# Youngs Moduli (GPa) = 77.18581 33.07270 91.42338
#
# Poissons Ratio (x) = 0.13569 0.20698
# Poissons Ratio (y) = 0.31668 0.64071
# Poissons Ratio (z) = 0.17475 0.23178
#
# Static dielectric constant tensor:
#      x y z
#    x 3.911760 0.000000 0.000000 
#    y 0.000000 3.090260 0.000000 
#    z 0.000000 0.000000 3.664390 
# 
# 
# High freq. dielectric constant tensor:
#      x y z
#    x 1.761990 0.000000 0.000000 
#    y 0.000000 1.682610 0.000000 
#    z 0.000000 0.000000 1.738710 
# 
# From -- ./inp_files/20434.got.cif
#   From: 2010.03.12/outbox.cif.g09.slc.cpg/sg40_11_cif.got.tgz:20434.got - 2010.04.14 01:38:03.
