data_PCOD8182414
_publ_section_title
;
Structure prediction by ZEFSAII (Michael W. Deem and Ramdas Pophale) SiO2 
 PCOD8182414
Probable space group: A M A 2
;
_chemical_formula_sum "Si O2"
_cell_formula_units_Z 64
_cell_length_a 18.370401
_cell_length_b 9.210285
_cell_length_c 22.593438
_cell_angle_alpha 90.000000
_cell_angle_beta 90.000000
_cell_angle_gamma 90.000000
_cell_volume 3822.733542
_symmetry_space_group_name_H-M "A M A 2"
_symmetry_group_IT_number 40
_symmetry_cell_setting 'orthorhombic'
loop_
_space_group_symop_operation_xyz
x,y,z
-x,-y,z
1/2-x,y,z
1/2+x,-y,z
x,1/2+y,1/2+z
-x,1/2-y,1/2+z
1/2-x,1/2+y,1/2+z
1/2+x,1/2-y,1/2+z
loop_
_atom_site_type_symbol
_atom_site_label
_atom_site_fract_x
_atom_site_fract_y
_atom_site_fract_z
Si Si1 0.428611 0.402982 0.686590
Si Si2 0.544752 0.854625 0.348376
Si Si3 0.461075 0.144845 0.762282
Si Si4 0.922849 0.917571 0.951401
Si Si5 0.573434 0.093384 0.055217
Si Si6 0.166318 0.668192 0.339631
Si Si7 0.833061 0.015889 0.294975
Si Si8 0.014212 0.164298 0.481541
O O1 0.500000 0.500000 0.691066
O O2 0.456385 0.243109 0.704026
O O3 0.392686 0.401462 0.620839
O O4 0.365495 0.454368 0.730190
O O5 0.504249 0.720780 0.316896
O O6 0.625840 0.878270 0.323326
O O7 0.554134 0.828440 0.418015
O O8 0.500000 0.000000 0.333379
O O9 0.379708 0.105901 0.784524
O O10 0.500000 0.000000 0.741552
O O11 0.866599 0.905074 0.898079
O O12 0.939135 0.753687 0.973640
O O13 0.000000 0.000000 0.934730
O O14 0.881387 0.006730 0.004277
O O15 0.500000 0.000000 0.059360
O O16 0.561861 0.258484 0.032500
O O17 0.250000 0.620674 0.332962
O O18 0.158562 0.843889 0.338046
O O19 0.750000 0.970587 0.286766
O O20 0.000000 0.000000 0.501832
#
# Coordination Sequence:
#
# PCOD8182414 Si02
#       8
#     8   8   8   8   8   8   8   8
#     4  10  17  35  53  69  96 132 172 208 240 295
#     4  11  16  31  51  73  98 131 169 199 250 306
#     4  11  20  29  51  75 101 132 164 207 257 301
#     4   9  16  30  47  69  95 130 165 198 243 293
#     4   8  18  29  48  71  95 129 166 207 241 283
#     4  10  18  29  47  73 103 130 163 203 250 305
#     4  10  19  31  51  77  98 128 169 214 252 294
#     4   9  16  25  47  72  99 124 157 203 249 290
#
# _framework density 16.741945000000001
#
# number of rings (size 3 to 8) (size 9 to 14) (size 15 to 20)
#    0.000    2.500    5.000    1.125    1.750    0.500 
#    0.000    1.250    0.000    0.750    0.000    0.000 
#    0.000    0.000    0.000    0.000    0.000    0.000 
#
# Total GULP energy -396484.888371 kJ/mol
# GULP energy per Si atom -12390.152762 kJ/mol
# Density = 1.670384 g / cm^3
# Si number density = 16.741945 Si / 1000 Ang^3
#
#
#
# Elastic Constant Matrix: (Units=GPa)
#
#
# Indices 1 2 3 4 5 6 
#
# 1 92.6102 30.5949 38.9651 0.0000 0.0000 0.0000
# 2 30.5949 91.5446 41.0312 0.0000 0.0000 0.0000
# 3 38.9651 41.0312 123.9413 0.0000 0.0000 0.0000
# 4 0.0000 0.0000 0.0000 13.4403 0.0000 0.0000
# 5 0.0000 0.0000 0.0000 0.0000 13.2567 0.0000
# 6 0.0000 0.0000 0.0000 0.0000 0.0000 15.9996
#
#
#
# Elastic Compliance Matrix: (Units=1/GPa)
#
#
# Indices 1 2 3 4 5 6 
#
# 1 0.013099 -0.002973 -0.003134 0.000000 0.000000 0.000000
# 2 -0.002973 0.013502 -0.003535 0.000000 0.000000 0.000000
# 3 -0.003134 -0.003535 0.010224 0.000000 0.000000 0.000000
# 4 0.000000 0.000000 0.000000 0.074403 0.000000 0.000000
# 5 0.000000 0.000000 0.000000 0.000000 0.075434 0.000000
# 6 0.000000 0.000000 0.000000 0.000000 0.000000 0.062502
#
#
# Mechanical properties :
#
#
# Convention : Reuss Voigt Hill
#
# Bulk Modulus (GPa) = 57.01144 58.80871 57.91008
# Shear Modulus (GPa) = 18.22867 21.70631 19.96749
#
# Velocity S-wave (km/s) = 3.30328 3.60463 3.45724
# Velocity P-wave (km/s) = 6.97681 7.24757 7.11348
#
# Compressibility (1/GPa) = 0.01754034
#
# Stress axis : x y z
#
# Youngs Moduli (GPa) = 76.34383 74.06453 97.81057
#
# Poissons Ratio (x) = 0.22020 0.30651
# Poissons Ratio (y) = 0.22698 0.34577
# Poissons Ratio (z) = 0.23924 0.26183
#
# Static dielectric constant tensor:
#      x y z
#    x 2.914490 0.000000 0.000000 
#    y 0.000000 3.224150 0.000000 
#    z 0.000000 0.000000 3.408700 
# 
# 
# High freq. dielectric constant tensor:
#      x y z
#    x 1.604200 0.000000 0.000000 
#    y 0.000000 1.642990 0.000000 
#    z 0.000000 0.000000 1.643180 
# 
# From -- ./inp_files/24917.got.cif
#   From: 2010.03.12/outbox.cif.g09.slc.cpg/sg40_13_cif.got.tgz:24917.got - 2010.04.14 01:38:03.
