data_PCOD8182556
_publ_section_title
;
Structure prediction by ZEFSAII (Michael W. Deem and Ramdas Pophale) SiO2 
 PCOD8182556
Probable space group: A M A 2
;
_chemical_formula_sum "Si O2"
_cell_formula_units_Z 64
_cell_length_a 8.839614
_cell_length_b 23.407049
_cell_length_c 19.141468
_cell_angle_alpha 90.000000
_cell_angle_beta 90.000000
_cell_angle_gamma 90.000000
_cell_volume 3960.547324
_symmetry_space_group_name_H-M "A M A 2"
_symmetry_group_IT_number 40
_symmetry_cell_setting 'orthorhombic'
loop_
_space_group_symop_operation_xyz
x,y,z
-x,-y,z
1/2-x,y,z
1/2+x,-y,z
x,1/2+y,1/2+z
-x,1/2-y,1/2+z
1/2-x,1/2+y,1/2+z
1/2+x,1/2-y,1/2+z
loop_
_atom_site_type_symbol
_atom_site_label
_atom_site_fract_x
_atom_site_fract_y
_atom_site_fract_z
Si Si1 0.929152 0.843417 0.539820
Si Si2 0.573400 0.759892 0.305447
Si Si3 0.572530 0.559296 0.666511
Si Si4 0.572122 0.233831 0.954907
Si Si5 0.570343 0.061854 0.451167
Si Si6 0.929028 0.117500 0.306941
Si Si7 0.571645 0.669921 0.585882
Si Si8 0.426227 0.276531 0.156298
O O1 0.750000 0.852036 0.538383
O O2 0.987173 0.792787 0.488951
O O3 0.010596 0.901183 0.516120
O O4 0.981532 0.827028 0.618197
O O5 0.750000 0.774018 0.312354
O O6 0.510818 0.728077 0.375611
O O7 0.490018 0.819434 0.296521
O O8 0.542885 0.718667 0.239516
O O9 0.500000 0.500000 0.643520
O O10 0.750000 0.550626 0.668870
O O11 0.512229 0.578799 0.742549
O O12 0.526647 0.606080 0.608083
O O13 0.750000 0.237453 0.952727
O O14 0.524537 0.180531 0.004486
O O15 0.750000 0.057805 0.453636
O O16 0.511964 0.089759 0.378796
O O17 0.500000 0.000000 0.458632
O O18 0.750000 0.121239 0.305923
O O19 0.750000 0.681354 0.597440
O O20 0.481786 0.714048 0.633819
O O21 0.250000 0.283034 0.138435
#
# Coordination Sequence:
#
# PCOD8182556 Si02
#       8
#     8   8   8   8   8   8   8   8
#     4  10  19  33  51  68  93 128 162 200 241 288
#     4  10  18  29  47  71  97 126 158 194 236 288
#     4  10  20  32  46  65  92 128 165 198 234 275
#     4   8  15  28  47  68  89 118 155 191 234 285
#     4  11  22  34  49  70  97 131 168 205 241 283
#     4  10  20  32  45  66  98 130 163 200 231 274
#     4   9  17  31  48  65  90 123 159 197 238 288
#     4  10  19  29  46  71  97 122 154 199 243 285
#
# _framework density 16.159382000000001
#
# number of rings (size 3 to 8) (size 9 to 14) (size 15 to 20)
#    0.000    2.250    2.500    2.250    0.000    2.000 
#    0.000    0.000    0.000    0.000    0.000    0.875 
#    0.000    2.000    0.000    0.000    0.000    0.000 
#
# Total GULP energy -396693.821263 kJ/mol
# GULP energy per Si atom -12396.681914 kJ/mol
# Density = 1.612260 g / cm^3
# Si number density = 16.159382 Si / 1000 Ang^3
#
#
#
# Elastic Constant Matrix: (Units=GPa)
#
#
# Indices 1 2 3 4 5 6 
#
# 1 37.9906 27.4062 25.7929 0.0000 0.0000 0.0000
# 2 27.4062 92.3908 56.8997 0.0000 0.0000 0.0000
# 3 25.7929 56.8997 114.6964 0.0000 0.0000 0.0000
# 4 0.0000 0.0000 0.0000 23.7141 0.0000 0.0000
# 5 0.0000 0.0000 0.0000 0.0000 16.6973 0.0000
# 6 0.0000 0.0000 0.0000 0.0000 0.0000 26.0648
#
#
#
# Elastic Compliance Matrix: (Units=1/GPa)
#
#
# Indices 1 2 3 4 5 6 
#
# 1 0.034646 -0.007889 -0.003877 0.000000 0.000000 0.000000
# 2 -0.007889 0.017382 -0.006849 0.000000 0.000000 0.000000
# 3 -0.003877 -0.006849 0.012988 0.000000 0.000000 0.000000
# 4 0.000000 0.000000 0.000000 0.042169 0.000000 0.000000
# 5 0.000000 0.000000 0.000000 0.000000 0.059890 0.000000
# 6 0.000000 0.000000 0.000000 0.000000 0.000000 0.038366
#
#
# Mechanical properties :
#
#
# Convention : Reuss Voigt Hill
#
# Bulk Modulus (GPa) = 35.99046 51.69728 43.84387
# Shear Modulus (GPa) = 19.84650 22.29382 21.07016
#
# Velocity S-wave (km/s) = 3.50833 3.71835 3.61487
# Velocity P-wave (km/s) = 6.22348 7.10609 6.67938
#
# Compressibility (1/GPa) = 0.02778514
#
# Stress axis : x y z
#
# Youngs Moduli (GPa) = 28.86328 57.53184 76.99279
#
# Poissons Ratio (x) = 0.45388 0.29853
# Poissons Ratio (y) = 0.22771 0.52730
# Poissons Ratio (z) = 0.11192 0.39402
#
# Static dielectric constant tensor:
#      x y z
#    x 2.970490 0.000000 0.000000 
#    y 0.000000 2.905470 0.000000 
#    z 0.000000 0.000000 3.535500 
# 
# 
# High freq. dielectric constant tensor:
#      x y z
#    x 1.616890 0.000000 0.000000 
#    y 0.000000 1.593300 0.000000 
#    z 0.000000 0.000000 1.622780 
# 
# From -- ./inp_files/19700.got.cif
#   From: 2010.03.12/outbox.cif.g09.slc.cpg/sg40_10_cif.got.tgz:19700.got - 2010.04.14 01:38:03.
