data_PCOD8182050
_publ_section_title
;
Structure prediction by ZEFSAII (Michael W. Deem and Ramdas Pophale) SiO2 
 PCOD8182050
Probable space group: A B M 2
;
_chemical_formula_sum "Si O2"
_cell_formula_units_Z 64
_cell_length_a 18.788559
_cell_length_b 17.855707
_cell_length_c 9.962700
_cell_angle_alpha 90.000000
_cell_angle_beta 90.000000
_cell_angle_gamma 90.000000
_cell_volume 3342.316528
_symmetry_space_group_name_H-M "A B M 2"
_symmetry_group_IT_number 39
_symmetry_cell_setting 'orthorhombic'
loop_
_space_group_symop_operation_xyz
x,y,z
-x,-y,z
-x,1/2+y,z
x,1/2-y,z
x,1/2+y,1/2+z
-x,1/2-y,1/2+z
-x,y,1/2+z
x,-y,1/2+z
loop_
_atom_site_type_symbol
_atom_site_label
_atom_site_fract_x
_atom_site_fract_y
_atom_site_fract_z
Si Si1 0.695993 0.931112 0.346840
Si Si2 0.697058 0.431788 0.539953
Si Si3 0.440765 0.337400 0.343321
Si Si4 0.853159 0.416827 0.461657
Si Si5 0.104606 0.835778 0.199440
Si Si6 0.148218 0.408005 0.429271
Si Si7 0.062998 0.662686 0.690647
Si Si8 0.560847 0.337375 0.539189
O O1 0.636062 0.870301 0.378174
O O2 0.772650 0.894792 0.373808
O O3 0.681296 0.999561 0.443870
O O4 0.692662 0.959383 0.193548
O O5 0.774248 0.396435 0.512147
O O6 0.638137 0.370040 0.507341
O O7 0.433527 0.250000 0.369496
O O8 0.501312 0.372143 0.440169
O O9 0.463230 0.355704 0.190839
O O10 0.861066 0.389417 0.309962
O O11 0.866537 0.505741 0.467081
O O12 0.909529 0.373771 0.553390
O O13 0.122662 0.750000 0.234185
O O14 0.020837 0.848420 0.191456
O O15 0.139877 0.856682 0.058908
O O16 0.092998 0.381472 0.317538
O O17 0.084658 0.750000 0.696361
O O18 0.568281 0.250000 0.513350
#
# Coordination Sequence:
#
# PCOD8182050 Si02
#       8
#     8   8   8   8   8   8   8   8
#     4  10  22  39  61  86 118 156 195 243 292 349
#     4  10  22  39  61  86 118 156 195 243 292 349
#     4   9  19  37  59  86 118 153 196 240 286 345
#     4  11  23  40  62  88 120 158 202 248 298 358
#     4  11  25  41  59  89 124 153 196 255 305 354
#     4  11  23  40  62  88 120 158 202 248 298 358
#     4  11  23  41  63  87 118 159 200 245 303 364
#     4   9  19  37  59  86 118 153 196 240 286 345
#
# _framework density 19.148396999999999
#
# number of rings (size 3 to 8) (size 9 to 14) (size 15 to 20)
#    0.000    1.750    1.250    2.250    5.250    8.500 
#    0.000    2.500    0.000    0.000    0.000    0.000 
#    0.000    0.000    0.000    0.000    0.000    0.000 
#
# Total GULP energy -396929.646280 kJ/mol
# GULP energy per Si atom -12404.051446 kJ/mol
# Density = 1.910481 g / cm^3
# Si number density = 19.148397 Si / 1000 Ang^3
#
#
#
# Elastic Constant Matrix: (Units=GPa)
#
#
# Indices 1 2 3 4 5 6 
#
# 1 104.3514 54.8177 56.0108 0.0000 0.0000 0.0000
# 2 54.8177 62.4131 29.8348 0.0000 0.0000 0.0000
# 3 56.0108 29.8348 112.9290 0.0000 0.0000 0.0000
# 4 0.0000 0.0000 0.0000 27.4689 0.0000 0.0000
# 5 0.0000 0.0000 0.0000 0.0000 38.8880 0.0000
# 6 0.0000 0.0000 0.0000 0.0000 0.0000 28.8463
#
#
#
# Elastic Compliance Matrix: (Units=1/GPa)
#
#
# Indices 1 2 3 4 5 6 
#
# 1 0.021186 -0.015549 -0.006400 0.000000 0.000000 0.000000
# 2 -0.015549 0.029749 -0.000148 0.000000 0.000000 0.000000
# 3 -0.006400 -0.000148 0.012069 0.000000 0.000000 0.000000
# 4 0.000000 0.000000 0.000000 0.036405 0.000000 0.000000
# 5 0.000000 0.000000 0.000000 0.000000 0.025715 0.000000
# 6 0.000000 0.000000 0.000000 0.000000 0.000000 0.034666
#
#
# Mechanical properties :
#
#
# Convention : Reuss Voigt Hill
#
# Bulk Modulus (GPa) = 53.15998 62.33555 57.74777
# Shear Modulus (GPa) = 23.78081 28.30932 26.04507
#
# Velocity S-wave (km/s) = 3.52791 3.84919 3.69205
# Velocity P-wave (km/s) = 6.66463 7.23738 6.95690
#
# Compressibility (1/GPa) = 0.01881114
#
# Stress axis : x y z
#
# Youngs Moduli (GPa) = 47.20033 33.61431 82.86004
#
# Poissons Ratio (x) = 0.52265 0.53032
# Poissons Ratio (y) = 0.73390 0.01224
# Poissons Ratio (z) = 0.30209 0.00496
#
# Static dielectric constant tensor:
#      x y z
#    x 3.670660 0.000000 0.000000 
#    y 0.000000 3.441070 0.000000 
#    z 0.000000 0.000000 3.751850 
# 
# 
# High freq. dielectric constant tensor:
#      x y z
#    x 1.753300 0.000000 0.000000 
#    y 0.000000 1.740830 0.000000 
#    z 0.000000 0.000000 1.761330 
# 
# From -- ./inp_files/3870.got.cif
#   From: 2010.03.12/outbox.cif.g09.slc.cpg/sg39_2_cif.got.tgz:3870.got - 2010.04.14 02:53:20.
