data_PCOD8182038
_publ_section_title
;
Structure prediction by ZEFSAII (Michael W. Deem and Ramdas Pophale) SiO2 
 PCOD8182038
Probable space group: A B M 2
;
_chemical_formula_sum "Si O2"
_cell_formula_units_Z 56
_cell_length_a 14.822938
_cell_length_b 20.131874
_cell_length_c 8.874755
_cell_angle_alpha 90.000000
_cell_angle_beta 90.000000
_cell_angle_gamma 90.000000
_cell_volume 2648.346880
_symmetry_space_group_name_H-M "A B M 2"
_symmetry_group_IT_number 39
_symmetry_cell_setting 'orthorhombic'
loop_
_space_group_symop_operation_xyz
x,y,z
-x,-y,z
-x,1/2+y,z
x,1/2-y,z
x,1/2+y,1/2+z
-x,1/2-y,1/2+z
-x,y,1/2+z
x,-y,1/2+z
loop_
_atom_site_type_symbol
_atom_site_label
_atom_site_fract_x
_atom_site_fract_y
_atom_site_fract_z
Si Si1 0.944065 0.824668 0.336580
Si Si2 0.119904 0.174414 0.003702
Si Si3 0.209246 0.920239 0.918844
Si Si4 0.769747 0.451022 0.572294
Si Si5 0.497550 0.637587 0.244014
Si Si6 0.631799 0.821630 0.496295
Si Si7 0.572373 0.946008 0.996993
O O1 0.921914 0.750000 0.389390
O O2 0.876019 0.871879 0.425327
O O3 0.048132 0.841383 0.372947
O O4 0.933874 0.833300 0.158914
O O5 0.160020 0.250000 0.988507
O O6 0.197538 0.118291 0.996088
O O7 0.230711 0.944936 0.750861
O O8 0.297233 0.881455 0.981371
O O9 0.176381 0.983016 0.020188
O O10 0.673423 0.472161 0.503309
O O11 0.556135 0.678214 0.364646
O O12 0.449779 0.576276 0.328047
O O13 0.417809 0.677125 0.158908
O O14 0.567200 0.613734 0.116518
O O15 0.681311 0.750000 0.484196
O O16 0.500000 0.000000 0.048978
#
# Coordination Sequence:
#
# PCOD8182038 Si02
#       7
#     8   8   8   8   8   8   8
#     4   9  19  40  66  92 120 158 205 251 315 386
#     4   9  20  41  67  92 121 160 204 257 321 380
#     4  11  24  39  61  90 126 167 205 257 317 374
#     4  11  24  40  60  93 127 162 212 260 308 378
#     4  10  22  38  58  87 115 160 212 258 314 369
#     4  11  22  41  61  87 123 162 211 263 317 375
#     4  11  22  37  61  87 124 168 208 257 311 368
#
# _framework density 21.145264999999998
#
# number of rings (size 3 to 8) (size 9 to 14) (size 15 to 20)
#    0.000    1.714    1.429    3.000    4.000    2.286 
#    0.000    4.286    0.000    0.000    0.000    0.000 
#    0.000    0.000    0.000    0.000    0.000    0.000 
#
# Total GULP energy -347065.852334 kJ/mol
# GULP energy per Si atom -12395.209012 kJ/mol
# Density = 2.109714 g / cm^3
# Si number density = 21.145265 Si / 1000 Ang^3
#
#
#
# Elastic Constant Matrix: (Units=GPa)
#
#
# Indices 1 2 3 4 5 6 
#
# 1 74.1955 43.3460 17.2899 0.0000 0.0000 0.0000
# 2 43.3460 137.9826 31.6146 0.0000 0.0000 0.0000
# 3 17.2899 31.6146 61.7585 0.0000 0.0000 0.0000
# 4 0.0000 0.0000 0.0000 24.3257 0.0000 0.0000
# 5 0.0000 0.0000 0.0000 0.0000 27.2182 0.0000
# 6 0.0000 0.0000 0.0000 0.0000 0.0000 36.9536
#
#
#
# Elastic Compliance Matrix: (Units=1/GPa)
#
#
# Indices 1 2 3 4 5 6 
#
# 1 0.016783 -0.004753 -0.002265 0.000000 0.000000 0.000000
# 2 -0.004753 0.009556 -0.003561 0.000000 0.000000 0.000000
# 3 -0.002265 -0.003561 0.018649 0.000000 0.000000 0.000000
# 4 0.000000 0.000000 0.000000 0.041109 0.000000 0.000000
# 5 0.000000 0.000000 0.000000 0.000000 0.036740 0.000000
# 6 0.000000 0.000000 0.000000 0.000000 0.000000 0.027061
#
#
# Mechanical properties :
#
#
# Convention : Reuss Voigt Hill
#
# Bulk Modulus (GPa) = 41.96581 50.93752 46.45167
# Shear Modulus (GPa) = 27.93285 29.81190 28.87237
#
# Velocity S-wave (km/s) = 3.63850 3.75889 3.69918
# Velocity P-wave (km/s) = 6.12708 6.55596 6.34514
#
# Compressibility (1/GPa) = 0.02382892
#
# Stress axis : x y z
#
# Youngs Moduli (GPa) = 59.58550 104.64197 53.62116
#
# Poissons Ratio (x) = 0.49737 0.12147
# Poissons Ratio (y) = 0.28321 0.19096
# Poissons Ratio (z) = 0.13498 0.37266
#
# Static dielectric constant tensor:
#      x y z
#    x 3.625470 0.000000 0.000000 
#    y 0.000000 3.979280 0.000000 
#    z 0.000000 0.000000 3.791920 
# 
# 
# High freq. dielectric constant tensor:
#      x y z
#    x 1.809880 0.000000 0.000000 
#    y 0.000000 1.836390 0.000000 
#    z 0.000000 0.000000 1.832300 
# 
# From -- ./inp_files/3391.got.cif
#   From: 2010.03.12/outbox.cif.g09.slc.cpg/sg39_2_cif.got.tgz:3391.got - 2010.04.14 02:53:20.
