data_PCOD8182398
_publ_section_title
;
Structure prediction by ZEFSAII (Michael W. Deem and Ramdas Pophale) SiO2 
 PCOD8182398
Probable space group: A M A 2
;
_chemical_formula_sum "Si O2"
_cell_formula_units_Z 64
_cell_length_a 20.577026
_cell_length_b 9.426246
_cell_length_c 18.648839
_cell_angle_alpha 90.000000
_cell_angle_beta 90.000000
_cell_angle_gamma 90.000000
_cell_volume 3617.205441
_symmetry_space_group_name_H-M "A M A 2"
_symmetry_group_IT_number 40
_symmetry_cell_setting 'orthorhombic'
loop_
_space_group_symop_operation_xyz
x,y,z
-x,-y,z
1/2-x,y,z
1/2+x,-y,z
x,1/2+y,1/2+z
-x,1/2-y,1/2+z
1/2-x,1/2+y,1/2+z
1/2+x,1/2-y,1/2+z
loop_
_atom_site_type_symbol
_atom_site_label
_atom_site_fract_x
_atom_site_fract_y
_atom_site_fract_z
Si Si1 0.002802 0.171624 0.891700
Si Si2 0.375181 0.700071 0.303605
Si Si3 0.821251 0.999575 0.295785
Si Si4 0.956191 0.859651 0.512592
Si Si5 0.822401 0.595062 0.324907
Si Si6 0.971297 0.346634 0.177981
Si Si7 0.322844 0.673083 0.937181
Si Si8 0.579985 0.277446 0.762307
O O1 0.989436 0.227192 0.971731
O O2 0.952380 0.253414 0.840349
O O3 0.072862 0.225119 0.866351
O O4 0.000000 0.000000 0.885765
O O5 0.328804 0.832901 0.294683
O O6 0.330569 0.572108 0.331138
O O7 0.408060 0.671091 0.226725
O O8 0.750000 0.964469 0.261816
O O9 0.822712 0.946584 0.376815
O O10 0.882096 0.927119 0.254202
O O11 0.954607 0.821622 0.595944
O O12 0.879867 0.872453 0.492068
O O13 0.000000 0.000000 0.497597
O O14 0.750000 0.635998 0.303182
O O15 0.838757 0.673365 0.400794
O O16 0.866007 0.653362 0.259107
O O17 0.000000 0.500000 0.194942
O O18 0.027061 0.232793 0.199593
O O19 0.250000 0.677176 0.973332
#
# Coordination Sequence:
#
# PCOD8182398 Si02
#       8
#     8   8   8   8   8   8   8   8
#     4  11  19  32  55  81 106 136 176 228 270 322
#     4  11  19  33  52  81 111 134 174 235 275 305
#     4  10  20  32  53  82 110 135 180 224 266 325
#     4  11  21  35  55  81 109 149 185 222 273 335
#     4  10  17  30  58  81 102 136 177 216 270 323
#     4  10  21  35  54  77 112 138 181 232 267 322
#     4   9  18  35  55  81 110 142 178 222 271 332
#     4  10  17  35  54  76 105 141 174 222 273 310
#
# _framework density 17.693216
#
# number of rings (size 3 to 8) (size 9 to 14) (size 15 to 20)
#    0.000    1.750    5.000    3.000    0.000    1.500 
#    2.250    1.250    0.000    0.000    0.000    0.000 
#    0.000    0.000    0.000    0.000    0.000    0.000 
#
# Total GULP energy -396514.513240 kJ/mol
# GULP energy per Si atom -12391.078539 kJ/mol
# Density = 1.765295 g / cm^3
# Si number density = 17.693216 Si / 1000 Ang^3
#
#
#
# Elastic Constant Matrix: (Units=GPa)
#
#
# Indices 1 2 3 4 5 6 
#
# 1 107.1015 34.1486 39.9185 0.0000 0.0000 0.0000
# 2 34.1486 104.8865 27.7466 0.0000 0.0000 0.0000
# 3 39.9185 27.7466 87.5459 0.0000 0.0000 0.0000
# 4 0.0000 0.0000 0.0000 13.7326 0.0000 0.0000
# 5 0.0000 0.0000 0.0000 0.0000 19.1126 0.0000
# 6 0.0000 0.0000 0.0000 0.0000 0.0000 26.8164
#
#
#
# Elastic Compliance Matrix: (Units=1/GPa)
#
#
# Indices 1 2 3 4 5 6 
#
# 1 0.011892 -0.002660 -0.004579 0.000000 0.000000 0.000000
# 2 -0.002660 0.011002 -0.002274 0.000000 0.000000 0.000000
# 3 -0.004579 -0.002274 0.014231 0.000000 0.000000 0.000000
# 4 0.000000 0.000000 0.000000 0.072820 0.000000 0.000000
# 5 0.000000 0.000000 0.000000 0.000000 0.052322 0.000000
# 6 0.000000 0.000000 0.000000 0.000000 0.000000 0.037291
#
#
# Mechanical properties :
#
#
# Convention : Reuss Voigt Hill
#
# Bulk Modulus (GPa) = 55.25432 55.90682 55.58057
# Shear Modulus (GPa) = 22.26018 25.11364 23.68691
#
# Velocity S-wave (km/s) = 3.55085 3.77157 3.66287
# Velocity P-wave (km/s) = 6.93601 7.11567 7.02642
#
# Compressibility (1/GPa) = 0.01809813
#
# Stress axis : x y z
#
# Youngs Moduli (GPa) = 84.09063 90.89434 70.26788
#
# Poissons Ratio (x) = 0.24181 0.32177
# Poissons Ratio (y) = 0.22371 0.15978
# Poissons Ratio (z) = 0.38507 0.20668
#
# Static dielectric constant tensor:
#      x y z
#    x 3.835930 0.000000 0.000000 
#    y 0.000000 3.290090 0.000000 
#    z 0.000000 0.000000 2.907340 
# 
# 
# High freq. dielectric constant tensor:
#      x y z
#    x 1.706890 0.000000 0.000000 
#    y 0.000000 1.685210 0.000000 
#    z 0.000000 0.000000 1.635970 
# 
# From -- ./inp_files/21534.got.cif
#   From: 2010.03.12/outbox.cif.g09.slc.cpg/sg40_11_cif.got.tgz:21534.got - 2010.04.14 01:38:03.
