data_PCOD8182322
_publ_section_title
;
Structure prediction by ZEFSAII (Michael W. Deem and Ramdas Pophale) SiO2 
 PCOD8182322
Probable space group: A B M 2
;
_chemical_formula_sum "Si O2"
_cell_formula_units_Z 40
_cell_length_a 8.375018
_cell_length_b 24.536070
_cell_length_c 7.957183
_cell_angle_alpha 90.000000
_cell_angle_beta 90.000000
_cell_angle_gamma 90.000000
_cell_volume 1635.121757
_symmetry_space_group_name_H-M "A B M 2"
_symmetry_group_IT_number 39
_symmetry_cell_setting 'orthorhombic'
loop_
_space_group_symop_operation_xyz
x,y,z
-x,-y,z
-x,1/2+y,z
x,1/2-y,z
x,1/2+y,1/2+z
-x,1/2-y,1/2+z
-x,y,1/2+z
x,-y,1/2+z
loop_
_atom_site_type_symbol
_atom_site_label
_atom_site_fract_x
_atom_site_fract_y
_atom_site_fract_z
Si Si1 0.388228 0.250000 0.095990
Si Si2 0.902320 0.356980 0.089232
Si Si3 0.847520 0.537235 0.804686
Si Si4 0.355450 0.034533 0.105089
Si Si5 0.268691 0.750000 0.213432
Si Si6 0.759230 0.142473 0.717045
O O1 0.579841 0.250000 0.089527
O O2 0.334305 0.301379 0.205808
O O3 0.320120 0.250000 0.908108
O O4 0.850697 0.407338 0.202949
O O5 0.838093 0.302382 0.174770
O O6 0.094908 0.354902 0.083158
O O7 0.835592 0.366549 0.901818
O O8 0.688506 0.505271 0.755108
O O9 0.000000 0.500000 0.778376
O O10 0.807937 0.545033 0.999551
O O11 0.377521 0.096110 0.178670
O O12 0.500000 0.000000 0.017067
#
# Coordination Sequence:
#
# PCOD8182322 Si02
#       6
#     4   8   8   8   4   8
#     4  12  27  50  77 112 154 196 248 312 389 456
#     4  12  26  48  80 110 149 198 257 316 376 454
#     4  12  25  46  74 109 148 200 258 314 377 456
#     4  12  27  46  72 109 155 200 253 315 387 456
#     4  12  27  50  79 112 152 198 250 314 383 456
#     4  12  26  49  77 112 151 198 255 314 382 456
#
# _framework density 24.463007999999999
#
# number of rings (size 3 to 8) (size 9 to 14) (size 15 to 20)
#    0.000    0.000    2.000    8.400    2.800    0.000 
#    3.600    1.000    0.000    0.000    0.000    0.000 
#    0.000    0.000    0.000    0.000    0.000    0.000 
#
# Total GULP energy -247817.519426 kJ/mol
# GULP energy per Si atom -12390.875971 kJ/mol
# Density = 2.440733 g / cm^3
# Si number density = 24.463008 Si / 1000 Ang^3
#
#
#
# Elastic Constant Matrix: (Units=GPa)
#
#
# Indices 1 2 3 4 5 6 
#
# 1 112.3133 73.3645 23.8540 0.0000 0.0000 0.0000
# 2 73.3645 234.5440 42.2947 0.0000 0.0000 0.0000
# 3 23.8540 42.2947 94.7798 0.0000 0.0000 0.0000
# 4 0.0000 0.0000 0.0000 36.6493 0.0000 0.0000
# 5 0.0000 0.0000 0.0000 0.0000 46.8265 0.0000
# 6 0.0000 0.0000 0.0000 0.0000 0.0000 41.9234
#
#
#
# Elastic Compliance Matrix: (Units=1/GPa)
#
#
# Indices 1 2 3 4 5 6 
#
# 1 0.011355 -0.003302 -0.001384 0.000000 0.000000 0.000000
# 2 -0.003302 0.005597 -0.001667 0.000000 0.000000 0.000000
# 3 -0.001384 -0.001667 0.011643 0.000000 0.000000 0.000000
# 4 0.000000 0.000000 0.000000 0.027286 0.000000 0.000000
# 5 0.000000 0.000000 0.000000 0.000000 0.021355 0.000000
# 6 0.000000 0.000000 0.000000 0.000000 0.000000 0.023853
#
#
# Mechanical properties :
#
#
# Convention : Reuss Voigt Hill
#
# Bulk Modulus (GPa) = 62.93740 80.07372 71.50556
# Shear Modulus (GPa) = 41.98490 45.22143 43.60316
#
# Velocity S-wave (km/s) = 4.14727 4.30416 4.22644
# Velocity P-wave (km/s) = 6.97973 7.58318 7.28770
#
# Compressibility (1/GPa) = 0.01588880
#
# Stress axis : x y z
#
# Youngs Moduli (GPa) = 88.06997 178.66744 85.88984
#
# Poissons Ratio (x) = 0.58997 0.11889
# Poissons Ratio (y) = 0.29081 0.14314
# Poissons Ratio (z) = 0.12191 0.29776
#
# Static dielectric constant tensor:
#      x y z
#    x 4.288930 0.000000 0.000000 
#    y 0.000000 4.662430 0.000000 
#    z 0.000000 0.000000 4.443070 
# 
# 
# High freq. dielectric constant tensor:
#      x y z
#    x 1.971350 0.000000 0.000000 
#    y 0.000000 1.995570 0.000000 
#    z 0.000000 0.000000 1.985720 
# 
# From -- ./inp_files/2138.got.cif
#   From: 2010.03.12/outbox.cif.g09.slc.cpg/sg39_2_cif.got.tgz:2138.got - 2010.04.14 02:53:20.
