data_PCOD8182012
_publ_section_title
;
Structure prediction by ZEFSAII (Michael W. Deem and Ramdas Pophale) SiO2 
 PCOD8182012
Probable space group: A B M 2
;
_chemical_formula_sum "Si O2"
_cell_formula_units_Z 64
_cell_length_a 10.892483
_cell_length_b 30.127340
_cell_length_c 9.155145
_cell_angle_alpha 90.000000
_cell_angle_beta 90.000000
_cell_angle_gamma 90.000000
_cell_volume 3004.366471
_symmetry_space_group_name_H-M "A B M 2"
_symmetry_group_IT_number 39
_symmetry_cell_setting 'orthorhombic'
loop_
_space_group_symop_operation_xyz
x,y,z
-x,-y,z
-x,1/2+y,z
x,1/2-y,z
x,1/2+y,1/2+z
-x,1/2-y,1/2+z
-x,y,1/2+z
x,-y,1/2+z
loop_
_atom_site_type_symbol
_atom_site_label
_atom_site_fract_x
_atom_site_fract_y
_atom_site_fract_z
Si Si1 0.639071 0.913089 0.644570
Si Si2 0.427047 0.153021 0.139830
Si Si3 0.266562 0.095208 0.960520
Si Si4 0.262155 0.997888 0.589777
Si Si5 0.612087 0.199428 0.946390
Si Si6 0.979154 0.378606 0.337952
Si Si7 0.891833 0.968041 0.343030
Si Si8 0.835117 0.650140 0.556771
O O1 0.508856 0.891100 0.614924
O O2 0.669271 0.897156 0.806876
O O3 0.749739 0.893885 0.542656
O O4 0.629723 0.965699 0.613359
O O5 0.399346 0.167568 0.305094
O O6 0.300732 0.136364 0.067059
O O7 0.494454 0.192505 0.051850
O O8 0.119546 0.097984 0.944846
O O9 0.307700 0.045981 0.007927
O O10 0.225967 0.982219 0.750428
O O11 0.147957 0.023202 0.510712
O O12 0.613032 0.250000 0.893102
O O13 0.737644 0.190514 0.039029
O O14 0.911988 0.351390 0.208872
O O15 0.070266 0.418517 0.293232
O O16 0.064420 0.344828 0.428873
O O17 0.000000 0.000000 0.297404
#
# Coordination Sequence:
#
# PCOD8182012 Si02
#       8
#     8   8   8   8   8   8   8   8
#     4  10  21  43  58  95 134 173 229 286 318 382
#     4  11  24  45  74  96 130 170 218 278 350 407
#     4  11  23  39  61  94 134 178 229 271 328 386
#     4  12  22  35  57  90 132 179 232 276 316 362
#     4  11  25  48  77 103 126 159 217 282 344 422
#     4  11  22  39  62  95 137 180 220 267 326 389
#     4  12  22  33  55  89 127 176 231 275 304 365
#     4  10  23  39  67  97 133 173 214 263 335 395
#
# _framework density 21.302326999999998
#
# number of rings (size 3 to 8) (size 9 to 14) (size 15 to 20)
#    0.000    1.000    5.000    2.250    3.500    0.500 
#    0.000    1.875    0.000    0.000    0.000    0.000 
#    0.000    0.000    0.000    0.000    0.000    0.000 
#
# Total GULP energy -396586.414397 kJ/mol
# GULP energy per Si atom -12393.325450 kJ/mol
# Density = 2.125384 g / cm^3
# Si number density = 21.302327 Si / 1000 Ang^3
#
#
#
# Elastic Constant Matrix: (Units=GPa)
#
#
# Indices 1 2 3 4 5 6 
#
# 1 57.8188 40.3435 32.2897 0.0000 0.0000 0.0000
# 2 40.3435 95.4925 29.8749 0.0000 0.0000 0.0000
# 3 32.2897 29.8749 91.0982 0.0000 0.0000 0.0000
# 4 0.0000 0.0000 0.0000 23.7583 0.0000 0.0000
# 5 0.0000 0.0000 0.0000 0.0000 30.8066 0.0000
# 6 0.0000 0.0000 0.0000 0.0000 0.0000 20.4645
#
#
#
# Elastic Compliance Matrix: (Units=1/GPa)
#
#
# Indices 1 2 3 4 5 6 
#
# 1 0.027745 -0.009633 -0.006675 0.000000 0.000000 0.000000
# 2 -0.009633 0.015014 -0.001509 0.000000 0.000000 0.000000
# 3 -0.006675 -0.001509 0.013838 0.000000 0.000000 0.000000
# 4 0.000000 0.000000 0.000000 0.042091 0.000000 0.000000
# 5 0.000000 0.000000 0.000000 0.000000 0.032461 0.000000
# 6 0.000000 0.000000 0.000000 0.000000 0.000000 0.048865
#
#
# Mechanical properties :
#
#
# Convention : Reuss Voigt Hill
#
# Bulk Modulus (GPa) = 47.70552 49.93617 48.82085
# Shear Modulus (GPa) = 22.45823 24.46598 23.46211
#
# Velocity S-wave (km/s) = 3.25046 3.39265 3.32232
# Velocity P-wave (km/s) = 6.04404 6.23212 6.13880
#
# Compressibility (1/GPa) = 0.02096193
#
# Stress axis : x y z
#
# Youngs Moduli (GPa) = 36.04271 66.60428 72.26455
#
# Poissons Ratio (x) = 0.64162 0.48237
# Poissons Ratio (y) = 0.34721 0.10906
# Poissons Ratio (z) = 0.24058 0.10052
#
# Static dielectric constant tensor:
#      x y z
#    x 3.801650 0.000000 0.000000 
#    y 0.000000 3.506110 0.000000 
#    z 0.000000 0.000000 3.856350 
# 
# 
# High freq. dielectric constant tensor:
#      x y z
#    x 1.831430 0.000000 0.000000 
#    y 0.000000 1.801690 0.000000 
#    z 0.000000 0.000000 1.842510 
# 
# From -- ./inp_files/2923.got.cif
#   From: 2010.03.12/outbox.cif.g09.slc.cpg/sg39_2_cif.got.tgz:2923.got - 2010.04.14 02:53:20.
