data_PCOD8182475
_publ_section_title
;
Structure prediction by ZEFSAII (Michael W. Deem and Ramdas Pophale) SiO2 
 PCOD8182475
Probable space group: A M A 2
;
_chemical_formula_sum "Si O2"
_cell_formula_units_Z 64
_cell_length_a 8.764197
_cell_length_b 18.539652
_cell_length_c 26.569466
_cell_angle_alpha 90.000000
_cell_angle_beta 90.000000
_cell_angle_gamma 90.000000
_cell_volume 4317.143999
_symmetry_space_group_name_H-M "A M A 2"
_symmetry_group_IT_number 40
_symmetry_cell_setting 'orthorhombic'
loop_
_space_group_symop_operation_xyz
x,y,z
-x,-y,z
1/2-x,y,z
1/2+x,-y,z
x,1/2+y,1/2+z
-x,1/2-y,1/2+z
1/2-x,1/2+y,1/2+z
1/2+x,1/2-y,1/2+z
loop_
_atom_site_type_symbol
_atom_site_label
_atom_site_fract_x
_atom_site_fract_y
_atom_site_fract_z
Si Si1 0.071609 0.793805 0.203050
Si Si2 0.931340 0.421465 0.650519
Si Si3 0.069534 0.575486 0.456611
Si Si4 0.069215 0.076672 0.843040
Si Si5 0.575917 0.575284 0.162460
Si Si6 0.431220 0.831818 0.757481
Si Si7 0.927025 0.841360 0.050320
Si Si8 0.074420 0.784853 0.613543
O O1 0.250000 0.803685 0.213193
O O2 0.993273 0.872082 0.196463
O O3 0.996422 0.748808 0.248939
O O4 0.043274 0.748344 0.152698
O O5 0.750000 0.424624 0.653216
O O6 0.990504 0.387887 0.597406
O O7 0.000000 0.500000 0.657172
O O8 0.250000 0.568716 0.458424
O O9 0.018580 0.595713 0.400107
O O10 0.003125 0.634440 0.496539
O O11 0.000000 0.500000 0.473694
O O12 0.250000 0.073143 0.836340
O O13 0.999722 0.139622 0.809360
O O14 0.000000 0.000000 0.826372
O O15 0.500000 0.500000 0.150225
O O16 0.750000 0.556999 0.171573
O O17 0.512984 0.614824 0.212526
O O18 0.551521 0.628493 0.113875
O O19 0.250000 0.828124 0.760350
O O20 0.750000 0.858051 0.046799
O O21 0.956625 0.755237 0.060091
O O22 0.250000 0.767646 0.631059
#
# Coordination Sequence:
#
# PCOD8182475 Si02
#       8
#     8   8   8   8   8   8   8   8
#     4  10  18  28  42  60  81 105 134 168 206 245
#     4  10  18  28  42  61  85 112 142 172 203 240
#     4   9  17  28  41  58  80 106 136 171 206 239
#     4  10  19  29  41  59  82 107 137 172 208 244
#     4   9  17  26  38  56  77 102 131 163 196 235
#     4  10  19  31  44  57  77 107 140 170 204 244
#     4   8  14  26  43  58  77 108 141 171 203 240
#     4   8  15  28  41  55  78 107 137 167 201 241
#
# _framework density 14.824616000000001
#
# number of rings (size 3 to 8) (size 9 to 14) (size 15 to 20)
#    0.000    2.750    0.000    4.500    0.000    4.000 
#    0.000    2.500    0.000    0.000    0.000    0.000 
#    0.000    1.000    0.000    6.500    0.000    2.125 
#
# Total GULP energy -396495.867167 kJ/mol
# GULP energy per Si atom -12390.495849 kJ/mol
# Density = 1.479087 g / cm^3
# Si number density = 14.824616 Si / 1000 Ang^3
#
#
#
# Elastic Constant Matrix: (Units=GPa)
#
#
# Indices 1 2 3 4 5 6 
#
# 1 55.0449 32.7881 23.0257 0.0000 0.0000 0.0000
# 2 32.7881 116.0475 56.9174 0.0000 0.0000 0.0000
# 3 23.0257 56.9174 81.5172 0.0000 0.0000 0.0000
# 4 0.0000 0.0000 0.0000 26.8853 0.0000 0.0000
# 5 0.0000 0.0000 0.0000 0.0000 11.0425 0.0000
# 6 0.0000 0.0000 0.0000 0.0000 0.0000 25.1095
#
#
#
# Elastic Compliance Matrix: (Units=1/GPa)
#
#
# Indices 1 2 3 4 5 6 
#
# 1 0.022281 -0.004880 -0.002887 0.000000 0.000000 0.000000
# 2 -0.004880 0.014174 -0.008518 0.000000 0.000000 0.000000
# 3 -0.002887 -0.008518 0.019030 0.000000 0.000000 0.000000
# 4 0.000000 0.000000 0.000000 0.037195 0.000000 0.000000
# 5 0.000000 0.000000 0.000000 0.000000 0.090559 0.000000
# 6 0.000000 0.000000 0.000000 0.000000 0.000000 0.039825
#
#
# Mechanical properties :
#
#
# Convention : Reuss Voigt Hill
#
# Bulk Modulus (GPa) = 43.63666 53.11909 48.37788
# Shear Modulus (GPa) = 18.99175 21.93270 20.46222
#
# Velocity S-wave (km/s) = 3.58312 3.85057 3.71925
# Velocity P-wave (km/s) = 6.82770 7.46181 7.15179
#
# Compressibility (1/GPa) = 0.02291651
#
# Stress axis : x y z
#
# Youngs Moduli (GPa) = 44.88127 70.55327 52.54777
#
# Poissons Ratio (x) = 0.34427 0.15168
# Poissons Ratio (y) = 0.21900 0.44761
# Poissons Ratio (z) = 0.12955 0.60098
#
# Static dielectric constant tensor:
#      x y z
#    x 2.802650 0.000000 0.000000 
#    y 0.000000 3.017660 0.000000 
#    z 0.000000 0.000000 2.909210 
# 
# 
# High freq. dielectric constant tensor:
#      x y z
#    x 1.567430 0.000000 0.000000 
#    y 0.000000 1.559440 0.000000 
#    z 0.000000 0.000000 1.533400 
# 
# From -- ./inp_files/24420.got.cif
#   From: 2010.03.12/outbox.cif.g09.slc.cpg/sg40_13_cif.got.tgz:24420.got - 2010.04.14 01:38:03.
