data_PCOD8182672
_publ_section_title
;
Structure prediction by ZEFSAII (Michael W. Deem and Ramdas Pophale) SiO2 
 PCOD8182672
Probable space group: A M A 2
;
_chemical_formula_sum "Si O2"
_cell_formula_units_Z 64
_cell_length_a 17.491305
_cell_length_b 9.187625
_cell_length_c 22.118071
_cell_angle_alpha 90.000000
_cell_angle_beta 90.000000
_cell_angle_gamma 90.000000
_cell_volume 3554.452553
_symmetry_space_group_name_H-M "A M A 2"
_symmetry_group_IT_number 40
_symmetry_cell_setting 'orthorhombic'
loop_
_space_group_symop_operation_xyz
x,y,z
-x,-y,z
1/2-x,y,z
1/2+x,-y,z
x,1/2+y,1/2+z
-x,1/2-y,1/2+z
1/2-x,1/2+y,1/2+z
1/2+x,1/2-y,1/2+z
loop_
_atom_site_type_symbol
_atom_site_label
_atom_site_fract_x
_atom_site_fract_y
_atom_site_fract_z
Si Si1 0.577639 0.411442 0.716610
Si Si2 0.336011 0.326252 0.372716
Si Si3 0.040819 0.361118 0.287801
Si Si4 0.921903 0.913621 0.080758
Si Si5 0.509266 0.830940 0.517406
Si Si6 0.661551 0.491757 0.832995
Si Si7 0.465515 0.346524 0.879828
Si Si8 0.839042 0.652993 0.511463
O O1 0.500000 0.500000 0.718228
O O2 0.563205 0.243711 0.733331
O O3 0.610900 0.406426 0.648812
O O4 0.637073 0.486764 0.762425
O O5 0.250000 0.341348 0.350333
O O6 0.385823 0.419384 0.325602
O O7 0.347581 0.378921 0.440602
O O8 0.363625 0.158051 0.366389
O O9 0.000000 0.500000 0.258297
O O10 0.986155 0.284417 0.336231
O O11 0.943429 0.754722 0.054452
O O12 0.857059 0.998521 0.042822
O O13 0.000000 0.000000 0.077300
O O14 0.490555 0.807040 0.447101
O O15 0.596906 0.774656 0.530778
O O16 0.500000 0.000000 0.535395
O O17 0.750000 0.519719 0.836401
O O18 0.625122 0.624734 0.871301
O O19 0.500000 0.500000 0.855448
O O20 0.750000 0.701402 0.525766
#
# Coordination Sequence:
#
# PCOD8182672 Si02
#       8
#     8   8   8   8   8   8   8   8
#     4  10  18  37  55  74 103 140 187 227 261 330
#     4   9  17  30  49  76 108 138 172 216 273 330
#     4  11  20  29  53  80 105 143 173 224 278 329
#     4   9  21  35  55  78 104 144 192 230 272 335
#     4  10  20  34  56  82 113 154 183 236 285 346
#     4  10  18  31  55  81 103 138 182 230 278 323
#     4  11  17  33  52  76 110 139 184 224 271 332
#     4  10  19  34  54  80 111 147 189 236 284 335
#
# _framework density 18.005586000000001
#
# number of rings (size 3 to 8) (size 9 to 14) (size 15 to 20)
#    0.000    2.000    5.000    0.750    1.750    1.000 
#    0.000    1.875    0.000    0.000    0.000    3.500 
#    0.000    0.000    0.000    0.000    0.000    0.000 
#
# Total GULP energy -396593.057018 kJ/mol
# GULP energy per Si atom -12393.533032 kJ/mol
# Density = 1.796460 g / cm^3
# Si number density = 18.005586 Si / 1000 Ang^3
#
#
#
# Elastic Constant Matrix: (Units=GPa)
#
#
# Indices 1 2 3 4 5 6 
#
# 1 80.5589 32.7824 26.2969 0.0000 0.0000 0.0000
# 2 32.7824 74.8151 27.8065 0.0000 0.0000 0.0000
# 3 26.2969 27.8065 94.0522 0.0000 0.0000 0.0000
# 4 0.0000 0.0000 0.0000 11.8201 0.0000 0.0000
# 5 0.0000 0.0000 0.0000 0.0000 19.8822 0.0000
# 6 0.0000 0.0000 0.0000 0.0000 0.0000 23.2032
#
#
#
# Elastic Compliance Matrix: (Units=1/GPa)
#
#
# Indices 1 2 3 4 5 6 
#
# 1 0.015670 -0.005885 -0.002642 0.000000 0.000000 0.000000
# 2 -0.005885 0.017226 -0.003448 0.000000 0.000000 0.000000
# 3 -0.002642 -0.003448 0.012390 0.000000 0.000000 0.000000
# 4 0.000000 0.000000 0.000000 0.084602 0.000000 0.000000
# 5 0.000000 0.000000 0.000000 0.000000 0.050296 0.000000
# 6 0.000000 0.000000 0.000000 0.000000 0.000000 0.043098
#
#
# Mechanical properties :
#
#
# Convention : Reuss Voigt Hill
#
# Bulk Modulus (GPa) = 46.86228 47.02196 46.94212
# Shear Modulus (GPa) = 19.65849 21.81710 20.73780
#
# Velocity S-wave (km/s) = 3.30782 3.48470 3.39741
# Velocity P-wave (km/s) = 6.37746 6.50867 6.44340
#
# Compressibility (1/GPa) = 0.02133913
#
# Stress axis : x y z
#
# Youngs Moduli (GPa) = 63.81524 58.05127 80.70852
#
# Poissons Ratio (x) = 0.34161 0.21320
# Poissons Ratio (y) = 0.37553 0.27825
# Poissons Ratio (z) = 0.16857 0.20014
#
# Static dielectric constant tensor:
#      x y z
#    x 3.524600 0.000000 0.000000 
#    y 0.000000 3.400740 0.000000 
#    z 0.000000 0.000000 3.362350 
# 
# 
# High freq. dielectric constant tensor:
#      x y z
#    x 1.696010 0.000000 0.000000 
#    y 0.000000 1.676990 0.000000 
#    z 0.000000 0.000000 1.688060 
# 
# From -- ./inp_files/24915.got.cif
#   From: 2010.03.12/outbox.cif.g09.slc.cpg/sg40_13_cif.got.tgz:24915.got - 2010.04.14 01:38:03.
