data_PCOD8182832
_publ_section_title
;
Structure prediction by ZEFSAII (Michael W. Deem and Ramdas Pophale) SiO2 
 PCOD8182832
Probable space group: A M A 2
;
_chemical_formula_sum "Si O2"
_cell_formula_units_Z 64
_cell_length_a 9.186360
_cell_length_b 18.199929
_cell_length_c 25.648481
_cell_angle_alpha 90.000000
_cell_angle_beta 90.000000
_cell_angle_gamma 90.000000
_cell_volume 4288.197746
_symmetry_space_group_name_H-M "A M A 2"
_symmetry_group_IT_number 40
_symmetry_cell_setting 'orthorhombic'
loop_
_space_group_symop_operation_xyz
x,y,z
-x,-y,z
1/2-x,y,z
1/2+x,-y,z
x,1/2+y,1/2+z
-x,1/2-y,1/2+z
1/2-x,1/2+y,1/2+z
1/2+x,1/2-y,1/2+z
loop_
_atom_site_type_symbol
_atom_site_label
_atom_site_fract_x
_atom_site_fract_y
_atom_site_fract_z
Si Si1 0.081748 0.331504 0.990740
Si Si2 0.420975 0.424304 0.605967
Si Si3 0.081773 0.923513 0.594689
Si Si4 0.589051 0.304483 0.148292
Si Si5 0.088792 0.287651 0.543234
Si Si6 0.421681 0.835987 0.207342
Si Si7 0.581374 0.425812 0.910686
Si Si8 0.581440 0.425622 0.789272
O O1 0.250000 0.327239 0.975189
O O2 0.989210 0.358798 0.941750
O O3 0.054705 0.385651 0.039119
O O4 0.026283 0.249516 0.004173
O O5 0.500000 0.500000 0.595180
O O6 0.250000 0.437992 0.607713
O O7 0.461494 0.370055 0.557943
O O8 0.472827 0.389439 0.660626
O O9 0.250000 0.937775 0.605538
O O10 0.021901 0.872020 0.641369
O O11 0.000000 0.000000 0.594857
O O12 0.750000 0.336254 0.160590
O O13 0.597268 0.257084 0.096385
O O14 0.538627 0.248954 0.194177
O O15 0.250000 0.288060 0.517487
O O16 0.250000 0.843886 0.217502
O O17 0.511094 0.857551 0.258711
O O18 0.500000 0.500000 0.927282
O O19 0.750000 0.434486 0.925932
O O20 0.560233 0.408841 0.850026
O O21 0.500000 0.500000 0.772742
O O22 0.750000 0.434466 0.774449
#
# Coordination Sequence:
#
# PCOD8182832 Si02
#       8
#     8   8   8   8   8   8   8   8
#     4  10  19  29  43  62  81 106 140 173 207 245
#     4   9  17  27  40  60  84 111 141 170 203 242
#     4  10  19  28  40  60  84 109 138 170 204 243
#     4   8  15  28  43  58  79 107 137 168 202 241
#     4   8  15  28  42  56  79 109 137 167 203 242
#     4   9  17  29  44  61  82 110 141 171 206 244
#     4  10  20  32  44  59  81 109 140 174 209 242
#     4  10  20  31  43  60  82 109 141 175 208 241
#
# _framework density 14.924685
#
# number of rings (size 3 to 8) (size 9 to 14) (size 15 to 20)
#    0.000    2.750    0.000    3.750    0.000    6.500 
#    0.000    2.500    0.000    0.000    0.000    0.000 
#    0.000    1.000    0.000    5.500    0.000    4.250 
#
# Total GULP energy -396745.241517 kJ/mol
# GULP energy per Si atom -12398.288797 kJ/mol
# Density = 1.489072 g / cm^3
# Si number density = 14.924685 Si / 1000 Ang^3
#
#
#
# Elastic Constant Matrix: (Units=GPa)
#
#
# Indices 1 2 3 4 5 6 
#
# 1 98.3916 55.2605 40.9523 0.0000 0.0000 0.0000
# 2 55.2605 87.6578 31.3426 0.0000 0.0000 0.0000
# 3 40.9523 31.3426 48.4674 0.0000 0.0000 0.0000
# 4 0.0000 0.0000 0.0000 24.7123 0.0000 0.0000
# 5 0.0000 0.0000 0.0000 0.0000 19.8246 0.0000
# 6 0.0000 0.0000 0.0000 0.0000 0.0000 28.5263
#
#
#
# Elastic Compliance Matrix: (Units=1/GPa)
#
#
# Indices 1 2 3 4 5 6 
#
# 1 0.019417 -0.008292 -0.011045 0.000000 0.000000 0.000000
# 2 -0.008292 0.018380 -0.004880 0.000000 0.000000 0.000000
# 3 -0.011045 -0.004880 0.033120 0.000000 0.000000 0.000000
# 4 0.000000 0.000000 0.000000 0.040466 0.000000 0.000000
# 5 0.000000 0.000000 0.000000 0.000000 0.050442 0.000000
# 6 0.000000 0.000000 0.000000 0.000000 0.000000 0.035055
#
#
# Mechanical properties :
#
#
# Convention : Reuss Voigt Hill
#
# Bulk Modulus (GPa) = 44.47357 54.40308 49.43832
# Shear Modulus (GPa) = 19.77785 21.74343 20.76064
#
# Velocity S-wave (km/s) = 3.64425 3.82105 3.73369
# Velocity P-wave (km/s) = 6.89715 7.48319 7.19614
#
# Compressibility (1/GPa) = 0.02248527
#
# Stress axis : x y z
#
# Youngs Moduli (GPa) = 51.50001 54.40669 30.19327
#
# Poissons Ratio (x) = 0.45114 0.33347
# Poissons Ratio (y) = 0.42704 0.14733
# Poissons Ratio (z) = 0.56879 0.26549
#
# Static dielectric constant tensor:
#      x y z
#    x 3.024800 0.000000 0.000000 
#    y 0.000000 2.911230 0.000000 
#    z 0.000000 0.000000 2.680920 
# 
# 
# High freq. dielectric constant tensor:
#      x y z
#    x 1.582080 0.000000 0.000000 
#    y 0.000000 1.559550 0.000000 
#    z 0.000000 0.000000 1.535350 
# 
# From -- ./inp_files/24378.got.cif
#   From: 2010.03.12/outbox.cif.g09.slc.cpg/sg40_13_cif.got.tgz:24378.got - 2010.04.14 01:38:03.
