data_PCOD8182674
_publ_section_title
;
Structure prediction by ZEFSAII (Michael W. Deem and Ramdas Pophale) SiO2 
 PCOD8182674
Probable space group: A M A 2
;
_chemical_formula_sum "Si O2"
_cell_formula_units_Z 48
_cell_length_a 16.937447
_cell_length_b 17.892244
_cell_length_c 8.841140
_cell_angle_alpha 90.000000
_cell_angle_beta 90.000000
_cell_angle_gamma 90.000000
_cell_volume 2679.298056
_symmetry_space_group_name_H-M "A M A 2"
_symmetry_group_IT_number 40
_symmetry_cell_setting 'orthorhombic'
loop_
_space_group_symop_operation_xyz
x,y,z
-x,-y,z
1/2-x,y,z
1/2+x,-y,z
x,1/2+y,1/2+z
-x,1/2-y,1/2+z
1/2-x,1/2+y,1/2+z
1/2+x,1/2-y,1/2+z
loop_
_atom_site_type_symbol
_atom_site_label
_atom_site_fract_x
_atom_site_fract_y
_atom_site_fract_z
Si Si1 0.511673 0.915311 0.926310
Si Si2 0.839170 0.186289 0.398771
Si Si3 0.935045 0.718352 0.606262
Si Si4 0.435165 0.337358 0.168809
Si Si5 0.663121 0.848614 0.043558
Si Si6 0.159389 0.729868 0.840502
O O1 0.483048 0.904246 0.751555
O O2 0.500000 0.000000 0.977795
O O3 0.463435 0.857684 0.028480
O O4 0.604439 0.900970 0.950119
O O5 0.750000 0.152217 0.394337
O O6 0.873578 0.191224 0.231623
O O7 0.900562 0.138094 0.504269
O O8 0.837234 0.267713 0.469453
O O9 0.893172 0.776768 0.491514
O O10 0.009215 0.763448 0.670536
O O11 0.359300 0.310897 0.266015
O O12 0.750000 0.884820 0.028735
O O13 0.641578 0.837838 0.221914
O O14 0.250000 0.729014 0.889440
#
# Coordination Sequence:
#
# PCOD8182674 Si02
#       6
#     8   8   8   8   8   8
#     4  11  22  36  54  84 112 147 185 226 281 327
#     4  10  18  31  56  83 107 141 186 238 279 316
#     4  11  18  32  55  85 108 135 187 231 271 323
#     4  10  18  33  53  77 107 142 184 226 268 325
#     4   9  17  33  53  78 109 143 178 219 280 335
#     4   9  17  29  51  81 107 134 176 228 270 316
#
# _framework density 17.915140000000001
#
# number of rings (size 3 to 8) (size 9 to 14) (size 15 to 20)
#    0.000    2.000    5.000    3.000    0.000    0.000 
#    0.000    5.833    0.000    0.000    0.000    0.000 
#    0.000    0.000    0.000    0.000    0.000    0.000 
#
# Total GULP energy -297373.552150 kJ/mol
# GULP energy per Si atom -12390.564673 kJ/mol
# Density = 1.787436 g / cm^3
# Si number density = 17.915140 Si / 1000 Ang^3
#
#
#
# Elastic Constant Matrix: (Units=GPa)
#
#
# Indices 1 2 3 4 5 6 
#
# 1 122.8601 28.0918 44.7655 0.0000 0.0000 0.0000
# 2 28.0918 53.8252 11.9751 0.0000 0.0000 0.0000
# 3 44.7655 11.9751 90.3806 0.0000 0.0000 0.0000
# 4 0.0000 0.0000 0.0000 13.5909 0.0000 0.0000
# 5 0.0000 0.0000 0.0000 0.0000 27.9331 0.0000
# 6 0.0000 0.0000 0.0000 0.0000 0.0000 11.3586
#
#
#
# Elastic Compliance Matrix: (Units=1/GPa)
#
#
# Indices 1 2 3 4 5 6 
#
# 1 0.010954 -0.004647 -0.004810 0.000000 0.000000 0.000000
# 2 -0.004647 0.021114 -0.000496 0.000000 0.000000 0.000000
# 3 -0.004810 -0.000496 0.013512 0.000000 0.000000 0.000000
# 4 0.000000 0.000000 0.000000 0.073579 0.000000 0.000000
# 5 0.000000 0.000000 0.000000 0.000000 0.035800 0.000000
# 6 0.000000 0.000000 0.000000 0.000000 0.000000 0.088039
#
#
# Mechanical properties :
#
#
# Convention : Reuss Voigt Hill
#
# Bulk Modulus (GPa) = 38.94799 48.52564 43.73682
# Shear Modulus (GPa) = 18.41872 22.72543 20.57207
#
# Velocity S-wave (km/s) = 3.20989 3.56547 3.39234
# Velocity P-wave (km/s) = 5.96031 6.64043 6.30954
#
# Compressibility (1/GPa) = 0.02567526
#
# Stress axis : x y z
#
# Youngs Moduli (GPa) = 91.28687 47.36117 74.00592
#
# Poissons Ratio (x) = 0.22009 0.35597
# Poissons Ratio (y) = 0.42422 0.03670
# Poissons Ratio (z) = 0.43909 0.02349
#
# Static dielectric constant tensor:
#      x y z
#    x 3.787350 0.000000 0.000000 
#    y 0.000000 2.697860 0.000000 
#    z 0.000000 0.000000 3.615730 
# 
# 
# High freq. dielectric constant tensor:
#      x y z
#    x 1.715580 0.000000 0.000000 
#    y 0.000000 1.617350 0.000000 
#    z 0.000000 0.000000 1.701840 
# 
# From -- ./inp_files/6450.got.cif
#   From: 2010.03.12/outbox.cif.g09.slc.cpg/sg40_4_cif.got.tgz:6450.got - 2010.04.14 01:38:03.
