data_PCOD8182724
_publ_section_title
;
Structure prediction by ZEFSAII (Michael W. Deem and Ramdas Pophale) SiO2 
 PCOD8182724
Probable space group: A M A 2
;
_chemical_formula_sum "Si O2"
_cell_formula_units_Z 64
_cell_length_a 18.129667
_cell_length_b 16.055758
_cell_length_c 12.197734
_cell_angle_alpha 90.000000
_cell_angle_beta 90.000000
_cell_angle_gamma 90.000000
_cell_volume 3550.584061
_symmetry_space_group_name_H-M "A M A 2"
_symmetry_group_IT_number 40
_symmetry_cell_setting 'orthorhombic'
loop_
_space_group_symop_operation_xyz
x,y,z
-x,-y,z
1/2-x,y,z
1/2+x,-y,z
x,1/2+y,1/2+z
-x,1/2-y,1/2+z
1/2-x,1/2+y,1/2+z
1/2+x,1/2-y,1/2+z
loop_
_atom_site_type_symbol
_atom_site_label
_atom_site_fract_x
_atom_site_fract_y
_atom_site_fract_z
Si Si1 0.335521 0.150139 0.321840
Si Si2 0.336101 0.230132 0.663372
Si Si3 0.087198 0.095398 0.539635
Si Si4 0.336174 0.347520 0.855610
Si Si5 0.837106 0.009148 0.197257
Si Si6 0.662452 0.620820 0.510358
Si Si7 0.086552 0.405401 0.060267
Si Si8 0.835837 0.660531 0.271051
O O1 0.250000 0.135977 0.354689
O O2 0.384944 0.138425 0.428692
O O3 0.347774 0.240535 0.271666
O O4 0.361076 0.084474 0.227726
O O5 0.250000 0.213650 0.647279
O O6 0.378269 0.143456 0.643925
O O7 0.352514 0.263826 0.785986
O O8 0.365329 0.297325 0.574686
O O9 0.000215 0.102772 0.549383
O O10 0.113424 0.999904 0.541159
O O11 0.250000 0.356434 0.879479
O O12 0.367312 0.427381 0.789281
O O13 0.377388 0.343609 0.971397
O O14 0.750000 0.019078 0.195654
O O15 0.865890 0.038292 0.076526
O O16 0.750000 0.624913 0.508711
O O17 0.634672 0.621114 0.385416
O O18 0.112493 0.378233 0.179644
O O19 0.750000 0.638943 0.249582
#
# Coordination Sequence:
#
# PCOD8182724 Si02
#       8
#     8   8   8   8   8   8   8   8
#     4  10  18  32  58  85 105 134 180 231 273 320
#     4   9  17  32  56  81 101 130 181 230 264 313
#     4  11  22  36  53  77 107 149 188 221 256 324
#     4   9  17  32  55  81 108 135 170 224 278 316
#     4   8  14  26  51  83 107 126 161 219 273 310
#     4   8  14  28  51  80 104 127 166 217 268 313
#     4  11  24  36  49  78 114 151 179 216 274 320
#     4  10  20  34  54  79 109 142 179 221 268 327
#
# _framework density 18.025203999999999
#
# number of rings (size 3 to 8) (size 9 to 14) (size 15 to 20)
#    0.000    2.500    2.500    2.250    0.000    2.500 
#    0.000    1.250    0.000    3.000    0.000    0.000 
#    0.000    0.000    0.000    0.000    0.000    0.000 
#
# Total GULP energy -396669.506602 kJ/mol
# GULP energy per Si atom -12395.922081 kJ/mol
# Density = 1.798418 g / cm^3
# Si number density = 18.025204 Si / 1000 Ang^3
#
#
#
# Elastic Constant Matrix: (Units=GPa)
#
#
# Indices 1 2 3 4 5 6 
#
# 1 50.8294 34.0830 38.0216 0.0000 0.0000 0.0000
# 2 34.0830 76.5981 46.9146 0.0000 0.0000 0.0000
# 3 38.0216 46.9146 121.9596 0.0000 0.0000 0.0000
# 4 0.0000 0.0000 0.0000 31.6280 0.0000 0.0000
# 5 0.0000 0.0000 0.0000 0.0000 17.9336 0.0000
# 6 0.0000 0.0000 0.0000 0.0000 0.0000 19.8953
#
#
#
# Elastic Compliance Matrix: (Units=1/GPa)
#
#
# Indices 1 2 3 4 5 6 
#
# 1 0.030760 -0.010222 -0.005657 0.000000 0.000000 0.000000
# 2 -0.010222 0.020476 -0.004690 0.000000 0.000000 0.000000
# 3 -0.005657 -0.004690 0.011767 0.000000 0.000000 0.000000
# 4 0.000000 0.000000 0.000000 0.031618 0.000000 0.000000
# 5 0.000000 0.000000 0.000000 0.000000 0.055761 0.000000
# 6 0.000000 0.000000 0.000000 0.000000 0.000000 0.050263
#
#
# Mechanical properties :
#
#
# Convention : Reuss Voigt Hill
#
# Bulk Modulus (GPa) = 45.73591 54.15842 49.94716
# Shear Modulus (GPa) = 20.07463 22.58258 21.32860
#
# Velocity S-wave (km/s) = 3.34083 3.54338 3.44359
# Velocity P-wave (km/s) = 6.34901 6.84484 6.60158
#
# Compressibility (1/GPa) = 0.02186466
#
# Stress axis : x y z
#
# Youngs Moduli (GPa) = 32.51021 48.83820 84.98164
#
# Poissons Ratio (x) = 0.49921 0.48078
# Poissons Ratio (y) = 0.33231 0.39855
# Poissons Ratio (z) = 0.18393 0.22904
#
# Static dielectric constant tensor:
#      x y z
#    x 2.958470 0.000000 0.000000 
#    y 0.000000 3.508610 0.000000 
#    z 0.000000 0.000000 3.489820 
# 
# 
# High freq. dielectric constant tensor:
#      x y z
#    x 1.662480 0.000000 0.000000 
#    y 0.000000 1.693170 0.000000 
#    z 0.000000 0.000000 1.697580 
# 
# From -- ./inp_files/12444.got.cif
#   From: 2010.03.12/outbox.cif.g09.slc.cpg/sg40_7_cif.got.tgz:12444.got - 2010.04.14 01:38:03.
