data_PCOD8182840
_publ_section_title
;
Structure prediction by ZEFSAII (Michael W. Deem and Ramdas Pophale) SiO2 
 PCOD8182840
Probable space group: A M A 2
;
_chemical_formula_sum "Si O2"
_cell_formula_units_Z 64
_cell_length_a 8.966013
_cell_length_b 18.370185
_cell_length_c 21.397345
_cell_angle_alpha 90.000000
_cell_angle_beta 90.000000
_cell_angle_gamma 90.000000
_cell_volume 3524.299297
_symmetry_space_group_name_H-M "A M A 2"
_symmetry_group_IT_number 40
_symmetry_cell_setting 'orthorhombic'
loop_
_space_group_symop_operation_xyz
x,y,z
-x,-y,z
1/2-x,y,z
1/2+x,-y,z
x,1/2+y,1/2+z
-x,1/2-y,1/2+z
1/2-x,1/2+y,1/2+z
1/2+x,1/2-y,1/2+z
loop_
_atom_site_type_symbol
_atom_site_label
_atom_site_fract_x
_atom_site_fract_y
_atom_site_fract_z
Si Si1 0.420188 0.215340 0.010590
Si Si2 0.573644 0.576630 0.192180
Si Si3 0.578208 0.128331 0.556226
Si Si4 0.922587 0.210040 0.384438
Si Si5 0.083598 0.931195 0.879294
Si Si6 0.573639 0.425534 0.933509
Si Si7 0.584473 0.570751 0.526622
Si Si8 0.921294 0.330445 0.294852
O O1 0.250000 0.189695 0.006529
O O2 0.441687 0.284390 0.056341
O O3 0.478424 0.237508 0.941354
O O4 0.507888 0.147878 0.041550
O O5 0.500000 0.500000 0.211555
O O6 0.750000 0.569807 0.198421
O O7 0.524081 0.597705 0.122538
O O8 0.518995 0.642483 0.236759
O O9 0.750000 0.107692 0.542671
O O10 0.476490 0.091023 0.504190
O O11 0.750000 0.190544 0.398603
O O12 0.939145 0.245395 0.314860
O O13 0.019988 0.137028 0.385780
O O14 0.250000 0.925124 0.850411
O O15 0.092155 0.937851 0.952778
O O16 0.980270 0.864945 0.859170
O O17 0.000000 0.000000 0.849241
O O18 0.500000 0.500000 0.910053
O O19 0.750000 0.432168 0.931133
O O20 0.500000 0.500000 0.554996
O O21 0.750000 0.571798 0.555633
O O22 0.750000 0.350361 0.281751
#
# Coordination Sequence:
#
# PCOD8182840 Si02
#       8
#     8   8   8   8   8   8   8   8
#     4   9  16  31  51  71  97 129 165 208 258 308
#     4  11  23  38  54  74 103 139 181 220 255 300
#     4   9  20  37  55  75 102 137 175 216 262 308
#     4   9  19  34  51  72 101 134 168 207 255 311
#     4  10  19  29  42  62  92 128 168 204 240 289
#     4  11  21  33  54  80 107 135 167 210 259 311
#     4  10  19  28  42  66  96 129 164 202 244 296
#     4  11  21  34  51  70  98 135 172 211 255 299
#
# _framework density 18.159638999999999
#
# number of rings (size 3 to 8) (size 9 to 14) (size 15 to 20)
#    0.000    2.000    1.250    4.125    0.000    6.000 
#    0.000    0.000    0.000    0.000    0.000    0.875 
#    0.000    6.000    0.000    0.000    0.000    0.125 
#
# Total GULP energy -396641.902212 kJ/mol
# GULP energy per Si atom -12395.059444 kJ/mol
# Density = 1.811831 g / cm^3
# Si number density = 18.159639 Si / 1000 Ang^3
#
#
#
# Elastic Constant Matrix: (Units=GPa)
#
#
# Indices 1 2 3 4 5 6 
#
# 1 106.4285 54.4729 22.7216 0.0000 0.0000 0.0000
# 2 54.4729 107.8013 23.7976 0.0000 0.0000 0.0000
# 3 22.7216 23.7976 54.7024 0.0000 0.0000 0.0000
# 4 0.0000 0.0000 0.0000 20.6069 0.0000 0.0000
# 5 0.0000 0.0000 0.0000 0.0000 12.6092 0.0000
# 6 0.0000 0.0000 0.0000 0.0000 0.0000 31.9338
#
#
#
# Elastic Compliance Matrix: (Units=1/GPa)
#
#
# Indices 1 2 3 4 5 6 
#
# 1 0.013057 -0.005974 -0.002824 0.000000 0.000000 0.000000
# 2 -0.005974 0.012995 -0.003172 0.000000 0.000000 0.000000
# 3 -0.002824 -0.003172 0.020834 0.000000 0.000000 0.000000
# 4 0.000000 0.000000 0.000000 0.048527 0.000000 0.000000
# 5 0.000000 0.000000 0.000000 0.000000 0.079307 0.000000
# 6 0.000000 0.000000 0.000000 0.000000 0.000000 0.031315
#
#
# Mechanical properties :
#
#
# Convention : Reuss Voigt Hill
#
# Bulk Modulus (GPa) = 43.58275 52.32403 47.95339
# Shear Modulus (GPa) = 21.04158 24.22599 22.63378
#
# Velocity S-wave (km/s) = 3.40766 3.65644 3.53424
# Velocity P-wave (km/s) = 6.28767 6.83388 6.56646
#
# Compressibility (1/GPa) = 0.02294486
#
# Stress axis : x y z
#
# Youngs Moduli (GPa) = 76.58915 76.95063 47.99892
#
# Poissons Ratio (x) = 0.45972 0.13556
# Poissons Ratio (y) = 0.45756 0.15225
# Poissons Ratio (z) = 0.21631 0.24409
#
# Static dielectric constant tensor:
#      x y z
#    x 3.454130 0.000000 0.000000 
#    y 0.000000 3.480010 0.000000 
#    z 0.000000 0.000000 2.956910 
# 
# 
# High freq. dielectric constant tensor:
#      x y z
#    x 1.712450 0.000000 0.000000 
#    y 0.000000 1.707030 0.000000 
#    z 0.000000 0.000000 1.652770 
# 
# From -- ./inp_files/24414.got.cif
#   From: 2010.03.12/outbox.cif.g09.slc.cpg/sg40_13_cif.got.tgz:24414.got - 2010.04.14 01:38:03.
