data_PCOD8182108
_publ_section_title
;
Structure prediction by ZEFSAII (Michael W. Deem and Ramdas Pophale) SiO2 
 PCOD8182108
Probable space group: A B M 2
;
_chemical_formula_sum "Si O2"
_cell_formula_units_Z 40
_cell_length_a 7.694581
_cell_length_b 9.968844
_cell_length_c 25.588891
_cell_angle_alpha 90.000000
_cell_angle_beta 90.000000
_cell_angle_gamma 90.000000
_cell_volume 1962.823460
_symmetry_space_group_name_H-M "A B M 2"
_symmetry_group_IT_number 39
_symmetry_cell_setting 'orthorhombic'
loop_
_space_group_symop_operation_xyz
x,y,z
-x,-y,z
-x,1/2+y,z
x,1/2-y,z
x,1/2+y,1/2+z
-x,1/2-y,1/2+z
-x,y,1/2+z
x,-y,1/2+z
loop_
_atom_site_type_symbol
_atom_site_label
_atom_site_fract_x
_atom_site_fract_y
_atom_site_fract_z
Si Si1 0.336611 0.750000 0.551100
Si Si2 0.658713 0.596190 0.884037
Si Si3 0.974293 0.750000 0.125348
Si Si4 0.718083 0.750000 0.540101
Si Si5 0.804617 0.489202 0.485902
Si Si6 0.669963 0.408898 0.264312
Si Si7 0.000000 0.500000 0.199475
O O1 0.535728 0.750000 0.571431
O O2 0.302633 0.620875 0.516528
O O3 0.215909 0.750000 0.601195
O O4 0.500000 0.500000 0.897047
O O5 0.604274 0.750000 0.894028
O O6 0.807819 0.548604 0.924333
O O7 0.722791 0.577762 0.824913
O O8 0.125694 0.750000 0.081749
O O9 0.982038 0.876143 0.161939
O O10 0.716265 0.628652 0.499457
O O11 0.000000 0.500000 0.506807
O O12 0.500000 0.500000 0.252035
O O13 0.640066 0.250000 0.249865
O O14 0.829518 0.475798 0.234130
#
# Coordination Sequence:
#
# PCOD8182108 Si02
#       7
#     4   8   4   4   8   8   4
#     4  12  24  46  69  93 130 177 223 274 335 396
#     4  10  22  41  66 101 139 177 224 269 329 410
#     4  12  26  46  68 100 132 170 234 294 342 404
#     4  12  26  44  69  95 134 179 223 272 331 404
#     4  12  23  41  65 100 138 175 219 270 328 400
#     4  10  24  46  72 103 137 180 230 281 344 413
#     4  12  26  46  72  98 138 172 230 296 350 402
#
# _framework density 20.378805
#
# number of rings (size 3 to 8) (size 9 to 14) (size 15 to 20)
#    0.000    0.800    4.000    3.000    4.200    1.600 
#    0.000    0.000    0.000    0.000    0.000    0.000 
#    0.000    0.000    0.000    0.000    0.000    0.000 
#
# Total GULP energy -247936.276971 kJ/mol
# GULP energy per Si atom -12396.813849 kJ/mol
# Density = 2.033242 g / cm^3
# Si number density = 20.378805 Si / 1000 Ang^3
#
#
#
# Elastic Constant Matrix: (Units=GPa)
#
#
# Indices 1 2 3 4 5 6 
#
# 1 132.0383 53.0431 49.5308 0.0000 0.0000 0.0000
# 2 53.0431 182.4001 67.3901 0.0000 0.0000 0.0000
# 3 49.5308 67.3901 113.4262 0.0000 0.0000 0.0000
# 4 0.0000 0.0000 0.0000 39.1203 0.0000 0.0000
# 5 0.0000 0.0000 0.0000 0.0000 30.4708 0.0000
# 6 0.0000 0.0000 0.0000 0.0000 0.0000 34.7561
#
#
#
# Elastic Compliance Matrix: (Units=1/GPa)
#
#
# Indices 1 2 3 4 5 6 
#
# 1 0.009390 -0.001558 -0.003175 0.000000 0.000000 0.000000
# 2 -0.001558 0.007283 -0.003647 0.000000 0.000000 0.000000
# 3 -0.003175 -0.003647 0.012369 0.000000 0.000000 0.000000
# 4 0.000000 0.000000 0.000000 0.025562 0.000000 0.000000
# 5 0.000000 0.000000 0.000000 0.000000 0.032818 0.000000
# 6 0.000000 0.000000 0.000000 0.000000 0.000000 0.028772
#
#
# Mechanical properties :
#
#
# Convention : Reuss Voigt Hill
#
# Bulk Modulus (GPa) = 81.40961 85.31029 83.35995
# Shear Modulus (GPa) = 36.48345 38.06283 37.27314
#
# Velocity S-wave (km/s) = 4.23574 4.32645 4.28134
# Velocity P-wave (km/s) = 7.99731 8.17990 8.08912
#
# Compressibility (1/GPa) = 0.01228356
#
# Stress axis : x y z
#
# Youngs Moduli (GPa) = 106.49187 137.31046 80.84451
#
# Poissons Ratio (x) = 0.21389 0.25669
# Poissons Ratio (y) = 0.16588 0.29482
# Poissons Ratio (z) = 0.33812 0.50073
#
# Static dielectric constant tensor:
#      x y z
#    x 3.833170 0.000000 0.000000 
#    y 0.000000 4.001070 0.000000 
#    z 0.000000 0.000000 3.833300 
# 
# 
# High freq. dielectric constant tensor:
#      x y z
#    x 1.795360 0.000000 0.000000 
#    y 0.000000 1.821940 0.000000 
#    z 0.000000 0.000000 1.801240 
# 
# From -- ./inp_files/15496.got.cif
#   From: 2010.03.12/outbox.cif.g09.slc.cpg/sg39_8_cif.got.tgz:15496.got - 2010.04.14 02:53:20.
