data_PCOD8182490
_publ_section_title
;
Structure prediction by ZEFSAII (Michael W. Deem and Ramdas Pophale) SiO2 
 PCOD8182490
Probable space group: A M A 2
;
_chemical_formula_sum "Si O2"
_cell_formula_units_Z 64
_cell_length_a 8.997966
_cell_length_b 26.145100
_cell_length_c 18.289942
_cell_angle_alpha 90.000000
_cell_angle_beta 90.000000
_cell_angle_gamma 90.000000
_cell_volume 4302.758620
_symmetry_space_group_name_H-M "A M A 2"
_symmetry_group_IT_number 40
_symmetry_cell_setting 'orthorhombic'
loop_
_space_group_symop_operation_xyz
x,y,z
-x,-y,z
1/2-x,y,z
1/2+x,-y,z
x,1/2+y,1/2+z
-x,1/2-y,1/2+z
1/2-x,1/2+y,1/2+z
1/2+x,1/2-y,1/2+z
loop_
_atom_site_type_symbol
_atom_site_label
_atom_site_fract_x
_atom_site_fract_y
_atom_site_fract_z
Si Si1 0.419521 0.295893 0.410160
Si Si2 0.922866 0.448060 0.032381
Si Si3 0.582291 0.144264 0.461440
Si Si4 0.076057 0.851394 0.767860
Si Si5 0.079666 0.742283 0.187981
Si Si6 0.922272 0.751932 0.038214
Si Si7 0.916847 0.209713 0.333071
Si Si8 0.574803 0.447355 0.200482
O O1 0.250000 0.293960 0.436475
O O2 0.448177 0.343261 0.355115
O O3 0.522770 0.296131 0.482126
O O4 0.454598 0.245914 0.362763
O O5 0.750000 0.456381 0.021729
O O6 0.964214 0.435687 0.116084
O O7 0.000000 0.500000 0.005457
O O8 0.972600 0.400825 0.982802
O O9 0.750000 0.127310 0.480404
O O10 0.541619 0.195976 0.505506
O O11 0.564182 0.154956 0.373764
O O12 0.250000 0.853616 0.747971
O O13 0.003510 0.806997 0.719467
O O14 0.996429 0.904105 0.750272
O O15 0.250000 0.726597 0.174111
O O16 0.068818 0.790380 0.244925
O O17 0.007665 0.760666 0.113325
O O18 0.750000 0.759786 0.053101
O O19 0.750000 0.230480 0.354444
O O20 0.500000 0.500000 0.225253
O O21 0.750000 0.450317 0.213809
#
# Coordination Sequence:
#
# PCOD8182490 Si02
#       8
#     8   8   8   8   8   8   8   8
#     4   9  17  28  42  60  82 109 141 175 207 245
#     4  10  20  31  43  60  81 107 139 174 209 243
#     4   9  17  29  43  58  80 110 140 170 206 246
#     4  10  19  30  44  62  85 113 144 176 212 252
#     4  10  18  28  43  62  85 113 145 176 207 248
#     4  10  19  29  42  61  86 114 142 174 212 250
#     4   8  16  29  42  58  82 111 139 170 209 248
#     4  10  20  32  45  61  83 111 143 179 215 250
#
# _framework density 14.874179
#
# number of rings (size 3 to 8) (size 9 to 14) (size 15 to 20)
#    0.000    2.500    0.000    3.750    0.000    8.000 
#    0.000    0.000    0.000    0.000    0.000    0.000 
#    0.000    1.000    0.000    4.750    0.000    4.125 
#
# Total GULP energy -396633.828646 kJ/mol
# GULP energy per Si atom -12394.807145 kJ/mol
# Density = 1.484032 g / cm^3
# Si number density = 14.874179 Si / 1000 Ang^3
#
#
#
# Elastic Constant Matrix: (Units=GPa)
#
#
# Indices 1 2 3 4 5 6 
#
# 1 86.0890 43.2146 45.5439 0.0000 0.0000 0.0000
# 2 43.2146 73.0888 45.0927 0.0000 0.0000 0.0000
# 3 45.5439 45.0927 94.9231 0.0000 0.0000 0.0000
# 4 0.0000 0.0000 0.0000 22.1689 0.0000 0.0000
# 5 0.0000 0.0000 0.0000 0.0000 24.5335 0.0000
# 6 0.0000 0.0000 0.0000 0.0000 0.0000 24.2380
#
#
#
# Elastic Compliance Matrix: (Units=1/GPa)
#
#
# Indices 1 2 3 4 5 6 
#
# 1 0.018108 -0.007563 -0.005095 0.000000 0.000000 0.000000
# 2 -0.007563 0.022513 -0.007066 0.000000 0.000000 0.000000
# 3 -0.005095 -0.007066 0.016336 0.000000 0.000000 0.000000
# 4 0.000000 0.000000 0.000000 0.045108 0.000000 0.000000
# 5 0.000000 0.000000 0.000000 0.000000 0.040761 0.000000
# 6 0.000000 0.000000 0.000000 0.000000 0.000000 0.041257
#
#
# Mechanical properties :
#
#
# Convention : Reuss Voigt Hill
#
# Bulk Modulus (GPa) = 57.11485 57.97814 57.54649
# Shear Modulus (GPa) = 21.79898 22.20474 22.00186
#
# Velocity S-wave (km/s) = 3.83241 3.86792 3.85021
# Velocity P-wave (km/s) = 7.62005 7.68189 7.65103
#
# Compressibility (1/GPa) = 0.01750858
#
# Stress axis : x y z
#
# Youngs Moduli (GPa) = 55.22458 44.41861 61.21319
#
# Poissons Ratio (x) = 0.33593 0.31191
# Poissons Ratio (y) = 0.41765 0.43254
# Poissons Ratio (z) = 0.28139 0.31387
#
# Static dielectric constant tensor:
#      x y z
#    x 3.012760 0.000000 0.000000 
#    y 0.000000 2.681220 0.000000 
#    z 0.000000 0.000000 3.009240 
# 
# 
# High freq. dielectric constant tensor:
#      x y z
#    x 1.589260 0.000000 0.000000 
#    y 0.000000 1.528660 0.000000 
#    z 0.000000 0.000000 1.561250 
# 
# From -- ./inp_files/19641.got.cif
#   From: 2010.03.12/outbox.cif.g09.slc.cpg/sg40_10_cif.got.tgz:19641.got - 2010.04.14 01:38:03.
