data_PCOD8182250
_publ_section_title
;
Structure prediction by ZEFSAII (Michael W. Deem and Ramdas Pophale) SiO2 
 PCOD8182250
Probable space group: A B M 2
;
_chemical_formula_sum "Si O2"
_cell_formula_units_Z 64
_cell_length_a 19.529064
_cell_length_b 16.863442
_cell_length_c 9.362153
_cell_angle_alpha 90.000000
_cell_angle_beta 90.000000
_cell_angle_gamma 90.000000
_cell_volume 3083.211990
_symmetry_space_group_name_H-M "A B M 2"
_symmetry_group_IT_number 39
_symmetry_cell_setting 'orthorhombic'
loop_
_space_group_symop_operation_xyz
x,y,z
-x,-y,z
-x,1/2+y,z
x,1/2-y,z
x,1/2+y,1/2+z
-x,1/2-y,1/2+z
-x,y,1/2+z
x,-y,1/2+z
loop_
_atom_site_type_symbol
_atom_site_label
_atom_site_fract_x
_atom_site_fract_y
_atom_site_fract_z
Si Si1 0.652045 0.123998 0.041060
Si Si2 0.588175 0.337889 0.326918
Si Si3 0.563792 0.159638 0.775220
Si Si4 0.934599 0.577469 0.154836
Si Si5 0.787742 0.441821 0.694314
Si Si6 0.055527 0.088415 0.487710
Si Si7 0.647877 0.564940 0.060905
Si Si8 0.202814 0.405717 0.516191
O O1 0.610450 0.167666 0.163152
O O2 0.645538 0.029293 0.056716
O O3 0.621486 0.153775 0.894096
O O4 0.732296 0.151671 0.044932
O O5 0.594884 0.250000 0.394882
O O6 0.509693 0.367561 0.336179
O O7 0.638905 0.400318 0.402173
O O8 0.559033 0.250000 0.717945
O O9 0.583832 0.100556 0.647773
O O10 0.935066 0.493010 0.075107
O O11 0.989556 0.631381 0.063854
O O12 0.855971 0.609265 0.149927
O O13 0.958708 0.572663 0.320311
O O14 0.719629 0.403261 0.626461
O O15 0.797403 0.531138 0.642847
O O16 0.781841 0.448663 0.864921
O O17 0.127664 0.136715 0.508614
#
# Coordination Sequence:
#
# PCOD8182250 Si02
#       8
#     8   8   8   8   8   8   8   8
#     4  11  22  37  58  85 112 143 184 229 277 324
#     4  11  25  41  57  81 112 145 180 228 281 331
#     4  11  23  41  61  79 108 147 184 224 277 335
#     4   9  15  24  38  63  98 139 178 210 258 321
#     4   9  18  30  47  72 106 142 178 223 273 320
#     4   9  15  24  38  63  98 139 178 210 258 321
#     4  11  22  37  58  85 112 143 184 229 277 324
#     4   9  18  30  47  72 106 142 178 223 273 320
#
# _framework density 20.757574000000002
#
# number of rings (size 3 to 8) (size 9 to 14) (size 15 to 20)
#    0.000    2.000    1.250    3.750    5.250    6.000 
#    0.000    0.000    0.000    0.000    0.000    0.000 
#    0.000    6.000    0.000    0.000    0.000    0.000 
#
# Total GULP energy -396417.820480 kJ/mol
# GULP energy per Si atom -12388.056890 kJ/mol
# Density = 2.071033 g / cm^3
# Si number density = 20.757574 Si / 1000 Ang^3
#
#
#
# Elastic Constant Matrix: (Units=GPa)
#
#
# Indices 1 2 3 4 5 6 
#
# 1 141.2001 19.0505 16.7319 0.0000 0.0000 0.0000
# 2 19.0505 40.5457 6.7925 0.0000 0.0000 0.0000
# 3 16.7319 6.7925 81.5593 0.0000 0.0000 0.0000
# 4 0.0000 0.0000 0.0000 15.1861 0.0000 0.0000
# 5 0.0000 0.0000 0.0000 0.0000 39.3447 0.0000
# 6 0.0000 0.0000 0.0000 0.0000 0.0000 -3.0234
#
#
#
# Elastic Compliance Matrix: (Units=1/GPa)
#
#
# Indices 1 2 3 4 5 6 
#
# 1 0.007694 -0.003398 -0.001295 0.000000 0.000000 0.000000
# 2 -0.003398 0.026513 -0.001511 0.000000 0.000000 0.000000
# 3 -0.001295 -0.001511 0.012653 0.000000 0.000000 0.000000
# 4 0.000000 0.000000 0.000000 0.065850 0.000000 0.000000
# 5 0.000000 0.000000 0.000000 0.000000 0.025416 0.000000
# 6 0.000000 0.000000 0.000000 0.000000 0.000000 -0.330755
#
#
# Mechanical properties :
#
#
# Convention : Reuss Voigt Hill
#
# Bulk Modulus (GPa) = 29.02675 38.71720 33.87197
# Shear Modulus (GPa) = -29.63199 25.01682 -2.30758
#
# Velocity S-wave (km/s) = -3.78236 3.47535 -1.05551
# Velocity P-wave (km/s) = 2.24966 5.89887 3.85589
#
# Compressibility (1/GPa) = 0.03445098
#
# Stress axis : x y z
#
# Youngs Moduli (GPa) = 129.96936 37.71693 79.03499
#
# Poissons Ratio (x) = 0.12817 0.10239
# Poissons Ratio (y) = 0.44165 0.11942
# Poissons Ratio (z) = 0.16837 0.05699
#
# Static dielectric constant tensor:
#      x y z
#    x 5.038000 0.000000 0.000000 
#    y 0.000000 3.111700 0.000000 
#    z 0.000000 0.000000 3.859840 
# 
# 
# High freq. dielectric constant tensor:
#      x y z
#    x 1.846050 0.000000 0.000000 
#    y 0.000000 1.734810 0.000000 
#    z 0.000000 0.000000 1.826620 
# 
# From -- ./inp_files/4031.got.cif
#   From: 2010.03.12/outbox.cif.g09.slc.cpg/sg39_3_cif.got.tgz:4031.got - 2010.04.14 02:53:20.
