data_PCOD8182167
_publ_section_title
;
Structure prediction by ZEFSAII (Michael W. Deem and Ramdas Pophale) SiO2 
 PCOD8182167
Probable space group: A B M 2
;
_chemical_formula_sum "Si O2"
_cell_formula_units_Z 56
_cell_length_a 5.585389
_cell_length_b 13.593352
_cell_length_c 27.717095
_cell_angle_alpha 90.000000
_cell_angle_beta 90.000000
_cell_angle_gamma 90.000000
_cell_volume 2104.397120
_symmetry_space_group_name_H-M "A B M 2"
_symmetry_group_IT_number 39
_symmetry_cell_setting 'orthorhombic'
loop_
_space_group_symop_operation_xyz
x,y,z
-x,-y,z
-x,1/2+y,z
x,1/2-y,z
x,1/2+y,1/2+z
-x,1/2-y,1/2+z
-x,y,1/2+z
x,-y,1/2+z
loop_
_atom_site_type_symbol
_atom_site_label
_atom_site_fract_x
_atom_site_fract_y
_atom_site_fract_z
Si Si1 0.891275 0.360148 0.847600
Si Si2 0.000000 0.000000 0.604693
Si Si3 0.263908 0.863543 0.536768
Si Si4 0.637111 0.637175 0.213650
Si Si5 0.236092 0.863543 0.429585
Si Si6 0.137111 0.637175 0.252704
Si Si7 0.500000 0.500000 0.361660
Si Si8 0.391275 0.860148 0.118754
O O1 0.780927 0.250000 0.842560
O O2 0.118185 0.369297 0.811088
O O3 0.709532 0.447123 0.830792
O O4 0.979614 0.379650 0.902638
O O5 0.065324 0.910705 0.569895
O O6 0.790468 0.947123 0.635562
O O7 0.197610 0.750000 0.533323
O O8 0.250000 0.910312 0.483177
O O9 0.520386 0.879650 0.563716
O O10 0.645695 0.750000 0.232009
O O11 0.890237 0.588085 0.230523
O O12 0.618185 0.630703 0.155266
O O13 0.390237 0.588085 0.235831
O O14 0.302389 0.750000 0.433031
O O15 0.434676 0.910705 0.396459
O O16 0.145695 0.750000 0.234344
O O17 0.280927 0.750000 0.123794
#
# Coordination Sequence:
#
# PCOD8182167 Si02
#       8
#     8   4   8   8   8   8   4   8
#     4  10  23  42  66  99 137 179 229 284 344 413
#     4  12  24  38  68  96 134 176 222 280 344 410
#     4  10  24  44  67  96 132 174 224 280 343 414
#     4   9  19  37  66  99 135 183 236 288 348 415
#     4  10  24  44  67  96 132 174 224 280 343 414
#     4   9  19  37  66  99 135 183 236 288 348 415
#     4  12  24  38  68  96 134 176 222 280 344 410
#     4  10  23  42  66  99 137 179 229 284 344 413
#
# _framework density 26.610948
#
# number of rings (size 3 to 8) (size 9 to 14) (size 15 to 20)
#    0.000    2.000    0.000    1.714    8.000    0.000 
#    0.000    5.714    0.000    0.000    0.000    0.000 
#    0.000    0.000    0.000    0.000    0.000    0.000 
#
# Total GULP energy -346950.834648 kJ/mol
# GULP energy per Si atom -12391.101237 kJ/mol
# Density = 2.655038 g / cm^3
# Si number density = 26.610948 Si / 1000 Ang^3
#
#
#
# Elastic Constant Matrix: (Units=GPa)
#
#
# Indices 1 2 3 4 5 6 
#
# 1 136.8409 38.9137 46.8020 0.0000 0.0000 0.0000
# 2 38.9137 70.3839 15.2505 0.0000 0.0000 0.0000
# 3 46.8020 15.2505 131.4877 0.0000 0.0000 0.0000
# 4 0.0000 0.0000 0.0000 -8.1501 0.0000 0.0000
# 5 0.0000 0.0000 0.0000 0.0000 30.9043 0.0000
# 6 0.0000 0.0000 0.0000 0.0000 0.0000 39.2683
#
#
#
# Elastic Compliance Matrix: (Units=1/GPa)
#
#
# Indices 1 2 3 4 5 6 
#
# 1 0.009630 -0.004700 -0.002883 0.000000 0.000000 0.000000
# 2 -0.004700 0.016868 -0.000284 0.000000 0.000000 0.000000
# 3 -0.002883 -0.000284 0.008664 0.000000 0.000000 0.000000
# 4 0.000000 0.000000 0.000000 -0.122697 0.000000 0.000000
# 5 0.000000 0.000000 0.000000 0.000000 0.032358 0.000000
# 6 0.000000 0.000000 0.000000 0.000000 0.000000 0.025466
#
#
# Mechanical properties :
#
#
# Convention : Reuss Voigt Hill
#
# Bulk Modulus (GPa) = 51.46649 60.07162 55.76905
# Shear Modulus (GPa) = -666.41690 28.25424 -319.08133
#
# Velocity S-wave (km/s) = -15.84214 3.26199 -10.96204
# Velocity P-wave (km/s) = 17.75524 6.06716 11.79911
#
# Compressibility (1/GPa) = 0.01943012
#
# Stress axis : x y z
#
# Youngs Moduli (GPa) = 103.84061 59.28529 115.41708
#
# Poissons Ratio (x) = 0.27862 0.33271
# Poissons Ratio (y) = 0.48802 0.03273
# Poissons Ratio (z) = 0.29934 0.01681
#
# Static dielectric constant tensor:
#      x y z
#    x 4.683150 0.000000 0.000000 
#    y 0.000000 4.847220 0.000000 
#    z 0.000000 0.000000 4.832740 
# 
# 
# High freq. dielectric constant tensor:
#      x y z
#    x 2.051240 0.000000 0.000000 
#    y 0.000000 2.078970 0.000000 
#    z 0.000000 0.000000 2.065010 
# 
# From -- ./inp_files/17299.got.cif
#   From: 2010.03.12/outbox.cif.g09.slc.cpg/sg39_9_cif.got.tgz:17299.got - 2010.04.14 02:53:20.
