data_PCOD8182429
_publ_section_title
;
Structure prediction by ZEFSAII (Michael W. Deem and Ramdas Pophale) SiO2 
 PCOD8182429
Probable space group: A M A 2
;
_chemical_formula_sum "Si O2"
_cell_formula_units_Z 64
_cell_length_a 8.660152
_cell_length_b 26.441831
_cell_length_c 18.572078
_cell_angle_alpha 90.000000
_cell_angle_beta 90.000000
_cell_angle_gamma 90.000000
_cell_volume 4252.825260
_symmetry_space_group_name_H-M "A M A 2"
_symmetry_group_IT_number 40
_symmetry_cell_setting 'orthorhombic'
loop_
_space_group_symop_operation_xyz
x,y,z
-x,-y,z
1/2-x,y,z
1/2+x,-y,z
x,1/2+y,1/2+z
-x,1/2-y,1/2+z
1/2-x,1/2+y,1/2+z
1/2+x,1/2-y,1/2+z
loop_
_atom_site_type_symbol
_atom_site_label
_atom_site_fract_x
_atom_site_fract_y
_atom_site_fract_z
Si Si1 0.566420 0.649794 0.396210
Si Si2 0.067706 0.947078 0.808862
Si Si3 0.418598 0.803548 0.033999
Si Si4 0.933851 0.757661 0.660954
Si Si5 0.079297 0.199235 0.449957
Si Si6 0.068858 0.746341 0.324789
Si Si7 0.931808 0.648486 0.080643
Si Si8 0.067003 0.053933 0.654398
O O1 0.750000 0.658768 0.396487
O O2 0.522318 0.594409 0.368424
O O3 0.500554 0.656416 0.478994
O O4 0.492842 0.690915 0.343669
O O5 0.250000 0.951630 0.798072
O O6 0.993610 0.931050 0.733355
O O7 0.000000 0.000000 0.836866
O O8 0.250000 0.825086 0.053481
O O9 0.500565 0.788140 0.109512
O O10 0.406518 0.752685 0.988144
O O11 0.750000 0.763628 0.648787
O O12 0.976092 0.743243 0.742033
O O13 0.011161 0.810250 0.638399
O O14 0.250000 0.175502 0.439937
O O15 0.003284 0.208289 0.371777
O O16 0.975618 0.162282 0.498622
O O17 0.250000 0.746685 0.337320
O O18 0.750000 0.642787 0.087697
O O19 0.011913 0.595354 0.097559
O O20 0.250000 0.051008 0.656265
O O21 0.000000 0.000000 0.630098
#
# Coordination Sequence:
#
# PCOD8182429 Si02
#       8
#     8   8   8   8   8   8   8   8
#     4   9  17  28  42  57  77 110 146 174 206 252
#     4  10  19  30  43  61  83 109 143 181 218 253
#     4   7  12  25  41  55  74 103 137 169 201 242
#     4   9  17  28  42  61  86 115 143 173 212 254
#     4   9  17  30  44  58  81 112 141 171 210 251
#     4  10  18  26  40  63  86 109 140 175 209 248
#     4  11  20  30  45  64  85 111 145 179 211 251
#     4  11  21  33  46  61  83 111 142 176 214 251
#
# _framework density 15.048819
#
# number of rings (size 3 to 8) (size 9 to 14) (size 15 to 20)
#    0.000    2.500    0.000    6.375    0.000    4.000 
#    0.000    0.000    0.000    0.000    0.000    0.000 
#    0.000    1.000    0.000    6.500    0.000    2.125 
#
# Total GULP energy -396549.829124 kJ/mol
# GULP energy per Si atom -12392.182160 kJ/mol
# Density = 1.501457 g / cm^3
# Si number density = 15.048819 Si / 1000 Ang^3
#
#
#
# Elastic Constant Matrix: (Units=GPa)
#
#
# Indices 1 2 3 4 5 6 
#
# 1 77.1532 31.6487 34.7853 0.0000 0.0000 0.0000
# 2 31.6487 81.0569 58.2832 0.0000 0.0000 0.0000
# 3 34.7853 58.2832 116.3923 0.0000 0.0000 0.0000
# 4 0.0000 0.0000 0.0000 24.9423 0.0000 0.0000
# 5 0.0000 0.0000 0.0000 0.0000 18.3151 0.0000
# 6 0.0000 0.0000 0.0000 0.0000 0.0000 19.4859
#
#
#
# Elastic Compliance Matrix: (Units=1/GPa)
#
#
# Indices 1 2 3 4 5 6 
#
# 1 0.015910 -0.004365 -0.002569 0.000000 0.000000 0.000000
# 2 -0.004365 0.020476 -0.008949 0.000000 0.000000 0.000000
# 3 -0.002569 -0.008949 0.013841 0.000000 0.000000 0.000000
# 4 0.000000 0.000000 0.000000 0.040093 0.000000 0.000000
# 5 0.000000 0.000000 0.000000 0.000000 0.054600 0.000000
# 6 0.000000 0.000000 0.000000 0.000000 0.000000 0.051319
#
#
# Mechanical properties :
#
#
# Convention : Reuss Voigt Hill
#
# Bulk Modulus (GPa) = 54.16854 58.22632 56.19743
# Shear Modulus (GPa) = 21.35322 22.54101 21.94711
#
# Velocity S-wave (km/s) = 3.77096 3.87442 3.82304
# Velocity P-wave (km/s) = 7.41846 7.66749 7.54400
#
# Compressibility (1/GPa) = 0.01846090
#
# Stress axis : x y z
#
# Youngs Moduli (GPa) = 62.85338 48.83846 72.25138
#
# Poissons Ratio (x) = 0.21316 0.18564
# Poissons Ratio (y) = 0.27433 0.64656
# Poissons Ratio (z) = 0.16149 0.43704
#
# Static dielectric constant tensor:
#      x y z
#    x 2.947400 0.000000 0.000000 
#    y 0.000000 2.818040 0.000000 
#    z 0.000000 0.000000 3.150870 
# 
# 
# High freq. dielectric constant tensor:
#      x y z
#    x 1.580450 0.000000 0.000000 
#    y 0.000000 1.542890 0.000000 
#    z 0.000000 0.000000 1.570730 
# 
# From -- ./inp_files/19777.got.cif
#   From: 2010.03.12/outbox.cif.g09.slc.cpg/sg40_10_cif.got.tgz:19777.got - 2010.04.14 01:38:03.
