data_PCOD8182304
_publ_section_title
;
Structure prediction by ZEFSAII (Michael W. Deem and Ramdas Pophale) SiO2 
 PCOD8182304
Probable space group: A B M 2
;
_chemical_formula_sum "Si O2"
_cell_formula_units_Z 56
_cell_length_a 8.160966
_cell_length_b 21.958035
_cell_length_c 14.186663
_cell_angle_alpha 90.000000
_cell_angle_beta 90.000000
_cell_angle_gamma 90.000000
_cell_volume 2542.232660
_symmetry_space_group_name_H-M "A B M 2"
_symmetry_group_IT_number 39
_symmetry_cell_setting 'orthorhombic'
loop_
_space_group_symop_operation_xyz
x,y,z
-x,-y,z
-x,1/2+y,z
x,1/2-y,z
x,1/2+y,1/2+z
-x,1/2-y,1/2+z
-x,y,1/2+z
x,-y,1/2+z
loop_
_atom_site_type_symbol
_atom_site_label
_atom_site_fract_x
_atom_site_fract_y
_atom_site_fract_z
Si Si1 0.876433 0.110042 0.653120
Si Si2 0.627058 0.892736 0.425359
Si Si3 0.153713 0.606733 0.295491
Si Si4 0.667949 0.482494 0.770516
Si Si5 0.022820 0.431541 0.470343
Si Si6 0.592672 0.180110 0.570552
Si Si7 0.474056 0.318439 0.777121
O O1 0.751747 0.072612 0.716776
O O2 0.943932 0.066117 0.572591
O O3 0.780341 0.164723 0.599987
O O4 0.029059 0.132961 0.716403
O O5 0.605195 0.958739 0.374106
O O6 0.484410 0.869266 0.497157
O O7 0.627555 0.845203 0.337102
O O8 0.797246 0.901081 0.480547
O O9 0.204540 0.537432 0.273283
O O10 0.067641 0.611759 0.396395
O O11 0.311608 0.647334 0.307891
O O12 0.500000 0.500000 0.715518
O O13 0.000000 0.500000 0.430028
O O14 0.585736 0.250000 0.531806
O O15 0.488782 0.174820 0.665652
O O16 0.454518 0.250000 0.809463
#
# Coordination Sequence:
#
# PCOD8182304 Si02
#       7
#     8   8   8   8   8   8   8
#     4  12  25  43  68 103 144 185 229 294 361 417
#     4  12  23  45  67 101 139 190 234 287 355 414
#     4  12  22  44  65 103 144 176 233 294 353 427
#     4  12  23  43  69 100 144 187 229 290 356 432
#     4  12  24  39  66 100 141 186 224 286 356 419
#     4  11  25  46  69  99 138 186 248 291 337 426
#     4  11  24  45  71  98 135 185 237 292 344 414
#
# _framework density 22.027882999999999
#
# number of rings (size 3 to 8) (size 9 to 14) (size 15 to 20)
#    0.000    0.286    5.714    3.429    0.000    1.714 
#    0.000    2.857    0.000    0.000    0.000    0.000 
#    0.000    0.000    0.000    0.000    0.000    0.000 
#
# Total GULP energy -346929.688589 kJ/mol
# GULP energy per Si atom -12390.346021 kJ/mol
# Density = 2.197775 g / cm^3
# Si number density = 22.027883 Si / 1000 Ang^3
#
#
#
# Elastic Constant Matrix: (Units=GPa)
#
#
# Indices 1 2 3 4 5 6 
#
# 1 87.7297 58.6031 54.1237 0.0000 0.0000 0.0000
# 2 58.6031 100.1757 26.1161 0.0000 0.0000 0.0000
# 3 54.1237 26.1161 92.8605 0.0000 0.0000 0.0000
# 4 0.0000 0.0000 0.0000 18.6407 0.0000 0.0000
# 5 0.0000 0.0000 0.0000 0.0000 43.2836 0.0000
# 6 0.0000 0.0000 0.0000 0.0000 0.0000 21.8303
#
#
#
# Elastic Compliance Matrix: (Units=1/GPa)
#
#
# Indices 1 2 3 4 5 6 
#
# 1 0.027847 -0.013013 -0.012571 0.000000 0.000000 0.000000
# 2 -0.013013 0.016854 0.002845 0.000000 0.000000 0.000000
# 3 -0.012571 0.002845 0.017296 0.000000 0.000000 0.000000
# 4 0.000000 0.000000 0.000000 0.053646 0.000000 0.000000
# 5 0.000000 0.000000 0.000000 0.000000 0.023103 0.000000
# 6 0.000000 0.000000 0.000000 0.000000 0.000000 0.045808
#
#
# Mechanical properties :
#
#
# Convention : Reuss Voigt Hill
#
# Bulk Modulus (GPa) = 60.54053 62.05021 61.29537
# Shear Modulus (GPa) = 21.22804 26.21242 23.72023
#
# Velocity S-wave (km/s) = 3.10770 3.45333 3.28507
# Velocity P-wave (km/s) = 6.35770 6.64310 6.50196
#
# Compressibility (1/GPa) = 0.01651786
#
# Stress axis : x y z
#
# Youngs Moduli (GPa) = 35.91083 59.33452 57.81835
#
# Poissons Ratio (x) = 0.77213 0.72681
# Poissons Ratio (y) = 0.46732 -0.16449
# Poissons Ratio (z) = 0.45142 -0.16880
#
# Static dielectric constant tensor:
#      x y z
#    x 4.274590 0.000000 0.000000 
#    y 0.000000 4.000020 0.000000 
#    z 0.000000 0.000000 4.103140 
# 
# 
# High freq. dielectric constant tensor:
#      x y z
#    x 1.872240 0.000000 0.000000 
#    y 0.000000 1.849870 0.000000 
#    z 0.000000 0.000000 1.878820 
# 
# From -- ./inp_files/8611.got.cif
#   From: 2010.03.12/outbox.cif.g09.slc.cpg/sg39_5_cif.got.tgz:8611.got - 2010.04.14 02:53:20.
