data_PCOD8182557
_publ_section_title
;
Structure prediction by ZEFSAII (Michael W. Deem and Ramdas Pophale) SiO2 
 PCOD8182557
Probable space group: A M A 2
;
_chemical_formula_sum "Si O2"
_cell_formula_units_Z 64
_cell_length_a 8.720500
_cell_length_b 28.188789
_cell_length_c 14.680880
_cell_angle_alpha 90.000000
_cell_angle_beta 90.000000
_cell_angle_gamma 90.000000
_cell_volume 3608.858832
_symmetry_space_group_name_H-M "A M A 2"
_symmetry_group_IT_number 40
_symmetry_cell_setting 'orthorhombic'
loop_
_space_group_symop_operation_xyz
x,y,z
-x,-y,z
1/2-x,y,z
1/2+x,-y,z
x,1/2+y,1/2+z
-x,1/2-y,1/2+z
1/2-x,1/2+y,1/2+z
1/2+x,1/2-y,1/2+z
loop_
_atom_site_type_symbol
_atom_site_label
_atom_site_fract_x
_atom_site_fract_y
_atom_site_fract_z
Si Si1 0.568139 0.550105 0.083760
Si Si2 0.569882 0.276193 0.281872
Si Si3 0.932609 0.949734 0.778459
Si Si4 0.072520 0.673217 0.584969
Si Si5 0.929598 0.136385 0.456736
Si Si6 0.567262 0.363650 0.400204
Si Si7 0.572652 0.718776 0.091085
Si Si8 0.068504 0.676017 0.785766
O O1 0.500000 0.500000 0.051052
O O2 0.750000 0.546157 0.094809
O O3 0.497271 0.565472 0.180279
O O4 0.519989 0.588908 0.009138
O O5 0.750000 0.268826 0.293226
O O6 0.506362 0.318558 0.344265
O O7 0.530914 0.290326 0.178863
O O8 0.488962 0.228006 0.313995
O O9 0.750000 0.952465 0.772227
O O10 0.990552 0.911925 0.853267
O O11 0.000000 0.000000 0.809438
O O12 0.250000 0.661307 0.592594
O O13 0.002374 0.640394 0.504192
O O14 0.047973 0.727884 0.555247
O O15 0.000089 0.663086 0.684979
O O16 0.750000 0.137042 0.438825
O O17 0.981781 0.182316 0.513901
O O18 0.012626 0.137358 0.358858
O O19 0.750000 0.362524 0.400294
O O20 0.750000 0.709928 0.117524
O O21 0.250000 0.677151 0.781914
#
# Coordination Sequence:
#
# PCOD8182557 Si02
#       8
#     8   8   8   8   8   8   8   8
#     4  10  20  34  52  74 100 128 156 192 242 294
#     4  10  18  29  47  71  99 129 161 197 236 281
#     4  10  19  32  51  74  99 126 156 194 241 292
#     4   8  15  29  46  65  91 124 160 194 230 275
#     4  10  20  33  51  72  96 129 165 202 245 290
#     4   9  17  29  48  70  92 125 164 196 233 285
#     4   9  17  30  47  68  97 129 158 193 239 288
#     4  10  20  32  48  70  97 130 166 202 239 283
#
# _framework density 17.734138000000002
#
# number of rings (size 3 to 8) (size 9 to 14) (size 15 to 20)
#    0.000    2.500    0.000    4.500    0.000    3.500 
#    0.000    1.875    0.000   10.500    0.000    3.500 
#    0.000    0.000    0.000    0.000    0.000    0.000 
#
# Total GULP energy -396704.494951 kJ/mol
# GULP energy per Si atom -12397.015467 kJ/mol
# Density = 1.769377 g / cm^3
# Si number density = 17.734138 Si / 1000 Ang^3
#
#
#
# Elastic Constant Matrix: (Units=GPa)
#
#
# Indices 1 2 3 4 5 6 
#
# 1 48.3290 32.1282 32.7660 0.0000 0.0000 0.0000
# 2 32.1282 111.8558 91.1269 0.0000 0.0000 0.0000
# 3 32.7660 91.1269 137.4990 0.0000 0.0000 0.0000
# 4 0.0000 0.0000 0.0000 35.3197 0.0000 0.0000
# 5 0.0000 0.0000 0.0000 0.0000 24.3700 0.0000
# 6 0.0000 0.0000 0.0000 0.0000 0.0000 20.6465
#
#
#
# Elastic Compliance Matrix: (Units=1/GPa)
#
#
# Indices 1 2 3 4 5 6 
#
# 1 0.026032 -0.005267 -0.002713 0.000000 0.000000 0.000000
# 2 -0.005267 0.020498 -0.012330 0.000000 0.000000 0.000000
# 3 -0.002713 -0.012330 0.016091 0.000000 0.000000 0.000000
# 4 0.000000 0.000000 0.000000 0.028313 0.000000 0.000000
# 5 0.000000 0.000000 0.000000 0.000000 0.041034 0.000000
# 6 0.000000 0.000000 0.000000 0.000000 0.000000 0.048434
#
#
# Mechanical properties :
#
#
# Convention : Reuss Voigt Hill
#
# Bulk Modulus (GPa) = 45.45139 67.74735 56.59937
# Shear Modulus (GPa) = 21.89580 25.51142 23.70361
#
# Velocity S-wave (km/s) = 3.51760 3.79693 3.65993
# Velocity P-wave (km/s) = 6.49484 7.58333 7.06009
#
# Compressibility (1/GPa) = 0.02200153
#
# Stress axis : x y z
#
# Youngs Moduli (GPa) = 38.41398 48.78614 62.14840
#
# Poissons Ratio (x) = 0.25697 0.16858
# Poissons Ratio (y) = 0.20234 0.76626
# Poissons Ratio (z) = 0.10420 0.60151
#
# Static dielectric constant tensor:
#      x y z
#    x 3.089840 0.000000 0.000000 
#    y 0.000000 2.968190 0.000000 
#    z 0.000000 0.000000 3.590190 
# 
# 
# High freq. dielectric constant tensor:
#      x y z
#    x 1.668640 0.000000 0.000000 
#    y 0.000000 1.668480 0.000000 
#    z 0.000000 0.000000 1.690010 
# 
# From -- ./inp_files/15909.got.cif
#   From: 2010.03.12/outbox.cif.g09.slc.cpg/sg40_8_cif.got.tgz:15909.got - 2010.04.14 01:38:03.
