data_PCOD8182227
_publ_section_title
;
Structure prediction by ZEFSAII (Michael W. Deem and Ramdas Pophale) SiO2 
 PCOD8182227
Probable space group: A B M 2
;
_chemical_formula_sum "Si O2"
_cell_formula_units_Z 44
_cell_length_a 8.188861
_cell_length_b 18.635750
_cell_length_c 12.987275
_cell_angle_alpha 90.000000
_cell_angle_beta 90.000000
_cell_angle_gamma 90.000000
_cell_volume 1981.930457
_symmetry_space_group_name_H-M "A B M 2"
_symmetry_group_IT_number 39
_symmetry_cell_setting 'orthorhombic'
loop_
_space_group_symop_operation_xyz
x,y,z
-x,-y,z
-x,1/2+y,z
x,1/2-y,z
x,1/2+y,1/2+z
-x,1/2-y,1/2+z
-x,y,1/2+z
x,-y,1/2+z
loop_
_atom_site_type_symbol
_atom_site_label
_atom_site_fract_x
_atom_site_fract_y
_atom_site_fract_z
Si Si1 0.201258 0.102457 0.815200
Si Si2 0.946972 0.250000 0.067236
Si Si3 0.000000 0.500000 0.950248
Si Si4 0.469096 0.861947 0.465013
Si Si5 0.343778 0.250000 0.331732
Si Si6 0.768402 0.902726 0.583051
Si Si7 0.957606 0.250000 0.347253
Si Si8 0.704455 0.750000 0.105165
O O1 0.360882 0.092257 0.886132
O O2 0.237401 0.072401 0.701642
O O3 0.137804 0.183430 0.797548
O O4 0.061406 0.060209 0.873045
O O5 0.102361 0.250000 0.145909
O O6 0.836522 0.321148 0.071703
O O7 0.069031 0.250000 0.969105
O O8 0.130098 0.537664 0.023345
O O9 0.587705 0.817953 0.390828
O O10 0.585292 0.908654 0.538429
O O11 0.345294 0.819045 0.538670
O O12 0.399256 0.250000 0.211848
O O13 0.150550 0.250000 0.336637
#
# Coordination Sequence:
#
# PCOD8182227 Si02
#       8
#     8   4   4   8   4   8   4   4
#     4  12  25  44  70  98 131 177 218 271 334 388
#     4  12  20  42  67  98 130 167 216 271 316 378
#     4  12  26  48  68  94 136 168 226 276 320 406
#     4  11  22  39  60  92 138 164 220 270 320 390
#     4  11  20  33  60  97 133 170 206 263 330 383
#     4  12  25  44  70  98 131 177 218 271 334 388
#     4  12  20  42  67  98 130 167 216 271 316 378
#     4  11  20  33  60  97 133 170 206 263 330 383
#
# _framework density 22.200576999999999
#
# number of rings (size 3 to 8) (size 9 to 14) (size 15 to 20)
#    0.000    0.364    5.455    4.364    0.000    0.727 
#    0.000    7.273    0.000    0.000    0.000    0.000 
#    0.000    0.000    0.000    0.000    0.000    0.000 
#
# Total GULP energy -272711.478792 kJ/mol
# GULP energy per Si atom -12395.976309 kJ/mol
# Density = 2.215005 g / cm^3
# Si number density = 22.200577 Si / 1000 Ang^3
#
#
#
# Elastic Constant Matrix: (Units=GPa)
#
#
# Indices 1 2 3 4 5 6 
#
# 1 129.0456 21.2473 37.4559 0.0000 0.0000 0.0000
# 2 21.2473 72.2773 18.4696 0.0000 0.0000 0.0000
# 3 37.4559 18.4696 134.6958 0.0000 0.0000 0.0000
# 4 0.0000 0.0000 0.0000 7.8417 0.0000 0.0000
# 5 0.0000 0.0000 0.0000 0.0000 9.9224 0.0000
# 6 0.0000 0.0000 0.0000 0.0000 0.0000 3.5129
#
#
#
# Elastic Compliance Matrix: (Units=1/GPa)
#
#
# Indices 1 2 3 4 5 6 
#
# 1 0.008703 -0.002010 -0.002144 0.000000 0.000000 0.000000
# 2 -0.002010 0.014802 -0.001471 0.000000 0.000000 0.000000
# 3 -0.002144 -0.001471 0.008222 0.000000 0.000000 0.000000
# 4 0.000000 0.000000 0.000000 0.127523 0.000000 0.000000
# 5 0.000000 0.000000 0.000000 0.000000 0.100782 0.000000
# 6 0.000000 0.000000 0.000000 0.000000 0.000000 0.284663
#
#
# Mechanical properties :
#
#
# Convention : Reuss Voigt Hill
#
# Bulk Modulus (GPa) = 48.83682 54.48493 51.66088
# Shear Modulus (GPa) = 8.88461 21.51180 15.19821
#
# Velocity S-wave (km/s) = 2.00266 3.11621 2.61930
# Velocity P-wave (km/s) = 5.23386 6.12724 5.69809
#
# Compressibility (1/GPa) = 0.02047635
#
# Stress axis : x y z
#
# Youngs Moduli (GPa) = 114.90811 67.55666 121.62353
#
# Poissons Ratio (x) = 0.13581 0.26080
# Poissons Ratio (y) = 0.23100 0.17887
# Poissons Ratio (z) = 0.24640 0.09935
#
# Static dielectric constant tensor:
#      x y z
#    x 4.129460 0.000000 0.000000 
#    y 0.000000 3.537300 0.000000 
#    z 0.000000 0.000000 4.648170 
# 
# 
# High freq. dielectric constant tensor:
#      x y z
#    x 1.887130 0.000000 0.000000 
#    y 0.000000 1.841230 0.000000 
#    z 0.000000 0.000000 1.907500 
# 
# From -- ./inp_files/8302.got.cif
#   From: 2010.03.12/outbox.cif.g09.slc.cpg/sg39_5_cif.got.tgz:8302.got - 2010.04.14 02:53:20.
