data_PCOD8182300
_publ_section_title
;
Structure prediction by ZEFSAII (Michael W. Deem and Ramdas Pophale) SiO2 
 PCOD8182300
Probable space group: A B M 2
;
_chemical_formula_sum "Si O2"
_cell_formula_units_Z 40
_cell_length_a 20.910740
_cell_length_b 9.331403
_cell_length_c 9.796849
_cell_angle_alpha 90.000000
_cell_angle_beta 90.000000
_cell_angle_gamma 90.000000
_cell_volume 1911.625268
_symmetry_space_group_name_H-M "A B M 2"
_symmetry_group_IT_number 39
_symmetry_cell_setting 'orthorhombic'
loop_
_space_group_symop_operation_xyz
x,y,z
-x,-y,z
-x,1/2+y,z
x,1/2-y,z
x,1/2+y,1/2+z
-x,1/2-y,1/2+z
-x,y,1/2+z
x,-y,1/2+z
loop_
_atom_site_type_symbol
_atom_site_label
_atom_site_fract_x
_atom_site_fract_y
_atom_site_fract_z
Si Si1 0.559379 0.750000 0.714990
Si Si2 0.267347 0.590105 0.562259
Si Si3 0.648301 0.502287 0.812804
Si Si4 0.438245 0.750000 0.908093
Si Si5 0.064747 0.086187 0.300596
Si Si6 0.858127 0.586792 0.578354
O O1 0.602043 0.611752 0.738305
O O2 0.497658 0.750000 0.808254
O O3 0.533862 0.750000 0.560572
O O4 0.237369 0.750000 0.566563
O O5 0.307831 0.570485 0.699092
O O6 0.309746 0.580202 0.426930
O O7 0.212946 0.470279 0.554286
O O8 0.605319 0.387374 0.888560
O O9 0.049030 0.250000 0.258393
O O10 0.104172 0.081195 0.438302
O O11 0.106458 0.013647 0.184557
O O12 0.000000 0.000000 0.322398
O O13 0.854085 0.750000 0.633121
#
# Coordination Sequence:
#
# PCOD8182300 Si02
#       6
#     4   8   8   4   8   8
#     4  12  28  46  72 102 134 178 223 282 344 412
#     4  12  26  44  69  98 136 178 228 282 342 410
#     4  12  26  45  69 100 134 178 224 282 347 407
#     4  12  28  46  72 100 140 172 229 282 340 416
#     4  11  24  44  69 102 143 185 231 282 340 404
#     4  11  26  43  69 104 138 182 233 287 342 401
#
# _framework density 20.924602
#
# number of rings (size 3 to 8) (size 9 to 14) (size 15 to 20)
#    0.000    0.400    4.000    3.600    5.600    9.600 
#    0.000    0.000    0.000    0.000    0.000    0.000 
#    0.000    0.000    0.000    0.000    0.000    0.000 
#
# Total GULP energy -248131.876988 kJ/mol
# GULP energy per Si atom -12406.593849 kJ/mol
# Density = 2.087698 g / cm^3
# Si number density = 20.924602 Si / 1000 Ang^3
#
#
#
# Elastic Constant Matrix: (Units=GPa)
#
#
# Indices 1 2 3 4 5 6 
#
# 1 119.4573 53.9154 42.9775 0.0000 0.0000 0.0000
# 2 53.9154 170.8181 51.1514 0.0000 0.0000 0.0000
# 3 42.9775 51.1514 135.9539 0.0000 0.0000 0.0000
# 4 0.0000 0.0000 0.0000 31.7840 0.0000 0.0000
# 5 0.0000 0.0000 0.0000 0.0000 18.5416 0.0000
# 6 0.0000 0.0000 0.0000 0.0000 0.0000 26.9378
#
#
#
# Elastic Compliance Matrix: (Units=1/GPa)
#
#
# Indices 1 2 3 4 5 6 
#
# 1 0.010366 -0.002581 -0.002306 0.000000 0.000000 0.000000
# 2 -0.002581 0.007240 -0.001908 0.000000 0.000000 0.000000
# 3 -0.002306 -0.001908 0.008802 0.000000 0.000000 0.000000
# 4 0.000000 0.000000 0.000000 0.031462 0.000000 0.000000
# 5 0.000000 0.000000 0.000000 0.000000 0.053933 0.000000
# 6 0.000000 0.000000 0.000000 0.000000 0.000000 0.037123
#
#
# Mechanical properties :
#
#
# Convention : Reuss Voigt Hill
#
# Bulk Modulus (GPa) = 78.01422 80.25755 79.13589
# Shear Modulus (GPa) = 29.97805 33.99835 31.98820
#
# Velocity S-wave (km/s) = 3.78917 4.03526 3.91415
# Velocity P-wave (km/s) = 7.51719 7.75564 7.63735
#
# Compressibility (1/GPa) = 0.01281818
#
# Stress axis : x y z
#
# Youngs Moduli (GPa) = 96.47167 138.11572 113.60827
#
# Poissons Ratio (x) = 0.35652 0.26194
# Poissons Ratio (y) = 0.24903 0.21677
# Poissons Ratio (z) = 0.22242 0.26354
#
# Static dielectric constant tensor:
#      x y z
#    x 3.936480 0.000000 0.000000 
#    y 0.000000 4.203660 0.000000 
#    z 0.000000 0.000000 3.897900 
# 
# 
# High freq. dielectric constant tensor:
#      x y z
#    x 1.829570 0.000000 0.000000 
#    y 0.000000 1.842270 0.000000 
#    z 0.000000 0.000000 1.837660 
# 
# From -- ./inp_files/4046.got.cif
#   From: 2010.03.12/outbox.cif.g09.slc.cpg/sg39_3_cif.got.tgz:4046.got - 2010.04.14 02:53:20.
