data_PCOD8182409
_publ_section_title
;
Structure prediction by ZEFSAII (Michael W. Deem and Ramdas Pophale) SiO2 
 PCOD8182409
Probable space group: A M A 2
;
_chemical_formula_sum "Si O2"
_cell_formula_units_Z 44
_cell_length_a 14.381197
_cell_length_b 14.961834
_cell_length_c 11.383772
_cell_angle_alpha 90.000000
_cell_angle_beta 90.000000
_cell_angle_gamma 90.000000
_cell_volume 2449.435774
_symmetry_space_group_name_H-M "A M A 2"
_symmetry_group_IT_number 40
_symmetry_cell_setting 'orthorhombic'
loop_
_space_group_symop_operation_xyz
x,y,z
-x,-y,z
1/2-x,y,z
1/2+x,-y,z
x,1/2+y,1/2+z
-x,1/2-y,1/2+z
1/2-x,1/2+y,1/2+z
1/2+x,1/2-y,1/2+z
loop_
_atom_site_type_symbol
_atom_site_label
_atom_site_fract_x
_atom_site_fract_y
_atom_site_fract_z
Si Si1 0.750000 0.110634 0.167590
Si Si2 0.250000 0.816330 0.425599
Si Si3 0.750000 0.580440 0.151135
Si Si4 0.607461 0.654436 0.476109
Si Si5 0.750000 0.903130 0.152040
Si Si6 0.750000 0.245606 0.821306
Si Si7 0.104015 0.506109 0.302692
Si Si8 0.109527 0.664649 0.467963
O O1 0.750000 0.154062 0.293399
O O2 0.750000 0.005379 0.187725
O O3 0.657251 0.143979 0.101287
O O4 0.250000 0.902419 0.511823
O O5 0.156384 0.760233 0.448494
O O6 0.750000 0.677171 0.212353
O O7 0.837228 0.520060 0.188944
O O8 0.657492 0.731626 0.399920
O O9 0.622745 0.560563 0.410547
O O10 0.499599 0.678032 0.494113
O O11 0.750000 0.845507 0.271564
O O12 0.843464 0.882563 0.079366
O O13 0.126777 0.604954 0.351208
O O14 0.000000 0.500000 0.257145
#
# Coordination Sequence:
#
# PCOD8182409 Si02
#       8
#     4   4   4   8   4   4   8   8
#     4  11  22  38  55  82 118 147 177 236 284 334
#     4  11  24  36  53  81 118 154 173 219 293 337
#     4  10  17  34  55  78 115 141 175 225 274 326
#     4   9  19  35  59  84 109 137 189 237 273 313
#     4  11  19  33  59  80 114 143 187 220 281 334
#     4   9  18  33  56  83 105 145 180 228 274 323
#     4   9  17  32  61  86 102 137 190 232 266 312
#     4  10  19  36  58  86 104 142 193 229 265 329
#
# _framework density 17.96332
#
# number of rings (size 3 to 8) (size 9 to 14) (size 15 to 20)
#    0.000    2.182    3.636    1.636    0.000    1.455 
#    3.273    3.636    4.000    0.000    0.000    0.000 
#    0.000    0.000    0.000    0.000    0.000    0.000 
#
# Total GULP energy -272791.301435 kJ/mol
# GULP energy per Si atom -12399.604611 kJ/mol
# Density = 1.792243 g / cm^3
# Si number density = 17.963320 Si / 1000 Ang^3
#
#
#
# Elastic Constant Matrix: (Units=GPa)
#
#
# Indices 1 2 3 4 5 6 
#
# 1 153.5559 43.7013 54.2991 0.0000 0.0000 0.0000
# 2 43.7013 75.7411 43.5585 0.0000 0.0000 0.0000
# 3 54.2991 43.5585 94.4550 0.0000 0.0000 0.0000
# 4 0.0000 0.0000 0.0000 29.7131 0.0000 0.0000
# 5 0.0000 0.0000 0.0000 0.0000 4.4536 0.0000
# 6 0.0000 0.0000 0.0000 0.0000 0.0000 3.8858
#
#
#
# Elastic Compliance Matrix: (Units=1/GPa)
#
#
# Indices 1 2 3 4 5 6 
#
# 1 0.008614 -0.002888 -0.003620 0.000000 0.000000 0.000000
# 2 -0.002888 0.018937 -0.007072 0.000000 0.000000 0.000000
# 3 -0.003620 -0.007072 0.015930 0.000000 0.000000 0.000000
# 4 0.000000 0.000000 0.000000 0.033655 0.000000 0.000000
# 5 0.000000 0.000000 0.000000 0.000000 0.224539 0.000000
# 6 0.000000 0.000000 0.000000 0.000000 0.000000 0.257349
#
#
# Mechanical properties :
#
#
# Convention : Reuss Voigt Hill
#
# Bulk Modulus (GPa) = 61.27841 67.42998 64.35420
# Shear Modulus (GPa) = 8.45130 19.75670 14.10400
#
# Velocity S-wave (km/s) = 2.17140 3.31998 2.80510
# Velocity P-wave (km/s) = 6.36190 7.23294 6.81136
#
# Compressibility (1/GPa) = 0.01631896
#
# Stress axis : x y z
#
# Youngs Moduli (GPa) = 116.08406 52.80749 62.77632
#
# Poissons Ratio (x) = 0.15253 0.22726
# Poissons Ratio (y) = 0.33530 0.44397
# Poissons Ratio (z) = 0.42024 0.37347
#
# Static dielectric constant tensor:
#      x y z
#    x 2.806270 0.000000 0.000000 
#    y 0.000000 3.224060 0.000000 
#    z 0.000000 0.000000 3.091400 
# 
# 
# High freq. dielectric constant tensor:
#      x y z
#    x 1.705550 0.000000 0.000000 
#    y 0.000000 1.681100 0.000000 
#    z 0.000000 0.000000 1.674540 
# 
# From -- ./inp_files/12118.got.cif
#   From: 2010.03.12/outbox.cif.g09.slc.cpg/sg40_7_cif.got.tgz:12118.got - 2010.04.14 01:38:03.
