data_PCOD8182954
_publ_section_title
;
Structure prediction by ZEFSAII (Michael W. Deem and Ramdas Pophale) SiO2 
 PCOD8182954
Probable space group: A M A 2
;
_chemical_formula_sum "Si O2"
_cell_formula_units_Z 64
_cell_length_a 18.033826
_cell_length_b 15.329135
_cell_length_c 12.096153
_cell_angle_alpha 90.000000
_cell_angle_beta 90.000000
_cell_angle_gamma 90.000000
_cell_volume 3343.896259
_symmetry_space_group_name_H-M "A M A 2"
_symmetry_group_IT_number 40
_symmetry_cell_setting 'orthorhombic'
loop_
_space_group_symop_operation_xyz
x,y,z
-x,-y,z
1/2-x,y,z
1/2+x,-y,z
x,1/2+y,1/2+z
-x,1/2-y,1/2+z
1/2-x,1/2+y,1/2+z
1/2+x,1/2-y,1/2+z
loop_
_atom_site_type_symbol
_atom_site_label
_atom_site_fract_x
_atom_site_fract_y
_atom_site_fract_z
Si Si1 0.912784 0.514119 0.658680
Si Si2 0.166486 0.630715 0.522452
Si Si3 0.959614 0.288267 0.897929
Si Si4 0.663956 0.568062 0.874513
Si Si5 0.616914 0.763781 0.831344
Si Si6 0.544620 0.580402 0.043312
Si Si7 0.576493 0.251590 0.661361
Si Si8 0.583304 0.705959 0.603845
O O1 0.885716 0.445898 0.566885
O O2 0.870882 0.508441 0.776479
O O3 0.887997 0.607828 0.610994
O O4 0.000000 0.500000 0.679292
O O5 0.250000 0.601961 0.544904
O O6 0.157372 0.654902 0.391688
O O7 0.147260 0.719401 0.589346
O O8 0.911989 0.288496 0.785356
O O9 0.032415 0.230363 0.873948
O O10 0.991222 0.379248 0.946418
O O11 0.901291 0.245798 0.983691
O O12 0.750000 0.543384 0.887713
O O13 0.655215 0.671601 0.857263
O O14 0.620150 0.545235 0.987302
O O15 0.617834 0.770485 0.697528
O O16 0.500000 0.500000 0.097512
O O17 0.563915 0.647911 0.142558
O O18 0.505111 0.301406 0.615537
#
# Coordination Sequence:
#
# PCOD8182954 Si02
#       8
#     8   8   8   8   8   8   8   8
#     4  11  20  32  54  81 114 143 188 242 294 330
#     4  12  22  34  53  86 119 148 187 238 294 349
#     4   9  17  34  56  82 109 145 193 233 287 332
#     4  10  19  31  49  79 111 147 185 235 295 343
#     4   9  17  31  53  76 112 151 181 224 288 344
#     4  10  20  33  54  84 115 151 196 243 287 340
#     4  10  19  34  54  81 116 150 185 233 293 345
#     4   9  17  34  56  80 109 146 188 234 277 341
#
# _framework density 19.139348999999999
#
# number of rings (size 3 to 8) (size 9 to 14) (size 15 to 20)
#    0.000    2.000    5.000    1.875    1.750    0.000 
#    0.000    4.375    0.000    4.500    0.000   42.875 
#    0.000    0.000    0.000    0.000    0.000    0.000 
#
# Total GULP energy -396436.123477 kJ/mol
# GULP energy per Si atom -12388.628859 kJ/mol
# Density = 1.909579 g / cm^3
# Si number density = 19.139349 Si / 1000 Ang^3
#
#
#
# Elastic Constant Matrix: (Units=GPa)
#
#
# Indices 1 2 3 4 5 6 
#
# 1 82.8583 22.0173 18.3855 0.0000 0.0000 0.0000
# 2 22.0173 74.9174 27.4187 0.0000 0.0000 0.0000
# 3 18.3855 27.4187 90.4378 0.0000 0.0000 0.0000
# 4 0.0000 0.0000 0.0000 27.7644 0.0000 0.0000
# 5 0.0000 0.0000 0.0000 0.0000 16.5869 0.0000
# 6 0.0000 0.0000 0.0000 0.0000 0.0000 13.5336
#
#
#
# Elastic Compliance Matrix: (Units=1/GPa)
#
#
# Indices 1 2 3 4 5 6 
#
# 1 0.013322 -0.003289 -0.001711 0.000000 0.000000 0.000000
# 2 -0.003289 0.015826 -0.004129 0.000000 0.000000 0.000000
# 3 -0.001711 -0.004129 0.012657 0.000000 0.000000 0.000000
# 4 0.000000 0.000000 0.000000 0.036017 0.000000 0.000000
# 5 0.000000 0.000000 0.000000 0.000000 0.060289 0.000000
# 6 0.000000 0.000000 0.000000 0.000000 0.000000 0.073890
#
#
# Mechanical properties :
#
#
# Convention : Reuss Voigt Hill
#
# Bulk Modulus (GPa) = 42.46969 42.65074 42.56021
# Shear Modulus (GPa) = 20.99871 23.60311 22.30091
#
# Velocity S-wave (km/s) = 3.31592 3.51554 3.41719
# Velocity P-wave (km/s) = 6.07440 6.22988 6.15263
#
# Compressibility (1/GPa) = 0.02354621
#
# Stress axis : x y z
#
# Youngs Moduli (GPa) = 75.06113 63.18733 79.00673
#
# Poissons Ratio (x) = 0.20783 0.13520
# Poissons Ratio (y) = 0.24688 0.32625
# Poissons Ratio (z) = 0.12845 0.26093
#
# Static dielectric constant tensor:
#      x y z
#    x 3.265720 0.000000 0.000000 
#    y 0.000000 3.340840 0.000000 
#    z 0.000000 0.000000 3.895400 
# 
# 
# High freq. dielectric constant tensor:
#      x y z
#    x 1.713680 0.000000 0.000000 
#    y 0.000000 1.723190 0.000000 
#    z 0.000000 0.000000 1.737760 
# 
# From -- ./inp_files/13241.got.cif
#   From: 2010.03.12/outbox.cif.g09.slc.cpg/sg40_7_cif.got.tgz:13241.got - 2010.04.14 01:38:03.
