data_PCOD8182863
_publ_section_title
;
Structure prediction by ZEFSAII (Michael W. Deem and Ramdas Pophale) SiO2 
 PCOD8182863
Probable space group: A M A 2
;
_chemical_formula_sum "Si O2"
_cell_formula_units_Z 64
_cell_length_a 9.096692
_cell_length_b 23.863338
_cell_length_c 13.383214
_cell_angle_alpha 90.000000
_cell_angle_beta 90.000000
_cell_angle_gamma 90.000000
_cell_volume 2905.193779
_symmetry_space_group_name_H-M "A M A 2"
_symmetry_group_IT_number 40
_symmetry_cell_setting 'orthorhombic'
loop_
_space_group_symop_operation_xyz
x,y,z
-x,-y,z
1/2-x,y,z
1/2+x,-y,z
x,1/2+y,1/2+z
-x,1/2-y,1/2+z
1/2-x,1/2+y,1/2+z
1/2+x,1/2-y,1/2+z
loop_
_atom_site_type_symbol
_atom_site_label
_atom_site_fract_x
_atom_site_fract_y
_atom_site_fract_z
Si Si1 0.419242 0.260746 0.465770
Si Si2 0.581571 0.661853 0.058936
Si Si3 0.916683 0.663892 0.281570
Si Si4 0.425724 0.441552 0.768875
Si Si5 0.905865 0.952399 0.992728
Si Si6 0.590868 0.950117 0.767705
Si Si7 0.427449 0.558914 0.976257
Si Si8 0.084139 0.365568 0.584995
O O1 0.250000 0.241969 0.453344
O O2 0.519407 0.206376 0.479461
O O3 0.474531 0.292224 0.364748
O O4 0.436328 0.299273 0.566148
O O5 0.750000 0.647339 0.030316
O O6 0.574125 0.689379 0.169611
O O7 0.481714 0.605317 0.056554
O O8 0.750000 0.647546 0.310078
O O9 0.010458 0.608229 0.275726
O O10 0.500000 0.500000 0.733686
O O11 0.250000 0.449320 0.783781
O O12 0.504309 0.422114 0.870464
O O13 0.462903 0.390490 0.692420
O O14 0.750000 0.948052 0.049223
O O15 0.879334 0.970993 0.879739
O O16 0.000000 0.000000 0.049904
O O17 0.987706 0.893236 0.997744
O O18 0.750000 0.943733 0.712883
O O19 0.500000 0.000000 0.712380
O O20 0.500000 0.500000 0.007415
O O21 0.250000 0.555195 0.971800
O O22 0.250000 0.383605 0.563537
#
# Coordination Sequence:
#
# PCOD8182863 Si02
#       8
#     8   8   8   8   8   8   8   8
#     4  10  22  42  64  89 123 165 208 254 306 363
#     4  11  25  44  67  96 124 158 203 254 306 367
#     4  10  22  42  66  89 122 163 207 255 308 366
#     4  10  20  35  57  90 127 167 211 259 312 367
#     4  10  19  29  46  75 113 157 204 248 298 354
#     4  10  20  33  54  85 121 162 206 251 304 360
#     4  11  23  43  70  96 124 160 200 253 312 369
#     4  10  20  34  56  84 122 166 209 254 305 358
#
# _framework density 22.029509999999998
#
# number of rings (size 3 to 8) (size 9 to 14) (size 15 to 20)
#    0.000    1.750    1.250    3.750    0.000    6.500 
#    0.000    2.500    0.000    0.000    0.000    0.000 
#    0.000    0.000    0.000    0.000    0.000    0.000 
#
# Total GULP energy -396542.469223 kJ/mol
# GULP energy per Si atom -12391.952163 kJ/mol
# Density = 2.197937 g / cm^3
# Si number density = 22.029510 Si / 1000 Ang^3
#
#
#
# Elastic Constant Matrix: (Units=GPa)
#
#
# Indices 1 2 3 4 5 6 
#
# 1 138.8189 56.4645 23.1209 0.0000 0.0000 0.0000
# 2 56.4645 109.7127 27.7147 0.0000 0.0000 0.0000
# 3 23.1209 27.7147 93.2019 0.0000 0.0000 0.0000
# 4 0.0000 0.0000 0.0000 24.7263 0.0000 0.0000
# 5 0.0000 0.0000 0.0000 0.0000 -6.7986 0.0000
# 6 0.0000 0.0000 0.0000 0.0000 0.0000 38.7278
#
#
#
# Elastic Compliance Matrix: (Units=1/GPa)
#
#
# Indices 1 2 3 4 5 6 
#
# 1 0.009187 -0.004490 -0.000944 0.000000 0.000000 0.000000
# 2 -0.004490 0.012049 -0.002469 0.000000 0.000000 0.000000
# 3 -0.000944 -0.002469 0.011698 0.000000 0.000000 0.000000
# 4 0.000000 0.000000 0.000000 0.040443 0.000000 0.000000
# 5 0.000000 0.000000 0.000000 0.000000 -0.147088 0.000000
# 6 0.000000 0.000000 0.000000 0.000000 0.000000 0.025821
#
#
# Mechanical properties :
#
#
# Convention : Reuss Voigt Hill
#
# Bulk Modulus (GPa) = 58.38321 61.81488 60.09904
# Shear Modulus (GPa) = -189.57197 26.95998 -81.30599
#
# Velocity S-wave (km/s) = -9.28657 3.50210 -6.08177
# Velocity P-wave (km/s) = 9.40359 6.66887 4.68794
#
# Compressibility (1/GPa) = 0.01712821
#
# Stress axis : x y z
#
# Youngs Moduli (GPa) = 108.84894 82.99360 85.48608
#
# Poissons Ratio (x) = 0.37262 0.08070
# Poissons Ratio (y) = 0.48870 0.21108
# Poissons Ratio (z) = 0.10275 0.20493
#
# Static dielectric constant tensor:
#      x y z
#    x 4.605450 0.000000 0.000000 
#    y 0.000000 3.705630 0.000000 
#    z 0.000000 0.000000 4.090180 
# 
# 
# High freq. dielectric constant tensor:
#      x y z
#    x 1.875960 0.000000 0.000000 
#    y 0.000000 1.848230 0.000000 
#    z 0.000000 0.000000 1.865990 
# 
# From -- ./inp_files/15687.got.cif
#   From: 2010.03.12/outbox.cif.g09.slc.cpg/sg40_8_cif.got.tgz:15687.got - 2010.04.14 01:38:03.
