data_PCOD8182510
_publ_section_title
;
Structure prediction by ZEFSAII (Michael W. Deem and Ramdas Pophale) SiO2 
 PCOD8182510
Probable space group: A M A 2
;
_chemical_formula_sum "Si O2"
_cell_formula_units_Z 56
_cell_length_a 8.992813
_cell_length_b 18.827428
_cell_length_c 17.750700
_cell_angle_alpha 90.000000
_cell_angle_beta 90.000000
_cell_angle_gamma 90.000000
_cell_volume 3005.398340
_symmetry_space_group_name_H-M "A M A 2"
_symmetry_group_IT_number 40
_symmetry_cell_setting 'orthorhombic'
loop_
_space_group_symop_operation_xyz
x,y,z
-x,-y,z
1/2-x,y,z
1/2+x,-y,z
x,1/2+y,1/2+z
-x,1/2-y,1/2+z
1/2-x,1/2+y,1/2+z
1/2+x,1/2-y,1/2+z
loop_
_atom_site_type_symbol
_atom_site_label
_atom_site_fract_x
_atom_site_fract_y
_atom_site_fract_z
Si Si1 0.586897 0.296533 0.392940
Si Si2 0.912765 0.065584 0.056224
Si Si3 0.916188 0.160219 0.297103
Si Si4 0.428807 0.077581 0.427862
Si Si5 0.573568 0.703770 0.632958
Si Si6 0.586845 0.066327 0.878670
Si Si7 0.927767 0.196884 0.525415
O O1 0.750000 0.328659 0.410135
O O2 0.595704 0.238859 0.328495
O O3 0.486208 0.358744 0.360008
O O4 0.523643 0.259166 0.467794
O O5 0.750000 0.062445 0.092883
O O6 0.980981 0.142053 0.075738
O O7 0.906800 0.056023 0.967536
O O8 0.000000 0.000000 0.093419
O O9 0.750000 0.125879 0.296188
O O10 0.979644 0.173206 0.213471
O O11 0.023634 0.110621 0.347017
O O12 0.250000 0.074150 0.432307
O O13 0.492768 0.124691 0.497285
O O14 0.500000 0.000000 0.436111
O O15 0.750000 0.718943 0.631392
O O16 0.489193 0.776403 0.606864
O O17 0.750000 0.066650 0.842658
O O18 0.500000 0.000000 0.841796
O O19 0.750000 0.184669 0.526501
#
# Coordination Sequence:
#
# PCOD8182510 Si02
#       7
#     8   8   8   8   8   8   8
#     4   9  17  31  49  71  99 133 170 213 257 305
#     4   9  18  29  43  67  99 133 167 202 243 294
#     4   9  20  36  54  78 110 144 178 219 272 328
#     4  11  22  38  60  83 111 145 187 234 284 338
#     4  10  19  34  53  77 110 146 181 219 267 323
#     4  10  18  28  45  69  96 126 162 204 247 295
#     4  10  20  34  55  81 108 139 181 227 272 323
#
# _framework density 18.633136
#
# number of rings (size 3 to 8) (size 9 to 14) (size 15 to 20)
#    0.000    2.286    1.429    3.000    0.000    4.571 
#    0.000    1.429    0.000    0.857    0.000    4.000 
#    0.000    0.000    0.000    0.000    0.000    0.000 
#
# Total GULP energy -346979.888192 kJ/mol
# GULP energy per Si atom -12392.138864 kJ/mol
# Density = 1.859073 g / cm^3
# Si number density = 18.633136 Si / 1000 Ang^3
#
#
#
# Elastic Constant Matrix: (Units=GPa)
#
#
# Indices 1 2 3 4 5 6 
#
# 1 103.5583 59.2523 25.9676 0.0000 0.0000 0.0000
# 2 59.2523 120.6355 28.0114 0.0000 0.0000 0.0000
# 3 25.9676 28.0114 45.8309 0.0000 0.0000 0.0000
# 4 0.0000 0.0000 0.0000 14.5676 0.0000 0.0000
# 5 0.0000 0.0000 0.0000 0.0000 19.6740 0.0000
# 6 0.0000 0.0000 0.0000 0.0000 0.0000 36.3926
#
#
#
# Elastic Compliance Matrix: (Units=1/GPa)
#
#
# Indices 1 2 3 4 5 6 
#
# 1 0.014151 -0.005931 -0.004393 0.000000 0.000000 0.000000
# 2 -0.005931 0.012146 -0.004063 0.000000 0.000000 0.000000
# 3 -0.004393 -0.004063 0.026792 0.000000 0.000000 0.000000
# 4 0.000000 0.000000 0.000000 0.068646 0.000000 0.000000
# 5 0.000000 0.000000 0.000000 0.000000 0.050828 0.000000
# 6 0.000000 0.000000 0.000000 0.000000 0.000000 0.027478
#
#
# Mechanical properties :
#
#
# Convention : Reuss Voigt Hill
#
# Bulk Modulus (GPa) = 41.12707 55.16526 48.14617
# Shear Modulus (GPa) = 21.10415 24.57974 22.84194
#
# Velocity S-wave (km/s) = 3.36908 3.63594 3.50505
# Velocity P-wave (km/s) = 6.10362 6.87728 6.50197
#
# Compressibility (1/GPa) = 0.02431488
#
# Stress axis : x y z
#
# Youngs Moduli (GPa) = 70.66503 82.33316 37.32462
#
# Poissons Ratio (x) = 0.48828 0.16398
# Poissons Ratio (y) = 0.41908 0.15166
# Poissons Ratio (z) = 0.31046 0.33453
#
# Static dielectric constant tensor:
#      x y z
#    x 3.597970 0.000000 0.000000 
#    y 0.000000 3.455870 0.000000 
#    z 0.000000 0.000000 3.166320 
# 
# 
# High freq. dielectric constant tensor:
#      x y z
#    x 1.724940 0.000000 0.000000 
#    y 0.000000 1.724590 0.000000 
#    z 0.000000 0.000000 1.686450 
# 
# From -- ./inp_files/22305.got.cif
#   From: 2010.03.12/outbox.cif.g09.slc.cpg/sg40_12_cif.got.tgz:22305.got - 2010.04.14 01:38:03.
