data_PCOD8182554
_publ_section_title
;
Structure prediction by ZEFSAII (Michael W. Deem and Ramdas Pophale) SiO2 
 PCOD8182554
Probable space group: A M A 2
;
_chemical_formula_sum "Si O2"
_cell_formula_units_Z 56
_cell_length_a 8.536575
_cell_length_b 18.372539
_cell_length_c 20.856508
_cell_angle_alpha 90.000000
_cell_angle_beta 90.000000
_cell_angle_gamma 90.000000
_cell_volume 3271.104621
_symmetry_space_group_name_H-M "A M A 2"
_symmetry_group_IT_number 40
_symmetry_cell_setting 'orthorhombic'
loop_
_space_group_symop_operation_xyz
x,y,z
-x,-y,z
1/2-x,y,z
1/2+x,-y,z
x,1/2+y,1/2+z
-x,1/2-y,1/2+z
1/2-x,1/2+y,1/2+z
1/2+x,1/2-y,1/2+z
loop_
_atom_site_type_symbol
_atom_site_label
_atom_site_fract_x
_atom_site_fract_y
_atom_site_fract_z
Si Si1 0.067669 0.346774 0.078350
Si Si2 0.929665 0.795004 0.011579
Si Si3 0.435396 0.157785 0.826378
Si Si4 0.065181 0.920104 0.444666
Si Si5 0.932486 0.577620 0.449133
Si Si6 0.432092 0.579412 0.199735
Si Si7 0.433574 0.715414 0.892536
O O1 0.250000 0.360261 0.092562
O O2 0.032011 0.260221 0.069862
O O3 0.965561 0.372587 0.137539
O O4 0.016900 0.391973 0.015336
O O5 0.750000 0.819922 0.013851
O O6 0.036324 0.867676 0.009355
O O7 0.958504 0.749407 0.947534
O O8 0.250000 0.168964 0.823691
O O9 0.479660 0.106897 0.886326
O O10 0.501528 0.118927 0.762557
O O11 0.520084 0.237276 0.829797
O O12 0.250000 0.918500 0.434636
O O13 0.983041 0.869402 0.390025
O O14 0.000000 0.000000 0.434182
O O15 0.750000 0.572456 0.434313
O O16 0.000000 0.500000 0.468937
O O17 0.500000 0.500000 0.190267
O O18 0.250000 0.570164 0.209087
O O19 0.250000 0.724039 0.907308
#
# Coordination Sequence:
#
# PCOD8182554 Si02
#       7
#     8   8   8   8   8   8   8
#     4   9  19  33  49  67  93 126 158 192 231 273
#     4   9  17  31  48  67  91 121 154 192 234 278
#     4  10  20  34  48  66  93 126 160 196 233 275
#     4  10  19  31  47  70  97 125 155 193 236 279
#     4  11  20  30  47  71  96 124 154 192 236 280
#     4  11  23  34  48  68  94 127 162 196 230 268
#     4  10  18  29  47  69  91 121 155 191 234 281
#
# _framework density 17.119599000000001
#
# number of rings (size 3 to 8) (size 9 to 14) (size 15 to 20)
#    0.000    2.000    0.000    7.714    0.000    8.000 
#    0.000    0.000    0.000    0.000    0.000    1.000 
#    0.000    2.286    0.000    0.000    0.000    0.000 
#
# Total GULP energy -347094.501274 kJ/mol
# GULP energy per Si atom -12396.232188 kJ/mol
# Density = 1.708063 g / cm^3
# Si number density = 17.119599 Si / 1000 Ang^3
#
#
#
# Elastic Constant Matrix: (Units=GPa)
#
#
# Indices 1 2 3 4 5 6 
#
# 1 58.6973 31.5093 20.2962 0.0000 0.0000 0.0000
# 2 31.5093 138.9083 44.6441 0.0000 0.0000 0.0000
# 3 20.2962 44.6441 58.0622 0.0000 0.0000 0.0000
# 4 0.0000 0.0000 0.0000 26.0886 0.0000 0.0000
# 5 0.0000 0.0000 0.0000 0.0000 16.6007 0.0000
# 6 0.0000 0.0000 0.0000 0.0000 0.0000 32.1826
#
#
#
# Elastic Compliance Matrix: (Units=1/GPa)
#
#
# Indices 1 2 3 4 5 6 
#
# 1 0.020332 -0.003092 -0.004730 0.000000 0.000000 0.000000
# 2 -0.003092 0.010032 -0.006633 0.000000 0.000000 0.000000
# 3 -0.004730 -0.006633 0.023976 0.000000 0.000000 0.000000
# 4 0.000000 0.000000 0.000000 0.038331 0.000000 0.000000
# 5 0.000000 0.000000 0.000000 0.000000 0.060238 0.000000
# 6 0.000000 0.000000 0.000000 0.000000 0.000000 0.031073
#
#
# Mechanical properties :
#
#
# Convention : Reuss Voigt Hill
#
# Bulk Modulus (GPa) = 39.32211 49.84079 44.58145
# Shear Modulus (GPa) = 22.58678 25.58892 24.08785
#
# Velocity S-wave (km/s) = 3.63623 3.87035 3.75511
# Velocity P-wave (km/s) = 6.37562 7.01066 6.70066
#
# Compressibility (1/GPa) = 0.02543099
#
# Stress axis : x y z
#
# Youngs Moduli (GPa) = 49.18412 99.68008 41.70781
#
# Poissons Ratio (x) = 0.30819 0.19727
# Poissons Ratio (y) = 0.15207 0.27664
# Poissons Ratio (z) = 0.23263 0.66117
#
# Static dielectric constant tensor:
#      x y z
#    x 3.207160 0.000000 0.000000 
#    y 0.000000 3.711430 0.000000 
#    z 0.000000 0.000000 3.038410 
# 
# 
# High freq. dielectric constant tensor:
#      x y z
#    x 1.674100 0.000000 0.000000 
#    y 0.000000 1.671220 0.000000 
#    z 0.000000 0.000000 1.611830 
# 
# From -- ./inp_files/22315.got.cif
#   From: 2010.03.12/outbox.cif.g09.slc.cpg/sg40_12_cif.got.tgz:22315.got - 2010.04.14 01:38:03.
