data_PCOD8182090
_publ_section_title
;
Structure prediction by ZEFSAII (Michael W. Deem and Ramdas Pophale) SiO2 
 PCOD8182090
Probable space group: A B M 2
;
_chemical_formula_sum "Si O2"
_cell_formula_units_Z 64
_cell_length_a 15.273911
_cell_length_b 20.823877
_cell_length_c 9.740304
_cell_angle_alpha 90.000000
_cell_angle_beta 90.000000
_cell_angle_gamma 90.000000
_cell_volume 3098.020999
_symmetry_space_group_name_H-M "A B M 2"
_symmetry_group_IT_number 39
_symmetry_cell_setting 'orthorhombic'
loop_
_space_group_symop_operation_xyz
x,y,z
-x,-y,z
-x,1/2+y,z
x,1/2-y,z
x,1/2+y,1/2+z
-x,1/2-y,1/2+z
-x,y,1/2+z
x,-y,1/2+z
loop_
_atom_site_type_symbol
_atom_site_label
_atom_site_fract_x
_atom_site_fract_y
_atom_site_fract_z
Si Si1 0.930219 0.676566 0.162030
Si Si2 0.978365 0.600813 0.426458
Si Si3 0.760026 0.115711 0.582049
Si Si4 0.862316 0.016601 0.421399
Si Si5 0.695306 0.523360 0.276541
Si Si6 0.588912 0.958249 0.547800
Si Si7 0.459331 0.677263 0.141225
Si Si8 0.390253 0.321153 0.937915
O O1 0.958448 0.750000 0.168942
O O2 0.938210 0.646694 0.312135
O O3 0.828761 0.672185 0.113838
O O4 0.996068 0.641793 0.058772
O O5 0.905247 0.549621 0.474355
O O6 0.062612 0.564057 0.363289
O O7 0.702998 0.095796 0.715334
O O8 0.695170 0.134044 0.455925
O O9 0.814090 0.051232 0.547490
O O10 0.792352 0.002678 0.304176
O O11 0.631950 0.523177 0.405469
O O12 0.653692 0.475472 0.168547
O O13 0.582668 0.880740 0.554434
O O14 0.500000 0.000000 0.562631
O O15 0.420742 0.750000 0.112672
O O16 0.558250 0.676861 0.083156
O O17 0.450206 0.660123 0.304532
O O18 0.354069 0.250000 0.912774
#
# Coordination Sequence:
#
# PCOD8182090 Si02
#       8
#     8   8   8   8   8   8   8   8
#     4  11  23  41  64  93 126 168 211 254 310 387
#     4  10  23  39  67  92 130 162 211 253 321 380
#     4  11  22  40  65  95 126 165 215 265 327 375
#     4  10  22  40  65  96 126 165 204 265 318 381
#     4  12  24  41  64  95 132 166 214 271 328 379
#     4  12  27  41  66  96 133 171 219 273 327 385
#     4  10  24  43  65  92 128 175 223 266 328 393
#     4  10  22  42  65  90 127 172 219 268 319 389
#
# _framework density 20.658349000000001
#
# number of rings (size 3 to 8) (size 9 to 14) (size 15 to 20)
#    0.000    1.250    2.500    2.625    7.000    1.000 
#    0.000    0.625    0.000    3.750    0.000    0.000 
#    0.000    0.000    0.000    0.000    0.000    0.000 
#
# Total GULP energy -396558.672634 kJ/mol
# GULP energy per Si atom -12392.458520 kJ/mol
# Density = 2.061133 g / cm^3
# Si number density = 20.658349 Si / 1000 Ang^3
#
#
#
# Elastic Constant Matrix: (Units=GPa)
#
#
# Indices 1 2 3 4 5 6 
#
# 1 84.7273 51.2835 27.7540 0.0000 0.0000 0.0000
# 2 51.2835 153.6278 46.7521 0.0000 0.0000 0.0000
# 3 27.7540 46.7521 92.3310 0.0000 0.0000 0.0000
# 4 0.0000 0.0000 0.0000 25.1006 0.0000 0.0000
# 5 0.0000 0.0000 0.0000 0.0000 43.6218 0.0000
# 6 0.0000 0.0000 0.0000 0.0000 0.0000 28.8399
#
#
#
# Elastic Compliance Matrix: (Units=1/GPa)
#
#
# Indices 1 2 3 4 5 6 
#
# 1 0.015216 -0.004359 -0.002367 0.000000 0.000000 0.000000
# 2 -0.004359 0.008944 -0.003218 0.000000 0.000000 0.000000
# 3 -0.002367 -0.003218 0.013172 0.000000 0.000000 0.000000
# 4 0.000000 0.000000 0.000000 0.039840 0.000000 0.000000
# 5 0.000000 0.000000 0.000000 0.000000 0.022924 0.000000
# 6 0.000000 0.000000 0.000000 0.000000 0.000000 0.034674
#
#
# Mechanical properties :
#
#
# Convention : Reuss Voigt Hill
#
# Bulk Modulus (GPa) = 57.32847 64.69613 61.01230
# Shear Modulus (GPa) = 31.15790 33.17223 32.16506
#
# Velocity S-wave (km/s) = 3.88783 4.01153 3.95017
# Velocity P-wave (km/s) = 6.92565 7.26923 7.09952
#
# Compressibility (1/GPa) = 0.01744334
#
# Stress axis : x y z
#
# Youngs Moduli (GPa) = 65.71873 111.80865 75.92081
#
# Poissons Ratio (x) = 0.48740 0.17967
# Poissons Ratio (y) = 0.28649 0.24434
# Poissons Ratio (z) = 0.15553 0.35984
#
# Static dielectric constant tensor:
#      x y z
#    x 3.745420 0.000000 0.000000 
#    y 0.000000 3.978340 0.000000 
#    z 0.000000 0.000000 3.513800 
# 
# 
# High freq. dielectric constant tensor:
#      x y z
#    x 1.806530 0.000000 0.000000 
#    y 0.000000 1.815610 0.000000 
#    z 0.000000 0.000000 1.804620 
# 
# From -- ./inp_files/3537.got.cif
#   From: 2010.03.12/outbox.cif.g09.slc.cpg/sg39_2_cif.got.tgz:3537.got - 2010.04.14 02:53:20.
