data_PCOD8182804
_publ_section_title
;
Structure prediction by ZEFSAII (Michael W. Deem and Ramdas Pophale) SiO2 
 PCOD8182804
Probable space group: A M A 2
;
_chemical_formula_sum "Si O2"
_cell_formula_units_Z 64
_cell_length_a 8.840008
_cell_length_b 31.145618
_cell_length_c 12.038558
_cell_angle_alpha 90.000000
_cell_angle_beta 90.000000
_cell_angle_gamma 90.000000
_cell_volume 3314.546226
_symmetry_space_group_name_H-M "A M A 2"
_symmetry_group_IT_number 40
_symmetry_cell_setting 'orthorhombic'
loop_
_space_group_symop_operation_xyz
x,y,z
-x,-y,z
1/2-x,y,z
1/2+x,-y,z
x,1/2+y,1/2+z
-x,1/2-y,1/2+z
1/2-x,1/2+y,1/2+z
1/2+x,1/2-y,1/2+z
loop_
_atom_site_type_symbol
_atom_site_label
_atom_site_fract_x
_atom_site_fract_y
_atom_site_fract_z
Si Si1 0.429033 0.571326 0.131920
Si Si2 0.930056 0.874046 0.257624
Si Si3 0.429348 0.543543 0.370262
Si Si4 0.928152 0.296317 0.904218
Si Si5 0.429916 0.543650 0.893788
Si Si6 0.428805 0.298717 0.360847
Si Si7 0.572040 0.331296 0.142264
Si Si8 0.570497 0.372990 0.504515
O O1 0.250000 0.570589 0.129772
O O2 0.489172 0.548365 0.243414
O O3 0.484057 0.620111 0.133054
O O4 0.491093 0.548928 0.020377
O O5 0.750000 0.873660 0.262846
O O6 0.996483 0.831726 0.319068
O O7 0.989527 0.916642 0.320086
O O8 0.987613 0.874789 0.131055
O O9 0.500000 0.500000 0.420407
O O10 0.250000 0.540313 0.375689
O O11 0.486395 0.584099 0.441942
O O12 0.750000 0.296417 0.887509
O O13 0.993591 0.249063 0.881970
O O14 0.971438 0.308014 0.029065
O O15 0.500000 0.500000 0.844392
O O16 0.250000 0.541028 0.889770
O O17 0.250000 0.300899 0.376190
O O18 0.474219 0.309213 0.236332
O O19 0.502694 0.331068 0.447873
O O20 0.750000 0.328326 0.170462
O O21 0.750000 0.369587 0.497176
#
# Coordination Sequence:
#
# PCOD8182804 Si02
#       8
#     8   8   8   8   8   8   8   8
#     4   9  16  31  55  79 105 138 181 222 263 321
#     4   9  18  35  58  80 104 144 191 227 261 320
#     4  10  20  34  52  78 105 138 183 226 268 322
#     4   9  19  35  57  83 111 142 181 227 275 324
#     4  10  19  33  55  81 108 140 179 226 274 324
#     4  11  23  36  54  87 119 140 176 233 285 320
#     4  10  18  36  62  81 105 148 189 220 265 331
#     4  10  21  38  59  79 106 149 195 224 262 334
#
# _framework density 19.308827000000001
#
# number of rings (size 3 to 8) (size 9 to 14) (size 15 to 20)
#    0.000    2.250    2.500    0.750    1.750    1.000 
#    0.000    1.875    0.000    2.250    0.000    0.000 
#    0.000    0.000    0.000    0.000    0.000    0.000 
#
# Total GULP energy -396773.340819 kJ/mol
# GULP energy per Si atom -12399.166901 kJ/mol
# Density = 1.926488 g / cm^3
# Si number density = 19.308827 Si / 1000 Ang^3
#
#
#
# Elastic Constant Matrix: (Units=GPa)
#
#
# Indices 1 2 3 4 5 6 
#
# 1 17.4167 24.5010 19.8590 0.0000 0.0000 0.0000
# 2 24.5010 190.3260 84.0214 0.0000 0.0000 0.0000
# 3 19.8590 84.0214 138.3373 0.0000 0.0000 0.0000
# 4 0.0000 0.0000 0.0000 52.7898 0.0000 0.0000
# 5 0.0000 0.0000 0.0000 0.0000 9.1164 0.0000
# 6 0.0000 0.0000 0.0000 0.0000 0.0000 26.5471
#
#
#
# Elastic Compliance Matrix: (Units=1/GPa)
#
#
# Indices 1 2 3 4 5 6 
#
# 1 0.074322 -0.006637 -0.006638 0.000000 0.000000 0.000000
# 2 -0.006637 0.007772 -0.003768 0.000000 0.000000 0.000000
# 3 -0.006638 -0.003768 0.010470 0.000000 0.000000 0.000000
# 4 0.000000 0.000000 0.000000 0.018943 0.000000 0.000000
# 5 0.000000 0.000000 0.000000 0.000000 0.109693 0.000000
# 6 0.000000 0.000000 0.000000 0.000000 0.000000 0.037669
#
#
# Mechanical properties :
#
#
# Convention : Reuss Voigt Hill
#
# Bulk Modulus (GPa) = 17.10040 66.98255 42.04147
# Shear Modulus (GPa) = 16.00272 32.20389 24.10330
#
# Velocity S-wave (km/s) = 2.88197 4.08834 3.53697
# Velocity P-wave (km/s) = 4.46652 7.55324 6.20489
#
# Compressibility (1/GPa) = 0.05847818
#
# Stress axis : x y z
#
# Youngs Moduli (GPa) = 13.45495 128.67093 95.51188
#
# Poissons Ratio (x) = 0.85401 0.63402
# Poissons Ratio (y) = 0.08930 0.35984
# Poissons Ratio (z) = 0.08932 0.48477
#
# Static dielectric constant tensor:
#      x y z
#    x 3.001730 0.000000 0.000000 
#    y 0.000000 3.781210 0.000000 
#    z 0.000000 0.000000 3.742890 
# 
# 
# High freq. dielectric constant tensor:
#      x y z
#    x 1.702270 0.000000 0.000000 
#    y 0.000000 1.769540 0.000000 
#    z 0.000000 0.000000 1.759900 
# 
# From -- ./inp_files/10563.got.cif
#   From: 2010.03.12/outbox.cif.g09.slc.cpg/sg40_6_cif.got.tgz:10563.got - 2010.04.14 01:38:03.
