data_PCOD8182783
_publ_section_title
;
Structure prediction by ZEFSAII (Michael W. Deem and Ramdas Pophale) SiO2 
 PCOD8182783
Probable space group: A M A 2
;
_chemical_formula_sum "Si O2"
_cell_formula_units_Z 64
_cell_length_a 19.508319
_cell_length_b 8.673846
_cell_length_c 18.189331
_cell_angle_alpha 90.000000
_cell_angle_beta 90.000000
_cell_angle_gamma 90.000000
_cell_volume 3077.855892
_symmetry_space_group_name_H-M "A M A 2"
_symmetry_group_IT_number 40
_symmetry_cell_setting 'orthorhombic'
loop_
_space_group_symop_operation_xyz
x,y,z
-x,-y,z
1/2-x,y,z
1/2+x,-y,z
x,1/2+y,1/2+z
-x,1/2-y,1/2+z
1/2-x,1/2+y,1/2+z
1/2+x,1/2-y,1/2+z
loop_
_atom_site_type_symbol
_atom_site_label
_atom_site_fract_x
_atom_site_fract_y
_atom_site_fract_z
Si Si1 0.459336 0.649558 0.080230
Si Si2 0.439639 0.095083 0.817621
Si Si3 0.556884 0.627275 0.713336
Si Si4 0.674957 0.405197 0.550224
Si Si5 0.962681 0.349643 0.479221
Si Si6 0.672439 0.753060 0.509721
Si Si7 0.169528 0.338083 0.342782
Si Si8 0.827253 0.392969 0.714310
O O1 0.500000 0.500000 0.110822
O O2 0.465963 0.785272 0.139788
O O3 0.379979 0.629940 0.052216
O O4 0.500749 0.698130 0.008217
O O5 0.425272 0.248622 0.774367
O O6 0.473420 0.150672 0.893050
O O7 0.500000 0.000000 0.776300
O O8 0.370723 0.997249 0.830527
O O9 0.500000 0.500000 0.734759
O O10 0.629470 0.546509 0.708849
O O11 0.750000 0.365688 0.516894
O O12 0.617514 0.335931 0.497906
O O13 0.666616 0.590482 0.551940
O O14 0.668802 0.326345 0.631031
O O15 0.000000 0.500000 0.514544
O O16 0.750000 0.819491 0.515842
O O17 0.652224 0.732183 0.423257
O O18 0.250000 0.375562 0.336753
O O19 0.145464 0.224837 0.276621
O O20 0.750000 0.439889 0.734789
#
# Coordination Sequence:
#
# PCOD8182783 Si02
#       8
#     8   8   8   8   8   8   8   8
#     4  12  25  40  62  93 125 162 212 270 321 371
#     4  11  23  38  59  89 123 160 204 253 310 371
#     4  12  25  41  61  84 121 169 210 255 312 379
#     4  10  18  34  63  90 114 156 206 248 299 374
#     4  11  20  38  62  88 119 156 204 252 307 376
#     4  10  19  38  67  93 122 162 207 254 315 382
#     4  10  21  39  65  96 128 162 205 262 318 376
#     4  10  21  37  61  90 120 158 208 254 307 376
#
# _framework density 20.793696000000001
#
# number of rings (size 3 to 8) (size 9 to 14) (size 15 to 20)
#    0.000    1.250    3.750    3.000    0.000    3.000 
#    0.000    0.625    0.000    0.750    0.000    0.000 
#    0.000    0.000    0.000    0.000    0.000    0.000 
#
# Total GULP energy -396578.313155 kJ/mol
# GULP energy per Si atom -12393.072286 kJ/mol
# Density = 2.074637 g / cm^3
# Si number density = 20.793696 Si / 1000 Ang^3
#
#
#
# Elastic Constant Matrix: (Units=GPa)
#
#
# Indices 1 2 3 4 5 6 
#
# 1 112.6239 32.4754 16.3350 0.0000 0.0000 0.0000
# 2 32.4754 70.2165 28.9135 0.0000 0.0000 0.0000
# 3 16.3350 28.9135 85.7042 0.0000 0.0000 0.0000
# 4 0.0000 0.0000 0.0000 33.9584 0.0000 0.0000
# 5 0.0000 0.0000 0.0000 0.0000 24.3309 0.0000
# 6 0.0000 0.0000 0.0000 0.0000 0.0000 31.2535
#
#
#
# Elastic Compliance Matrix: (Units=1/GPa)
#
#
# Indices 1 2 3 4 5 6 
#
# 1 0.010258 -0.004575 -0.000412 0.000000 0.000000 0.000000
# 2 -0.004575 0.018580 -0.005396 0.000000 0.000000 0.000000
# 3 -0.000412 -0.005396 0.013567 0.000000 0.000000 0.000000
# 4 0.000000 0.000000 0.000000 0.029448 0.000000 0.000000
# 5 0.000000 0.000000 0.000000 0.000000 0.041100 0.000000
# 6 0.000000 0.000000 0.000000 0.000000 0.000000 0.031996
#
#
# Mechanical properties :
#
#
# Convention : Reuss Voigt Hill
#
# Bulk Modulus (GPa) = 46.21263 47.11028 46.66146
# Shear Modulus (GPa) = 28.91393 30.62995 29.77194
#
# Velocity S-wave (km/s) = 3.73301 3.84218 3.78799
# Velocity P-wave (km/s) = 6.39164 6.51064 6.45141
#
# Compressibility (1/GPa) = 0.02163911
#
# Stress axis : x y z
#
# Youngs Moduli (GPa) = 97.48501 53.82266 73.70833
#
# Poissons Ratio (x) = 0.24623 0.03035
# Poissons Ratio (y) = 0.44597 0.39774
# Poissons Ratio (z) = 0.04014 0.29043
#
# Static dielectric constant tensor:
#      x y z
#    x 4.107420 0.000000 0.000000 
#    y 0.000000 3.504650 0.000000 
#    z 0.000000 0.000000 3.901900 
# 
# 
# High freq. dielectric constant tensor:
#      x y z
#    x 1.834290 0.000000 0.000000 
#    y 0.000000 1.775050 0.000000 
#    z 0.000000 0.000000 1.819770 
# 
# From -- ./inp_files/21365.got.cif
#   From: 2010.03.12/outbox.cif.g09.slc.cpg/sg40_11_cif.got.tgz:21365.got - 2010.04.14 01:38:03.
