data_PCOD8182211
_publ_section_title
;
Structure prediction by ZEFSAII (Michael W. Deem and Ramdas Pophale) SiO2 
 PCOD8182211
Probable space group: A B M 2
;
_chemical_formula_sum "Si O2"
_cell_formula_units_Z 44
_cell_length_a 7.086696
_cell_length_b 32.462012
_cell_length_c 8.458270
_cell_angle_alpha 90.000000
_cell_angle_beta 90.000000
_cell_angle_gamma 90.000000
_cell_volume 1945.811570
_symmetry_space_group_name_H-M "A B M 2"
_symmetry_group_IT_number 39
_symmetry_cell_setting 'orthorhombic'
loop_
_space_group_symop_operation_xyz
x,y,z
-x,-y,z
-x,1/2+y,z
x,1/2-y,z
x,1/2+y,1/2+z
-x,1/2-y,1/2+z
-x,y,1/2+z
x,-y,1/2+z
loop_
_atom_site_type_symbol
_atom_site_label
_atom_site_fract_x
_atom_site_fract_y
_atom_site_fract_z
Si Si1 0.743434 0.794866 0.228670
Si Si2 0.728534 0.378046 0.622599
Si Si3 0.500000 0.500000 0.402866
Si Si4 0.142640 0.205311 0.588718
Si Si5 0.611833 0.440072 0.152631
Si Si6 0.129020 0.126110 0.766057
O O1 0.637929 0.750000 0.221222
O O2 0.621587 0.834028 0.163171
O O3 0.814859 0.804176 0.405923
O O4 0.917364 0.793071 0.106781
O O5 0.588658 0.415782 0.654322
O O6 0.806982 0.380065 0.445419
O O7 0.903797 0.378420 0.745894
O O8 0.631946 0.470138 0.301769
O O9 0.366046 0.470011 0.503659
O O10 0.229114 0.250000 0.637706
O O11 0.216118 0.169328 0.703664
O O12 0.783379 0.408769 0.153492
#
# Coordination Sequence:
#
# PCOD8182211 Si02
#       6
#     8   8   4   8   8   8
#     4   9  17  30  52  84 123 164 204 246 292 347
#     4  11  23  38  64  95 125 163 205 249 300 361
#     4  10  24  46  70  86 122 156 200 250 318 374
#     4   9  17  30  52  84 123 164 204 246 292 347
#     4  11  24  46  67  90 120 162 197 254 310 369
#     4  11  23  38  64  95 125 163 205 249 300 361
#
# _framework density 22.612673999999998
#
# number of rings (size 3 to 8) (size 9 to 14) (size 15 to 20)
#    0.000    1.818    1.818    4.364    5.091    2.182 
#    0.000    6.364    0.000    0.000    0.000    0.000 
#    0.000    0.000    0.000    0.000    0.000    0.000 
#
# Total GULP energy -272540.821506 kJ/mol
# GULP energy per Si atom -12388.219159 kJ/mol
# Density = 2.256121 g / cm^3
# Si number density = 22.612674 Si / 1000 Ang^3
#
#
#
# Elastic Constant Matrix: (Units=GPa)
#
#
# Indices 1 2 3 4 5 6 
#
# 1 46.9970 34.2314 12.0193 0.0000 0.0000 0.0000
# 2 34.2314 180.7114 47.1474 0.0000 0.0000 0.0000
# 3 12.0193 47.1474 88.4854 0.0000 0.0000 0.0000
# 4 0.0000 0.0000 0.0000 70.2862 0.0000 0.0000
# 5 0.0000 0.0000 0.0000 0.0000 13.0995 0.0000
# 6 0.0000 0.0000 0.0000 0.0000 0.0000 32.7022
#
#
#
# Elastic Compliance Matrix: (Units=1/GPa)
#
#
# Indices 1 2 3 4 5 6 
#
# 1 0.024760 -0.004428 -0.001004 0.000000 0.000000 0.000000
# 2 -0.004428 0.007219 -0.003245 0.000000 0.000000 0.000000
# 3 -0.001004 -0.003245 0.013167 0.000000 0.000000 0.000000
# 4 0.000000 0.000000 0.000000 0.014228 0.000000 0.000000
# 5 0.000000 0.000000 0.000000 0.000000 0.076339 0.000000
# 6 0.000000 0.000000 0.000000 0.000000 0.000000 0.030579
#
#
# Mechanical properties :
#
#
# Convention : Reuss Voigt Hill
#
# Bulk Modulus (GPa) = 35.98188 55.88777 45.93483
# Shear Modulus (GPa) = 25.91890 38.07063 31.99476
#
# Velocity S-wave (km/s) = 3.38925 4.10762 3.76560
# Velocity P-wave (km/s) = 5.59131 6.87500 6.26611
#
# Compressibility (1/GPa) = 0.02779177
#
# Stress axis : x y z
#
# Youngs Moduli (GPa) = 40.38753 138.52039 75.94927
#
# Poissons Ratio (x) = 0.61341 0.07623
# Poissons Ratio (y) = 0.17885 0.24646
# Poissons Ratio (z) = 0.04054 0.44950
#
# Static dielectric constant tensor:
#      x y z
#    x 3.515100 0.000000 0.000000 
#    y 0.000000 4.851520 0.000000 
#    z 0.000000 0.000000 4.176270 
# 
# 
# High freq. dielectric constant tensor:
#      x y z
#    x 1.833520 0.000000 0.000000 
#    y 0.000000 1.923920 0.000000 
#    z 0.000000 0.000000 1.902780 
# 
# From -- ./inp_files/2252.got.cif
#   From: 2010.03.12/outbox.cif.g09.slc.cpg/sg39_2_cif.got.tgz:2252.got - 2010.04.14 02:53:20.
