data_PCOD8182208
_publ_section_title
;
Structure prediction by ZEFSAII (Michael W. Deem and Ramdas Pophale) SiO2 
 PCOD8182208
Probable space group: A B M 2
;
_chemical_formula_sum "Si O2"
_cell_formula_units_Z 48
_cell_length_a 10.848907
_cell_length_b 24.111473
_cell_length_c 8.156321
_cell_angle_alpha 90.000000
_cell_angle_beta 90.000000
_cell_angle_gamma 90.000000
_cell_volume 2133.555962
_symmetry_space_group_name_H-M "A B M 2"
_symmetry_group_IT_number 39
_symmetry_cell_setting 'orthorhombic'
loop_
_space_group_symop_operation_xyz
x,y,z
-x,-y,z
-x,1/2+y,z
x,1/2-y,z
x,1/2+y,1/2+z
-x,1/2-y,1/2+z
-x,y,1/2+z
x,-y,1/2+z
loop_
_atom_site_type_symbol
_atom_site_label
_atom_site_fract_x
_atom_site_fract_y
_atom_site_fract_z
Si Si1 0.143243 0.511619 0.431050
Si Si2 0.132289 0.688317 0.676407
Si Si3 0.690487 0.404738 0.599596
Si Si4 0.250114 0.575345 0.125258
Si Si5 0.866316 0.812850 0.563281
Si Si6 0.480869 0.562281 0.314511
O O1 0.205171 0.547636 0.579622
O O2 0.168356 0.543778 0.263237
O O3 0.208947 0.450913 0.449528
O O4 0.000000 0.500000 0.459083
O O5 0.148854 0.750000 0.606733
O O6 0.242234 0.653857 0.597232
O O7 0.000100 0.665696 0.619270
O O8 0.140543 0.686724 0.869863
O O9 0.594217 0.403303 0.449167
O O10 0.612990 0.411575 0.768411
O O11 0.229122 0.641720 0.133316
O O12 0.394973 0.562627 0.150005
O O13 0.838489 0.750000 0.629633
O O14 0.500000 0.500000 0.377778
#
# Coordination Sequence:
#
# PCOD8182208 Si02
#       6
#     8   8   8   8   8   8
#     4  11  24  40  61 101 138 176 222 298 353 414
#     4  10  24  46  71 100 136 180 235 296 359 425
#     4  11  25  42  68  97 135 187 229 286 342 428
#     4  11  25  39  66  98 137 183 234 281 348 420
#     4  10  24  45  72 100 138 185 231 292 361 424
#     4  11  24  43  63  97 137 187 230 276 348 416
#
# _framework density 22.49765
#
# number of rings (size 3 to 8) (size 9 to 14) (size 15 to 20)
#    0.000    1.333    1.667    2.000   14.000    0.000 
#    0.000    1.667    0.000    0.000    0.000    0.000 
#    0.000    0.000    0.000    0.000    0.000    0.000 
#
# Total GULP energy -297554.501468 kJ/mol
# GULP energy per Si atom -12398.104228 kJ/mol
# Density = 2.244644 g / cm^3
# Si number density = 22.497650 Si / 1000 Ang^3
#
#
#
# Elastic Constant Matrix: (Units=GPa)
#
#
# Indices 1 2 3 4 5 6 
#
# 1 128.6688 49.9508 17.7979 0.0000 0.0000 0.0000
# 2 49.9508 124.1323 25.2949 0.0000 0.0000 0.0000
# 3 17.7979 25.2949 36.3997 0.0000 0.0000 0.0000
# 4 0.0000 0.0000 0.0000 31.6480 0.0000 0.0000
# 5 0.0000 0.0000 0.0000 0.0000 44.7578 0.0000
# 6 0.0000 0.0000 0.0000 0.0000 0.0000 49.4080
#
#
#
# Elastic Compliance Matrix: (Units=1/GPa)
#
#
# Indices 1 2 3 4 5 6 
#
# 1 0.009371 -0.003305 -0.002285 0.000000 0.000000 0.000000
# 2 -0.003305 0.010551 -0.005716 0.000000 0.000000 0.000000
# 3 -0.002285 -0.005716 0.032562 0.000000 0.000000 0.000000
# 4 0.000000 0.000000 0.000000 0.031598 0.000000 0.000000
# 5 0.000000 0.000000 0.000000 0.000000 0.022342 0.000000
# 6 0.000000 0.000000 0.000000 0.000000 0.000000 0.020240
#
#
# Mechanical properties :
#
#
# Convention : Reuss Voigt Hill
#
# Bulk Modulus (GPa) = 33.47675 52.80980 43.14327
# Shear Modulus (GPa) = 31.40049 38.23989 34.82019
#
# Velocity S-wave (km/s) = 3.73999 4.12725 3.93838
# Velocity P-wave (km/s) = 5.79331 6.79976 6.31661
#
# Compressibility (1/GPa) = 0.02987148
#
# Stress axis : x y z
#
# Youngs Moduli (GPa) = 106.71060 94.78054 30.71056
#
# Poissons Ratio (x) = 0.31328 0.07018
# Poissons Ratio (y) = 0.35271 0.17553
# Poissons Ratio (z) = 0.24385 0.54174
#
# Static dielectric constant tensor:
#      x y z
#    x 4.144970 0.000000 0.000000 
#    y 0.000000 4.259230 0.000000 
#    z 0.000000 0.000000 4.066760 
# 
# 
# High freq. dielectric constant tensor:
#      x y z
#    x 1.891290 0.000000 0.000000 
#    y 0.000000 1.872590 0.000000 
#    z 0.000000 0.000000 1.897400 
# 
# From -- ./inp_files/2723.got.cif
#   From: 2010.03.12/outbox.cif.g09.slc.cpg/sg39_2_cif.got.tgz:2723.got - 2010.04.14 02:53:20.
