data_PCOD8182766
_publ_section_title
;
Structure prediction by ZEFSAII (Michael W. Deem and Ramdas Pophale) SiO2 
 PCOD8182766
Probable space group: A M A 2
;
_chemical_formula_sum "Si O2"
_cell_formula_units_Z 64
_cell_length_a 8.942062
_cell_length_b 20.726180
_cell_length_c 19.693719
_cell_angle_alpha 90.000000
_cell_angle_beta 90.000000
_cell_angle_gamma 90.000000
_cell_volume 3649.931208
_symmetry_space_group_name_H-M "A M A 2"
_symmetry_group_IT_number 40
_symmetry_cell_setting 'orthorhombic'
loop_
_space_group_symop_operation_xyz
x,y,z
-x,-y,z
1/2-x,y,z
1/2+x,-y,z
x,1/2+y,1/2+z
-x,1/2-y,1/2+z
1/2-x,1/2+y,1/2+z
1/2+x,1/2-y,1/2+z
loop_
_atom_site_type_symbol
_atom_site_label
_atom_site_fract_x
_atom_site_fract_y
_atom_site_fract_z
Si Si1 0.574858 0.764563 0.137300
Si Si2 0.571860 0.308985 0.778406
Si Si3 0.927163 0.066508 0.777284
Si Si4 0.424611 0.565348 0.856295
Si Si5 0.575115 0.377040 0.997776
Si Si6 0.576911 0.258294 0.489647
Si Si7 0.424889 0.186334 0.848311
Si Si8 0.926101 0.119696 0.633834
O O1 0.750000 0.759434 0.145721
O O2 0.518553 0.809480 0.199160
O O3 0.511191 0.692022 0.145710
O O4 0.531354 0.791262 0.062259
O O5 0.750000 0.300953 0.787515
O O6 0.513899 0.375185 0.811398
O O7 0.492613 0.249355 0.814165
O O8 0.750000 0.063988 0.786389
O O9 0.972972 0.077579 0.698758
O O10 0.990233 0.123062 0.823964
O O11 0.000000 0.000000 0.802086
O O12 0.500000 0.500000 0.830270
O O13 0.250000 0.558379 0.844489
O O14 0.464362 0.576472 0.935108
O O15 0.750000 0.371903 0.009958
O O16 0.516962 0.306246 0.978525
O O17 0.500949 0.407635 0.065204
O O18 0.750000 0.236951 0.492081
O O19 0.547785 0.308826 0.429489
O O20 0.250000 0.181167 0.830692
O O21 0.750000 0.118924 0.622651
#
# Coordination Sequence:
#
# PCOD8182766 Si02
#       8
#     8   8   8   8   8   8   8   8
#     4   8  14  29  53  76  99 131 171 210 257 313
#     4  10  18  34  56  77 102 136 179 221 265 317
#     4  11  23  39  56  76 107 144 182 224 267 321
#     4  10  22  35  50  73 104 141 178 217 265 311
#     4  10  19  31  49  75 106 138 176 221 258 306
#     4   9  18  32  51  78 107 137 173 212 261 319
#     4  11  21  33  54  82 109 138 175 222 268 316
#     4   9  18  33  52  73 102 142 175 209 259 316
#
# _framework density 17.534578
#
# number of rings (size 3 to 8) (size 9 to 14) (size 15 to 20)
#    0.000    2.250    2.500    1.875    0.000    3.500 
#    0.000    2.500    0.000    0.750    0.000    1.750 
#    0.000    0.000    0.000    0.000    0.000    0.000 
#
# Total GULP energy -396676.024026 kJ/mol
# GULP energy per Si atom -12396.125751 kJ/mol
# Density = 1.749467 g / cm^3
# Si number density = 17.534578 Si / 1000 Ang^3
#
#
#
# Elastic Constant Matrix: (Units=GPa)
#
#
# Indices 1 2 3 4 5 6 
#
# 1 51.1374 37.7307 41.5611 0.0000 0.0000 0.0000
# 2 37.7307 118.2326 64.5583 0.0000 0.0000 0.0000
# 3 41.5611 64.5583 118.0146 0.0000 0.0000 0.0000
# 4 0.0000 0.0000 0.0000 19.9786 0.0000 0.0000
# 5 0.0000 0.0000 0.0000 0.0000 22.4246 0.0000
# 6 0.0000 0.0000 0.0000 0.0000 0.0000 26.7469
#
#
#
# Elastic Compliance Matrix: (Units=1/GPa)
#
#
# Indices 1 2 3 4 5 6 
#
# 1 0.029595 -0.005352 -0.007495 0.000000 0.000000 0.000000
# 2 -0.005352 0.013028 -0.005242 0.000000 0.000000 0.000000
# 3 -0.007495 -0.005242 0.013981 0.000000 0.000000 0.000000
# 4 0.000000 0.000000 0.000000 0.050054 0.000000 0.000000
# 5 0.000000 0.000000 0.000000 0.000000 0.044594 0.000000
# 6 0.000000 0.000000 0.000000 0.000000 0.000000 0.037388
#
#
# Mechanical properties :
#
#
# Convention : Reuss Voigt Hill
#
# Bulk Modulus (GPa) = 48.95679 63.89833 56.42756
# Shear Modulus (GPa) = 21.58655 23.39898 22.49276
#
# Velocity S-wave (km/s) = 3.51249 3.65697 3.58546
# Velocity P-wave (km/s) = 6.66565 7.37236 7.02789
#
# Compressibility (1/GPa) = 0.02042617
#
# Stress axis : x y z
#
# Youngs Moduli (GPa) = 33.78901 76.75649 71.52808
#
# Poissons Ratio (x) = 0.41082 0.53608
# Poissons Ratio (y) = 0.18085 0.37495
# Poissons Ratio (z) = 0.25324 0.40236
#
# Static dielectric constant tensor:
#      x y z
#    x 3.157810 0.000000 0.000000 
#    y 0.000000 3.100330 0.000000 
#    z 0.000000 0.000000 3.733180 
# 
# 
# High freq. dielectric constant tensor:
#      x y z
#    x 1.669430 0.000000 0.000000 
#    y 0.000000 1.649740 0.000000 
#    z 0.000000 0.000000 1.688140 
# 
# From -- ./inp_files/22385.got.cif
#   From: 2010.03.12/outbox.cif.g09.slc.cpg/sg40_12_cif.got.tgz:22385.got - 2010.04.14 01:38:03.
