data_PCOD8182747
_publ_section_title
;
Structure prediction by ZEFSAII (Michael W. Deem and Ramdas Pophale) SiO2 
 PCOD8182747
Probable space group: A M A 2
;
_chemical_formula_sum "Si O2"
_cell_formula_units_Z 64
_cell_length_a 18.684471
_cell_length_b 8.944458
_cell_length_c 19.974342
_cell_angle_alpha 90.000000
_cell_angle_beta 90.000000
_cell_angle_gamma 90.000000
_cell_volume 3338.161294
_symmetry_space_group_name_H-M "A M A 2"
_symmetry_group_IT_number 40
_symmetry_cell_setting 'orthorhombic'
loop_
_space_group_symop_operation_xyz
x,y,z
-x,-y,z
1/2-x,y,z
1/2+x,-y,z
x,1/2+y,1/2+z
-x,1/2-y,1/2+z
1/2-x,1/2+y,1/2+z
1/2+x,1/2-y,1/2+z
loop_
_atom_site_type_symbol
_atom_site_label
_atom_site_fract_x
_atom_site_fract_y
_atom_site_fract_z
Si Si1 0.992835 0.175141 0.434700
Si Si2 0.440200 0.380128 0.329164
Si Si3 0.173453 0.433619 0.435690
Si Si4 0.327345 0.466840 0.096501
Si Si5 0.335844 0.254366 0.215918
Si Si6 0.629914 0.290909 0.509925
Si Si7 0.079577 0.028654 0.128832
Si Si8 0.895748 0.749994 0.541649
O O1 0.910941 0.218607 0.446974
O O2 0.018511 0.246084 0.365342
O O3 0.030397 0.241050 0.501202
O O4 0.000000 0.000000 0.427368
O O5 0.500000 0.500000 0.301389
O O6 0.390142 0.462549 0.383383
O O7 0.386239 0.302472 0.277239
O O8 0.250000 0.411137 0.398956
O O9 0.179852 0.577886 0.482977
O O10 0.161932 0.290399 0.484000
O O11 0.250000 0.545196 0.101874
O O12 0.348296 0.393164 0.166654
O O13 0.320998 0.336116 0.041845
O O14 0.384597 0.589363 0.075295
O O15 0.250000 0.234466 0.232615
O O16 0.366769 0.098425 0.185002
O O17 0.575653 0.357745 0.566203
O O18 0.107268 0.868881 0.102041
O O19 0.000000 0.000000 0.158716
#
# Coordination Sequence:
#
# PCOD8182747 Si02
#       8
#     8   8   8   8   8   8   8   8
#     4  11  20  35  59  88 123 153 185 248 305 350
#     4  11  23  40  61  83 111 157 216 253 287 353
#     4  10  20  34  58  85 115 153 192 241 299 358
#     4  10  20  35  55  85 119 150 184 235 297 362
#     4  10  24  43  60  82 121 165 206 249 301 357
#     4  10  18  33  56  86 119 145 182 232 300 358
#     4  10  20  34  60  89 117 151 196 241 293 359
#     4  10  20  31  58  91 121 148 187 240 303 363
#
# _framework density 19.172231
#
# number of rings (size 3 to 8) (size 9 to 14) (size 15 to 20)
#    0.000    1.750    3.750    1.125    0.000    5.000 
#    0.000    0.000    0.000    0.000    0.000    0.000 
#    0.000    0.000    0.000    0.000    0.000    0.000 
#
# Total GULP energy -396453.379432 kJ/mol
# GULP energy per Si atom -12389.168107 kJ/mol
# Density = 1.912859 g / cm^3
# Si number density = 19.172231 Si / 1000 Ang^3
#
#
#
# Elastic Constant Matrix: (Units=GPa)
#
#
# Indices 1 2 3 4 5 6 
#
# 1 94.2931 18.1201 31.2269 0.0000 0.0000 0.0000
# 2 18.1201 93.5887 29.4215 0.0000 0.0000 0.0000
# 3 31.2269 29.4215 80.3782 0.0000 0.0000 0.0000
# 4 0.0000 0.0000 0.0000 27.3527 0.0000 0.0000
# 5 0.0000 0.0000 0.0000 0.0000 25.2565 0.0000
# 6 0.0000 0.0000 0.0000 0.0000 0.0000 19.9969
#
#
#
# Elastic Compliance Matrix: (Units=1/GPa)
#
#
# Indices 1 2 3 4 5 6 
#
# 1 0.012252 -0.000990 -0.004398 0.000000 0.000000 0.000000
# 2 -0.000990 0.012154 -0.004065 0.000000 0.000000 0.000000
# 3 -0.004398 -0.004065 0.015637 0.000000 0.000000 0.000000
# 4 0.000000 0.000000 0.000000 0.036559 0.000000 0.000000
# 5 0.000000 0.000000 0.000000 0.000000 0.039594 0.000000
# 6 0.000000 0.000000 0.000000 0.000000 0.000000 0.050008
#
#
# Mechanical properties :
#
#
# Convention : Reuss Voigt Hill
#
# Bulk Modulus (GPa) = 47.30335 47.31077 47.30706
# Shear Modulus (GPa) = 26.02071 27.15398 26.58735
#
# Velocity S-wave (km/s) = 3.68803 3.76748 3.72797
# Velocity P-wave (km/s) = 6.54689 6.60723 6.57713
#
# Compressibility (1/GPa) = 0.02114015
#
# Stress axis : x y z
#
# Youngs Moduli (GPa) = 81.62103 82.27453 63.94920
#
# Poissons Ratio (x) = 0.08142 0.28122
# Poissons Ratio (y) = 0.08078 0.25992
# Poissons Ratio (z) = 0.35893 0.33441
#
# Static dielectric constant tensor:
#      x y z
#    x 3.455220 0.000000 0.000000 
#    y 0.000000 3.438150 0.000000 
#    z 0.000000 0.000000 3.283290 
# 
# 
# High freq. dielectric constant tensor:
#      x y z
#    x 1.750350 0.000000 0.000000 
#    y 0.000000 1.745650 0.000000 
#    z 0.000000 0.000000 1.719530 
# 
# From -- ./inp_files/21364.got.cif
#   From: 2010.03.12/outbox.cif.g09.slc.cpg/sg40_11_cif.got.tgz:21364.got - 2010.04.14 01:38:03.
