data_PCOD8182152
_publ_section_title
;
Structure prediction by ZEFSAII (Michael W. Deem and Ramdas Pophale) SiO2 
 PCOD8182152
Probable space group: A B M 2
;
_chemical_formula_sum "Si O2"
_cell_formula_units_Z 40
_cell_length_a 4.802992
_cell_length_b 29.451552
_cell_length_c 12.275416
_cell_angle_alpha 90.000000
_cell_angle_beta 90.000000
_cell_angle_gamma 90.000000
_cell_volume 1736.425951
_symmetry_space_group_name_H-M "A B M 2"
_symmetry_group_IT_number 39
_symmetry_cell_setting 'orthorhombic'
loop_
_space_group_symop_operation_xyz
x,y,z
-x,-y,z
-x,1/2+y,z
x,1/2-y,z
x,1/2+y,1/2+z
-x,1/2-y,1/2+z
-x,y,1/2+z
x,-y,1/2+z
loop_
_atom_site_type_symbol
_atom_site_label
_atom_site_fract_x
_atom_site_fract_y
_atom_site_fract_z
Si Si1 0.250000 0.884232 0.271670
Si Si2 0.987906 0.948528 0.450015
Si Si3 0.094185 0.250000 0.445472
Si Si4 0.405815 0.250000 0.097867
Si Si5 0.750000 0.323441 0.771670
Si Si6 0.512094 0.551472 0.093325
O O1 0.091445 0.914558 0.359216
O O2 0.495090 0.852933 0.320661
O O3 0.408555 0.914558 0.184124
O O4 0.004910 0.852934 0.222679
O O5 0.168112 0.940249 0.559946
O O6 0.668112 0.940249 0.483394
O O7 0.000000 0.000000 0.405548
O O8 0.279836 0.250000 0.554477
O O9 0.139038 0.205637 0.372698
O O10 0.779836 0.250000 0.488863
O O11 0.360962 0.205637 0.170641
O O12 0.500000 0.500000 0.137792
#
# Coordination Sequence:
#
# PCOD8182152 Si02
#       6
#     8   8   4   4   8   8
#     4  12  24  40  66  95 130 163 208 272 314 360
#     4  10  23  41  61  89 125 167 211 252 306 370
#     4  11  24  45  68  88 128 171 200 257 326 380
#     4  11  24  45  68  88 128 171 200 257 326 380
#     4  11  26  41  62 101 124 157 220 257 310 395
#     4  10  23  41  61  89 125 167 211 252 306 370
#
# _framework density 23.035823000000001
#
# number of rings (size 3 to 8) (size 9 to 14) (size 15 to 20)
#    0.000    1.200    0.000    4.800    0.000   19.200 
#    0.000    0.000    0.000    0.000    0.000    0.000 
#    0.000    0.000    0.000    0.000    0.000    0.000 
#
# Total GULP energy -248021.351540 kJ/mol
# GULP energy per Si atom -12401.067577 kJ/mol
# Density = 2.298339 g / cm^3
# Si number density = 23.035823 Si / 1000 Ang^3
#
#
#
# Elastic Constant Matrix: (Units=GPa)
#
#
# Indices 1 2 3 4 5 6 
#
# 1 95.6163 35.8576 -2.8272 0.0000 0.0000 0.0000
# 2 35.8576 130.7851 41.1166 0.0000 0.0000 0.0000
# 3 -2.8272 41.1166 69.1058 0.0000 0.0000 0.0000
# 4 0.0000 0.0000 0.0000 16.8862 0.0000 0.0000
# 5 0.0000 0.0000 0.0000 0.0000 37.1728 0.0000
# 6 0.0000 0.0000 0.0000 0.0000 0.0000 44.6011
#
#
#
# Elastic Compliance Matrix: (Units=1/GPa)
#
#
# Indices 1 2 3 4 5 6 
#
# 1 0.012159 -0.004293 0.003052 0.000000 0.000000 0.000000
# 2 -0.004293 0.010921 -0.006674 0.000000 0.000000 0.000000
# 3 0.003052 -0.006674 0.018566 0.000000 0.000000 0.000000
# 4 0.000000 0.000000 0.000000 0.059220 0.000000 0.000000
# 5 0.000000 0.000000 0.000000 0.000000 0.026901 0.000000
# 6 0.000000 0.000000 0.000000 0.000000 0.000000 0.022421
#
#
# Mechanical properties :
#
#
# Convention : Reuss Voigt Hill
#
# Bulk Modulus (GPa) = 38.73538 49.31124 44.02331
# Shear Modulus (GPa) = 28.63308 34.48936 31.56122
#
# Velocity S-wave (km/s) = 3.52942 3.87357 3.70549
# Velocity P-wave (km/s) = 5.78453 6.43886 6.12045
#
# Compressibility (1/GPa) = 0.02581619
#
# Stress axis : x y z
#
# Youngs Moduli (GPa) = 82.24617 91.56520 53.86184
#
# Poissons Ratio (x) = 0.39308 -0.16437
# Poissons Ratio (y) = 0.35308 0.35945
# Poissons Ratio (z) = -0.25099 0.61106
#
# Static dielectric constant tensor:
#      x y z
#    x 4.563760 0.000000 0.000000 
#    y 0.000000 4.367790 0.000000 
#    z 0.000000 0.000000 3.688200 
# 
# 
# High freq. dielectric constant tensor:
#      x y z
#    x 1.936370 0.000000 0.000000 
#    y 0.000000 1.924880 0.000000 
#    z 0.000000 0.000000 1.888080 
# 
# From -- ./inp_files/4567.got.cif
#   From: 2010.03.12/outbox.cif.g09.slc.cpg/sg39_3_cif.got.tgz:4567.got - 2010.04.14 02:53:20.
