data_PCOD8182404
_publ_section_title
;
Structure prediction by ZEFSAII (Michael W. Deem and Ramdas Pophale) SiO2 
 PCOD8182404
Probable space group: A M A 2
;
_chemical_formula_sum "Si O2"
_cell_formula_units_Z 64
_cell_length_a 16.955646
_cell_length_b 20.401527
_cell_length_c 10.261292
_cell_angle_alpha 90.000000
_cell_angle_beta 90.000000
_cell_angle_gamma 90.000000
_cell_volume 3549.597105
_symmetry_space_group_name_H-M "A M A 2"
_symmetry_group_IT_number 40
_symmetry_cell_setting 'orthorhombic'
loop_
_space_group_symop_operation_xyz
x,y,z
-x,-y,z
1/2-x,y,z
1/2+x,-y,z
x,1/2+y,1/2+z
-x,1/2-y,1/2+z
1/2-x,1/2+y,1/2+z
1/2+x,1/2-y,1/2+z
loop_
_atom_site_type_symbol
_atom_site_label
_atom_site_fract_x
_atom_site_fract_y
_atom_site_fract_z
Si Si1 0.581160 0.524862 0.021940
Si Si2 0.841521 0.229522 0.488388
Si Si3 0.437715 0.646978 0.393875
Si Si4 0.333461 0.431566 0.386744
Si Si5 0.340005 0.393588 0.808204
Si Si6 0.335404 0.054481 0.719487
Si Si7 0.075896 0.351059 0.205047
Si Si8 0.458968 0.434261 0.589993
O O1 0.500000 0.500000 0.955879
O O2 0.617704 0.458838 0.085887
O O3 0.559564 0.581842 0.125843
O O4 0.642128 0.550466 0.914433
O O5 0.750000 0.241419 0.526311
O O6 0.881432 0.295566 0.440829
O O7 0.847598 0.177405 0.372504
O O8 0.890719 0.205967 0.613885
O O9 0.382829 0.593764 0.326884
O O10 0.497345 0.672445 0.281365
O O11 0.480246 0.615840 0.521118
O O12 0.250000 0.418373 0.459498
O O13 0.319671 0.482429 0.272533
O O14 0.360682 0.364027 0.319246
O O15 0.398186 0.460819 0.483051
O O16 0.250000 0.404428 0.757169
O O17 0.406820 0.396389 0.697148
O O18 0.250000 0.088322 0.691933
O O19 0.500000 0.500000 0.647252
#
# Coordination Sequence:
#
# PCOD8182404 Si02
#       8
#     8   8   8   8   8   8   8   8
#     4  10  17  32  56  82 108 138 177 228 271 316
#     4  10  22  39  56  78 108 144 187 228 271 325
#     4  11  21  34  57  82 111 146 182 225 279 321
#     4   9  17  30  52  78 108 140 174 222 270 314
#     4  10  22  38  55  78 110 149 186 220 269 332
#     4  10  18  30  52  82 111 135 171 223 277 320
#     4   9  19  32  55  80 105 138 185 226 266 317
#     4  11  21  35  54  82 114 144 181 220 271 335
#
# _framework density 18.030214999999998
#
# number of rings (size 3 to 8) (size 9 to 14) (size 15 to 20)
#    0.000    2.000    2.500    1.875    1.750    3.000 
#    0.000    0.000    0.000    0.000    0.000    0.000 
#    0.000    0.000    0.000    0.000    0.000    0.000 
#
# Total GULP energy -396529.149147 kJ/mol
# GULP energy per Si atom -12391.535911 kJ/mol
# Density = 1.798918 g / cm^3
# Si number density = 18.030215 Si / 1000 Ang^3
#
#
#
# Elastic Constant Matrix: (Units=GPa)
#
#
# Indices 1 2 3 4 5 6 
#
# 1 120.5366 41.4023 40.4842 0.0000 0.0000 0.0000
# 2 41.4023 69.8041 32.9457 0.0000 0.0000 0.0000
# 3 40.4842 32.9457 72.1790 0.0000 0.0000 0.0000
# 4 0.0000 0.0000 0.0000 20.6205 0.0000 0.0000
# 5 0.0000 0.0000 0.0000 0.0000 22.4787 0.0000
# 6 0.0000 0.0000 0.0000 0.0000 0.0000 18.2896
#
#
#
# Elastic Compliance Matrix: (Units=1/GPa)
#
#
# Indices 1 2 3 4 5 6 
#
# 1 0.011333 -0.004744 -0.004191 0.000000 0.000000 0.000000
# 2 -0.004744 0.020245 -0.006580 0.000000 0.000000 0.000000
# 3 -0.004191 -0.006580 0.019209 0.000000 0.000000 0.000000
# 4 0.000000 0.000000 0.000000 0.048496 0.000000 0.000000
# 5 0.000000 0.000000 0.000000 0.000000 0.044487 0.000000
# 6 0.000000 0.000000 0.000000 0.000000 0.000000 0.054676
#
#
# Mechanical properties :
#
#
# Convention : Reuss Voigt Hill
#
# Bulk Modulus (GPa) = 50.61578 54.68712 52.65145
# Shear Modulus (GPa) = 21.18095 22.12361 21.65228
#
# Velocity S-wave (km/s) = 3.43118 3.50670 3.46914
# Velocity P-wave (km/s) = 6.62050 6.84051 6.73140
#
# Compressibility (1/GPa) = 0.01975669
#
# Stress axis : x y z
#
# Youngs Moduli (GPa) = 88.23447 49.39481 52.05960
#
# Poissons Ratio (x) = 0.23432 0.21821
# Poissons Ratio (y) = 0.41857 0.34255
# Poissons Ratio (z) = 0.36983 0.32502
#
# Static dielectric constant tensor:
#      x y z
#    x 3.725830 0.000000 0.000000 
#    y 0.000000 2.984100 0.000000 
#    z 0.000000 0.000000 3.253100 
# 
# 
# High freq. dielectric constant tensor:
#      x y z
#    x 1.720800 0.000000 0.000000 
#    y 0.000000 1.666730 0.000000 
#    z 0.000000 0.000000 1.687010 
# 
# From -- ./inp_files/13268.got.cif
#   From: 2010.03.12/outbox.cif.g09.slc.cpg/sg40_7_cif.got.tgz:13268.got - 2010.04.14 01:38:03.
