data_PCOD8182593
_publ_section_title
;
Structure prediction by ZEFSAII (Michael W. Deem and Ramdas Pophale) SiO2 
 PCOD8182593
Probable space group: A M A 2
;
_chemical_formula_sum "Si O2"
_cell_formula_units_Z 64
_cell_length_a 8.625864
_cell_length_b 14.558727
_cell_length_c 27.514423
_cell_angle_alpha 90.000000
_cell_angle_beta 90.000000
_cell_angle_gamma 90.000000
_cell_volume 3455.305239
_symmetry_space_group_name_H-M "A M A 2"
_symmetry_group_IT_number 40
_symmetry_cell_setting 'orthorhombic'
loop_
_space_group_symop_operation_xyz
x,y,z
-x,-y,z
1/2-x,y,z
1/2+x,-y,z
x,1/2+y,1/2+z
-x,1/2-y,1/2+z
1/2-x,1/2+y,1/2+z
1/2+x,1/2-y,1/2+z
loop_
_atom_site_type_symbol
_atom_site_label
_atom_site_fract_x
_atom_site_fract_y
_atom_site_fract_z
Si Si1 0.432219 0.593013 0.230650
Si Si2 0.069983 0.850920 0.635112
Si Si3 0.566834 0.785417 0.263555
Si Si4 0.931228 0.097702 0.345016
Si Si5 0.072257 0.830642 0.169782
Si Si6 0.575166 0.591966 0.570802
Si Si7 0.933615 0.290321 0.040470
Si Si8 0.430974 0.902634 0.457512
O O1 0.500000 0.500000 0.255088
O O2 0.250000 0.597633 0.238756
O O3 0.474373 0.587369 0.173251
O O4 0.509501 0.681274 0.256067
O O5 0.250000 0.877932 0.637186
O O6 0.045066 0.746637 0.651375
O O7 0.005934 0.860743 0.580156
O O8 0.750000 0.789132 0.258400
O O9 0.515126 0.820623 0.316205
O O10 0.487780 0.855101 0.223861
O O11 0.750000 0.097913 0.333587
O O12 0.966503 0.116772 0.401339
O O13 0.000000 0.000000 0.328865
O O14 0.250000 0.793798 0.172430
O O15 0.061625 0.911574 0.130004
O O16 0.500000 0.500000 0.549091
O O17 0.750000 0.588634 0.553224
O O18 0.502483 0.686301 0.549326
O O19 0.750000 0.292362 0.046754
O O20 0.985278 0.322013 0.987289
O O21 0.250000 0.902343 0.469079
O O22 0.500000 0.000000 0.473743
#
# Coordination Sequence:
#
# PCOD8182593 Si02
#       8
#     8   8   8   8   8   8   8   8
#     4  11  21  35  53  76 108 144 181 220 262 309
#     4  10  18  30  48  72 100 133 174 214 254 301
#     4  11  21  34  54  80 107 140 179 216 261 313
#     4  10  21  38  58  81 107 134 168 213 265 319
#     4   9  17  31  47  68 100 136 173 213 256 298
#     4   9  19  32  49  73 103 140 177 213 253 299
#     4  10  20  35  53  76 106 139 175 216 263 313
#     4  10  21  37  58  82 105 132 167 211 264 318
#
# _framework density 18.522243
#
# number of rings (size 3 to 8) (size 9 to 14) (size 15 to 20)
#    0.000    2.000    0.000    7.125    0.000    5.500 
#    0.000    3.750    0.000    0.750    0.000    1.750 
#    0.000    0.000    0.000    0.000    0.000    0.000 
#
# Total GULP energy -396653.948595 kJ/mol
# GULP energy per Si atom -12395.435894 kJ/mol
# Density = 1.848009 g / cm^3
# Si number density = 18.522243 Si / 1000 Ang^3
#
#
#
# Elastic Constant Matrix: (Units=GPa)
#
#
# Indices 1 2 3 4 5 6 
#
# 1 106.9272 40.4104 37.8898 0.0000 0.0000 0.0000
# 2 40.4104 102.4313 50.9482 0.0000 0.0000 0.0000
# 3 37.8898 50.9482 84.5589 0.0000 0.0000 0.0000
# 4 0.0000 0.0000 0.0000 24.4292 0.0000 0.0000
# 5 0.0000 0.0000 0.0000 0.0000 30.5226 0.0000
# 6 0.0000 0.0000 0.0000 0.0000 0.0000 29.5875
#
#
#
# Elastic Compliance Matrix: (Units=1/GPa)
#
#
# Indices 1 2 3 4 5 6 
#
# 1 0.011677 -0.002862 -0.003508 0.000000 0.000000 0.000000
# 2 -0.002862 0.014642 -0.007540 0.000000 0.000000 0.000000
# 3 -0.003508 -0.007540 0.017941 0.000000 0.000000 0.000000
# 4 0.000000 0.000000 0.000000 0.040935 0.000000 0.000000
# 5 0.000000 0.000000 0.000000 0.000000 0.032763 0.000000
# 6 0.000000 0.000000 0.000000 0.000000 0.000000 0.033798
#
#
# Mechanical properties :
#
#
# Convention : Reuss Voigt Hill
#
# Bulk Modulus (GPa) = 60.82519 61.37936 61.10227
# Shear Modulus (GPa) = 27.01924 27.88578 27.45251
#
# Velocity S-wave (km/s) = 3.82350 3.88432 3.85403
# Velocity P-wave (km/s) = 7.23895 7.30256 7.27083
#
# Compressibility (1/GPa) = 0.01644056
#
# Stress axis : x y z
#
# Youngs Moduli (GPa) = 85.64025 68.29769 55.73928
#
# Poissons Ratio (x) = 0.19546 0.19553
# Poissons Ratio (y) = 0.24509 0.42025
# Poissons Ratio (z) = 0.30042 0.51494
#
# Static dielectric constant tensor:
#      x y z
#    x 3.449450 0.000000 0.000000 
#    y 0.000000 3.435600 0.000000 
#    z 0.000000 0.000000 3.403100 
# 
# 
# High freq. dielectric constant tensor:
#      x y z
#    x 1.732990 0.000000 0.000000 
#    y 0.000000 1.704760 0.000000 
#    z 0.000000 0.000000 1.697500 
# 
# From -- ./inp_files/26464.got.cif
#   From: 2010.03.12/outbox.cif.g09.slc.cpg/sg40_14_cif.got.tgz:26464.got - 2010.04.14 01:38:03.
