data_PCOD8182134
_publ_section_title
;
Structure prediction by ZEFSAII (Michael W. Deem and Ramdas Pophale) SiO2 
 PCOD8182134
Probable space group: A B M 2
;
_chemical_formula_sum "Si O2"
_cell_formula_units_Z 40
_cell_length_a 4.864684
_cell_length_b 14.580601
_cell_length_c 27.512344
_cell_angle_alpha 90.000000
_cell_angle_beta 90.000000
_cell_angle_gamma 90.000000
_cell_volume 1951.451011
_symmetry_space_group_name_H-M "A B M 2"
_symmetry_group_IT_number 39
_symmetry_cell_setting 'orthorhombic'
loop_
_space_group_symop_operation_xyz
x,y,z
-x,-y,z
-x,1/2+y,z
x,1/2-y,z
x,1/2+y,1/2+z
-x,1/2-y,1/2+z
-x,y,1/2+z
x,-y,1/2+z
loop_
_atom_site_type_symbol
_atom_site_label
_atom_site_fract_x
_atom_site_fract_y
_atom_site_fract_z
Si Si1 0.963243 0.646276 0.596970
Si Si2 0.809025 0.250000 0.392279
Si Si3 0.500000 0.500000 0.247291
Si Si4 0.000000 0.000000 0.179085
Si Si5 0.328684 0.750000 0.957745
Si Si6 0.472400 0.395799 0.033552
Si Si7 0.265818 0.938020 0.338285
O O1 0.016917 0.750000 0.612160
O O2 0.160362 0.620626 0.551393
O O3 0.983554 0.588268 0.645338
O O4 0.653308 0.630632 0.579806
O O5 0.494069 0.250000 0.408055
O O6 0.838208 0.156748 0.361707
O O7 0.010195 0.250000 0.439976
O O8 0.254322 0.472532 0.212349
O O9 0.604360 0.418519 0.284127
O O10 0.420009 0.661305 0.987844
O O11 0.500000 0.500000 0.017196
O O12 0.500000 0.000000 0.367228
O O13 0.000000 0.000000 0.332260
#
# Coordination Sequence:
#
# PCOD8182134 Si02
#       7
#     8   4   4   4   4   8   8
#     4  12  23  41  66  93 134 178 216 267 323 382
#     4  12  26  44  72 101 127 176 224 282 340 396
#     4  10  22  44  66  96 134 166 220 280 322 406
#     4  12  22  40  66 100 130 172 228 264 316 400
#     4  12  26  40  68 101 133 164 236 276 300 424
#     4  12  23  43  65  91 135 183 211 264 339 373
#     4  10  22  46  70  93 134 176 205 282 354 399
#
# _framework density 20.497568999999999
#
# number of rings (size 3 to 8) (size 9 to 14) (size 15 to 20)
#    0.600    0.000    5.000    3.600    0.000    2.400 
#    3.600    0.000    0.000    0.000    0.000    0.000 
#    0.000    0.000    0.000    0.000    0.000    0.000 
#
# Total GULP energy -247763.865298 kJ/mol
# GULP energy per Si atom -12388.193265 kJ/mol
# Density = 2.045092 g / cm^3
# Si number density = 20.497569 Si / 1000 Ang^3
#
#
#
# Elastic Constant Matrix: (Units=GPa)
#
#
# Indices 1 2 3 4 5 6 
#
# 1 97.1057 22.2596 26.8150 0.0000 0.0000 0.0000
# 2 22.2596 167.6009 52.6410 0.0000 0.0000 0.0000
# 3 26.8150 52.6410 106.5924 0.0000 0.0000 0.0000
# 4 0.0000 0.0000 0.0000 62.1067 0.0000 0.0000
# 5 0.0000 0.0000 0.0000 0.0000 49.9578 0.0000
# 6 0.0000 0.0000 0.0000 0.0000 0.0000 29.3722
#
#
#
# Elastic Compliance Matrix: (Units=1/GPa)
#
#
# Indices 1 2 3 4 5 6 
#
# 1 0.011138 -0.000709 -0.002452 0.000000 0.000000 0.000000
# 2 -0.000709 0.007107 -0.003331 0.000000 0.000000 0.000000
# 3 -0.002452 -0.003331 0.011644 0.000000 0.000000 0.000000
# 4 0.000000 0.000000 0.000000 0.016101 0.000000 0.000000
# 5 0.000000 0.000000 0.000000 0.000000 0.020017 0.000000
# 6 0.000000 0.000000 0.000000 0.000000 0.000000 0.034046
#
#
# Mechanical properties :
#
#
# Convention : Reuss Voigt Hill
#
# Bulk Modulus (GPa) = 59.15857 63.85892 61.50874
# Shear Modulus (GPa) = 42.13315 46.25956 44.19635
#
# Velocity S-wave (km/s) = 4.53870 4.75577 4.64850
# Velocity P-wave (km/s) = 7.50935 7.83444 7.67362
#
# Compressibility (1/GPa) = 0.01690372
#
# Stress axis : x y z
#
# Youngs Moduli (GPa) = 89.78580 140.70415 85.88469
#
# Poissons Ratio (x) = 0.09979 0.21055
# Poissons Ratio (y) = 0.06368 0.28612
# Poissons Ratio (z) = 0.22012 0.46875
#
# Static dielectric constant tensor:
#      x y z
#    x 4.022440 0.000000 0.000000 
#    y 0.000000 3.767120 0.000000 
#    z 0.000000 0.000000 3.719530 
# 
# 
# High freq. dielectric constant tensor:
#      x y z
#    x 1.827760 0.000000 0.000000 
#    y 0.000000 1.793340 0.000000 
#    z 0.000000 0.000000 1.794580 
# 
# From -- ./inp_files/15224.got.cif
#   From: 2010.03.12/outbox.cif.g09.slc.cpg/sg39_8_cif.got.tgz:15224.got - 2010.04.14 02:53:20.
