data_PCOD8182901
_publ_section_title
;
Structure prediction by ZEFSAII (Michael W. Deem and Ramdas Pophale) SiO2 
 PCOD8182901
Probable space group: A M A 2
;
_chemical_formula_sum "Si O2"
_cell_formula_units_Z 48
_cell_length_a 9.213355
_cell_length_b 13.693411
_cell_length_c 18.388135
_cell_angle_alpha 90.000000
_cell_angle_beta 90.000000
_cell_angle_gamma 90.000000
_cell_volume 2319.888608
_symmetry_space_group_name_H-M "A M A 2"
_symmetry_group_IT_number 40
_symmetry_cell_setting 'orthorhombic'
loop_
_space_group_symop_operation_xyz
x,y,z
-x,-y,z
1/2-x,y,z
1/2+x,-y,z
x,1/2+y,1/2+z
-x,1/2-y,1/2+z
1/2-x,1/2+y,1/2+z
1/2+x,1/2-y,1/2+z
loop_
_atom_site_type_symbol
_atom_site_label
_atom_site_fract_x
_atom_site_fract_y
_atom_site_fract_z
Si Si1 0.913209 0.407569 0.855360
Si Si2 0.077264 0.205432 0.863917
Si Si3 0.577372 0.098580 0.738262
Si Si4 0.586300 0.401129 0.511254
Si Si5 0.586482 0.728826 0.103443
Si Si6 0.406925 0.085568 0.524586
O O1 0.750000 0.397038 0.820750
O O2 0.000000 0.500000 0.820158
O O3 0.005425 0.309435 0.844751
O O4 0.892357 0.430435 0.939535
O O5 0.250000 0.212176 0.850107
O O6 0.039990 0.171342 0.945717
O O7 0.002228 0.124799 0.813044
O O8 0.750000 0.083009 0.749644
O O9 0.545614 0.189360 0.683210
O O10 0.500000 0.000000 0.708769
O O11 0.500000 0.500000 0.513437
O O12 0.750000 0.433602 0.497954
O O13 0.568954 0.345325 0.589602
O O14 0.750000 0.696317 0.084523
O O15 0.483126 0.686684 0.041451
O O16 0.250000 0.083063 0.562183
O O17 0.500000 0.000000 0.561678
#
# Coordination Sequence:
#
# PCOD8182901 Si02
#       6
#     8   8   8   8   8   8
#     4  10  20  34  55  86 121 156 197 245 299 355
#     4  11  22  39  63  89 123 162 203 251 304 364
#     4  11  24  41  62  88 123 161 202 249 304 367
#     4  10  22  39  61  88 117 153 198 249 303 358
#     4  10  21  39  59  83 117 156 197 248 301 357
#     4  10  19  30  51  82 115 150 187 236 289 347
#
# _framework density 20.690650000000002
#
# number of rings (size 3 to 8) (size 9 to 14) (size 15 to 20)
#    0.000    1.667    1.667    3.000    0.000    7.333 
#    0.000    0.833    0.000    2.000    0.000    0.000 
#    0.000    0.000    0.000    0.000    0.000    0.000 
#
# Total GULP energy -297432.199824 kJ/mol
# GULP energy per Si atom -12393.008326 kJ/mol
# Density = 2.064356 g / cm^3
# Si number density = 20.690650 Si / 1000 Ang^3
#
#
#
# Elastic Constant Matrix: (Units=GPa)
#
#
# Indices 1 2 3 4 5 6 
#
# 1 136.4363 67.7602 36.3299 0.0000 0.0000 0.0000
# 2 67.7602 126.3925 33.1508 0.0000 0.0000 0.0000
# 3 36.3299 33.1508 60.9090 0.0000 0.0000 0.0000
# 4 0.0000 0.0000 0.0000 26.1256 0.0000 0.0000
# 5 0.0000 0.0000 0.0000 0.0000 53.4495 0.0000
# 6 0.0000 0.0000 0.0000 0.0000 0.0000 41.9790
#
#
#
# Elastic Compliance Matrix: (Units=1/GPa)
#
#
# Indices 1 2 3 4 5 6 
#
# 1 0.010694 -0.004736 -0.003801 0.000000 0.000000 0.000000
# 2 -0.004736 0.011327 -0.003340 0.000000 0.000000 0.000000
# 3 -0.003801 -0.003340 0.020503 0.000000 0.000000 0.000000
# 4 0.000000 0.000000 0.000000 0.038277 0.000000 0.000000
# 5 0.000000 0.000000 0.000000 0.000000 0.018709 0.000000
# 6 0.000000 0.000000 0.000000 0.000000 0.000000 0.023821
#
#
# Mechanical properties :
#
#
# Convention : Reuss Voigt Hill
#
# Bulk Modulus (GPa) = 53.27695 66.46885 59.87290
# Shear Modulus (GPa) = 32.60714 36.74394 34.67554
#
# Velocity S-wave (km/s) = 3.97411 4.21868 4.09822
# Velocity P-wave (km/s) = 6.84568 7.47827 7.16895
#
# Compressibility (1/GPa) = 0.01876984
#
# Stress axis : x y z
#
# Youngs Moduli (GPa) = 93.51381 88.28496 48.77403
#
# Poissons Ratio (x) = 0.41813 0.18537
# Poissons Ratio (y) = 0.44289 0.16290
# Poissons Ratio (z) = 0.35541 0.29487
#
# Static dielectric constant tensor:
#      x y z
#    x 4.054680 0.000000 0.000000 
#    y 0.000000 3.758290 0.000000 
#    z 0.000000 0.000000 3.498850 
# 
# 
# High freq. dielectric constant tensor:
#      x y z
#    x 1.823730 0.000000 0.000000 
#    y 0.000000 1.811330 0.000000 
#    z 0.000000 0.000000 1.778650 
# 
# From -- ./inp_files/19193.got.cif
#   From: 2010.03.12/outbox.cif.g09.slc.cpg/sg40_10_cif.got.tgz:19193.got - 2010.04.14 01:38:03.
