data_PCOD8182666
_publ_section_title
;
Structure prediction by ZEFSAII (Michael W. Deem and Ramdas Pophale) SiO2 
 PCOD8182666
Probable space group: A M A 2
;
_chemical_formula_sum "Si O2"
_cell_formula_units_Z 52
_cell_length_a 14.162239
_cell_length_b 21.251525
_cell_length_c 8.841750
_cell_angle_alpha 90.000000
_cell_angle_beta 90.000000
_cell_angle_gamma 90.000000
_cell_volume 2661.094213
_symmetry_space_group_name_H-M "A M A 2"
_symmetry_group_IT_number 40
_symmetry_cell_setting 'orthorhombic'
loop_
_space_group_symop_operation_xyz
x,y,z
-x,-y,z
1/2-x,y,z
1/2+x,-y,z
x,1/2+y,1/2+z
-x,1/2-y,1/2+z
1/2-x,1/2+y,1/2+z
1/2+x,1/2-y,1/2+z
loop_
_atom_site_type_symbol
_atom_site_label
_atom_site_fract_x
_atom_site_fract_y
_atom_site_fract_z
Si Si1 0.360592 0.922250 0.262070
Si Si2 0.500000 0.500000 0.572982
Si Si3 0.145350 0.249092 0.065028
Si Si4 0.455547 0.808453 0.101566
Si Si5 0.999835 0.606809 0.342608
Si Si6 0.855006 0.801912 0.732395
Si Si7 0.856581 0.604363 0.100258
O O1 0.250000 0.920082 0.216958
O O2 0.410644 0.857055 0.218937
O O3 0.373363 0.930838 0.441459
O O4 0.411132 0.980061 0.176478
O O5 0.464991 0.556978 0.467182
O O6 0.250000 0.232378 0.129153
O O7 0.120880 0.321853 0.088728
O O8 0.065811 0.205547 0.144558
O O9 0.143423 0.237647 0.886231
O O10 0.399512 0.742595 0.103150
O O11 0.448740 0.835569 0.931163
O O12 0.925522 0.575036 0.227121
O O13 0.088774 0.632620 0.248695
O O14 0.750000 0.820361 0.682214
O O15 0.750000 0.592965 0.154782
#
# Coordination Sequence:
#
# PCOD8182666 Si02
#       7
#     8   4   8   8   8   8   8
#     4  10  21  39  64  85 109 155 207 249 291 350
#     4  10  24  42  60  86 110 156 206 254 294 342
#     4   9  17  30  51  82 119 154 188 228 285 348
#     4  10  18  32  57  86 118 153 192 238 290 353
#     4  10  22  36  55  86 120 152 194 244 298 347
#     4  10  18  31  53  82 116 157 188 229 293 353
#     4  10  19  34  58  86 115 150 193 242 296 354
#
# _framework density 19.540832999999999
#
# number of rings (size 3 to 8) (size 9 to 14) (size 15 to 20)
#    0.000    2.154    3.077    0.462    0.000    4.308 
#    0.000    2.308    0.000    0.923    0.000    0.000 
#    0.000    0.000    0.000    0.000    0.000    0.000 
#
# Total GULP energy -322337.402333 kJ/mol
# GULP energy per Si atom -12397.592397 kJ/mol
# Density = 1.949636 g / cm^3
# Si number density = 19.540833 Si / 1000 Ang^3
#
#
#
# Elastic Constant Matrix: (Units=GPa)
#
#
# Indices 1 2 3 4 5 6 
#
# 1 156.0044 55.7074 61.7307 0.0000 0.0000 0.0000
# 2 55.7074 77.5800 39.0534 0.0000 0.0000 0.0000
# 3 61.7307 39.0534 71.8838 0.0000 0.0000 0.0000
# 4 0.0000 0.0000 0.0000 29.1144 0.0000 0.0000
# 5 0.0000 0.0000 0.0000 0.0000 32.0894 0.0000
# 6 0.0000 0.0000 0.0000 0.0000 0.0000 23.6739
#
#
#
# Elastic Compliance Matrix: (Units=1/GPa)
#
#
# Indices 1 2 3 4 5 6 
#
# 1 0.010608 -0.004172 -0.006842 0.000000 0.000000 0.000000
# 2 -0.004172 0.019383 -0.006948 0.000000 0.000000 0.000000
# 3 -0.006842 -0.006948 0.023562 0.000000 0.000000 0.000000
# 4 0.000000 0.000000 0.000000 0.034347 0.000000 0.000000
# 5 0.000000 0.000000 0.000000 0.000000 0.031163 0.000000
# 6 0.000000 0.000000 0.000000 0.000000 0.000000 0.042241
#
#
# Mechanical properties :
#
#
# Convention : Reuss Voigt Hill
#
# Bulk Modulus (GPa) = 56.72860 68.71680 62.72270
# Shear Modulus (GPa) = 24.61786 26.90734 25.76260
#
# Velocity S-wave (km/s) = 3.55324 3.71479 3.63491
# Velocity P-wave (km/s) = 6.77701 7.32405 7.05583
#
# Compressibility (1/GPa) = 0.01762779
#
# Stress axis : x y z
#
# Youngs Moduli (GPa) = 94.27229 51.59059 42.44140
#
# Poissons Ratio (x) = 0.21526 0.29041
# Poissons Ratio (y) = 0.39334 0.29487
# Poissons Ratio (z) = 0.64506 0.35843
#
# Static dielectric constant tensor:
#      x y z
#    x 3.761700 0.000000 0.000000 
#    y 0.000000 3.348590 0.000000 
#    z 0.000000 0.000000 3.446150 
# 
# 
# High freq. dielectric constant tensor:
#      x y z
#    x 1.766340 0.000000 0.000000 
#    y 0.000000 1.736610 0.000000 
#    z 0.000000 0.000000 1.747880 
# 
# From -- ./inp_files/6818.got.cif
#   From: 2010.03.12/outbox.cif.g09.slc.cpg/sg40_4_cif.got.tgz:6818.got - 2010.04.14 01:38:03.
