data_PCOD8182154
_publ_section_title
;
Structure prediction by ZEFSAII (Michael W. Deem and Ramdas Pophale) SiO2 
 PCOD8182154
Probable space group: A B M 2
;
_chemical_formula_sum "Si O2"
_cell_formula_units_Z 64
_cell_length_a 13.624062
_cell_length_b 23.425821
_cell_length_c 9.294951
_cell_angle_alpha 90.000000
_cell_angle_beta 90.000000
_cell_angle_gamma 90.000000
_cell_volume 2966.528578
_symmetry_space_group_name_H-M "A B M 2"
_symmetry_group_IT_number 39
_symmetry_cell_setting 'orthorhombic'
loop_
_space_group_symop_operation_xyz
x,y,z
-x,-y,z
-x,1/2+y,z
x,1/2-y,z
x,1/2+y,1/2+z
-x,1/2-y,1/2+z
-x,y,1/2+z
x,-y,1/2+z
loop_
_atom_site_type_symbol
_atom_site_label
_atom_site_fract_x
_atom_site_fract_y
_atom_site_fract_z
Si Si1 0.438589 0.054467 0.162630
Si Si2 0.270442 0.682300 0.082822
Si Si3 0.928363 0.046166 0.132488
Si Si4 0.589712 0.101040 0.949019
Si Si5 0.268770 0.503244 0.502271
Si Si6 0.064965 0.640408 0.560273
Si Si7 0.093524 0.186187 0.377161
Si Si8 0.206972 0.893996 0.336590
O O1 0.436453 0.104442 0.281265
O O2 0.327455 0.035661 0.128312
O O3 0.500000 0.000000 0.220533
O O4 0.489966 0.082119 0.025179
O O5 0.272179 0.750000 0.108267
O O6 0.266704 0.650736 0.238146
O O7 0.370928 0.661681 0.006658
O O8 0.180698 0.662420 0.980068
O O9 0.891335 0.089240 0.253176
O O10 0.997743 0.084290 0.029228
O O11 0.840726 0.013892 0.048942
O O12 0.000000 0.000000 0.206032
O O13 0.674393 0.053815 0.962873
O O14 0.266853 0.547418 0.366847
O O15 0.081431 0.650799 0.729790
O O16 0.172646 0.633710 0.487925
O O17 0.005761 0.689290 0.473398
O O18 0.120390 0.250000 0.329047
#
# Coordination Sequence:
#
# PCOD8182154 Si02
#       8
#     8   8   8   8   8   8   8   8
#     4  10  23  41  68 103 135 170 220 274 349 425
#     4  11  26  47  70  96 136 186 235 288 350 411
#     4  12  24  38  58  95 141 179 219 271 345 405
#     4  11  23  43  71  98 134 167 221 279 345 415
#     4  11  23  39  66 101 137 180 218 275 349 404
#     4  12  23  39  60  94 130 177 235 276 333 399
#     4  11  23  42  64  89 124 177 237 291 330 385
#     4  12  25  41  66  96 138 186 232 279 343 410
#
# _framework density 21.574038000000002
#
# number of rings (size 3 to 8) (size 9 to 14) (size 15 to 20)
#    0.000    0.750    5.000    2.250    7.000    3.000 
#    0.000    0.625    0.000    0.000    0.000    0.000 
#    0.000    0.000    0.000    0.000    0.000    0.000 
#
# Total GULP energy -396680.355687 kJ/mol
# GULP energy per Si atom -12396.261115 kJ/mol
# Density = 2.152493 g / cm^3
# Si number density = 21.574038 Si / 1000 Ang^3
#
#
#
# Elastic Constant Matrix: (Units=GPa)
#
#
# Indices 1 2 3 4 5 6 
#
# 1 65.1500 26.7350 23.8432 0.0000 0.0000 0.0000
# 2 26.7350 89.2086 37.5998 0.0000 0.0000 0.0000
# 3 23.8432 37.5998 113.1081 0.0000 0.0000 0.0000
# 4 0.0000 0.0000 0.0000 28.6767 0.0000 0.0000
# 5 0.0000 0.0000 0.0000 0.0000 20.9145 0.0000
# 6 0.0000 0.0000 0.0000 0.0000 0.0000 20.8298
#
#
#
# Elastic Compliance Matrix: (Units=1/GPa)
#
#
# Indices 1 2 3 4 5 6 
#
# 1 0.018014 -0.004417 -0.002329 0.000000 0.000000 0.000000
# 2 -0.004417 0.014119 -0.003762 0.000000 0.000000 0.000000
# 3 -0.002329 -0.003762 0.010583 0.000000 0.000000 0.000000
# 4 0.000000 0.000000 0.000000 0.034872 0.000000 0.000000
# 5 0.000000 0.000000 0.000000 0.000000 0.047814 0.000000
# 6 0.000000 0.000000 0.000000 0.000000 0.000000 0.048008
#
#
# Mechanical properties :
#
#
# Convention : Reuss Voigt Hill
#
# Bulk Modulus (GPa) = 46.08489 49.31365 47.69927
# Shear Modulus (GPa) = 24.79426 26.03678 25.41552
#
# Velocity S-wave (km/s) = 3.39376 3.47775 3.43601
# Velocity P-wave (km/s) = 6.06337 6.24771 6.15623
#
# Compressibility (1/GPa) = 0.02169909
#
# Stress axis : x y z
#
# Youngs Moduli (GPa) = 55.51195 70.82535 94.49292
#
# Poissons Ratio (x) = 0.31284 0.22008
# Poissons Ratio (y) = 0.24520 0.35553
# Poissons Ratio (z) = 0.12929 0.26648
#
# Static dielectric constant tensor:
#      x y z
#    x 3.905100 0.000000 0.000000 
#    y 0.000000 3.759600 0.000000 
#    z 0.000000 0.000000 3.856730 
# 
# 
# High freq. dielectric constant tensor:
#      x y z
#    x 1.841120 0.000000 0.000000 
#    y 0.000000 1.828300 0.000000 
#    z 0.000000 0.000000 1.851200 
# 
# From -- ./inp_files/3538.got.cif
#   From: 2010.03.12/outbox.cif.g09.slc.cpg/sg39_2_cif.got.tgz:3538.got - 2010.04.14 02:53:20.
