data_PCOD8182782
_publ_section_title
;
Structure prediction by ZEFSAII (Michael W. Deem and Ramdas Pophale) SiO2 
 PCOD8182782
Probable space group: A M A 2
;
_chemical_formula_sum "Si O2"
_cell_formula_units_Z 64
_cell_length_a 16.630867
_cell_length_b 16.249784
_cell_length_c 12.135349
_cell_angle_alpha 90.000000
_cell_angle_beta 90.000000
_cell_angle_gamma 90.000000
_cell_volume 3279.553754
_symmetry_space_group_name_H-M "A M A 2"
_symmetry_group_IT_number 40
_symmetry_cell_setting 'orthorhombic'
loop_
_space_group_symop_operation_xyz
x,y,z
-x,-y,z
1/2-x,y,z
1/2+x,-y,z
x,1/2+y,1/2+z
-x,1/2-y,1/2+z
1/2-x,1/2+y,1/2+z
1/2+x,1/2-y,1/2+z
loop_
_atom_site_type_symbol
_atom_site_label
_atom_site_fract_x
_atom_site_fract_y
_atom_site_fract_z
Si Si1 0.090151 0.026113 0.628140
Si Si2 0.845023 0.822327 0.519632
Si Si3 0.344082 0.368093 0.549968
Si Si4 0.655924 0.072327 0.811996
Si Si5 0.845080 0.215752 0.651306
Si Si6 0.843048 0.101522 0.466107
Si Si7 0.911723 0.036847 0.249644
Si Si8 0.342409 0.633850 0.779152
O O1 0.106426 0.123008 0.609047
O O2 0.109806 0.004666 0.755920
O O3 0.150018 0.977145 0.546437
O O4 0.000000 0.000000 0.598157
O O5 0.750000 0.838310 0.531163
O O6 0.866049 0.727503 0.539591
O O7 0.879233 0.848812 0.399594
O O8 0.250000 0.379209 0.577168
O O9 0.367679 0.417197 0.439263
O O10 0.398851 0.405548 0.645226
O O11 0.750000 0.056655 0.799395
O O12 0.628522 0.154545 0.748722
O O13 0.750000 0.216714 0.640756
O O14 0.876204 0.182101 0.532737
O O15 0.880186 0.305633 0.684946
O O16 0.750000 0.110214 0.430635
O O17 0.897027 0.091605 0.357874
O O18 0.850733 0.960375 0.244152
O O19 0.000000 0.000000 0.251862
O O20 0.250000 0.658652 0.787693
#
# Coordination Sequence:
#
# PCOD8182782 Si02
#       8
#     8   8   8   8   8   8   8   8
#     4  11  21  33  55  90 125 150 185 239 303 350
#     4  10  19  35  61  87 112 151 205 247 278 346
#     4  10  21  40  62  82 110 153 203 248 291 346
#     4   9  17  34  59  84 109 145 195 244 283 339
#     4   8  15  30  56  87 105 128 183 245 286 322
#     4  10  19  35  59  84 114 149 191 245 288 334
#     4  12  25  39  53  84 122 160 192 237 304 368
#     4  10  18  34  60  84 107 146 200 243 278 345
#
# _framework density 19.514851
#
# number of rings (size 3 to 8) (size 9 to 14) (size 15 to 20)
#    0.000    2.000    2.500    3.375    0.000    0.500 
#    4.500    1.250    0.000    3.000    0.000    0.000 
#    0.000    0.000    0.000    0.000    0.000    0.000 
#
# Total GULP energy -396706.334500 kJ/mol
# GULP energy per Si atom -12397.072953 kJ/mol
# Density = 1.947043 g / cm^3
# Si number density = 19.514851 Si / 1000 Ang^3
#
#
#
# Elastic Constant Matrix: (Units=GPa)
#
#
# Indices 1 2 3 4 5 6 
#
# 1 55.0555 24.7544 34.7922 0.0000 0.0000 0.0000
# 2 24.7544 113.9083 68.1622 0.0000 0.0000 0.0000
# 3 34.7922 68.1622 129.9068 0.0000 0.0000 0.0000
# 4 0.0000 0.0000 0.0000 36.2726 0.0000 0.0000
# 5 0.0000 0.0000 0.0000 0.0000 16.6142 0.0000
# 6 0.0000 0.0000 0.0000 0.0000 0.0000 13.0579
#
#
#
# Elastic Compliance Matrix: (Units=1/GPa)
#
#
# Indices 1 2 3 4 5 6 
#
# 1 0.022125 -0.001840 -0.004960 0.000000 0.000000 0.000000
# 2 -0.001840 0.012950 -0.006302 0.000000 0.000000 0.000000
# 3 -0.004960 -0.006302 0.012333 0.000000 0.000000 0.000000
# 4 0.000000 0.000000 0.000000 0.027569 0.000000 0.000000
# 5 0.000000 0.000000 0.000000 0.000000 0.060190 0.000000
# 6 0.000000 0.000000 0.000000 0.000000 0.000000 0.076582
#
#
# Mechanical properties :
#
#
# Convention : Reuss Voigt Hill
#
# Bulk Modulus (GPa) = 47.16161 61.58756 54.37458
# Shear Modulus (GPa) = 20.40634 24.59972 22.50303
#
# Velocity S-wave (km/s) = 3.23721 3.55429 3.39945
# Velocity P-wave (km/s) = 6.17998 6.96217 6.58271
#
# Compressibility (1/GPa) = 0.02120369
#
# Stress axis : x y z
#
# Youngs Moduli (GPa) = 45.19678 77.22006 81.08334
#
# Poissons Ratio (x) = 0.14209 0.40219
# Poissons Ratio (y) = 0.08317 0.51099
# Poissons Ratio (z) = 0.22419 0.48664
#
# Static dielectric constant tensor:
#      x y z
#    x 3.227710 0.000000 0.000000 
#    y 0.000000 3.781380 0.000000 
#    z 0.000000 0.000000 3.639020 
# 
# 
# High freq. dielectric constant tensor:
#      x y z
#    x 1.732700 0.000000 0.000000 
#    y 0.000000 1.754240 0.000000 
#    z 0.000000 0.000000 1.755120 
# 
# From -- ./inp_files/12426.got.cif
#   From: 2010.03.12/outbox.cif.g09.slc.cpg/sg40_7_cif.got.tgz:12426.got - 2010.04.14 01:38:03.
