data_PCOD8182360
_publ_section_title
;
Structure prediction by ZEFSAII (Michael W. Deem and Ramdas Pophale) SiO2 
 PCOD8182360
Probable space group: A M A 2
;
_chemical_formula_sum "Si O2"
_cell_formula_units_Z 56
_cell_length_a 8.912070
_cell_length_b 21.805429
_cell_length_c 17.675867
_cell_angle_alpha 90.000000
_cell_angle_beta 90.000000
_cell_angle_gamma 90.000000
_cell_volume 3434.977918
_symmetry_space_group_name_H-M "A M A 2"
_symmetry_group_IT_number 40
_symmetry_cell_setting 'orthorhombic'
loop_
_space_group_symop_operation_xyz
x,y,z
-x,-y,z
1/2-x,y,z
1/2+x,-y,z
x,1/2+y,1/2+z
-x,1/2-y,1/2+z
1/2-x,1/2+y,1/2+z
1/2+x,1/2-y,1/2+z
loop_
_atom_site_type_symbol
_atom_site_label
_atom_site_fract_x
_atom_site_fract_y
_atom_site_fract_z
Si Si1 0.580366 0.298485 0.445840
Si Si2 0.081708 0.151178 0.096282
Si Si3 0.420606 0.793441 0.636023
Si Si4 0.922227 0.820056 0.491702
Si Si5 0.926793 0.564487 0.708975
Si Si6 0.926735 0.854488 0.329460
Si Si7 0.078031 0.728062 0.283246
O O1 0.750000 0.271498 0.459583
O O2 0.557806 0.355046 0.504727
O O3 0.455370 0.248359 0.463676
O O4 0.563333 0.316216 0.357346
O O5 0.250000 0.130425 0.119401
O O6 0.056662 0.222202 0.116553
O O7 0.961752 0.110376 0.139873
O O8 0.250000 0.811561 0.649778
O O9 0.481545 0.835373 0.566647
O O10 0.510180 0.808877 0.712643
O O11 0.750000 0.825501 0.514920
O O12 0.960110 0.863173 0.419281
O O13 0.750000 0.557485 0.717967
O O14 0.000000 0.500000 0.688502
O O15 0.996229 0.588767 0.787345
O O16 0.750000 0.854099 0.312907
O O17 0.991738 0.791634 0.296007
O O18 0.250000 0.744600 0.266289
#
# Coordination Sequence:
#
# PCOD8182360 Si02
#       7
#     8   8   8   8   8   8   8
#     4   8  16  28  42  61  86 116 146 180 220 264
#     4   9  17  31  46  60  86 117 148 186 228 266
#     4  10  18  27  42  63  92 123 149 182 222 262
#     4   9  17  27  42  62  85 114 149 183 217 265
#     4  12  24  35  49  66  86 116 155 196 230 270
#     4  10  19  32  46  62  87 117 148 188 231 266
#     4  10  17  26  43  66  90 119 154 182 215 266
#
# _framework density 16.302869999999999
#
# number of rings (size 3 to 8) (size 9 to 14) (size 15 to 20)
#    0.000    2.286    1.429    3.857    0.000    4.571 
#    0.000    0.000    0.000    0.000    0.000    0.000 
#    0.000    1.143    0.000    5.429    0.000    4.714 
#
# Total GULP energy -347004.148194 kJ/mol
# GULP energy per Si atom -12393.005293 kJ/mol
# Density = 1.626576 g / cm^3
# Si number density = 16.302870 Si / 1000 Ang^3
#
#
#
# Elastic Constant Matrix: (Units=GPa)
#
#
# Indices 1 2 3 4 5 6 
#
# 1 103.0679 19.8962 49.3057 0.0000 0.0000 0.0000
# 2 19.8962 28.0420 19.5689 0.0000 0.0000 0.0000
# 3 49.3057 19.5689 130.8255 0.0000 0.0000 0.0000
# 4 0.0000 0.0000 0.0000 11.7110 0.0000 0.0000
# 5 0.0000 0.0000 0.0000 0.0000 29.0211 0.0000
# 6 0.0000 0.0000 0.0000 0.0000 0.0000 16.3850
#
#
#
# Elastic Compliance Matrix: (Units=1/GPa)
#
#
# Indices 1 2 3 4 5 6 
#
# 1 0.012781 -0.006372 -0.003864 0.000000 0.000000 0.000000
# 2 -0.006372 0.042994 -0.004030 0.000000 0.000000 0.000000
# 3 -0.003864 -0.004030 0.009703 0.000000 0.000000 0.000000
# 4 0.000000 0.000000 0.000000 0.085390 0.000000 0.000000
# 5 0.000000 0.000000 0.000000 0.000000 0.034458 0.000000
# 6 0.000000 0.000000 0.000000 0.000000 0.000000 0.061031
#
#
# Mechanical properties :
#
#
# Convention : Reuss Voigt Hill
#
# Bulk Modulus (GPa) = 27.06592 48.83080 37.94836
# Shear Modulus (GPa) = 17.40936 22.96772 20.18854
#
# Velocity S-wave (km/s) = 3.27137 3.75749 3.52283
# Velocity P-wave (km/s) = 5.55942 6.98872 6.31464
#
# Compressibility (1/GPa) = 0.03694684
#
# Stress axis : x y z
#
# Youngs Moduli (GPa) = 78.24313 23.25920 103.06434
#
# Poissons Ratio (x) = 0.14820 0.39821
# Poissons Ratio (y) = 0.49855 0.41531
# Poissons Ratio (z) = 0.30231 0.09373
#
# Static dielectric constant tensor:
#      x y z
#    x 3.185860 0.000000 0.000000 
#    y 0.000000 2.496430 0.000000 
#    z 0.000000 0.000000 3.651130 
# 
# 
# High freq. dielectric constant tensor:
#      x y z
#    x 1.643690 0.000000 0.000000 
#    y 0.000000 1.539770 0.000000 
#    z 0.000000 0.000000 1.651260 
# 
# From -- ./inp_files/19471.got.cif
#   From: 2010.03.12/outbox.cif.g09.slc.cpg/sg40_10_cif.got.tgz:19471.got - 2010.04.14 01:38:03.
