data_PCOD8182337
_publ_section_title
;
Structure prediction by ZEFSAII (Michael W. Deem and Ramdas Pophale) SiO2 
 PCOD8182337
Probable space group: A M A 2
;
_chemical_formula_sum "Si O2"
_cell_formula_units_Z 44
_cell_length_a 22.667840
_cell_length_b 9.354106
_cell_length_c 10.298074
_cell_angle_alpha 90.000000
_cell_angle_beta 90.000000
_cell_angle_gamma 90.000000
_cell_volume 2183.576611
_symmetry_space_group_name_H-M "A M A 2"
_symmetry_group_IT_number 40
_symmetry_cell_setting 'orthorhombic'
loop_
_space_group_symop_operation_xyz
x,y,z
-x,-y,z
1/2-x,y,z
1/2+x,-y,z
x,1/2+y,1/2+z
-x,1/2-y,1/2+z
1/2-x,1/2+y,1/2+z
1/2+x,1/2-y,1/2+z
loop_
_atom_site_type_symbol
_atom_site_label
_atom_site_fract_x
_atom_site_fract_y
_atom_site_fract_z
Si Si1 0.567001 0.523488 0.208710
Si Si2 0.375391 0.636698 0.978875
Si Si3 0.250000 0.393861 0.506235
Si Si4 0.625965 0.527278 0.475133
Si Si5 0.378069 0.179529 0.191882
Si Si6 0.250000 0.306280 0.223120
Si Si7 0.250000 0.099215 0.582435
O O1 0.500000 0.500000 0.251603
O O2 0.607831 0.476108 0.330985
O O3 0.578298 0.687836 0.178226
O O4 0.579563 0.434186 0.079081
O O5 0.385050 0.805813 0.997574
O O6 0.388693 0.599805 0.829140
O O7 0.310081 0.575519 0.002853
O O8 0.304957 0.499572 0.502841
O O9 0.250000 0.291746 0.378314
O O10 0.250000 0.271272 0.622343
O O11 0.596391 0.427938 0.583303
O O12 0.309685 0.230073 0.171923
O O13 0.250000 0.477929 0.194033
#
# Coordination Sequence:
#
# PCOD8182337 Si02
#       7
#     8   8   4   8   8   4   4
#     4  11  24  42  61  83 118 162 208 250 292 343
#     4  10  20  40  60  88 121 154 190 246 299 352
#     4  10  17  36  59  89 124 150 184 240 298 361
#     4  10  22  39  63  92 120 154 194 246 300 357
#     4  11  22  37  63  89 120 153 196 245 297 357
#     4  12  17  35  61  90 122 158 185 232 304 364
#     4  10  16  31  62  83 116 156 183 226 298 361
#
# _framework density 20.150426
#
# number of rings (size 3 to 8) (size 9 to 14) (size 15 to 20)
#    0.000    1.455    7.273    0.545    0.000    4.364 
#    0.000    0.909    0.000    0.000    0.000    0.000 
#    0.000    0.000    0.000    0.000    0.000    0.000 
#
# Total GULP energy -272548.912563 kJ/mol
# GULP energy per Si atom -12388.586935 kJ/mol
# Density = 2.010456 g / cm^3
# Si number density = 20.150426 Si / 1000 Ang^3
#
#
#
# Elastic Constant Matrix: (Units=GPa)
#
#
# Indices 1 2 3 4 5 6 
#
# 1 65.3785 19.5425 18.0052 0.0000 0.0000 0.0000
# 2 19.5425 61.0633 68.0163 0.0000 0.0000 0.0000
# 3 18.0052 68.0163 127.5364 0.0000 0.0000 0.0000
# 4 0.0000 0.0000 0.0000 38.4142 0.0000 0.0000
# 5 0.0000 0.0000 0.0000 0.0000 13.8299 0.0000
# 6 0.0000 0.0000 0.0000 0.0000 0.0000 10.0998
#
#
#
# Elastic Compliance Matrix: (Units=1/GPa)
#
#
# Indices 1 2 3 4 5 6 
#
# 1 0.016992 -0.006813 0.001235 0.000000 0.000000 0.000000
# 2 -0.006813 0.043072 -0.022009 0.000000 0.000000 0.000000
# 3 0.001235 -0.022009 0.019404 0.000000 0.000000 0.000000
# 4 0.000000 0.000000 0.000000 0.026032 0.000000 0.000000
# 5 0.000000 0.000000 0.000000 0.000000 0.072307 0.000000
# 6 0.000000 0.000000 0.000000 0.000000 0.000000 0.099012
#
#
# Mechanical properties :
#
#
# Convention : Reuss Voigt Hill
#
# Bulk Modulus (GPa) = 41.16390 51.67848 46.42119
# Shear Modulus (GPa) = 14.70195 22.36305 18.53250
#
# Velocity S-wave (km/s) = 2.70406 3.33499 3.03596
# Velocity P-wave (km/s) = 5.49744 6.36644 5.94783
#
# Compressibility (1/GPa) = 0.02429313
#
# Stress axis : x y z
#
# Youngs Moduli (GPa) = 58.85083 23.21720 51.53597
#
# Poissons Ratio (x) = 0.15819 -0.06364
# Poissons Ratio (y) = 0.40098 1.13423
# Poissons Ratio (z) = -0.07267 0.51098
#
# Static dielectric constant tensor:
#      x y z
#    x 3.650700 0.000000 0.000000 
#    y 0.000000 3.557440 0.000000 
#    z 0.000000 0.000000 3.668410 
# 
# 
# High freq. dielectric constant tensor:
#      x y z
#    x 1.775290 0.000000 0.000000 
#    y 0.000000 1.778770 0.000000 
#    z 0.000000 0.000000 1.779150 
# 
# From -- ./inp_files/8695.got.cif
#   From: 2010.03.12/outbox.cif.g09.slc.cpg/sg40_5_cif.got.tgz:8695.got - 2010.04.14 01:38:03.
