data_PCOD8182619
_publ_section_title
;
Structure prediction by ZEFSAII (Michael W. Deem and Ramdas Pophale) SiO2 
 PCOD8182619
Probable space group: A M A 2
;
_chemical_formula_sum "Si O2"
_cell_formula_units_Z 56
_cell_length_a 8.755448
_cell_length_b 14.184629
_cell_length_c 22.964195
_cell_angle_alpha 90.000000
_cell_angle_beta 90.000000
_cell_angle_gamma 90.000000
_cell_volume 2851.987254
_symmetry_space_group_name_H-M "A M A 2"
_symmetry_group_IT_number 40
_symmetry_cell_setting 'orthorhombic'
loop_
_space_group_symop_operation_xyz
x,y,z
-x,-y,z
1/2-x,y,z
1/2+x,-y,z
x,1/2+y,1/2+z
-x,1/2-y,1/2+z
1/2-x,1/2+y,1/2+z
1/2+x,1/2-y,1/2+z
loop_
_atom_site_type_symbol
_atom_site_label
_atom_site_fract_x
_atom_site_fract_y
_atom_site_fract_z
Si Si1 0.067850 0.103405 0.834220
Si Si2 0.073901 0.205556 0.720745
Si Si3 0.430934 0.906777 0.176955
Si Si4 0.077544 0.667710 0.095920
Si Si5 0.927650 0.850534 0.061052
Si Si6 0.079188 0.591946 0.977650
Si Si7 0.432091 0.300314 0.445563
O O1 0.250000 0.096498 0.834115
O O2 0.999354 0.153337 0.775931
O O3 0.011157 0.166681 0.886994
O O4 0.000000 0.000000 0.839286
O O5 0.250000 0.217854 0.735635
O O6 0.007738 0.311108 0.708559
O O7 0.049100 0.138903 0.663319
O O8 0.250000 0.910879 0.178329
O O9 0.489464 0.912051 0.110325
O O10 0.500000 0.000000 0.208699
O O11 0.250000 0.713479 0.091777
O O12 0.948802 0.741883 0.078439
O O13 0.067911 0.584074 0.048677
O O14 0.750000 0.876910 0.057382
O O15 0.007402 0.866390 0.998202
O O16 0.250000 0.585604 0.955221
O O17 0.012766 0.691933 0.955711
O O18 0.000000 0.500000 0.950259
O O19 0.250000 0.308888 0.441952
#
# Coordination Sequence:
#
# PCOD8182619 Si02
#       7
#     8   8   8   8   8   8   8
#     4  11  23  40  60  82 105 138 182 230 278 327
#     4   8  17  35  57  77 107 145 179 216 265 317
#     4  10  19  34  55  82 114 148 181 219 266 323
#     4   8  15  31  51  74 107 146 178 212 259 313
#     4  10  18  30  51  80 108 139 177 220 267 319
#     4   9  18  31  52  80 111 143 177 215 263 319
#     4  10  21  39  57  77 108 147 186 230 276 324
#
# _framework density 19.635432000000002
#
# number of rings (size 3 to 8) (size 9 to 14) (size 15 to 20)
#    0.000    2.571    0.000    4.286    0.000    4.000 
#    0.000   10.714    0.000    3.429    0.000    0.000 
#    0.000    0.000    0.000    0.000    0.000    0.000 
#
# Total GULP energy -346879.464056 kJ/mol
# GULP energy per Si atom -12388.552288 kJ/mol
# Density = 1.959074 g / cm^3
# Si number density = 19.635432 Si / 1000 Ang^3
#
#
#
# Elastic Constant Matrix: (Units=GPa)
#
#
# Indices 1 2 3 4 5 6 
#
# 1 75.9384 33.6789 30.4577 0.0000 0.0000 0.0000
# 2 33.6789 107.6151 47.8226 0.0000 0.0000 0.0000
# 3 30.4577 47.8226 127.8116 0.0000 0.0000 0.0000
# 4 0.0000 0.0000 0.0000 18.1571 0.0000 0.0000
# 5 0.0000 0.0000 0.0000 0.0000 21.5539 0.0000
# 6 0.0000 0.0000 0.0000 0.0000 0.0000 29.5181
#
#
#
# Elastic Compliance Matrix: (Units=1/GPa)
#
#
# Indices 1 2 3 4 5 6 
#
# 1 0.015836 -0.003933 -0.002302 0.000000 0.000000 0.000000
# 2 -0.003933 0.012122 -0.003599 0.000000 0.000000 0.000000
# 3 -0.002302 -0.003599 0.009719 0.000000 0.000000 0.000000
# 4 0.000000 0.000000 0.000000 0.055075 0.000000 0.000000
# 5 0.000000 0.000000 0.000000 0.000000 0.046395 0.000000
# 6 0.000000 0.000000 0.000000 0.000000 0.000000 0.033877
#
#
# Mechanical properties :
#
#
# Convention : Reuss Voigt Hill
#
# Bulk Modulus (GPa) = 55.52402 59.47594 57.49998
# Shear Modulus (GPa) = 25.16407 27.13957 26.15182
#
# Velocity S-wave (km/s) = 3.58378 3.72179 3.65344
# Velocity P-wave (km/s) = 6.74266 6.98748 6.86616
#
# Compressibility (1/GPa) = 0.01801022
#
# Stress axis : x y z
#
# Youngs Moduli (GPa) = 63.14630 82.49216 102.89040
#
# Poissons Ratio (x) = 0.32444 0.23688
# Poissons Ratio (y) = 0.24835 0.37025
# Poissons Ratio (z) = 0.14538 0.29685
#
# Static dielectric constant tensor:
#      x y z
#    x 3.413350 0.000000 0.000000 
#    y 0.000000 3.563430 0.000000 
#    z 0.000000 0.000000 3.714740 
# 
# 
# High freq. dielectric constant tensor:
#      x y z
#    x 1.752240 0.000000 0.000000 
#    y 0.000000 1.754590 0.000000 
#    z 0.000000 0.000000 1.753010 
# 
# From -- ./inp_files/22176.got.cif
#   From: 2010.03.12/outbox.cif.g09.slc.cpg/sg40_12_cif.got.tgz:22176.got - 2010.04.14 01:38:03.
