data_PCOD8182936
_publ_section_title
;
Structure prediction by ZEFSAII (Michael W. Deem and Ramdas Pophale) SiO2 
 PCOD8182936
Probable space group: A M A 2
;
_chemical_formula_sum "Si O2"
_cell_formula_units_Z 56
_cell_length_a 9.185256
_cell_length_b 23.603543
_cell_length_c 13.729193
_cell_angle_alpha 90.000000
_cell_angle_beta 90.000000
_cell_angle_gamma 90.000000
_cell_volume 2976.551990
_symmetry_space_group_name_H-M "A M A 2"
_symmetry_group_IT_number 40
_symmetry_cell_setting 'orthorhombic'
loop_
_space_group_symop_operation_xyz
x,y,z
-x,-y,z
1/2-x,y,z
1/2+x,-y,z
x,1/2+y,1/2+z
-x,1/2-y,1/2+z
1/2-x,1/2+y,1/2+z
1/2+x,1/2-y,1/2+z
loop_
_atom_site_type_symbol
_atom_site_label
_atom_site_fract_x
_atom_site_fract_y
_atom_site_fract_z
Si Si1 0.081341 0.384776 0.090050
Si Si2 0.422308 0.941583 0.001178
Si Si3 0.920789 0.839010 0.095810
Si Si4 0.582554 0.555890 0.281717
Si Si5 0.579973 0.727846 0.984218
Si Si6 0.082192 0.670279 0.818357
Si Si7 0.078887 0.556052 0.923878
O O1 0.250000 0.396880 0.065119
O O2 0.049974 0.393749 0.205014
O O3 0.037926 0.320704 0.062496
O O4 0.983564 0.428880 0.030137
O O5 0.250000 0.947634 0.016929
O O6 0.463876 0.924734 0.890014
O O7 0.500000 0.000000 0.030065
O O8 0.484584 0.893576 0.071056
O O9 0.750000 0.852877 0.083509
O O10 0.956410 0.820961 0.205935
O O11 0.972024 0.787718 0.026860
O O12 0.500000 0.500000 0.247441
O O13 0.750000 0.538784 0.281974
O O14 0.750000 0.728414 0.964693
O O15 0.504370 0.716648 0.880914
O O16 0.250000 0.681841 0.839964
O O17 0.040310 0.606454 0.849278
O O18 0.250000 0.544920 0.931971
O O19 0.000000 0.500000 0.883388
#
# Coordination Sequence:
#
# PCOD8182936 Si02
#       7
#     8   8   8   8   8   8   8
#     4   9  17  31  50  74 104 138 173 211 257 310
#     4  10  21  37  56  79 107 139 176 220 264 313
#     4  10  21  38  58  80 106 139 175 215 264 315
#     4   9  18  31  49  74 104 137 173 211 256 306
#     4   9  19  35  55  78 106 137 172 215 260 307
#     4   9  20  37  55  76 106 139 173 214 260 310
#     4  10  19  31  48  73 103 137 174 214 259 307
#
# _framework density 18.813714000000001
#
# number of rings (size 3 to 8) (size 9 to 14) (size 15 to 20)
#    0.000    2.571    0.000    1.286    0.000    5.714 
#    0.000    4.286    0.000    3.429    0.000    0.000 
#    0.000    0.000    0.000    0.000    0.000    0.000 
#
# Total GULP energy -347234.933885 kJ/mol
# GULP energy per Si atom -12401.247639 kJ/mol
# Density = 1.877089 g / cm^3
# Si number density = 18.813714 Si / 1000 Ang^3
#
#
#
# Elastic Constant Matrix: (Units=GPa)
#
#
# Indices 1 2 3 4 5 6 
#
# 1 66.0508 51.0885 41.4412 0.0000 0.0000 0.0000
# 2 51.0885 114.5112 57.9405 0.0000 0.0000 0.0000
# 3 41.4412 57.9405 96.2555 0.0000 0.0000 0.0000
# 4 0.0000 0.0000 0.0000 25.6673 0.0000 0.0000
# 5 0.0000 0.0000 0.0000 0.0000 28.0926 0.0000
# 6 0.0000 0.0000 0.0000 0.0000 0.0000 26.6015
#
#
#
# Elastic Compliance Matrix: (Units=1/GPa)
#
#
# Indices 1 2 3 4 5 6 
#
# 1 0.025236 -0.008285 -0.005878 0.000000 0.000000 0.000000
# 2 -0.008285 0.015277 -0.005629 0.000000 0.000000 0.000000
# 3 -0.005878 -0.005629 0.016308 0.000000 0.000000 0.000000
# 4 0.000000 0.000000 0.000000 0.038960 0.000000 0.000000
# 5 0.000000 0.000000 0.000000 0.000000 0.035597 0.000000
# 6 0.000000 0.000000 0.000000 0.000000 0.000000 0.037592
#
#
# Mechanical properties :
#
#
# Convention : Reuss Voigt Hill
#
# Bulk Modulus (GPa) = 58.01313 64.19532 61.10423
# Shear Modulus (GPa) = 23.33190 24.49543 23.91367
#
# Velocity S-wave (km/s) = 3.52540 3.61224 3.56908
# Velocity P-wave (km/s) = 6.89012 7.18285 7.03801
#
# Compressibility (1/GPa) = 0.01723748
#
# Stress axis : x y z
#
# Youngs Moduli (GPa) = 39.62644 65.45719 61.31916
#
# Poissons Ratio (x) = 0.54229 0.36043
# Poissons Ratio (y) = 0.32829 0.34518
# Poissons Ratio (z) = 0.23292 0.36847
#
# Static dielectric constant tensor:
#      x y z
#    x 3.422940 0.000000 0.000000 
#    y 0.000000 3.445420 0.000000 
#    z 0.000000 0.000000 3.472180 
# 
# 
# High freq. dielectric constant tensor:
#      x y z
#    x 1.728590 0.000000 0.000000 
#    y 0.000000 1.725440 0.000000 
#    z 0.000000 0.000000 1.728270 
# 
# From -- ./inp_files/15294.got.cif
#   From: 2010.03.12/outbox.cif.g09.slc.cpg/sg40_8_cif.got.tgz:15294.got - 2010.04.14 01:38:03.
