data_PCOD8182445
_publ_section_title
;
Structure prediction by ZEFSAII (Michael W. Deem and Ramdas Pophale) SiO2 
 PCOD8182445
Probable space group: A M A 2
;
_chemical_formula_sum "Si O2"
_cell_formula_units_Z 64
_cell_length_a 9.052502
_cell_length_b 18.332869
_cell_length_c 26.224154
_cell_angle_alpha 90.000000
_cell_angle_beta 90.000000
_cell_angle_gamma 90.000000
_cell_volume 4352.116890
_symmetry_space_group_name_H-M "A M A 2"
_symmetry_group_IT_number 40
_symmetry_cell_setting 'orthorhombic'
loop_
_space_group_symop_operation_xyz
x,y,z
-x,-y,z
1/2-x,y,z
1/2+x,-y,z
x,1/2+y,1/2+z
-x,1/2-y,1/2+z
1/2-x,1/2+y,1/2+z
1/2+x,1/2-y,1/2+z
loop_
_atom_site_type_symbol
_atom_site_label
_atom_site_fract_x
_atom_site_fract_y
_atom_site_fract_z
Si Si1 0.924004 0.173360 0.637040
Si Si2 0.082150 0.783817 0.780178
Si Si3 0.917183 0.073891 0.731014
Si Si4 0.083512 0.659298 0.848248
Si Si5 0.077109 0.425743 0.930326
Si Si6 0.422487 0.926223 0.545896
Si Si7 0.577056 0.922494 0.242470
Si Si8 0.075705 0.294846 0.692237
O O1 0.750000 0.188941 0.641063
O O2 0.973996 0.115412 0.680370
O O3 0.969504 0.140466 0.582243
O O4 0.010627 0.249819 0.643938
O O5 0.250000 0.764184 0.760495
O O6 0.064339 0.871645 0.780009
O O7 0.060650 0.745767 0.835371
O O8 0.960558 0.751775 0.742344
O O9 0.750000 0.050610 0.722396
O O10 0.000000 0.000000 0.743013
O O11 0.250000 0.643834 0.866729
O O12 0.047581 0.613395 0.797541
O O13 0.973642 0.639586 0.893830
O O14 0.250000 0.437086 0.924673
O O15 0.000000 0.500000 0.912021
O O16 0.031043 0.406125 0.988162
O O17 0.250000 0.941416 0.550208
O O18 0.500000 0.000000 0.564463
O O19 0.750000 0.930850 0.231190
O O20 0.503211 0.873383 0.197975
O O21 0.500000 0.000000 0.241661
O O22 0.250000 0.305681 0.685828
#
# Coordination Sequence:
#
# PCOD8182445 Si02
#       8
#     8   8   8   8   8   8   8   8
#     4   9  17  30  43  55  78 111 140 165 199 239
#     4   8  16  30  42  54  77 108 137 165 200 241
#     4   9  16  25  39  58  79 103 131 163 196 234
#     4   9  17  29  44  58  76 107 141 169 201 240
#     4  10  19  29  41  59  82 107 137 172 207 241
#     4   9  18  30  43  59  81 109 139 172 207 241
#     4  10  19  30  43  60  83 110 139 169 202 241
#     4  10  18  27  41  61  81 103 134 169 203 239
#
# _framework density 14.705487
#
# number of rings (size 3 to 8) (size 9 to 14) (size 15 to 20)
#    0.000    2.750    0.000    4.125    0.000    6.500 
#    0.000    0.000    0.000    0.000    0.000    0.000 
#    0.000    1.000    0.000    6.750    0.000    3.500 
#
# Total GULP energy -396610.396079 kJ/mol
# GULP energy per Si atom -12394.074877 kJ/mol
# Density = 1.467202 g / cm^3
# Si number density = 14.705487 Si / 1000 Ang^3
#
#
#
# Elastic Constant Matrix: (Units=GPa)
#
#
# Indices 1 2 3 4 5 6 
#
# 1 69.8808 41.5103 31.1130 0.0000 0.0000 0.0000
# 2 41.5103 93.0669 41.5913 0.0000 0.0000 0.0000
# 3 31.1130 41.5913 66.3919 0.0000 0.0000 0.0000
# 4 0.0000 0.0000 0.0000 24.9595 0.0000 0.0000
# 5 0.0000 0.0000 0.0000 0.0000 15.7842 0.0000
# 6 0.0000 0.0000 0.0000 0.0000 0.0000 26.4685
#
#
#
# Elastic Compliance Matrix: (Units=1/GPa)
#
#
# Indices 1 2 3 4 5 6 
#
# 1 0.020805 -0.006836 -0.005467 0.000000 0.000000 0.000000
# 2 -0.006836 0.017169 -0.007552 0.000000 0.000000 0.000000
# 3 -0.005467 -0.007552 0.022355 0.000000 0.000000 0.000000
# 4 0.000000 0.000000 0.000000 0.040065 0.000000 0.000000
# 5 0.000000 0.000000 0.000000 0.000000 0.063354 0.000000
# 6 0.000000 0.000000 0.000000 0.000000 0.000000 0.037781
#
#
# Mechanical properties :
#
#
# Convention : Reuss Voigt Hill
#
# Bulk Modulus (GPa) = 48.50045 50.86320 49.68182
# Shear Modulus (GPa) = 20.15209 21.11744 20.63477
#
# Velocity S-wave (km/s) = 3.70588 3.79360 3.75000
# Velocity P-wave (km/s) = 7.16688 7.33836 7.25313
#
# Compressibility (1/GPa) = 0.02061837
#
# Stress axis : x y z
#
# Youngs Moduli (GPa) = 48.06493 58.24421 44.73265
#
# Poissons Ratio (x) = 0.39818 0.24456
# Poissons Ratio (y) = 0.32859 0.33782
# Poissons Ratio (z) = 0.26278 0.43985
#
# Static dielectric constant tensor:
#      x y z
#    x 2.842130 0.000000 0.000000 
#    y 0.000000 2.949420 0.000000 
#    z 0.000000 0.000000 2.745550 
# 
# 
# High freq. dielectric constant tensor:
#      x y z
#    x 1.568730 0.000000 0.000000 
#    y 0.000000 1.553010 0.000000 
#    z 0.000000 0.000000 1.526050 
# 
# From -- ./inp_files/24412.got.cif
#   From: 2010.03.12/outbox.cif.g09.slc.cpg/sg40_13_cif.got.tgz:24412.got - 2010.04.14 01:38:03.
