data_PCOD8182436
_publ_section_title
;
Structure prediction by ZEFSAII (Michael W. Deem and Ramdas Pophale) SiO2 
 PCOD8182436
Probable space group: A M A 2
;
_chemical_formula_sum "Si O2"
_cell_formula_units_Z 56
_cell_length_a 9.377355
_cell_length_b 13.620410
_cell_length_c 29.348508
_cell_angle_alpha 90.000000
_cell_angle_beta 90.000000
_cell_angle_gamma 90.000000
_cell_volume 3748.491808
_symmetry_space_group_name_H-M "A M A 2"
_symmetry_group_IT_number 40
_symmetry_cell_setting 'orthorhombic'
loop_
_space_group_symop_operation_xyz
x,y,z
-x,-y,z
1/2-x,y,z
1/2+x,-y,z
x,1/2+y,1/2+z
-x,1/2-y,1/2+z
1/2-x,1/2+y,1/2+z
1/2+x,1/2-y,1/2+z
loop_
_atom_site_type_symbol
_atom_site_label
_atom_site_fract_x
_atom_site_fract_y
_atom_site_fract_z
Si Si1 0.084343 0.404263 0.837200
Si Si2 0.411582 0.903219 0.611438
Si Si3 0.580861 0.708383 0.924443
Si Si4 0.583300 0.601600 0.013229
Si Si5 0.417495 0.396990 0.210549
Si Si6 0.587192 0.293406 0.285986
Si Si7 0.415562 0.097866 0.878897
O O1 0.250000 0.431264 0.839635
O O2 0.026131 0.369345 0.886686
O O3 0.056906 0.317979 0.800904
O O4 0.000000 0.500000 0.820964
O O5 0.250000 0.938881 0.610976
O O6 0.443354 0.847172 0.563311
O O7 0.441746 0.849053 0.659666
O O8 0.500000 0.000000 0.610666
O O9 0.750000 0.712236 0.919901
O O10 0.525110 0.817716 0.913019
O O11 0.527687 0.676507 0.974547
O O12 0.500000 0.500000 0.008665
O O13 0.750000 0.579320 0.005342
O O14 0.500000 0.500000 0.215700
O O15 0.250000 0.414418 0.220470
O O16 0.479860 0.318008 0.245288
O O17 0.750000 0.304700 0.269252
O O18 0.557516 0.367983 0.327255
O O19 0.250000 0.076814 0.887345
O O20 0.500000 0.000000 0.890024
#
# Coordination Sequence:
#
# PCOD8182436 Si02
#       7
#     8   8   8   8   8   8   8
#     4   9  17  29  43  60  83 107 132 164 198 233
#     4   8  15  25  37  56  80 104 130 160 193 231
#     4   8  15  27  42  59  80 107 133 157 192 236
#     4   9  15  25  41  59  81 107 132 157 190 232
#     4  10  18  27  40  59  83 108 135 166 199 236
#     4   9  18  30  42  58  81 108 136 164 197 236
#     4   9  17  29  42  57  79 105 133 164 196 230
#
# _framework density 14.939342
#
# number of rings (size 3 to 8) (size 9 to 14) (size 15 to 20)
#    0.000    3.143    0.000    3.000    0.000    2.857 
#    0.000    2.857    0.000    0.000    0.000    1.000 
#    0.000    4.571    0.000    0.000    0.000    0.000 
#
# Total GULP energy -346879.149204 kJ/mol
# GULP energy per Si atom -12388.541043 kJ/mol
# Density = 1.490534 g / cm^3
# Si number density = 14.939342 Si / 1000 Ang^3
#
#
#
# Elastic Constant Matrix: (Units=GPa)
#
#
# Indices 1 2 3 4 5 6 
#
# 1 52.7732 38.3214 47.8722 0.0000 0.0000 0.0000
# 2 38.3214 89.2455 52.1453 0.0000 0.0000 0.0000
# 3 47.8722 52.1453 128.8305 0.0000 0.0000 0.0000
# 4 0.0000 0.0000 0.0000 18.6365 0.0000 0.0000
# 5 0.0000 0.0000 0.0000 0.0000 20.7730 0.0000
# 6 0.0000 0.0000 0.0000 0.0000 0.0000 24.2748
#
#
#
# Elastic Compliance Matrix: (Units=1/GPa)
#
#
# Indices 1 2 3 4 5 6 
#
# 1 0.033651 -0.009356 -0.008717 0.000000 0.000000 0.000000
# 2 -0.009356 0.017277 -0.003516 0.000000 0.000000 0.000000
# 3 -0.008717 -0.003516 0.012425 0.000000 0.000000 0.000000
# 4 0.000000 0.000000 0.000000 0.053658 0.000000 0.000000
# 5 0.000000 0.000000 0.000000 0.000000 0.048140 0.000000
# 6 0.000000 0.000000 0.000000 0.000000 0.000000 0.041195
#
#
# Mechanical properties :
#
#
# Convention : Reuss Voigt Hill
#
# Bulk Modulus (GPa) = 49.57130 60.83633 55.20381
# Shear Modulus (GPa) = 19.51228 21.57086 20.54157
#
# Velocity S-wave (km/s) = 3.61792 3.80399 3.71212
# Velocity P-wave (km/s) = 7.12083 7.75270 7.44347
#
# Compressibility (1/GPa) = 0.02017296
#
# Stress axis : x y z
#
# Youngs Moduli (GPa) = 29.71712 57.88028 80.48436
#
# Poissons Ratio (x) = 0.54152 0.70161
# Poissons Ratio (y) = 0.27803 0.28302
# Poissons Ratio (z) = 0.25906 0.20354
#
# Static dielectric constant tensor:
#      x y z
#    x 2.790300 0.000000 0.000000 
#    y 0.000000 2.562170 0.000000 
#    z 0.000000 0.000000 3.382450 
# 
# 
# High freq. dielectric constant tensor:
#      x y z
#    x 1.566530 0.000000 0.000000 
#    y 0.000000 1.537070 0.000000 
#    z 0.000000 0.000000 1.577100 
# 
# From -- ./inp_files/25653.got.cif
#   From: 2010.03.12/outbox.cif.g09.slc.cpg/sg40_13_cif.got.tgz:25653.got - 2010.04.14 01:38:03.
