data_PCOD8182236
_publ_section_title
;
Structure prediction by ZEFSAII (Michael W. Deem and Ramdas Pophale) SiO2 
 PCOD8182236
Probable space group: A B M 2
;
_chemical_formula_sum "Si O2"
_cell_formula_units_Z 48
_cell_length_a 13.951604
_cell_length_b 8.461700
_cell_length_c 19.898935
_cell_angle_alpha 90.000000
_cell_angle_beta 90.000000
_cell_angle_gamma 90.000000
_cell_volume 2349.154595
_symmetry_space_group_name_H-M "A B M 2"
_symmetry_group_IT_number 39
_symmetry_cell_setting 'orthorhombic'
loop_
_space_group_symop_operation_xyz
x,y,z
-x,-y,z
-x,1/2+y,z
x,1/2-y,z
x,1/2+y,1/2+z
-x,1/2-y,1/2+z
-x,y,1/2+z
x,-y,1/2+z
loop_
_atom_site_type_symbol
_atom_site_label
_atom_site_fract_x
_atom_site_fract_y
_atom_site_fract_z
Si Si1 0.394302 0.565809 0.639140
Si Si2 0.900702 0.434934 0.825557
Si Si3 0.706877 0.931497 0.515521
Si Si4 0.601727 0.567223 0.378377
Si Si5 0.102349 0.564217 0.472724
Si Si6 0.719346 0.066863 0.259990
O O1 0.500000 0.500000 0.650919
O O2 0.394806 0.750000 0.655604
O O3 0.360371 0.536260 0.563113
O O4 0.319364 0.477617 0.686981
O O5 0.909264 0.250000 0.840710
O O6 0.878946 0.522764 0.895183
O O7 0.815462 0.467070 0.773581
O O8 0.000000 0.500000 0.794382
O O9 0.696553 0.750000 0.537534
O O10 0.674324 0.958610 0.439282
O O11 0.817205 0.985317 0.519942
O O12 0.500000 0.500000 0.401057
O O13 0.593792 0.750000 0.358264
O O14 0.637930 0.470962 0.314321
O O15 0.106803 0.750000 0.482596
O O16 0.000000 0.500000 0.497309
O O17 0.745879 0.250000 0.262368
#
# Coordination Sequence:
#
# PCOD8182236 Si02
#       6
#     8   8   8   8   8   8
#     4  12  26  45  66  90 125 168 213 258 313 376
#     4  11  21  37  61  93 128 164 206 255 312 370
#     4  11  23  41  64  92 126 163 209 259 312 371
#     4  11  23  38  60  89 123 158 203 259 312 366
#     4  11  21  36  61  93 128 166 207 255 312 369
#     4  12  24  41  64  91 124 163 210 258 313 372
#
# _framework density 20.432880999999998
#
# number of rings (size 3 to 8) (size 9 to 14) (size 15 to 20)
#    0.000    0.667    1.667    9.000    0.000    3.333 
#    0.000    0.833    0.000    0.000    0.000    0.000 
#    0.000    0.000    0.000    0.000    0.000    0.000 
#
# Total GULP energy -297796.671839 kJ/mol
# GULP energy per Si atom -12408.194660 kJ/mol
# Density = 2.038638 g / cm^3
# Si number density = 20.432881 Si / 1000 Ang^3
#
#
#
# Elastic Constant Matrix: (Units=GPa)
#
#
# Indices 1 2 3 4 5 6 
#
# 1 127.3396 23.8338 11.3675 0.0000 0.0000 0.0000
# 2 23.8338 96.5935 16.9591 0.0000 0.0000 0.0000
# 3 11.3675 16.9591 49.4863 0.0000 0.0000 0.0000
# 4 0.0000 0.0000 0.0000 30.5907 0.0000 0.0000
# 5 0.0000 0.0000 0.0000 0.0000 -11.4858 0.0000
# 6 0.0000 0.0000 0.0000 0.0000 0.0000 39.8054
#
#
#
# Elastic Compliance Matrix: (Units=1/GPa)
#
#
# Indices 1 2 3 4 5 6 
#
# 1 0.008309 -0.001825 -0.001283 0.000000 0.000000 0.000000
# 2 -0.001825 0.011416 -0.003493 0.000000 0.000000 0.000000
# 3 -0.001283 -0.003493 0.021700 0.000000 0.000000 0.000000
# 4 0.000000 0.000000 0.000000 0.032690 0.000000 0.000000
# 5 0.000000 0.000000 0.000000 0.000000 -0.087064 0.000000
# 6 0.000000 0.000000 0.000000 0.000000 0.000000 0.025122
#
#
# Mechanical properties :
#
#
# Convention : Reuss Voigt Hill
#
# Bulk Modulus (GPa) = 35.43319 41.97115 38.70217
# Shear Modulus (GPa) = 143.74764 26.53265 85.14014
#
# Velocity S-wave (km/s) = 8.39666 3.60742 6.46209
# Velocity P-wave (km/s) = 10.55386 6.15929 8.64063
#
# Compressibility (1/GPa) = 0.02822213
#
# Stress axis : x y z
#
# Youngs Moduli (GPa) = 120.34942 87.59442 46.08399
#
# Poissons Ratio (x) = 0.15985 0.05914
# Poissons Ratio (y) = 0.21963 0.16098
# Poissons Ratio (z) = 0.15444 0.30598
#
# Static dielectric constant tensor:
#      x y z
#    x 4.326160 0.000000 0.000000 
#    y 0.000000 3.819780 0.000000 
#    z 0.000000 0.000000 3.422380 
# 
# 
# High freq. dielectric constant tensor:
#      x y z
#    x 1.816570 0.000000 0.000000 
#    y 0.000000 1.817730 0.000000 
#    z 0.000000 0.000000 1.774610 
# 
# From -- ./inp_files/12659.got.cif
#   From: 2010.03.12/outbox.cif.g09.slc.cpg/sg39_7_cif.got.tgz:12659.got - 2010.04.14 02:53:20.
