data_PCOD8182386
_publ_section_title
;
Structure prediction by ZEFSAII (Michael W. Deem and Ramdas Pophale) SiO2 
 PCOD8182386
Probable space group: A M A 2
;
_chemical_formula_sum "Si O2"
_cell_formula_units_Z 64
_cell_length_a 9.002019
_cell_length_b 22.871425
_cell_length_c 19.153763
_cell_angle_alpha 90.000000
_cell_angle_beta 90.000000
_cell_angle_gamma 90.000000
_cell_volume 3943.549156
_symmetry_space_group_name_H-M "A M A 2"
_symmetry_group_IT_number 40
_symmetry_cell_setting 'orthorhombic'
loop_
_space_group_symop_operation_xyz
x,y,z
-x,-y,z
1/2-x,y,z
1/2+x,-y,z
x,1/2+y,1/2+z
-x,1/2-y,1/2+z
1/2-x,1/2+y,1/2+z
1/2+x,1/2-y,1/2+z
loop_
_atom_site_type_symbol
_atom_site_label
_atom_site_fract_x
_atom_site_fract_y
_atom_site_fract_z
Si Si1 0.574994 0.836830 0.782610
Si Si2 0.924310 0.061377 0.861369
Si Si3 0.575340 0.652934 0.728213
Si Si4 0.074215 0.231702 0.651358
Si Si5 0.577446 0.119873 0.006764
Si Si6 0.077063 0.744838 0.998502
Si Si7 0.077688 0.279321 0.862862
Si Si8 0.926190 0.437181 0.637211
O O1 0.750000 0.848799 0.789656
O O2 0.484433 0.893570 0.804188
O O3 0.529838 0.821562 0.702468
O O4 0.525455 0.782258 0.830277
O O5 0.750000 0.055130 0.851107
O O6 0.964740 0.082401 0.938982
O O7 0.000000 0.000000 0.846716
O O8 0.750000 0.641629 0.716339
O O9 0.515720 0.706463 0.680774
O O10 0.542181 0.668094 0.809171
O O11 0.483102 0.595665 0.706803
O O12 0.250000 0.237942 0.650174
O O13 0.013288 0.221585 0.572922
O O14 0.750000 0.112195 0.027759
O O15 0.540316 0.186869 0.990231
O O16 0.474472 0.098955 0.069363
O O17 0.250000 0.732603 0.993814
O O18 0.003398 0.708611 0.935891
O O19 0.250000 0.276332 0.878870
O O20 0.750000 0.443680 0.638947
O O21 0.000000 0.500000 0.634132
#
# Coordination Sequence:
#
# PCOD8182386 Si02
#       8
#     8   8   8   8   8   8   8   8
#     4   9  17  31  49  69  93 125 163 201 238 285
#     4  11  22  34  48  68  94 130 168 203 240 279
#     4   9  17  34  52  68  96 131 164 200 242 288
#     4   8  15  29  50  70  93 128 162 193 241 289
#     4  10  20  34  49  68  99 135 168 200 236 281
#     4  10  17  29  50  73 100 132 162 196 237 288
#     4   9  18  30  49  73  99 129 160 198 244 289
#     4  12  24  35  50  71  96 130 170 209 244 287
#
# _framework density 16.229035
#
# number of rings (size 3 to 8) (size 9 to 14) (size 15 to 20)
#    0.000    2.250    2.500    3.375    0.000    3.000 
#    0.000    2.500    0.000    0.000    0.000    0.875 
#    0.000    6.000    0.000    0.000    0.000    0.000 
#
# Total GULP energy -396748.456920 kJ/mol
# GULP energy per Si atom -12398.389279 kJ/mol
# Density = 1.619210 g / cm^3
# Si number density = 16.229035 Si / 1000 Ang^3
#
#
#
# Elastic Constant Matrix: (Units=GPa)
#
#
# Indices 1 2 3 4 5 6 
#
# 1 60.8808 22.4579 38.1731 0.0000 0.0000 0.0000
# 2 22.4579 26.5553 21.2667 0.0000 0.0000 0.0000
# 3 38.1731 21.2667 114.9612 0.0000 0.0000 0.0000
# 4 0.0000 0.0000 0.0000 22.3200 0.0000 0.0000
# 5 0.0000 0.0000 0.0000 0.0000 26.8620 0.0000
# 6 0.0000 0.0000 0.0000 0.0000 0.0000 20.1833
#
#
#
# Elastic Compliance Matrix: (Units=1/GPa)
#
#
# Indices 1 2 3 4 5 6 
#
# 1 0.026507 -0.018041 -0.005464 0.000000 0.000000 0.000000
# 2 -0.018041 0.056485 -0.004459 0.000000 0.000000 0.000000
# 3 -0.005464 -0.004459 0.011338 0.000000 0.000000 0.000000
# 4 0.000000 0.000000 0.000000 0.044803 0.000000 0.000000
# 5 0.000000 0.000000 0.000000 0.000000 0.037227 0.000000
# 6 0.000000 0.000000 0.000000 0.000000 0.000000 0.049546
#
#
# Mechanical properties :
#
#
# Convention : Reuss Voigt Hill
#
# Bulk Modulus (GPa) = 26.04016 40.68807 33.36411
# Shear Modulus (GPa) = 16.97023 21.90637 19.43830
#
# Velocity S-wave (km/s) = 3.23719 3.67798 3.46460
# Velocity P-wave (km/s) = 5.48204 6.56980 6.05042
#
# Compressibility (1/GPa) = 0.03840222
#
# Stress axis : x y z
#
# Youngs Moduli (GPa) = 37.72649 17.70379 88.20042
#
# Poissons Ratio (x) = 0.31939 0.48195
# Poissons Ratio (y) = 0.68061 0.39326
# Poissons Ratio (z) = 0.20615 0.07894
#
# Static dielectric constant tensor:
#      x y z
#    x 2.917090 0.000000 0.000000 
#    y 0.000000 2.903590 0.000000 
#    z 0.000000 0.000000 3.327060 
# 
# 
# High freq. dielectric constant tensor:
#      x y z
#    x 1.613070 0.000000 0.000000 
#    y 0.000000 1.597030 0.000000 
#    z 0.000000 0.000000 1.626090 
# 
# From -- ./inp_files/19743.got.cif
#   From: 2010.03.12/outbox.cif.g09.slc.cpg/sg40_10_cif.got.tgz:19743.got - 2010.04.14 01:38:03.
