data_PCOD8182614
_publ_section_title
;
Structure prediction by ZEFSAII (Michael W. Deem and Ramdas Pophale) SiO2 
 PCOD8182614
Probable space group: A M A 2
;
_chemical_formula_sum "Si O2"
_cell_formula_units_Z 64
_cell_length_a 8.811590
_cell_length_b 33.696933
_cell_length_c 11.925622
_cell_angle_alpha 90.000000
_cell_angle_beta 90.000000
_cell_angle_gamma 90.000000
_cell_volume 3540.998114
_symmetry_space_group_name_H-M "A M A 2"
_symmetry_group_IT_number 40
_symmetry_cell_setting 'orthorhombic'
loop_
_space_group_symop_operation_xyz
x,y,z
-x,-y,z
1/2-x,y,z
1/2+x,-y,z
x,1/2+y,1/2+z
-x,1/2-y,1/2+z
1/2-x,1/2+y,1/2+z
1/2+x,1/2-y,1/2+z
loop_
_atom_site_type_symbol
_atom_site_label
_atom_site_fract_x
_atom_site_fract_y
_atom_site_fract_z
Si Si1 0.070922 0.767230 0.643640
Si Si2 0.923176 0.817723 0.831995
Si Si3 0.069728 0.181134 0.081154
Si Si4 0.073059 0.958267 0.344677
Si Si5 0.077033 0.115856 0.660628
Si Si6 0.426658 0.959470 0.606791
Si Si7 0.072924 0.834270 0.477315
Si Si8 0.929361 0.376686 0.772719
O O1 0.250000 0.769457 0.653374
O O2 0.009169 0.722536 0.632820
O O3 0.020884 0.792284 0.532533
O O4 0.006124 0.784699 0.758447
O O5 0.750000 0.803505 0.841145
O O6 0.936616 0.860834 0.776603
O O7 0.996618 0.822087 0.955254
O O8 0.250000 0.182295 0.077284
O O9 0.017990 0.143497 0.155511
O O10 0.250000 0.960504 0.317389
O O11 0.041417 0.951796 0.475700
O O12 0.004355 0.920114 0.281086
O O13 0.000000 0.000000 0.303763
O O14 0.250000 0.116923 0.615096
O O15 0.018961 0.071677 0.682244
O O16 0.960718 0.132473 0.569236
O O17 0.250000 0.958639 0.635484
O O18 0.500000 0.000000 0.645986
O O19 0.250000 0.835090 0.446771
O O20 0.978633 0.844931 0.366966
O O21 0.750000 0.382403 0.779822
#
# Coordination Sequence:
#
# PCOD8182614 Si02
#       8
#     8   8   8   8   8   8   8   8
#     4   9  19  35  54  75 103 138 176 221 269 311
#     4   9  19  36  55  74 100 137 179 217 260 312
#     4   9  20  37  54  75 105 142 179 220 268 314
#     4  10  20  34  53  78 110 143 174 215 268 323
#     4  10  18  30  51  75 100 134 172 212 254 309
#     4  10  19  30  48  75 108 139 165 207 259 314
#     4  10  19  31  49  74 104 138 173 214 263 313
#     4  11  21  33  53  78 108 143 179 220 265 320
#
# _framework density 18.074000000000002
#
# number of rings (size 3 to 8) (size 9 to 14) (size 15 to 20)
#    0.000    2.250    1.250    1.875    1.750    2.000 
#    0.000    2.500    0.000    0.750    0.000    0.000 
#    0.000    0.000    0.000    0.000    0.000    0.000 
#
# Total GULP energy -396712.411726 kJ/mol
# GULP energy per Si atom -12397.262866 kJ/mol
# Density = 1.803286 g / cm^3
# Si number density = 18.074000 Si / 1000 Ang^3
#
#
#
# Elastic Constant Matrix: (Units=GPa)
#
#
# Indices 1 2 3 4 5 6 
#
# 1 58.3367 45.7971 30.4637 0.0000 0.0000 0.0000
# 2 45.7971 144.5555 53.9900 0.0000 0.0000 0.0000
# 3 30.4637 53.9900 103.6522 0.0000 0.0000 0.0000
# 4 0.0000 0.0000 0.0000 23.8968 0.0000 0.0000
# 5 0.0000 0.0000 0.0000 0.0000 17.6319 0.0000
# 6 0.0000 0.0000 0.0000 0.0000 0.0000 25.7484
#
#
#
# Elastic Compliance Matrix: (Units=1/GPa)
#
#
# Indices 1 2 3 4 5 6 
#
# 1 0.023987 -0.006166 -0.003838 0.000000 0.000000 0.000000
# 2 -0.006166 0.010174 -0.003487 0.000000 0.000000 0.000000
# 3 -0.003838 -0.003487 0.012592 0.000000 0.000000 0.000000
# 4 0.000000 0.000000 0.000000 0.041847 0.000000 0.000000
# 5 0.000000 0.000000 0.000000 0.000000 0.056715 0.000000
# 6 0.000000 0.000000 0.000000 0.000000 0.000000 0.038837
#
#
# Mechanical properties :
#
#
# Convention : Reuss Voigt Hill
#
# Bulk Modulus (GPa) = 50.58100 63.00510 56.79305
# Shear Modulus (GPa) = 22.96495 25.20834 24.08664
#
# Velocity S-wave (km/s) = 3.56842 3.73866 3.65453
# Velocity P-wave (km/s) = 6.71003 7.31929 7.02127
#
# Compressibility (1/GPa) = 0.01977027
#
# Stress axis : x y z
#
# Youngs Moduli (GPa) = 41.69005 98.29449 79.41561
#
# Poissons Ratio (x) = 0.60606 0.30481
# Poissons Ratio (y) = 0.25705 0.27692
# Poissons Ratio (z) = 0.16001 0.34275
#
# Static dielectric constant tensor:
#      x y z
#    x 3.260220 0.000000 0.000000 
#    y 0.000000 4.169060 0.000000 
#    z 0.000000 0.000000 3.276600 
# 
# 
# High freq. dielectric constant tensor:
#      x y z
#    x 1.696420 0.000000 0.000000 
#    y 0.000000 1.709520 0.000000 
#    z 0.000000 0.000000 1.670990 
# 
# From -- ./inp_files/10626.got.cif
#   From: 2010.03.12/outbox.cif.g09.slc.cpg/sg40_6_cif.got.tgz:10626.got - 2010.04.14 01:38:03.
