data_PCOD8182283
_publ_section_title
;
Structure prediction by ZEFSAII (Michael W. Deem and Ramdas Pophale) SiO2 
 PCOD8182283
Probable space group: A B M 2
;
_chemical_formula_sum "Si O2"
_cell_formula_units_Z 64
_cell_length_a 11.586665
_cell_length_b 17.224866
_cell_length_c 14.989700
_cell_angle_alpha 90.000000
_cell_angle_beta 90.000000
_cell_angle_gamma 90.000000
_cell_volume 2991.625619
_symmetry_space_group_name_H-M "A B M 2"
_symmetry_group_IT_number 39
_symmetry_cell_setting 'orthorhombic'
loop_
_space_group_symop_operation_xyz
x,y,z
-x,-y,z
-x,1/2+y,z
x,1/2-y,z
x,1/2+y,1/2+z
-x,1/2-y,1/2+z
-x,y,1/2+z
x,-y,1/2+z
loop_
_atom_site_type_symbol
_atom_site_label
_atom_site_fract_x
_atom_site_fract_y
_atom_site_fract_z
Si Si1 0.564807 0.663334 0.908730
Si Si2 0.262900 0.838921 0.569834
Si Si3 0.344679 0.561237 0.936078
Si Si4 0.966191 0.912327 0.801750
Si Si5 0.015734 0.908511 0.598973
Si Si6 0.367451 0.986554 0.623730
Si Si7 0.296347 0.933482 0.293442
Si Si8 0.123244 0.839673 0.946600
O O1 0.514455 0.750000 0.900783
O O2 0.465529 0.606331 0.943803
O O3 0.613976 0.636699 0.812225
O O4 0.673757 0.659846 0.974909
O O5 0.257442 0.750000 0.606691
O O6 0.136251 0.876276 0.560602
O O7 0.335103 0.895290 0.636793
O O8 0.342797 0.504450 0.852517
O O9 0.242319 0.620694 0.920661
O O10 0.329553 0.511185 0.025164
O O11 0.830443 0.903765 0.816995
O O12 0.005229 0.887198 0.702935
O O13 0.027240 0.856649 0.872196
O O14 0.000000 0.000000 0.823605
O O15 0.915392 0.866449 0.544520
O O16 0.000000 0.000000 0.583152
O O17 0.500000 0.000000 0.645728
O O18 0.294067 0.039674 0.691047
O O19 0.149092 0.750000 0.949678
#
# Coordination Sequence:
#
# PCOD8182283 Si02
#       8
#     8   8   8   8   8   8   8   8
#     4  11  24  45  69 100 140 181 224 286 348 400
#     4  11  23  42  70 102 135 175 226 287 349 403
#     4  12  23  46  67  97 137 178 231 281 336 411
#     4  11  23  45  67  98 132 171 226 278 334 399
#     4  11  24  44  70  96 133 176 228 281 338 413
#     4  12  23  43  70 104 133 180 232 278 344 414
#     4  12  24  43  72 100 133 178 233 278 333 417
#     4  12  26  41  65  98 133 177 222 275 344 403
#
# _framework density 21.393052999999998
#
# number of rings (size 3 to 8) (size 9 to 14) (size 15 to 20)
#    0.000    0.500    3.750    6.000    0.000    2.500 
#    0.000    5.000    0.000    0.000    0.000    0.000 
#    0.000    0.000    0.000    0.000    0.000    0.000 
#
# Total GULP energy -396912.133949 kJ/mol
# GULP energy per Si atom -12403.504186 kJ/mol
# Density = 2.134436 g / cm^3
# Si number density = 21.393053 Si / 1000 Ang^3
#
#
#
# Elastic Constant Matrix: (Units=GPa)
#
#
# Indices 1 2 3 4 5 6 
#
# 1 109.4264 43.0396 10.4925 0.0000 0.0000 0.0000
# 2 43.0396 115.9807 29.4842 0.0000 0.0000 0.0000
# 3 10.4925 29.4842 69.8934 0.0000 0.0000 0.0000
# 4 0.0000 0.0000 0.0000 24.4302 0.0000 0.0000
# 5 0.0000 0.0000 0.0000 0.0000 30.7531 0.0000
# 6 0.0000 0.0000 0.0000 0.0000 0.0000 15.3999
#
#
#
# Elastic Compliance Matrix: (Units=1/GPa)
#
#
# Indices 1 2 3 4 5 6 
#
# 1 0.010701 -0.003991 0.000077 0.000000 0.000000 0.000000
# 2 -0.003991 0.011146 -0.004103 0.000000 0.000000 0.000000
# 3 0.000077 -0.004103 0.016027 0.000000 0.000000 0.000000
# 4 0.000000 0.000000 0.000000 0.040933 0.000000 0.000000
# 5 0.000000 0.000000 0.000000 0.000000 0.032517 0.000000
# 6 0.000000 0.000000 0.000000 0.000000 0.000000 0.064935
#
#
# Mechanical properties :
#
#
# Convention : Reuss Voigt Hill
#
# Bulk Modulus (GPa) = 45.78615 51.25925 48.52270
# Shear Modulus (GPa) = 25.05365 28.26893 26.66129
#
# Velocity S-wave (km/s) = 3.42586 3.63906 3.53407
# Velocity P-wave (km/s) = 6.09077 6.45521 6.27564
#
# Compressibility (1/GPa) = 0.02184067
#
# Stress axis : x y z
#
# Youngs Moduli (GPa) = 93.45145 89.71841 62.39592
#
# Poissons Ratio (x) = 0.35802 -0.00480
# Poissons Ratio (y) = 0.37292 0.25600
# Poissons Ratio (z) = -0.00719 0.36810
#
# Static dielectric constant tensor:
#      x y z
#    x 3.840030 0.000000 0.000000 
#    y 0.000000 4.234200 0.000000 
#    z 0.000000 0.000000 3.830900 
# 
# 
# High freq. dielectric constant tensor:
#      x y z
#    x 1.856100 0.000000 0.000000 
#    y 0.000000 1.841060 0.000000 
#    z 0.000000 0.000000 1.832900 
# 
# From -- ./inp_files/9435.got.cif
#   From: 2010.03.12/outbox.cif.g09.slc.cpg/sg39_5_cif.got.tgz:9435.got - 2010.04.14 02:53:20.
