data_PCOD8182620
_publ_section_title
;
Structure prediction by ZEFSAII (Michael W. Deem and Ramdas Pophale) SiO2 
 PCOD8182620
Probable space group: A M A 2
;
_chemical_formula_sum "Si O2"
_cell_formula_units_Z 64
_cell_length_a 18.274599
_cell_length_b 22.096921
_cell_length_c 8.881492
_cell_angle_alpha 90.000000
_cell_angle_beta 90.000000
_cell_angle_gamma 90.000000
_cell_volume 3586.456337
_symmetry_space_group_name_H-M "A M A 2"
_symmetry_group_IT_number 40
_symmetry_cell_setting 'orthorhombic'
loop_
_space_group_symop_operation_xyz
x,y,z
-x,-y,z
1/2-x,y,z
1/2+x,-y,z
x,1/2+y,1/2+z
-x,1/2-y,1/2+z
1/2-x,1/2+y,1/2+z
1/2+x,1/2-y,1/2+z
loop_
_atom_site_type_symbol
_atom_site_label
_atom_site_fract_x
_atom_site_fract_y
_atom_site_fract_z
Si Si1 0.170437 0.871942 0.900390
Si Si2 0.539119 0.922767 0.534608
Si Si3 0.952803 0.443009 0.388808
Si Si4 0.666890 0.002324 0.066926
Si Si5 0.830944 0.130290 0.555115
Si Si6 0.391763 0.976870 0.392512
Si Si7 0.473786 0.301638 0.068710
Si Si8 0.475005 0.817862 0.918452
O O1 0.250000 0.840614 0.917763
O O2 0.152249 0.887560 0.727160
O O3 0.109836 0.826563 0.967302
O O4 0.169174 0.934920 0.982395
O O5 0.541525 0.940603 0.709310
O O6 0.468496 0.948162 0.445932
O O7 0.535804 0.849979 0.514561
O O8 0.610683 0.954421 0.461112
O O9 0.871589 0.452596 0.458102
O O10 0.000000 0.500000 0.447573
O O11 0.983159 0.380171 0.454997
O O12 0.750000 0.980354 0.103308
O O13 0.619193 0.014257 0.215801
O O14 0.750000 0.159544 0.536209
O O15 0.830526 0.068347 0.457999
O O16 0.893604 0.178056 0.506496
O O17 0.477357 0.298259 0.246832
O O18 0.489203 0.234749 0.014212
#
# Coordination Sequence:
#
# PCOD8182620 Si02
#       8
#     8   8   8   8   8   8   8   8
#     4   9  18  33  54  78 105 139 180 226 276 333
#     4   9  19  34  55  79 106 145 191 227 264 326
#     4  11  19  36  60  81 106 145 194 229 270 329
#     4  11  23  33  49  85 121 142 173 230 296 338
#     4   9  17  33  55  76 105 145 187 225 268 333
#     4  10  18  30  51  81 113 139 173 227 284 320
#     4   9  20  34  51  80 107 137 186 226 273 327
#     4  10  20  34  56  79 105 142 182 233 271 325
#
# _framework density 17.844912000000001
#
# number of rings (size 3 to 8) (size 9 to 14) (size 15 to 20)
#    0.000    2.250    2.500    1.875    1.750    3.000 
#    0.000    1.250    0.000    7.500    0.000    0.000 
#    0.000    0.000    0.000    0.000    0.000    0.000 
#
# Total GULP energy -396461.030821 kJ/mol
# GULP energy per Si atom -12389.407213 kJ/mol
# Density = 1.780430 g / cm^3
# Si number density = 17.844912 Si / 1000 Ang^3
#
#
#
# Elastic Constant Matrix: (Units=GPa)
#
#
# Indices 1 2 3 4 5 6 
#
# 1 105.7631 56.9597 45.8671 0.0000 0.0000 0.0000
# 2 56.9597 125.0795 38.7090 0.0000 0.0000 0.0000
# 3 45.8671 38.7090 63.7210 0.0000 0.0000 0.0000
# 4 0.0000 0.0000 0.0000 28.3209 0.0000 0.0000
# 5 0.0000 0.0000 0.0000 0.0000 17.5836 0.0000
# 6 0.0000 0.0000 0.0000 0.0000 0.0000 22.7636
#
#
#
# Elastic Compliance Matrix: (Units=1/GPa)
#
#
# Indices 1 2 3 4 5 6 
#
# 1 0.015525 -0.004448 -0.008473 0.000000 0.000000 0.000000
# 2 -0.004448 0.011120 -0.003554 0.000000 0.000000 0.000000
# 3 -0.008473 -0.003554 0.023951 0.000000 0.000000 0.000000
# 4 0.000000 0.000000 0.000000 0.035310 0.000000 0.000000
# 5 0.000000 0.000000 0.000000 0.000000 0.056871 0.000000
# 6 0.000000 0.000000 0.000000 0.000000 0.000000 0.043930
#
#
# Mechanical properties :
#
#
# Convention : Reuss Voigt Hill
#
# Bulk Modulus (GPa) = 56.66608 64.18168 60.42388
# Shear Modulus (GPa) = 22.16909 23.93545 23.05227
#
# Velocity S-wave (km/s) = 3.52848 3.66635 3.59808
# Velocity P-wave (km/s) = 6.95873 7.34625 7.15511
#
# Compressibility (1/GPa) = 0.01764724
#
# Stress axis : x y z
#
# Youngs Moduli (GPa) = 64.41179 89.92708 41.75116
#
# Poissons Ratio (x) = 0.39997 0.35377
# Poissons Ratio (y) = 0.28648 0.14837
# Poissons Ratio (z) = 0.54578 0.31958
#
# Static dielectric constant tensor:
#      x y z
#    x 3.679250 0.000000 0.000000 
#    y 0.000000 3.360190 0.000000 
#    z 0.000000 0.000000 3.234370 
# 
# 
# High freq. dielectric constant tensor:
#      x y z
#    x 1.682440 0.000000 0.000000 
#    y 0.000000 1.671150 0.000000 
#    z 0.000000 0.000000 1.689330 
# 
# From -- ./inp_files/7881.got.cif
#   From: 2010.03.12/outbox.cif.g09.slc.cpg/sg40_4_cif.got.tgz:7881.got - 2010.04.14 01:38:03.
