data_PCOD8182197
_publ_section_title
;
Structure prediction by ZEFSAII (Michael W. Deem and Ramdas Pophale) SiO2 
 PCOD8182197
Probable space group: A B M 2
;
_chemical_formula_sum "Si O2"
_cell_formula_units_Z 64
_cell_length_a 23.689573
_cell_length_b 9.003037
_cell_length_c 15.414045
_cell_angle_alpha 90.000000
_cell_angle_beta 90.000000
_cell_angle_gamma 90.000000
_cell_volume 3287.478265
_symmetry_space_group_name_H-M "A B M 2"
_symmetry_group_IT_number 39
_symmetry_cell_setting 'orthorhombic'
loop_
_space_group_symop_operation_xyz
x,y,z
-x,-y,z
-x,1/2+y,z
x,1/2-y,z
x,1/2+y,1/2+z
-x,1/2-y,1/2+z
-x,y,1/2+z
x,-y,1/2+z
loop_
_atom_site_type_symbol
_atom_site_label
_atom_site_fract_x
_atom_site_fract_y
_atom_site_fract_z
Si Si1 0.134499 0.075748 0.508480
Si Si2 0.871333 0.574788 0.180139
Si Si3 0.940133 0.074663 0.846298
Si Si4 0.759759 0.417532 0.447404
Si Si5 0.560442 0.926719 0.588140
Si Si6 0.361749 0.425936 0.745301
Si Si7 0.236494 0.080099 0.744455
Si Si8 0.369512 0.075330 0.939851
O O1 0.131805 0.250000 0.521937
O O2 0.099867 0.023074 0.424683
O O3 0.106009 0.997652 0.591513
O O4 0.199880 0.027807 0.500102
O O5 0.872638 0.750000 0.172069
O O6 0.911685 0.518785 0.257358
O O7 0.807290 0.523848 0.195288
O O8 0.948116 0.250000 0.846132
O O9 0.000000 0.000000 0.858436
O O10 0.771823 0.250000 0.478887
O O11 0.773451 0.432283 0.346506
O O12 0.694943 0.460204 0.465943
O O13 0.554992 0.750000 0.586169
O O14 0.595381 0.982540 0.672060
O O15 0.500000 0.000000 0.596134
O O16 0.589813 0.980527 0.500434
O O17 0.357947 0.250000 0.749441
O O18 0.298871 0.482689 0.722014
O O19 0.380983 0.479710 0.841029
O O20 0.228536 0.250000 0.713138
O O21 0.382561 0.250000 0.950222
#
# Coordination Sequence:
#
# PCOD8182197 Si02
#       8
#     8   8   8   8   8   8   8   8
#     4  11  23  39  59  88 121 157 199 243 294 351
#     4  11  23  39  58  89 123 155 196 245 295 348
#     4  10  24  44  64  85 118 158 201 248 294 348
#     4   9  18  34  59  89 122 156 192 236 295 356
#     4  11  23  39  58  83 115 154 199 244 290 346
#     4   8  18  37  59  83 115 152 191 236 289 346
#     4   9  17  34  60  88 118 156 193 234 293 357
#     4   9  19  38  60  85 117 152 191 238 291 348
#
# _framework density 19.467808999999999
#
# number of rings (size 3 to 8) (size 9 to 14) (size 15 to 20)
#    0.000    2.250    1.250    2.625    1.750    3.500 
#    0.000    7.500    0.000    0.000    0.000    0.000 
#    0.000    0.000    0.000    0.000    0.000    0.000 
#
# Total GULP energy -396842.187806 kJ/mol
# GULP energy per Si atom -12401.318369 kJ/mol
# Density = 1.942350 g / cm^3
# Si number density = 19.467809 Si / 1000 Ang^3
#
#
#
# Elastic Constant Matrix: (Units=GPa)
#
#
# Indices 1 2 3 4 5 6 
#
# 1 104.2387 35.6941 43.4097 0.0000 0.0000 0.0000
# 2 35.6941 60.1236 35.1468 0.0000 0.0000 0.0000
# 3 43.4097 35.1468 96.7106 0.0000 0.0000 0.0000
# 4 0.0000 0.0000 0.0000 29.8939 0.0000 0.0000
# 5 0.0000 0.0000 0.0000 0.0000 22.7404 0.0000
# 6 0.0000 0.0000 0.0000 0.0000 0.0000 32.2757
#
#
#
# Elastic Compliance Matrix: (Units=1/GPa)
#
#
# Indices 1 2 3 4 5 6 
#
# 1 0.013093 -0.005508 -0.003875 0.000000 0.000000 0.000000
# 2 -0.005508 0.023436 -0.006045 0.000000 0.000000 0.000000
# 3 -0.003875 -0.006045 0.014277 0.000000 0.000000 0.000000
# 4 0.000000 0.000000 0.000000 0.033452 0.000000 0.000000
# 5 0.000000 0.000000 0.000000 0.000000 0.043975 0.000000
# 6 0.000000 0.000000 0.000000 0.000000 0.000000 0.030983
#
#
# Mechanical properties :
#
#
# Convention : Reuss Voigt Hill
#
# Bulk Modulus (GPa) = 50.12644 54.39711 52.26177
# Shear Modulus (GPa) = 25.41670 26.77015 26.09343
#
# Velocity S-wave (km/s) = 3.61720 3.71225 3.66503
# Velocity P-wave (km/s) = 6.57645 6.81008 6.69429
#
# Compressibility (1/GPa) = 0.01994955
#
# Stress axis : x y z
#
# Youngs Moduli (GPa) = 76.37513 42.66953 70.04500
#
# Poissons Ratio (x) = 0.23501 0.27146
# Poissons Ratio (y) = 0.42065 0.42342
# Poissons Ratio (z) = 0.29599 0.25793
#
# Static dielectric constant tensor:
#      x y z
#    x 3.575030 0.000000 0.000000 
#    y 0.000000 3.332770 0.000000 
#    z 0.000000 0.000000 3.801380 
# 
# 
# High freq. dielectric constant tensor:
#      x y z
#    x 1.754720 0.000000 0.000000 
#    y 0.000000 1.742490 0.000000 
#    z 0.000000 0.000000 1.769890 
# 
# From -- ./inp_files/10635.got.cif
#   From: 2010.03.12/outbox.cif.g09.slc.cpg/sg39_6_cif.got.tgz:10635.got - 2010.04.14 02:53:20.
