data_PCOD8182479
_publ_section_title
;
Structure prediction by ZEFSAII (Michael W. Deem and Ramdas Pophale) SiO2 
 PCOD8182479
Probable space group: A M A 2
;
_chemical_formula_sum "Si O2"
_cell_formula_units_Z 64
_cell_length_a 8.680470
_cell_length_b 18.425263
_cell_length_c 26.343869
_cell_angle_alpha 90.000000
_cell_angle_beta 90.000000
_cell_angle_gamma 90.000000
_cell_volume 4213.436899
_symmetry_space_group_name_H-M "A M A 2"
_symmetry_group_IT_number 40
_symmetry_cell_setting 'orthorhombic'
loop_
_space_group_symop_operation_xyz
x,y,z
-x,-y,z
1/2-x,y,z
1/2+x,-y,z
x,1/2+y,1/2+z
-x,1/2-y,1/2+z
1/2-x,1/2+y,1/2+z
1/2+x,1/2-y,1/2+z
loop_
_atom_site_type_symbol
_atom_site_label
_atom_site_fract_x
_atom_site_fract_y
_atom_site_fract_z
Si Si1 0.931933 0.833934 0.180400
Si Si2 0.929625 0.292185 0.822007
Si Si3 0.569083 0.424746 0.585838
Si Si4 0.066749 0.420198 0.774602
Si Si5 0.431660 0.920717 0.784287
Si Si6 0.573529 0.161891 0.886291
Si Si7 0.930504 0.293498 0.230699
Si Si8 0.930479 0.424380 0.472391
O O1 0.750000 0.838895 0.189518
O O2 0.979517 0.861176 0.124384
O O3 0.015323 0.884596 0.221659
O O4 0.989741 0.750521 0.184348
O O5 0.750000 0.290124 0.805532
O O6 0.950123 0.248197 0.874865
O O7 0.994485 0.374378 0.822331
O O8 0.033511 0.251636 0.780970
O O9 0.500000 0.500000 0.605934
O O10 0.750000 0.434632 0.584796
O O11 0.507376 0.406573 0.529126
O O12 0.250000 0.421684 0.778384
O O13 0.000000 0.500000 0.778867
O O14 0.250000 0.923015 0.778515
O O15 0.480889 0.884893 0.837730
O O16 0.499691 0.873975 0.737393
O O17 0.500000 0.000000 0.780936
O O18 0.750000 0.144456 0.898586
O O19 0.475015 0.141256 0.935341
O O20 0.750000 0.299022 0.220717
O O21 0.750000 0.433447 0.472405
O O22 0.000000 0.500000 0.452118
#
# Coordination Sequence:
#
# PCOD8182479 Si02
#       8
#     8   8   8   8   8   8   8   8
#     4  10  18  30  45  60  82 111 143 176 211 247
#     4   9  17  30  44  59  81 108 139 173 208 245
#     4   9  19  31  43  60  82 110 142 177 212 245
#     4  11  20  29  42  62  86 111 141 172 207 248
#     4  10  19  30  43  61  85 112 142 174 208 246
#     4   9  18  30  44  61  82 110 141 172 208 247
#     4  10  18  28  42  61  83 108 139 171 207 249
#     4  10  19  30  43  60  83 110 142 177 211 245
#
# _framework density 15.189500000000001
#
# number of rings (size 3 to 8) (size 9 to 14) (size 15 to 20)
#    0.000    2.250    0.000    6.750    0.000    6.500 
#    0.000    0.000    0.000    0.000    0.000    0.000 
#    0.000    1.000    0.000    5.250    0.000    4.500 
#
# Total GULP energy -396645.251995 kJ/mol
# GULP energy per Si atom -12395.164125 kJ/mol
# Density = 1.515493 g / cm^3
# Si number density = 15.189500 Si / 1000 Ang^3
#
#
#
# Elastic Constant Matrix: (Units=GPa)
#
#
# Indices 1 2 3 4 5 6 
#
# 1 71.6457 38.9965 32.1101 0.0000 0.0000 0.0000
# 2 38.9965 107.4441 48.6518 0.0000 0.0000 0.0000
# 3 32.1101 48.6518 73.7028 0.0000 0.0000 0.0000
# 4 0.0000 0.0000 0.0000 23.0505 0.0000 0.0000
# 5 0.0000 0.0000 0.0000 0.0000 14.6933 0.0000
# 6 0.0000 0.0000 0.0000 0.0000 0.0000 27.1926
#
#
#
# Elastic Compliance Matrix: (Units=1/GPa)
#
#
# Indices 1 2 3 4 5 6 
#
# 1 0.018709 -0.004421 -0.005233 0.000000 0.000000 0.000000
# 2 -0.004421 0.014320 -0.007527 0.000000 0.000000 0.000000
# 3 -0.005233 -0.007527 0.020816 0.000000 0.000000 0.000000
# 4 0.000000 0.000000 0.000000 0.043383 0.000000 0.000000
# 5 0.000000 0.000000 0.000000 0.000000 0.068058 0.000000
# 6 0.000000 0.000000 0.000000 0.000000 0.000000 0.036775
#
#
# Mechanical properties :
#
#
# Convention : Reuss Voigt Hill
#
# Bulk Modulus (GPa) = 51.32262 54.70104 53.01183
# Shear Modulus (GPa) = 20.58322 21.85622 21.21972
#
# Velocity S-wave (km/s) = 3.68516 3.79740 3.74170
# Velocity P-wave (km/s) = 7.20893 7.43758 7.32415
#
# Compressibility (1/GPa) = 0.01948459
#
# Stress axis : x y z
#
# Youngs Moduli (GPa) = 53.44997 69.83304 48.03982
#
# Poissons Ratio (x) = 0.30873 0.25137
# Poissons Ratio (y) = 0.23630 0.36157
# Poissons Ratio (z) = 0.27968 0.52560
#
# Static dielectric constant tensor:
#      x y z
#    x 3.001800 0.000000 0.000000 
#    y 0.000000 3.202750 0.000000 
#    z 0.000000 0.000000 2.915510 
# 
# 
# High freq. dielectric constant tensor:
#      x y z
#    x 1.597900 0.000000 0.000000 
#    y 0.000000 1.574590 0.000000 
#    z 0.000000 0.000000 1.544360 
# 
# From -- ./inp_files/25533.got.cif
#   From: 2010.03.12/outbox.cif.g09.slc.cpg/sg40_13_cif.got.tgz:25533.got - 2010.04.14 01:38:03.
