data_PCOD8182263
_publ_section_title
;
Structure prediction by ZEFSAII (Michael W. Deem and Ramdas Pophale) SiO2 
 PCOD8182263
Probable space group: A B M 2
;
_chemical_formula_sum "Si O2"
_cell_formula_units_Z 56
_cell_length_a 5.036273
_cell_length_b 15.541096
_cell_length_c 32.622403
_cell_angle_alpha 90.000000
_cell_angle_beta 90.000000
_cell_angle_gamma 90.000000
_cell_volume 2553.329456
_symmetry_space_group_name_H-M "A B M 2"
_symmetry_group_IT_number 39
_symmetry_cell_setting 'orthorhombic'
loop_
_space_group_symop_operation_xyz
x,y,z
-x,-y,z
-x,1/2+y,z
x,1/2-y,z
x,1/2+y,1/2+z
-x,1/2-y,1/2+z
-x,y,1/2+z
x,-y,1/2+z
loop_
_atom_site_type_symbol
_atom_site_label
_atom_site_fract_x
_atom_site_fract_y
_atom_site_fract_z
Si Si1 0.563339 0.250000 0.166201
Si Si2 0.951851 0.648512 0.055830
Si Si3 0.937404 0.750000 0.220096
Si Si4 0.047226 0.649791 0.462556
Si Si5 0.454946 0.652757 0.326558
Si Si6 0.043791 0.404623 0.281643
Si Si7 0.548551 0.903213 0.415078
Si Si8 0.452337 0.903414 0.103886
O O1 0.364499 0.250000 0.204576
O O2 0.511322 0.163570 0.140666
O O3 0.865576 0.250000 0.181512
O O4 0.991010 0.750000 0.061327
O O5 0.656834 0.620590 0.068032
O O6 0.159126 0.600220 0.084908
O O7 0.996180 0.619397 0.009105
O O8 0.992760 0.664002 0.245699
O O9 0.991117 0.750000 0.458270
O O10 0.844702 0.601118 0.432863
O O11 0.347291 0.628234 0.450018
O O12 0.474633 0.750000 0.310163
O O13 0.163914 0.614824 0.318092
O O14 0.513614 0.654456 0.374844
O O15 0.666009 0.597066 0.301443
O O16 0.000000 0.500000 0.263311
O O17 0.500000 0.000000 0.401118
O O18 0.500000 0.000000 0.120657
#
# Coordination Sequence:
#
# PCOD8182263 Si02
#       8
#     4   8   4   8   8   8   8   8
#     4  12  26  46  72  98 142 164 214 264 334 398
#     4  11  22  43  68  93 134 178 224 276 326 388
#     4  12  26  46  72 102 132 176 204 266 338 396
#     4  11  24  41  63  92 130 179 224 272 333 386
#     4  12  23  44  69  94 132 179 227 270 327 390
#     4  12  25  45  71 103 133 171 224 269 322 395
#     4  12  25  40  60  94 135 174 223 283 331 375
#     4  12  25  43  71 102 131 175 223 268 326 392
#
# _framework density 21.932148000000002
#
# number of rings (size 3 to 8) (size 9 to 14) (size 15 to 20)
#    0.000    0.286    2.857    6.857    0.000    6.857 
#    0.000    0.000    0.000    0.000    0.000    0.000 
#    0.000    0.000    0.000    0.000    0.000    0.000 
#
# Total GULP energy -347466.604330 kJ/mol
# GULP energy per Si atom -12409.521583 kJ/mol
# Density = 2.188223 g / cm^3
# Si number density = 21.932148 Si / 1000 Ang^3
#
#
#
# Elastic Constant Matrix: (Units=GPa)
#
#
# Indices 1 2 3 4 5 6 
#
# 1 90.8785 7.8896 17.9803 0.0000 0.0000 0.0000
# 2 7.8896 134.4012 39.6375 0.0000 0.0000 0.0000
# 3 17.9803 39.6375 92.3914 0.0000 0.0000 0.0000
# 4 0.0000 0.0000 0.0000 8.6115 0.0000 0.0000
# 5 0.0000 0.0000 0.0000 0.0000 39.9243 0.0000
# 6 0.0000 0.0000 0.0000 0.0000 0.0000 33.6851
#
#
#
# Elastic Compliance Matrix: (Units=1/GPa)
#
#
# Indices 1 2 3 4 5 6 
#
# 1 0.011444 -0.000017 -0.002220 0.000000 0.000000 0.000000
# 2 -0.000017 0.008518 -0.003651 0.000000 0.000000 0.000000
# 3 -0.002220 -0.003651 0.012822 0.000000 0.000000 0.000000
# 4 0.000000 0.000000 0.000000 0.116124 0.000000 0.000000
# 5 0.000000 0.000000 0.000000 0.000000 0.025047 0.000000
# 6 0.000000 0.000000 0.000000 0.000000 0.000000 0.029687
#
#
# Mechanical properties :
#
#
# Convention : Reuss Voigt Hill
#
# Bulk Modulus (GPa) = 47.60021 49.85399 48.72710
# Shear Modulus (GPa) = 22.47988 33.25510 27.86749
#
# Velocity S-wave (km/s) = 3.20499 3.89816 3.56845
# Velocity P-wave (km/s) = 5.95370 6.56058 6.26449
#
# Compressibility (1/GPa) = 0.02100831
#
# Stress axis : x y z
#
# Youngs Moduli (GPa) = 87.37910 117.39562 77.99142
#
# Poissons Ratio (x) = 0.00201 0.17313
# Poissons Ratio (y) = 0.00150 0.28476
# Poissons Ratio (z) = 0.19397 0.42863
#
# Static dielectric constant tensor:
#      x y z
#    x 4.036510 0.000000 0.000000 
#    y 0.000000 4.068190 0.000000 
#    z 0.000000 0.000000 3.787420 
# 
# 
# High freq. dielectric constant tensor:
#      x y z
#    x 1.877990 0.000000 0.000000 
#    y 0.000000 1.874760 0.000000 
#    z 0.000000 0.000000 1.855960 
# 
# From -- ./inp_files/17284.got.cif
#   From: 2010.03.12/outbox.cif.g09.slc.cpg/sg39_9_cif.got.tgz:17284.got - 2010.04.14 02:53:20.
