data_PCOD8182057
_publ_section_title
;
Structure prediction by ZEFSAII (Michael W. Deem and Ramdas Pophale) SiO2 
 PCOD8182057
Probable space group: A B M 2
;
_chemical_formula_sum "Si O2"
_cell_formula_units_Z 48
_cell_length_a 26.005686
_cell_length_b 8.167939
_cell_length_c 10.255349
_cell_angle_alpha 90.000000
_cell_angle_beta 90.000000
_cell_angle_gamma 90.000000
_cell_volume 2178.367980
_symmetry_space_group_name_H-M "A B M 2"
_symmetry_group_IT_number 39
_symmetry_cell_setting 'orthorhombic'
loop_
_space_group_symop_operation_xyz
x,y,z
-x,-y,z
-x,1/2+y,z
x,1/2-y,z
x,1/2+y,1/2+z
-x,1/2-y,1/2+z
-x,y,1/2+z
x,-y,1/2+z
loop_
_atom_site_type_symbol
_atom_site_label
_atom_site_fract_x
_atom_site_fract_y
_atom_site_fract_z
Si Si1 0.215268 0.940773 0.566110
Si Si2 0.943366 0.250000 0.249387
Si Si3 0.271588 0.440419 0.319503
Si Si4 0.104136 0.568623 0.666460
Si Si5 0.384611 0.444312 0.370277
Si Si6 0.976863 0.750000 0.027140
Si Si7 0.442931 0.941947 0.620072
O O1 0.226394 0.750000 0.547943
O O2 0.247693 0.015252 0.687258
O O3 0.155287 0.976511 0.587541
O O4 0.231871 0.032185 0.435947
O O5 0.908762 0.415504 0.261650
O O6 0.984497 0.250000 0.369441
O O7 0.970534 0.250000 0.108394
O O8 0.278826 0.250000 0.296991
O O9 0.327492 0.518664 0.348869
O O10 0.111360 0.750000 0.737282
O O11 0.056576 0.588416 0.565011
O O12 0.383408 0.250000 0.367580
O O13 0.404347 0.502662 0.508707
O O14 0.422135 0.513619 0.257073
O O15 0.443171 0.750000 0.626733
O O16 0.500000 0.000000 0.589571
#
# Coordination Sequence:
#
# PCOD8182057 Si02
#       7
#     8   4   8   8   8   4   8
#     4  10  22  41  61  93 128 159 209 264 313 377
#     4  12  24  48  70  94 138 174 216 274 329 386
#     4  10  22  39  63  91 123 166 207 255 318 376
#     4   9  24  43  65 101 129 171 217 271 321 396
#     4  10  22  40  60  89 125 159 210 259 308 377
#     4  10  26  46  66 104 130 172 226 264 327 400
#     4  11  23  39  62  89 123 164 207 258 313 369
#
# _framework density 22.034844
#
# number of rings (size 3 to 8) (size 9 to 14) (size 15 to 20)
#    0.500    1.333    0.000    2.500    3.500    8.000 
#    1.500    0.000    0.000    0.000    0.000    0.000 
#    0.000    0.000    0.000    0.000    0.000    0.000 
#
# Total GULP energy -297489.795764 kJ/mol
# GULP energy per Si atom -12395.408157 kJ/mol
# Density = 2.198469 g / cm^3
# Si number density = 22.034844 Si / 1000 Ang^3
#
#
#
# Elastic Constant Matrix: (Units=GPa)
#
#
# Indices 1 2 3 4 5 6 
#
# 1 83.0333 13.1479 -8.1288 0.0000 0.0000 0.0000
# 2 13.1479 64.6068 16.8101 0.0000 0.0000 0.0000
# 3 -8.1288 16.8101 88.2507 0.0000 0.0000 0.0000
# 4 0.0000 0.0000 0.0000 18.5306 0.0000 0.0000
# 5 0.0000 0.0000 0.0000 0.0000 37.9192 0.0000
# 6 0.0000 0.0000 0.0000 0.0000 0.0000 19.7205
#
#
#
# Elastic Compliance Matrix: (Units=1/GPa)
#
#
# Indices 1 2 3 4 5 6 
#
# 1 0.012696 -0.003038 0.001748 0.000000 0.000000 0.000000
# 2 -0.003038 0.017013 -0.003520 0.000000 0.000000 0.000000
# 3 0.001748 -0.003520 0.012163 0.000000 0.000000 0.000000
# 4 0.000000 0.000000 0.000000 0.053965 0.000000 0.000000
# 5 0.000000 0.000000 0.000000 0.000000 0.026372 0.000000
# 6 0.000000 0.000000 0.000000 0.000000 0.000000 0.050709
#
#
# Mechanical properties :
#
#
# Convention : Reuss Voigt Hill
#
# Bulk Modulus (GPa) = 31.00812 31.06103 31.03457
# Shear Modulus (GPa) = 25.86812 29.50482 27.68647
#
# Velocity S-wave (km/s) = 3.43003 3.66322 3.54854
# Velocity P-wave (km/s) = 5.45799 5.65854 5.55917
#
# Compressibility (1/GPa) = 0.03224962
#
# Stress axis : x y z
#
# Youngs Moduli (GPa) = 78.76722 58.78003 82.21685
#
# Poissons Ratio (x) = 0.17860 -0.14373
# Poissons Ratio (y) = 0.23933 0.28944
# Poissons Ratio (z) = -0.13770 0.20693
#
# Static dielectric constant tensor:
#      x y z
#    x 4.140150 0.000000 0.000000 
#    y 0.000000 3.848610 0.000000 
#    z 0.000000 0.000000 4.072790 
# 
# 
# High freq. dielectric constant tensor:
#      x y z
#    x 1.877530 0.000000 0.000000 
#    y 0.000000 1.855850 0.000000 
#    z 0.000000 0.000000 1.858270 
# 
# From -- ./inp_files/4146.got.cif
#   From: 2010.03.12/outbox.cif.g09.slc.cpg/sg39_3_cif.got.tgz:4146.got - 2010.04.14 02:53:20.
