data_PCOD8182792
_publ_section_title
;
Structure prediction by ZEFSAII (Michael W. Deem and Ramdas Pophale) SiO2 
 PCOD8182792
Probable space group: A M A 2
;
_chemical_formula_sum "Si O2"
_cell_formula_units_Z 64
_cell_length_a 8.945439
_cell_length_b 20.593070
_cell_length_c 19.676459
_cell_angle_alpha 90.000000
_cell_angle_beta 90.000000
_cell_angle_gamma 90.000000
_cell_volume 3624.680232
_symmetry_space_group_name_H-M "A M A 2"
_symmetry_group_IT_number 40
_symmetry_cell_setting 'orthorhombic'
loop_
_space_group_symop_operation_xyz
x,y,z
-x,-y,z
1/2-x,y,z
1/2+x,-y,z
x,1/2+y,1/2+z
-x,1/2-y,1/2+z
1/2-x,1/2+y,1/2+z
1/2+x,1/2-y,1/2+z
loop_
_atom_site_type_symbol
_atom_site_label
_atom_site_fract_x
_atom_site_fract_y
_atom_site_fract_z
Si Si1 0.576799 0.730596 0.468300
Si Si2 0.428096 0.567066 0.694516
Si Si3 0.574046 0.433793 0.107978
Si Si4 0.075729 0.230492 0.833342
Si Si5 0.072454 0.189212 0.689005
Si Si6 0.925542 0.619057 0.827683
Si Si7 0.924579 0.879136 0.464262
Si Si8 0.426787 0.318185 0.613603
O O1 0.750000 0.726572 0.453456
O O2 0.497918 0.701807 0.401355
O O3 0.529332 0.805097 0.481158
O O4 0.534480 0.687981 0.533837
O O5 0.500000 0.500000 0.668979
O O6 0.250000 0.562469 0.694219
O O7 0.485128 0.580742 0.770433
O O8 0.481787 0.621669 0.642266
O O9 0.500000 0.500000 0.133415
O O10 0.750000 0.438825 0.118227
O O11 0.507440 0.375229 0.153548
O O12 0.532903 0.421813 0.029441
O O13 0.250000 0.222870 0.843345
O O14 0.019894 0.190426 0.767585
O O15 0.032618 0.305350 0.821124
O O16 0.250000 0.189192 0.682890
O O17 0.014424 0.253403 0.650867
O O18 0.750000 0.606150 0.818588
O O19 0.979691 0.593563 0.901165
O O20 0.750000 0.884033 0.446400
O O21 0.250000 0.328431 0.626335
#
# Coordination Sequence:
#
# PCOD8182792 Si02
#       8
#     8   8   8   8   8   8   8   8
#     4   9  17  30  53  80 106 136 173 218 264 316
#     4  12  25  39  55  78 108 142 178 220 267 321
#     4  10  20  34  52  74 105 144 182 219 263 314
#     4   9  17  30  52  78 106 137 173 218 264 316
#     4   9  16  32  56  77 101 140 181 216 265 318
#     4  10  19  33  53  77 107 142 179 218 261 312
#     4   9  17  31  50  74 106 145 183 217 258 312
#     4  10  18  35  59  80 104 138 179 221 269 320
#
# _framework density 17.656728999999999
#
# number of rings (size 3 to 8) (size 9 to 14) (size 15 to 20)
#    0.000    2.250    2.500    1.500    0.000    2.000 
#    0.000    2.500    0.000    0.750    0.000    3.500 
#    0.000    0.000    0.000    0.000    0.000    0.000 
#
# Total GULP energy -396802.933178 kJ/mol
# GULP energy per Si atom -12400.091662 kJ/mol
# Density = 1.761654 g / cm^3
# Si number density = 17.656729 Si / 1000 Ang^3
#
#
#
# Elastic Constant Matrix: (Units=GPa)
#
#
# Indices 1 2 3 4 5 6 
#
# 1 59.3555 42.3988 43.8496 0.0000 0.0000 0.0000
# 2 42.3988 111.2347 66.0534 0.0000 0.0000 0.0000
# 3 43.8496 66.0534 121.7685 0.0000 0.0000 0.0000
# 4 0.0000 0.0000 0.0000 22.0157 0.0000 0.0000
# 5 0.0000 0.0000 0.0000 0.0000 30.0905 0.0000
# 6 0.0000 0.0000 0.0000 0.0000 0.0000 23.9994
#
#
#
# Elastic Compliance Matrix: (Units=1/GPa)
#
#
# Indices 1 2 3 4 5 6 
#
# 1 0.025660 -0.006334 -0.005805 0.000000 0.000000 0.000000
# 2 -0.006334 0.014825 -0.005761 0.000000 0.000000 0.000000
# 3 -0.005805 -0.005761 0.013428 0.000000 0.000000 0.000000
# 4 0.000000 0.000000 0.000000 0.045422 0.000000 0.000000
# 5 0.000000 0.000000 0.000000 0.000000 0.033233 0.000000
# 6 0.000000 0.000000 0.000000 0.000000 0.000000 0.041668
#
#
# Mechanical properties :
#
#
# Convention : Reuss Voigt Hill
#
# Bulk Modulus (GPa) = 55.20574 66.32912 60.76743
# Shear Modulus (GPa) = 23.14026 24.55825 23.84925
#
# Velocity S-wave (km/s) = 3.62410 3.73349 3.67920
# Velocity P-wave (km/s) = 6.98900 7.49885 7.24841
#
# Compressibility (1/GPa) = 0.01811406
#
# Stress axis : x y z
#
# Youngs Moduli (GPa) = 38.97070 67.45207 74.47296
#
# Poissons Ratio (x) = 0.42724 0.43228
# Poissons Ratio (y) = 0.24684 0.42905
# Poissons Ratio (z) = 0.22621 0.38860
#
# Static dielectric constant tensor:
#      x y z
#    x 3.095690 0.000000 0.000000 
#    y 0.000000 3.200320 0.000000 
#    z 0.000000 0.000000 3.473830 
# 
# 
# High freq. dielectric constant tensor:
#      x y z
#    x 1.666740 0.000000 0.000000 
#    y 0.000000 1.660130 0.000000 
#    z 0.000000 0.000000 1.689840 
# 
# From -- ./inp_files/22374.got.cif
#   From: 2010.03.12/outbox.cif.g09.slc.cpg/sg40_12_cif.got.tgz:22374.got - 2010.04.14 01:38:03.
