data_PCOD8182022
_publ_section_title
;
Structure prediction by ZEFSAII (Michael W. Deem and Ramdas Pophale) SiO2 
 PCOD8182022
Probable space group: A B M 2
;
_chemical_formula_sum "Si O2"
_cell_formula_units_Z 60
_cell_length_a 18.990381
_cell_length_b 18.242040
_cell_length_c 8.924732
_cell_angle_alpha 90.000000
_cell_angle_beta 90.000000
_cell_angle_gamma 90.000000
_cell_volume 3091.735020
_symmetry_space_group_name_H-M "A B M 2"
_symmetry_group_IT_number 39
_symmetry_cell_setting 'orthorhombic'
loop_
_space_group_symop_operation_xyz
x,y,z
-x,-y,z
-x,1/2+y,z
x,1/2-y,z
x,1/2+y,1/2+z
-x,1/2-y,1/2+z
-x,y,1/2+z
x,-y,1/2+z
loop_
_atom_site_type_symbol
_atom_site_label
_atom_site_fract_x
_atom_site_fract_y
_atom_site_fract_z
Si Si1 0.686976 0.333926 0.557650
Si Si2 0.406295 0.443625 0.904976
Si Si3 0.500000 0.000000 0.164833
Si Si4 0.288705 0.055082 0.300319
Si Si5 0.047139 0.430036 0.550532
Si Si6 0.206337 0.555248 0.098829
Si Si7 0.815296 0.167999 0.354759
Si Si8 0.027868 0.335195 0.827357
O O1 0.665364 0.250000 0.578551
O O2 0.634817 0.367835 0.431519
O O3 0.680930 0.372655 0.719249
O O4 0.766948 0.343631 0.499791
O O5 0.464742 0.437937 0.773412
O O6 0.353178 0.507078 0.857226
O O7 0.440669 0.462702 0.064468
O O8 0.244430 0.078172 0.445528
O O9 0.241396 0.015668 0.173777
O O10 0.126018 0.461035 0.554090
O O11 0.035685 0.359936 0.656660
O O12 0.000000 0.500000 0.589766
O O13 0.028437 0.392849 0.392393
O O14 0.212364 0.619517 0.218623
O O15 0.809729 0.250000 0.292154
O O16 0.895755 0.152077 0.405410
O O17 0.003488 0.250000 0.835362
#
# Coordination Sequence:
#
# PCOD8182022 Si02
#       8
#     8   8   4   8   8   8   8   8
#     4  11  23  40  64  96 130 162 203 258 312 360
#     4  11  20  40  64  96 124 165 205 247 288 362
#     4  10  22  36  70  98 122 162 216 236 284 362
#     4  12  22  39  65  91 123 164 210 256 307 362
#     4  11  25  36  58  86 118 152 204 263 317 368
#     4  11  23  36  62  87 121 158 214 259 313 372
#     4   9  20  39  60  85 120 162 206 258 318 371
#     4  10  22  41  58  79 115 161 203 251 319 384
#
# _framework density 19.406579000000001
#
# number of rings (size 3 to 8) (size 9 to 14) (size 15 to 20)
#    0.000    1.333    4.000    0.800    7.467    1.067 
#    0.000    2.000    0.000    0.000    0.000    0.000 
#    0.000    0.000    0.000    0.000    0.000    0.000 
#
# Total GULP energy -371932.317483 kJ/mol
# GULP energy per Si atom -12397.743916 kJ/mol
# Density = 1.936241 g / cm^3
# Si number density = 19.406579 Si / 1000 Ang^3
#
#
#
# Elastic Constant Matrix: (Units=GPa)
#
#
# Indices 1 2 3 4 5 6 
#
# 1 87.4674 40.8654 37.6766 0.0000 0.0000 0.0000
# 2 40.8654 114.8929 38.6313 0.0000 0.0000 0.0000
# 3 37.6766 38.6313 88.5774 0.0000 0.0000 0.0000
# 4 0.0000 0.0000 0.0000 31.2800 0.0000 0.0000
# 5 0.0000 0.0000 0.0000 0.0000 39.0158 0.0000
# 6 0.0000 0.0000 0.0000 0.0000 0.0000 18.9331
#
#
#
# Elastic Compliance Matrix: (Units=1/GPa)
#
#
# Indices 1 2 3 4 5 6 
#
# 1 0.015302 -0.003813 -0.004845 0.000000 0.000000 0.000000
# 2 -0.003813 0.011150 -0.003241 0.000000 0.000000 0.000000
# 3 -0.004845 -0.003241 0.014764 0.000000 0.000000 0.000000
# 4 0.000000 0.000000 0.000000 0.031969 0.000000 0.000000
# 5 0.000000 0.000000 0.000000 0.000000 0.025631 0.000000
# 6 0.000000 0.000000 0.000000 0.000000 0.000000 0.052818
#
#
# Mechanical properties :
#
#
# Convention : Reuss Voigt Hill
#
# Bulk Modulus (GPa) = 57.41749 58.36493 57.89121
# Shear Modulus (GPa) = 27.58814 29.43007 28.50910
#
# Velocity S-wave (km/s) = 3.77448 3.89845 3.83697
# Velocity P-wave (km/s) = 6.97470 7.09958 7.03742
#
# Compressibility (1/GPa) = 0.01741630
#
# Stress axis : x y z
#
# Youngs Moduli (GPa) = 65.35258 89.68817 67.73242
#
# Poissons Ratio (x) = 0.34201 0.32820
# Poissons Ratio (y) = 0.24921 0.21950
# Poissons Ratio (z) = 0.31666 0.29066
#
# Static dielectric constant tensor:
#      x y z
#    x 3.809190 0.000000 0.000000 
#    y 0.000000 3.466740 0.000000 
#    z 0.000000 0.000000 3.595390 
# 
# 
# High freq. dielectric constant tensor:
#      x y z
#    x 1.762130 0.000000 0.000000 
#    y 0.000000 1.743160 0.000000 
#    z 0.000000 0.000000 1.760470 
# 
# From -- ./inp_files/3796.got.cif
#   From: 2010.03.12/outbox.cif.g09.slc.cpg/sg39_2_cif.got.tgz:3796.got - 2010.04.14 02:53:20.
