data_PCOD8182550
_publ_section_title
;
Structure prediction by ZEFSAII (Michael W. Deem and Ramdas Pophale) SiO2 
 PCOD8182550
Probable space group: A M A 2
;
_chemical_formula_sum "Si O2"
_cell_formula_units_Z 56
_cell_length_a 8.909188
_cell_length_b 18.330216
_cell_length_c 20.577754
_cell_angle_alpha 90.000000
_cell_angle_beta 90.000000
_cell_angle_gamma 90.000000
_cell_volume 3360.498278
_symmetry_space_group_name_H-M "A M A 2"
_symmetry_group_IT_number 40
_symmetry_cell_setting 'orthorhombic'
loop_
_space_group_symop_operation_xyz
x,y,z
-x,-y,z
1/2-x,y,z
1/2+x,-y,z
x,1/2+y,1/2+z
-x,1/2-y,1/2+z
1/2-x,1/2+y,1/2+z
1/2+x,1/2-y,1/2+z
loop_
_atom_site_type_symbol
_atom_site_label
_atom_site_fract_x
_atom_site_fract_y
_atom_site_fract_z
Si Si1 0.919918 0.646580 0.232710
Si Si2 0.427122 0.078966 0.612756
Si Si3 0.580851 0.278761 0.810363
Si Si4 0.421153 0.207110 0.924390
Si Si5 0.577383 0.576523 0.372495
Si Si6 0.577462 0.926526 0.365351
Si Si7 0.073509 0.852393 0.488815
O O1 0.750000 0.627815 0.210148
O O2 0.938332 0.734838 0.242381
O O3 0.957058 0.607155 0.300741
O O4 0.038154 0.619166 0.180317
O O5 0.250000 0.071693 0.603890
O O6 0.496615 0.126620 0.555741
O O7 0.500000 0.000000 0.612891
O O8 0.750000 0.260341 0.837260
O O9 0.453888 0.250369 0.858346
O O10 0.562699 0.366603 0.806921
O O11 0.250000 0.181888 0.925022
O O12 0.520271 0.133849 0.927212
O O13 0.455166 0.265220 0.981672
O O14 0.500000 0.500000 0.383194
O O15 0.750000 0.563888 0.384649
O O16 0.750000 0.942703 0.381767
O O17 0.499885 0.898700 0.431034
O O18 0.500000 0.000000 0.339947
O O19 0.250000 0.870311 0.490124
#
# Coordination Sequence:
#
# PCOD8182550 Si02
#       7
#     8   8   8   8   8   8   8
#     4   9  18  33  49  66  90 122 157 191 226 268
#     4  12  24  35  48  67  92 124 158 192 227 267
#     4   8  16  30  47  65  89 121 153 186 228 274
#     4   9  17  29  47  68  90 117 151 189 231 275
#     4  10  19  30  47  70  97 125 153 188 230 273
#     4  10  18  29  46  70  97 123 152 188 230 274
#     4  10  20  34  49  66  91 124 158 192 228 271
#
# _framework density 16.664196
#
# number of rings (size 3 to 8) (size 9 to 14) (size 15 to 20)
#    0.000    2.286    0.000    4.714    0.000    6.286 
#    0.000    0.000    0.000    0.000    0.000    1.000 
#    0.000    2.286    0.000    0.000    0.000    0.000 
#
# Total GULP energy -347023.317392 kJ/mol
# GULP energy per Si atom -12393.689907 kJ/mol
# Density = 1.662627 g / cm^3
# Si number density = 16.664196 Si / 1000 Ang^3
#
#
#
# Elastic Constant Matrix: (Units=GPa)
#
#
# Indices 1 2 3 4 5 6 
#
# 1 114.6463 71.6449 42.7625 0.0000 0.0000 0.0000
# 2 71.6449 143.4890 47.1484 0.0000 0.0000 0.0000
# 3 42.7625 47.1484 54.4738 0.0000 0.0000 0.0000
# 4 0.0000 0.0000 0.0000 24.2293 0.0000 0.0000
# 5 0.0000 0.0000 0.0000 0.0000 22.4727 0.0000
# 6 0.0000 0.0000 0.0000 0.0000 0.0000 29.9865
#
#
#
# Elastic Compliance Matrix: (Units=1/GPa)
#
#
# Indices 1 2 3 4 5 6 
#
# 1 0.014410 -0.004860 -0.007105 0.000000 0.000000 0.000000
# 2 -0.004860 0.011378 -0.006033 0.000000 0.000000 0.000000
# 3 -0.007105 -0.006033 0.029157 0.000000 0.000000 0.000000
# 4 0.000000 0.000000 0.000000 0.041272 0.000000 0.000000
# 5 0.000000 0.000000 0.000000 0.000000 0.044498 0.000000
# 6 0.000000 0.000000 0.000000 0.000000 0.000000 0.033348
#
#
# Mechanical properties :
#
#
# Convention : Reuss Voigt Hill
#
# Bulk Modulus (GPa) = 52.77544 70.63565 61.70555
# Shear Modulus (GPa) = 23.10784 25.40793 24.25788
#
# Velocity S-wave (km/s) = 3.72785 3.90898 3.81949
# Velocity P-wave (km/s) = 7.08998 7.92800 7.52067
#
# Compressibility (1/GPa) = 0.01894821
#
# Stress axis : x y z
#
# Youngs Moduli (GPa) = 69.39605 87.88707 34.29752
#
# Poissons Ratio (x) = 0.42716 0.24369
# Poissons Ratio (y) = 0.33729 0.20691
# Poissons Ratio (z) = 0.49308 0.53020
#
# Static dielectric constant tensor:
#      x y z
#    x 3.272240 0.000000 0.000000 
#    y 0.000000 3.432600 0.000000 
#    z 0.000000 0.000000 2.840810 
# 
# 
# High freq. dielectric constant tensor:
#      x y z
#    x 1.659070 0.000000 0.000000 
#    y 0.000000 1.652760 0.000000 
#    z 0.000000 0.000000 1.589900 
# 
# From -- ./inp_files/19524.got.cif
#   From: 2010.03.12/outbox.cif.g09.slc.cpg/sg40_10_cif.got.tgz:19524.got - 2010.04.14 01:38:03.
