data_PCOD8182533
_publ_section_title
;
Structure prediction by ZEFSAII (Michael W. Deem and Ramdas Pophale) SiO2 
 PCOD8182533
Probable space group: A M A 2
;
_chemical_formula_sum "Si O2"
_cell_formula_units_Z 64
_cell_length_a 8.599799
_cell_length_b 26.482417
_cell_length_c 18.223461
_cell_angle_alpha 90.000000
_cell_angle_beta 90.000000
_cell_angle_gamma 90.000000
_cell_volume 4150.274120
_symmetry_space_group_name_H-M "A M A 2"
_symmetry_group_IT_number 40
_symmetry_cell_setting 'orthorhombic'
loop_
_space_group_symop_operation_xyz
x,y,z
-x,-y,z
1/2-x,y,z
1/2+x,-y,z
x,1/2+y,1/2+z
-x,1/2-y,1/2+z
1/2-x,1/2+y,1/2+z
1/2+x,1/2-y,1/2+z
loop_
_atom_site_type_symbol
_atom_site_label
_atom_site_fract_x
_atom_site_fract_y
_atom_site_fract_z
Si Si1 0.928552 0.801204 0.721970
Si Si2 0.068802 0.254933 0.862210
Si Si3 0.431336 0.705447 0.648312
Si Si4 0.432116 0.053819 0.351099
Si Si5 0.068921 0.747592 0.018855
Si Si6 0.931978 0.946241 0.520799
Si Si7 0.932183 0.647702 0.769107
Si Si8 0.569224 0.150061 0.593581
O O1 0.750000 0.816311 0.710872
O O2 0.966098 0.792753 0.808106
O O3 0.959891 0.748083 0.683297
O O4 0.032433 0.843499 0.680895
O O5 0.250000 0.257224 0.883187
O O6 0.017688 0.307477 0.824311
O O7 0.966047 0.246440 0.933387
O O8 0.250000 0.717163 0.658852
O O9 0.475666 0.707677 0.561975
O O10 0.478717 0.654101 0.690651
O O11 0.250000 0.055214 0.334951
O O12 0.469075 0.065031 0.435964
O O13 0.518910 0.094801 0.302629
O O14 0.500000 0.000000 0.327683
O O15 0.250000 0.754939 0.032258
O O16 0.020062 0.691924 0.045902
O O17 0.750000 0.945231 0.536895
O O18 0.017040 0.905129 0.570048
O O19 0.000000 0.000000 0.544424
O O20 0.750000 0.648478 0.754048
O O21 0.750000 0.157292 0.578875
#
# Coordination Sequence:
#
# PCOD8182533 Si02
#       8
#     8   8   8   8   8   8   8   8
#     4   9  17  30  45  61  84 112 143 179 217 256
#     4   9  18  30  44  63  87 115 145 178 217 259
#     4  10  18  29  44  61  84 112 144 179 215 257
#     4  10  20  32  46  64  86 114 147 183 220 256
#     4  11  20  29  43  63  88 116 147 181 216 256
#     4  10  20  33  47  64  87 114 147 184 220 256
#     4  10  19  31  46  63  86 115 147 181 217 258
#     4  11  20  30  45  63  86 116 149 181 216 258
#
# _framework density 15.420667999999999
#
# number of rings (size 3 to 8) (size 9 to 14) (size 15 to 20)
#    0.000    2.000    0.000    7.875    0.000    6.500 
#    0.000    0.000    0.000    0.000    0.000    0.000 
#    0.000    1.000    0.000    5.500    0.000    5.875 
#
# Total GULP energy -396724.795638 kJ/mol
# GULP energy per Si atom -12397.649864 kJ/mol
# Density = 1.538557 g / cm^3
# Si number density = 15.420668 Si / 1000 Ang^3
#
#
#
# Elastic Constant Matrix: (Units=GPa)
#
#
# Indices 1 2 3 4 5 6 
#
# 1 75.0251 29.1181 38.2050 0.0000 0.0000 0.0000
# 2 29.1181 73.0515 47.4657 0.0000 0.0000 0.0000
# 3 38.2050 47.4657 88.1394 0.0000 0.0000 0.0000
# 4 0.0000 0.0000 0.0000 61.1881 0.0000 0.0000
# 5 0.0000 0.0000 0.0000 0.0000 25.8821 0.0000
# 6 0.0000 0.0000 0.0000 0.0000 0.0000 24.3744
#
#
#
# Elastic Compliance Matrix: (Units=1/GPa)
#
#
# Indices 1 2 3 4 5 6 
#
# 1 0.017566 -0.003160 -0.005912 0.000000 0.000000 0.000000
# 2 -0.003160 0.021626 -0.010276 0.000000 0.000000 0.000000
# 3 -0.005912 -0.010276 0.019443 0.000000 0.000000 0.000000
# 4 0.000000 0.000000 0.000000 0.016343 0.000000 0.000000
# 5 0.000000 0.000000 0.000000 0.000000 0.038637 0.000000
# 6 0.000000 0.000000 0.000000 0.000000 0.000000 0.041027
#
#
# Mechanical properties :
#
#
# Convention : Reuss Voigt Hill
#
# Bulk Modulus (GPa) = 50.15881 51.75486 50.95684
# Shear Modulus (GPa) = 25.00200 30.38407 27.69304
#
# Velocity S-wave (km/s) = 4.03094 4.44367 4.24233
# Velocity P-wave (km/s) = 7.36629 7.74359 7.55730
#
# Compressibility (1/GPa) = 0.01993668
#
# Stress axis : x y z
#
# Youngs Moduli (GPa) = 56.92769 46.24130 51.43367
#
# Poissons Ratio (x) = 0.14613 0.30410
# Poissons Ratio (y) = 0.17990 0.52855
# Poissons Ratio (z) = 0.33658 0.47519
#
# Static dielectric constant tensor:
#      x y z
#    x 3.025100 0.000000 0.000000 
#    y 0.000000 2.769050 0.000000 
#    z 0.000000 0.000000 3.209560 
# 
# 
# High freq. dielectric constant tensor:
#      x y z
#    x 1.610740 0.000000 0.000000 
#    y 0.000000 1.555370 0.000000 
#    z 0.000000 0.000000 1.581930 
# 
# From -- ./inp_files/19765.got.cif
#   From: 2010.03.12/outbox.cif.g09.slc.cpg/sg40_10_cif.got.tgz:19765.got - 2010.04.14 01:38:03.
