data_PCOD8182214
_publ_section_title
;
Structure prediction by ZEFSAII (Michael W. Deem and Ramdas Pophale) SiO2 
 PCOD8182214
Probable space group: A B M 2
;
_chemical_formula_sum "Si O2"
_cell_formula_units_Z 40
_cell_length_a 13.634782
_cell_length_b 14.348466
_cell_length_c 9.480685
_cell_angle_alpha 90.000000
_cell_angle_beta 90.000000
_cell_angle_gamma 90.000000
_cell_volume 1854.784205
_symmetry_space_group_name_H-M "A B M 2"
_symmetry_group_IT_number 39
_symmetry_cell_setting 'orthorhombic'
loop_
_space_group_symop_operation_xyz
x,y,z
-x,-y,z
-x,1/2+y,z
x,1/2-y,z
x,1/2+y,1/2+z
-x,1/2-y,1/2+z
-x,y,1/2+z
x,-y,1/2+z
loop_
_atom_site_type_symbol
_atom_site_label
_atom_site_fract_x
_atom_site_fract_y
_atom_site_fract_z
Si Si1 0.740110 0.250000 0.018651
Si Si2 0.342671 0.750000 0.710486
Si Si3 0.597728 0.950027 0.849809
Si Si4 0.000000 0.000000 0.785854
Si Si5 0.705831 0.949579 0.118571
Si Si6 0.124497 0.430570 0.539740
Si Si7 0.569511 0.750000 0.745380
O O1 0.807843 0.160136 0.037958
O O2 0.650555 0.250000 0.125654
O O3 0.681874 0.250000 0.873993
O O4 0.292126 0.660389 0.642474
O O5 0.459578 0.750000 0.683204
O O6 0.586265 0.839497 0.842415
O O7 0.500000 0.000000 0.796672
O O8 0.687634 0.989369 0.757809
O O9 0.619370 0.977008 0.010411
O O10 0.944305 0.928205 0.679671
O O11 0.068162 0.937857 0.889835
O O12 0.810759 0.975924 0.054178
#
# Coordination Sequence:
#
# PCOD8182214 Si02
#       7
#     4   4   8   4   8   8   4
#     4  12  26  44  70 104 137 183 230 285 328 415
#     4  12  27  40  67 100 147 191 237 273 326 393
#     4  12  25  41  64  95 138 188 238 280 327 389
#     4  10  24  48  74  98 128 174 216 298 360 426
#     4  12  25  44  67  98 137 186 228 287 335 405
#     4  11  24  46  73 100 136 169 229 284 359 413
#     4  12  27  40  63 100 144 188 233 272 326 390
#
# _framework density 21.565850000000001
#
# number of rings (size 3 to 8) (size 9 to 14) (size 15 to 20)
#    0.000    0.400    4.000    4.800    2.800    0.800 
#    0.000    4.000    0.000    0.000    0.000    0.000 
#    0.000    0.000    0.000    0.000    0.000    0.000 
#
# Total GULP energy -248028.427287 kJ/mol
# GULP energy per Si atom -12401.421364 kJ/mol
# Density = 2.151676 g / cm^3
# Si number density = 21.565850 Si / 1000 Ang^3
#
#
#
# Elastic Constant Matrix: (Units=GPa)
#
#
# Indices 1 2 3 4 5 6 
#
# 1 118.6667 49.1989 45.2453 0.0000 0.0000 0.0000
# 2 49.1989 139.3505 33.8048 0.0000 0.0000 0.0000
# 3 45.2453 33.8048 129.3048 0.0000 0.0000 0.0000
# 4 0.0000 0.0000 0.0000 28.2386 0.0000 0.0000
# 5 0.0000 0.0000 0.0000 0.0000 35.4879 0.0000
# 6 0.0000 0.0000 0.0000 0.0000 0.0000 -8.8600
#
#
#
# Elastic Compliance Matrix: (Units=1/GPa)
#
#
# Indices 1 2 3 4 5 6 
#
# 1 0.010854 -0.003108 -0.002985 0.000000 0.000000 0.000000
# 2 -0.003108 0.008552 -0.001148 0.000000 0.000000 0.000000
# 3 -0.002985 -0.001148 0.009078 0.000000 0.000000 0.000000
# 4 0.000000 0.000000 0.000000 0.035413 0.000000 0.000000
# 5 0.000000 0.000000 0.000000 0.000000 0.028179 0.000000
# 6 0.000000 0.000000 0.000000 0.000000 0.000000 -0.112866
#
#
# Mechanical properties :
#
#
# Convention : Reuss Voigt Hill
#
# Bulk Modulus (GPa) = 71.42242 71.53556 71.47899
# Shear Modulus (GPa) = -3046.55132 28.24483 -1509.15324
#
# Velocity S-wave (km/s) = -37.62633 3.62291 -26.48221
# Velocity P-wave (km/s) = 43.06349 7.12344 30.03099
#
# Compressibility (1/GPa) = 0.01400121
#
# Stress axis : x y z
#
# Youngs Moduli (GPa) = 92.13445 116.93248 110.15040
#
# Poissons Ratio (x) = 0.36340 0.32884
# Poissons Ratio (y) = 0.28633 0.12649
# Poissons Ratio (z) = 0.27505 0.13428
#
# Static dielectric constant tensor:
#      x y z
#    x 4.028670 0.000000 0.000000 
#    y 0.000000 3.311010 0.000000 
#    z 0.000000 0.000000 4.032560 
# 
# 
# High freq. dielectric constant tensor:
#      x y z
#    x 1.851830 0.000000 0.000000 
#    y 0.000000 1.843950 0.000000 
#    z 0.000000 0.000000 1.866150 
# 
# From -- ./inp_files/3111.got.cif
#   From: 2010.03.12/outbox.cif.g09.slc.cpg/sg39_2_cif.got.tgz:3111.got - 2010.04.14 02:53:20.
