data_PCOD8182005
_publ_section_title
;
Structure prediction by ZEFSAII (Michael W. Deem and Ramdas Pophale) SiO2 
 PCOD8182005
Probable space group: A B M 2
;
_chemical_formula_sum "Si O2"
_cell_formula_units_Z 40
_cell_length_a 5.642336
_cell_length_b 19.586699
_cell_length_c 15.360220
_cell_angle_alpha 90.000000
_cell_angle_beta 90.000000
_cell_angle_gamma 90.000000
_cell_volume 1697.530672
_symmetry_space_group_name_H-M "A B M 2"
_symmetry_group_IT_number 39
_symmetry_cell_setting 'orthorhombic'
loop_
_space_group_symop_operation_xyz
x,y,z
-x,-y,z
-x,1/2+y,z
x,1/2-y,z
x,1/2+y,1/2+z
-x,1/2-y,1/2+z
-x,y,1/2+z
x,-y,1/2+z
loop_
_atom_site_type_symbol
_atom_site_label
_atom_site_fract_x
_atom_site_fract_y
_atom_site_fract_z
Si Si1 0.404461 0.930868 0.969360
Si Si2 0.906301 0.325070 0.184859
Si Si3 0.751651 0.963956 0.647502
Si Si4 0.224036 0.325389 0.016395
Si Si5 0.866011 0.675308 0.365980
O O1 0.310217 0.884968 0.891349
O O2 0.500000 0.000000 0.924060
O O3 0.219187 0.955737 0.042790
O O4 0.590108 0.886252 0.025555
O O5 0.779085 0.250000 0.187933
O O6 0.036327 0.334330 0.093102
O O7 0.090055 0.330292 0.263810
O O8 0.727830 0.388866 0.192560
O O9 0.500000 0.000000 0.671089
O O10 0.000000 0.000000 0.679521
O O11 0.343207 0.250000 0.023889
O O12 0.104697 0.332972 0.921716
O O13 0.753135 0.750000 0.386815
#
# Coordination Sequence:
#
# PCOD8182005 Si02
#       5
#     8   8   8   8   8
#     4  11  23  39  68  95 139 185 234 289 365 430
#     4  10  21  43  72 101 137 188 242 295 358 433
#     4  11  24  45  71 101 143 184 235 298 361 426
#     4  10  21  42  67  94 133 181 235 298 360 423
#     4  10  22  42  66  96 136 177 239 298 352 428
#
# _framework density 23.563639999999999
#
# number of rings (size 3 to 8) (size 9 to 14) (size 15 to 20)
#    0.000    1.600    2.000    3.000    0.000    0.800 
#   10.800    2.000    0.000    0.000    0.000    0.000 
#    0.000    0.000    0.000    0.000    0.000    0.000 
#
# Total GULP energy -247802.544603 kJ/mol
# GULP energy per Si atom -12390.127230 kJ/mol
# Density = 2.351001 g / cm^3
# Si number density = 23.563640 Si / 1000 Ang^3
#
#
#
# Elastic Constant Matrix: (Units=GPa)
#
#
# Indices 1 2 3 4 5 6 
#
# 1 93.0499 76.5860 9.4182 0.0000 0.0000 0.0000
# 2 76.5860 238.1173 31.1836 0.0000 0.0000 0.0000
# 3 9.4182 31.1836 45.0425 0.0000 0.0000 0.0000
# 4 0.0000 0.0000 0.0000 18.7617 0.0000 0.0000
# 5 0.0000 0.0000 0.0000 0.0000 16.9716 0.0000
# 6 0.0000 0.0000 0.0000 0.0000 0.0000 44.9977
#
#
#
# Elastic Compliance Matrix: (Units=1/GPa)
#
#
# Indices 1 2 3 4 5 6 
#
# 1 0.014618 -0.004730 0.000218 0.000000 0.000000 0.000000
# 2 -0.004730 0.006149 -0.003268 0.000000 0.000000 0.000000
# 3 0.000218 -0.003268 0.024418 0.000000 0.000000 0.000000
# 4 0.000000 0.000000 0.000000 0.053300 0.000000 0.000000
# 5 0.000000 0.000000 0.000000 0.000000 0.058922 0.000000
# 6 0.000000 0.000000 0.000000 0.000000 0.000000 0.022223
#
#
# Mechanical properties :
#
#
# Convention : Reuss Voigt Hill
#
# Bulk Modulus (GPa) = 33.75502 67.84282 50.79892
# Shear Modulus (GPa) = 24.38245 33.41434 28.89839
#
# Velocity S-wave (km/s) = 3.22024 3.76978 3.50580
# Velocity P-wave (km/s) = 5.30874 6.91391 6.16380
#
# Compressibility (1/GPa) = 0.02962522
#
# Stress axis : x y z
#
# Youngs Moduli (GPa) = 68.40828 162.62903 40.95328
#
# Poissons Ratio (x) = 0.76927 -0.00894
# Poissons Ratio (y) = 0.32359 0.13383
# Poissons Ratio (z) = -0.01493 0.53146
#
# Static dielectric constant tensor:
#      x y z
#    x 3.777040 0.000000 0.000000 
#    y 0.000000 5.020040 0.000000 
#    z 0.000000 0.000000 3.949790 
# 
# 
# High freq. dielectric constant tensor:
#      x y z
#    x 1.893140 0.000000 0.000000 
#    y 0.000000 1.969910 0.000000 
#    z 0.000000 0.000000 1.919870 
# 
# From -- ./inp_files/10907.got.cif
#   From: 2010.03.12/outbox.cif.g09.slc.cpg/sg39_6_cif.got.tgz:10907.got - 2010.04.14 02:53:20.
