data_PCOD8182578
_publ_section_title
;
Structure prediction by ZEFSAII (Michael W. Deem and Ramdas Pophale) SiO2 
 PCOD8182578
Probable space group: A M A 2
;
_chemical_formula_sum "Si O2"
_cell_formula_units_Z 56
_cell_length_a 9.082632
_cell_length_b 21.264651
_cell_length_c 17.814934
_cell_angle_alpha 90.000000
_cell_angle_beta 90.000000
_cell_angle_gamma 90.000000
_cell_volume 3440.758531
_symmetry_space_group_name_H-M "A M A 2"
_symmetry_group_IT_number 40
_symmetry_cell_setting 'orthorhombic'
loop_
_space_group_symop_operation_xyz
x,y,z
-x,-y,z
1/2-x,y,z
1/2+x,-y,z
x,1/2+y,1/2+z
-x,1/2-y,1/2+z
1/2-x,1/2+y,1/2+z
1/2+x,1/2-y,1/2+z
loop_
_atom_site_type_symbol
_atom_site_label
_atom_site_fract_x
_atom_site_fract_y
_atom_site_fract_z
Si Si1 0.425459 0.639017 0.039610
Si Si2 0.912471 0.827917 0.700765
Si Si3 0.084712 0.297903 0.338441
Si Si4 0.084825 0.817461 0.157019
Si Si5 0.917272 0.347599 0.796656
Si Si6 0.925544 0.722305 0.500138
Si Si7 0.074048 0.934576 0.413910
O O1 0.250000 0.630757 0.027882
O O2 0.468960 0.633589 0.127861
O O3 0.481478 0.706140 0.008230
O O4 0.513870 0.585325 0.995683
O O5 0.750000 0.851050 0.720948
O O6 0.911423 0.755065 0.679672
O O7 0.006318 0.840406 0.775616
O O8 0.250000 0.322616 0.339625
O O9 0.076713 0.224867 0.318546
O O10 0.014003 0.306819 0.421790
O O11 0.250000 0.845579 0.162984
O O12 0.976874 0.856280 0.211539
O O13 0.024447 0.820687 0.070981
O O14 0.750000 0.373197 0.801460
O O15 0.023926 0.384409 0.852156
O O16 0.750000 0.725495 0.498886
O O17 0.250000 0.940009 0.415110
O O18 0.000000 0.000000 0.391277
#
# Coordination Sequence:
#
# PCOD8182578 Si02
#       7
#     8   8   8   8   8   8   8
#     4   9  16  31  47  59  83 116 147 181 223 260
#     4   8  15  25  40  60  84 114 144 176 214 258
#     4   9  15  24  41  62  88 119 148 177 212 255
#     4   8  14  25  41  60  83 113 149 177 208 258
#     4  10  18  30  45  60  85 115 145 182 224 259
#     4   8  13  24  42  62  87 120 148 175 214 257
#     4  12  24  35  48  65  84 111 150 190 225 263
#
# _framework density 16.275480000000002
#
# number of rings (size 3 to 8) (size 9 to 14) (size 15 to 20)
#    0.000    2.857    1.429    3.429    0.000    1.143 
#    0.000    2.857    0.000    0.000    0.000    0.000 
#    0.000    1.143    0.000    6.000    0.000    5.143 
#
# Total GULP energy -346957.461362 kJ/mol
# GULP energy per Si atom -12391.337906 kJ/mol
# Density = 1.623844 g / cm^3
# Si number density = 16.275480 Si / 1000 Ang^3
#
#
#
# Elastic Constant Matrix: (Units=GPa)
#
#
# Indices 1 2 3 4 5 6 
#
# 1 78.0731 14.3978 46.4651 0.0000 0.0000 0.0000
# 2 14.3978 17.0073 8.8638 0.0000 0.0000 0.0000
# 3 46.4651 8.8638 142.7257 0.0000 0.0000 0.0000
# 4 0.0000 0.0000 0.0000 8.3565 0.0000 0.0000
# 5 0.0000 0.0000 0.0000 0.0000 29.0725 0.0000
# 6 0.0000 0.0000 0.0000 0.0000 0.0000 15.0812
#
#
#
# Elastic Compliance Matrix: (Units=1/GPa)
#
#
# Indices 1 2 3 4 5 6 
#
# 1 0.018217 -0.012744 -0.005139 0.000000 0.000000 0.000000
# 2 -0.012744 0.069680 -0.000179 0.000000 0.000000 0.000000
# 3 -0.005139 -0.000179 0.008691 0.000000 0.000000 0.000000
# 4 0.000000 0.000000 0.000000 0.119668 0.000000 0.000000
# 5 0.000000 0.000000 0.000000 0.000000 0.034397 0.000000
# 6 0.000000 0.000000 0.000000 0.000000 0.000000 0.066308
#
#
# Mechanical properties :
#
#
# Convention : Reuss Voigt Hill
#
# Bulk Modulus (GPa) = 16.53859 41.91773 29.22816
# Shear Modulus (GPa) = 13.39627 21.70733 17.55180
#
# Velocity S-wave (km/s) = 2.87208 3.65601 3.28749
# Velocity P-wave (km/s) = 4.60241 6.60552 5.69276
#
# Compressibility (1/GPa) = 0.06046465
#
# Stress axis : x y z
#
# Youngs Moduli (GPa) = 54.89292 14.35133 115.06604
#
# Poissons Ratio (x) = 0.18289 0.59136
# Poissons Ratio (y) = 0.69954 0.02055
# Poissons Ratio (z) = 0.28211 0.00256
#
# Static dielectric constant tensor:
#      x y z
#    x 3.067970 0.000000 0.000000 
#    y 0.000000 2.517420 0.000000 
#    z 0.000000 0.000000 3.623080 
# 
# 
# High freq. dielectric constant tensor:
#      x y z
#    x 1.613930 0.000000 0.000000 
#    y 0.000000 1.551970 0.000000 
#    z 0.000000 0.000000 1.646350 
# 
# From -- ./inp_files/19463.got.cif
#   From: 2010.03.12/outbox.cif.g09.slc.cpg/sg40_10_cif.got.tgz:19463.got - 2010.04.14 01:38:03.
