data_PCOD8182949
_publ_section_title
;
Structure prediction by ZEFSAII (Michael W. Deem and Ramdas Pophale) SiO2 
 PCOD8182949
Probable space group: A M A 2
;
_chemical_formula_sum "Si O2"
_cell_formula_units_Z 64
_cell_length_a 8.865731
_cell_length_b 27.115425
_cell_length_c 14.653791
_cell_angle_alpha 90.000000
_cell_angle_beta 90.000000
_cell_angle_gamma 90.000000
_cell_volume 3522.742987
_symmetry_space_group_name_H-M "A M A 2"
_symmetry_group_IT_number 40
_symmetry_cell_setting 'orthorhombic'
loop_
_space_group_symop_operation_xyz
x,y,z
-x,-y,z
1/2-x,y,z
1/2+x,-y,z
x,1/2+y,1/2+z
-x,1/2-y,1/2+z
1/2-x,1/2+y,1/2+z
1/2+x,1/2-y,1/2+z
loop_
_atom_site_type_symbol
_atom_site_label
_atom_site_fract_x
_atom_site_fract_y
_atom_site_fract_z
Si Si1 0.073881 0.717552 0.603260
Si Si2 0.573766 0.832189 0.798141
Si Si3 0.075281 0.830416 0.613631
Si Si4 0.428505 0.551962 0.799587
Si Si5 0.923871 0.719484 0.787125
Si Si6 0.076469 0.368096 0.918837
Si Si7 0.571146 0.551911 0.608894
Si Si8 0.572972 0.639733 0.476527
O O1 0.250000 0.708236 0.592453
O O2 0.028592 0.774474 0.590844
O O3 0.020813 0.698882 0.702590
O O4 0.991942 0.688135 0.523946
O O5 0.750000 0.840662 0.807270
O O6 0.520204 0.850771 0.698789
O O7 0.527570 0.774982 0.812721
O O8 0.492932 0.864936 0.874903
O O9 0.250000 0.832447 0.640753
O O10 0.040108 0.864088 0.526049
O O11 0.500000 0.500000 0.828775
O O12 0.250000 0.546395 0.788686
O O13 0.466233 0.591167 0.877754
O O14 0.500484 0.570069 0.704386
O O15 0.750000 0.718312 0.756686
O O16 0.954948 0.685111 0.873843
O O17 0.250000 0.383618 0.902318
O O18 0.500000 0.500000 0.579100
O O19 0.750000 0.546606 0.620937
O O20 0.526046 0.591065 0.532023
O O21 0.750000 0.645305 0.470716
#
# Coordination Sequence:
#
# PCOD8182949 Si02
#       8
#     8   8   8   8   8   8   8   8
#     4  10  19  31  49  75 105 138 175 210 247 296
#     4  10  20  34  52  74 102 137 177 216 250 293
#     4   9  19  35  52  72 103 140 174 211 255 298
#     4  11  22  36  55  79 106 133 164 204 252 305
#     4   9  18  32  49  73 106 140 171 206 251 298
#     4  10  19  33  53  74 101 137 173 209 252 301
#     4  10  21  37  56  78 104 133 165 203 252 306
#     4  11  22  34  51  75 103 136 171 209 257 307
#
# _framework density 18.167660999999999
#
# number of rings (size 3 to 8) (size 9 to 14) (size 15 to 20)
#    0.000    2.000    0.000    4.875    0.000    9.000 
#    0.000    1.250    0.000    0.750    0.000    3.500 
#    0.000    0.000    0.000    0.000    0.000    0.000 
#
# Total GULP energy -396924.216486 kJ/mol
# GULP energy per Si atom -12403.881765 kJ/mol
# Density = 1.812631 g / cm^3
# Si number density = 18.167661 Si / 1000 Ang^3
#
#
#
# Elastic Constant Matrix: (Units=GPa)
#
#
# Indices 1 2 3 4 5 6 
#
# 1 79.0196 41.2970 49.0450 0.0000 0.0000 0.0000
# 2 41.2970 69.1086 55.2022 0.0000 0.0000 0.0000
# 3 49.0450 55.2022 125.0436 0.0000 0.0000 0.0000
# 4 0.0000 0.0000 0.0000 28.4573 0.0000 0.0000
# 5 0.0000 0.0000 0.0000 0.0000 33.6657 0.0000
# 6 0.0000 0.0000 0.0000 0.0000 0.0000 26.0900
#
#
#
# Elastic Compliance Matrix: (Units=1/GPa)
#
#
# Indices 1 2 3 4 5 6 
#
# 1 0.019548 -0.008584 -0.003878 0.000000 0.000000 0.000000
# 2 -0.008584 0.026121 -0.008165 0.000000 0.000000 0.000000
# 3 -0.003878 -0.008165 0.013123 0.000000 0.000000 0.000000
# 4 0.000000 0.000000 0.000000 0.035140 0.000000 0.000000
# 5 0.000000 0.000000 0.000000 0.000000 0.029704 0.000000
# 6 0.000000 0.000000 0.000000 0.000000 0.000000 0.038329
#
#
# Mechanical properties :
#
#
# Convention : Reuss Voigt Hill
#
# Bulk Modulus (GPa) = 57.01537 62.69557 59.85547
# Shear Modulus (GPa) = 23.91618 26.15112 25.03365
#
# Velocity S-wave (km/s) = 3.63218 3.79810 3.71607
# Velocity P-wave (km/s) = 7.00295 7.33611 7.17146
#
# Compressibility (1/GPa) = 0.01753913
#
# Stress axis : x y z
#
# Youngs Moduli (GPa) = 51.15650 38.28319 76.20436
#
# Poissons Ratio (x) = 0.32861 0.29550
# Poissons Ratio (y) = 0.43911 0.62219
# Poissons Ratio (z) = 0.19837 0.31257
#
# Static dielectric constant tensor:
#      x y z
#    x 3.404150 0.000000 0.000000 
#    y 0.000000 3.182280 0.000000 
#    z 0.000000 0.000000 3.407680 
# 
# 
# High freq. dielectric constant tensor:
#      x y z
#    x 1.711460 0.000000 0.000000 
#    y 0.000000 1.679710 0.000000 
#    z 0.000000 0.000000 1.705140 
# 
# From -- ./inp_files/15707.got.cif
#   From: 2010.03.12/outbox.cif.g09.slc.cpg/sg40_8_cif.got.tgz:15707.got - 2010.04.14 01:38:03.
