data_PCOD8182992
_publ_section_title
;
Structure prediction by ZEFSAII (Michael W. Deem and Ramdas Pophale) SiO2 
 PCOD8182992
Probable space group: A M A 2
;
_chemical_formula_sum "Si O2"
_cell_formula_units_Z 64
_cell_length_a 9.194873
_cell_length_b 29.561166
_cell_length_c 12.716345
_cell_angle_alpha 90.000000
_cell_angle_beta 90.000000
_cell_angle_gamma 90.000000
_cell_volume 3456.444576
_symmetry_space_group_name_H-M "A M A 2"
_symmetry_group_IT_number 40
_symmetry_cell_setting 'orthorhombic'
loop_
_space_group_symop_operation_xyz
x,y,z
-x,-y,z
1/2-x,y,z
1/2+x,-y,z
x,1/2+y,1/2+z
-x,1/2-y,1/2+z
1/2-x,1/2+y,1/2+z
1/2+x,1/2-y,1/2+z
loop_
_atom_site_type_symbol
_atom_site_label
_atom_site_fract_x
_atom_site_fract_y
_atom_site_fract_z
Si Si1 0.922337 0.878762 0.216300
Si Si2 0.591351 0.294952 0.840778
Si Si3 0.922137 0.741661 0.524160
Si Si4 0.921475 0.639453 0.508527
Si Si5 0.078690 0.547007 0.124297
Si Si6 0.092569 0.285900 0.196868
Si Si7 0.080995 0.546123 0.885546
Si Si8 0.420023 0.883903 0.774503
O O1 0.750000 0.877441 0.195636
O O2 0.986067 0.831369 0.264733
O O3 0.968273 0.917034 0.299851
O O4 0.999881 0.886942 0.104237
O O5 0.750000 0.317295 0.863979
O O6 0.615942 0.244509 0.798472
O O7 0.509602 0.281654 0.949070
O O8 0.750000 0.741843 0.513500
O O9 0.981591 0.691049 0.503000
O O10 0.969194 0.758388 0.637266
O O11 0.750000 0.639223 0.530236
O O12 0.957812 0.614063 0.398963
O O13 0.250000 0.541137 0.142250
O O14 0.000000 0.500000 0.145883
O O15 0.017838 0.581607 0.209789
O O16 0.044897 0.563295 0.004377
O O17 0.250000 0.289334 0.137906
O O18 0.037429 0.334791 0.231191
O O19 0.250000 0.535607 0.875393
O O20 0.000000 0.500000 0.858710
O O21 0.250000 0.894408 0.756808
#
# Coordination Sequence:
#
# PCOD8182992 Si02
#       8
#     8   8   8   8   8   8   8   8
#     4  10  20  35  56  80 107 143 185 223 268 327
#     4   9  17  31  51  72 103 145 181 217 266 318
#     4  10  19  32  50  72 104 145 185 225 269 317
#     4  10  20  35  53  77 110 148 186 225 270 317
#     4  10  21  39  63  88 112 139 175 222 276 330
#     4  10  19  33  51  74 105 145 185 221 267 317
#     4   9  20  38  60  85 110 138 173 219 275 329
#     4  10  21  37  56  80 112 149 187 225 271 327
#
# _framework density 18.516134999999998
#
# number of rings (size 3 to 8) (size 9 to 14) (size 15 to 20)
#    0.000    2.250    2.500    0.375    1.750    2.000 
#    0.000    1.875    0.000    1.500    0.000    0.000 
#    0.000    0.000    0.000    0.000    0.000    0.000 
#
# Total GULP energy -396474.358971 kJ/mol
# GULP energy per Si atom -12389.823718 kJ/mol
# Density = 1.847399 g / cm^3
# Si number density = 18.516135 Si / 1000 Ang^3
#
#
#
# Elastic Constant Matrix: (Units=GPa)
#
#
# Indices 1 2 3 4 5 6 
#
# 1 51.1629 44.6047 51.5081 0.0000 0.0000 0.0000
# 2 44.6047 112.5360 69.1684 0.0000 0.0000 0.0000
# 3 51.5081 69.1684 122.3949 0.0000 0.0000 0.0000
# 4 0.0000 0.0000 0.0000 34.4232 0.0000 0.0000
# 5 0.0000 0.0000 0.0000 0.0000 26.8819 0.0000
# 6 0.0000 0.0000 0.0000 0.0000 0.0000 27.2785
#
#
#
# Elastic Compliance Matrix: (Units=1/GPa)
#
#
# Indices 1 2 3 4 5 6 
#
# 1 0.038143 -0.008048 -0.011504 0.000000 0.000000 0.000000
# 2 -0.008048 0.015313 -0.005267 0.000000 0.000000 0.000000
# 3 -0.011504 -0.005267 0.015988 0.000000 0.000000 0.000000
# 4 0.000000 0.000000 0.000000 0.029050 0.000000 0.000000
# 5 0.000000 0.000000 0.000000 0.000000 0.037200 0.000000
# 6 0.000000 0.000000 0.000000 0.000000 0.000000 0.036659
#
#
# Mechanical properties :
#
#
# Convention : Reuss Voigt Hill
#
# Bulk Modulus (GPa) = 50.48752 68.51736 59.50244
# Shear Modulus (GPa) = 21.87289 25.77088 23.82189
#
# Velocity S-wave (km/s) = 3.44072 3.73474 3.59074
# Velocity P-wave (km/s) = 6.56587 7.46205 7.02826
#
# Compressibility (1/GPa) = 0.01980687
#
# Stress axis : x y z
#
# Youngs Moduli (GPa) = 26.21696 65.30331 62.54608
#
# Poissons Ratio (x) = 0.52554 0.71954
# Poissons Ratio (y) = 0.21098 0.32944
# Poissons Ratio (z) = 0.30160 0.34396
#
# Static dielectric constant tensor:
#      x y z
#    x 3.223970 0.000000 0.000000 
#    y 0.000000 3.316610 0.000000 
#    z 0.000000 0.000000 3.509590 
# 
# 
# High freq. dielectric constant tensor:
#      x y z
#    x 1.697310 0.000000 0.000000 
#    y 0.000000 1.709220 0.000000 
#    z 0.000000 0.000000 1.725870 
# 
# From -- ./inp_files/10590.got.cif
#   From: 2010.03.12/outbox.cif.g09.slc.cpg/sg40_6_cif.got.tgz:10590.got - 2010.04.14 01:38:03.
