data_PCOD8182705
_publ_section_title
;
Structure prediction by ZEFSAII (Michael W. Deem and Ramdas Pophale) SiO2 
 PCOD8182705
Probable space group: A M A 2
;
_chemical_formula_sum "Si O2"
_cell_formula_units_Z 48
_cell_length_a 8.557840
_cell_length_b 9.546891
_cell_length_c 30.379239
_cell_angle_alpha 90.000000
_cell_angle_beta 90.000000
_cell_angle_gamma 90.000000
_cell_volume 2482.007087
_symmetry_space_group_name_H-M "A M A 2"
_symmetry_group_IT_number 40
_symmetry_cell_setting 'orthorhombic'
loop_
_space_group_symop_operation_xyz
x,y,z
-x,-y,z
1/2-x,y,z
1/2+x,-y,z
x,1/2+y,1/2+z
-x,1/2-y,1/2+z
1/2-x,1/2+y,1/2+z
1/2+x,1/2-y,1/2+z
loop_
_atom_site_type_symbol
_atom_site_label
_atom_site_fract_x
_atom_site_fract_y
_atom_site_fract_z
Si Si1 0.068728 0.351393 0.996650
Si Si2 0.568261 0.650044 0.099186
Si Si3 0.434701 0.655904 0.337591
Si Si4 0.565585 0.655578 0.247455
Si Si5 0.565710 0.655640 0.670293
Si Si6 0.066921 0.846472 0.926161
O O1 0.250000 0.345165 0.984116
O O2 0.000000 0.500000 0.982917
O O3 0.973495 0.236912 0.969964
O O4 0.040711 0.321658 0.047887
O O5 0.500000 0.500000 0.113457
O O6 0.750000 0.653197 0.111952
O O7 0.476959 0.772636 0.124066
O O8 0.500000 0.500000 0.340052
O O9 0.250000 0.658103 0.334614
O O10 0.504600 0.724451 0.293264
O O11 0.492182 0.729659 0.382810
O O12 0.500000 0.500000 0.239849
O O13 0.750000 0.645191 0.248604
O O14 0.512404 0.756198 0.208855
O O15 0.500000 0.500000 0.670815
O O16 0.750000 0.652136 0.676881
O O17 0.250000 0.855410 0.919099
O O18 0.000000 0.000000 0.932966
#
# Coordination Sequence:
#
# PCOD8182705 Si02
#       6
#     8   8   8   8   8   8
#     4  10  21  38  59  84 114 148 187 231 280 333
#     4  10  21  39  62  86 112 146 188 232 277 330
#     4  10  18  32  54  82 113 146 187 233 278 325
#     4  11  21  37  60  86 114 148 190 232 276 328
#     4  12  25  41  59  83 115 149 185 229 283 337
#     4  11  21  35  56  83 115 151 190 233 281 331
#
# _framework density 19.339189000000001
#
# number of rings (size 3 to 8) (size 9 to 14) (size 15 to 20)
#    0.000    1.333    0.000    9.500    0.000    2.667 
#    0.000    0.833    0.000    0.000    0.000    0.000 
#    0.000    0.000    0.000    0.000    0.000    0.000 
#
# Total GULP energy -297646.621121 kJ/mol
# GULP energy per Si atom -12401.942547 kJ/mol
# Density = 1.929517 g / cm^3
# Si number density = 19.339189 Si / 1000 Ang^3
#
#
#
# Elastic Constant Matrix: (Units=GPa)
#
#
# Indices 1 2 3 4 5 6 
#
# 1 181.9996 51.2978 54.2958 0.0000 0.0000 0.0000
# 2 51.2978 100.3560 61.2644 0.0000 0.0000 0.0000
# 3 54.2958 61.2644 108.3536 0.0000 0.0000 0.0000
# 4 0.0000 0.0000 0.0000 19.5670 0.0000 0.0000
# 5 0.0000 0.0000 0.0000 0.0000 39.0154 0.0000
# 6 0.0000 0.0000 0.0000 0.0000 0.0000 33.2500
#
#
#
# Elastic Compliance Matrix: (Units=1/GPa)
#
#
# Indices 1 2 3 4 5 6 
#
# 1 0.006741 -0.002113 -0.002183 0.000000 0.000000 0.000000
# 2 -0.002113 0.015879 -0.007919 0.000000 0.000000 0.000000
# 3 -0.002183 -0.007919 0.014801 0.000000 0.000000 0.000000
# 4 0.000000 0.000000 0.000000 0.051106 0.000000 0.000000
# 5 0.000000 0.000000 0.000000 0.000000 0.025631 0.000000
# 6 0.000000 0.000000 0.000000 0.000000 0.000000 0.030075
#
#
# Mechanical properties :
#
#
# Convention : Reuss Voigt Hill
#
# Bulk Modulus (GPa) = 76.98359 80.49168 78.73764
# Shear Modulus (GPa) = 28.90244 33.28991 31.09617
#
# Velocity S-wave (km/s) = 3.87007 4.15344 4.01426
# Velocity P-wave (km/s) = 7.73714 8.04443 7.89228
#
# Compressibility (1/GPa) = 0.01298978
#
# Stress axis : x y z
#
# Youngs Moduli (GPa) = 148.33567 62.97530 67.56348
#
# Poissons Ratio (x) = 0.13307 0.14752
# Poissons Ratio (y) = 0.31344 0.53507
# Poissons Ratio (z) = 0.32387 0.49873
#
# Static dielectric constant tensor:
#      x y z
#    x 3.753100 0.000000 0.000000 
#    y 0.000000 3.360490 0.000000 
#    z 0.000000 0.000000 4.149470 
# 
# 
# High freq. dielectric constant tensor:
#      x y z
#    x 1.778170 0.000000 0.000000 
#    y 0.000000 1.724730 0.000000 
#    z 0.000000 0.000000 1.773910 
# 
# From -- ./inp_files/26136.got.cif
#   From: 2010.03.12/outbox.cif.g09.slc.cpg/sg40_14_cif.got.tgz:26136.got - 2010.04.14 01:38:03.
