data_PCOD8182931
_publ_section_title
;
Structure prediction by ZEFSAII (Michael W. Deem and Ramdas Pophale) SiO2 
 PCOD8182931
Probable space group: A M A 2
;
_chemical_formula_sum "Si O2"
_cell_formula_units_Z 64
_cell_length_a 8.882933
_cell_length_b 14.693678
_cell_length_c 27.208359
_cell_angle_alpha 90.000000
_cell_angle_beta 90.000000
_cell_angle_gamma 90.000000
_cell_volume 3551.315477
_symmetry_space_group_name_H-M "A M A 2"
_symmetry_group_IT_number 40
_symmetry_cell_setting 'orthorhombic'
loop_
_space_group_symop_operation_xyz
x,y,z
-x,-y,z
1/2-x,y,z
1/2+x,-y,z
x,1/2+y,1/2+z
-x,1/2-y,1/2+z
1/2-x,1/2+y,1/2+z
1/2+x,1/2-y,1/2+z
loop_
_atom_site_type_symbol
_atom_site_label
_atom_site_fract_x
_atom_site_fract_y
_atom_site_fract_z
Si Si1 0.925300 0.906887 0.208800
Si Si2 0.427128 0.594421 0.822062
Si Si3 0.428664 0.593637 0.980463
Si Si4 0.925211 0.215643 0.400979
Si Si5 0.075072 0.091912 0.939550
Si Si6 0.073781 0.091270 0.592595
Si Si7 0.927106 0.092557 0.042966
Si Si8 0.425384 0.780806 0.132757
O O1 0.750000 0.918796 0.200814
O O2 0.966954 0.888202 0.265303
O O3 0.982546 0.821478 0.177879
O O4 0.000000 0.000000 0.189771
O O5 0.500000 0.500000 0.840305
O O6 0.250000 0.589482 0.831791
O O7 0.497548 0.677927 0.851889
O O8 0.500000 0.500000 0.960552
O O9 0.250000 0.590733 0.973827
O O10 0.495680 0.675660 0.949148
O O11 0.478731 0.609646 0.036713
O O12 0.750000 0.189552 0.401313
O O13 0.948087 0.324901 0.401693
O O14 0.250000 0.072583 0.949101
O O15 0.000000 0.000000 0.917711
O O16 0.999242 0.119105 0.991055
O O17 0.250000 0.076687 0.593303
O O18 0.026348 0.175658 0.626853
O O19 0.000000 0.000000 0.614234
O O20 0.750000 0.079597 0.035974
O O21 0.965631 0.170817 0.081646
O O22 0.000000 0.000000 0.063502
O O23 0.250000 0.791312 0.144810
#
# Coordination Sequence:
#
# PCOD8182931 Si02
#       8
#     8   8   8   8   8   8   8   8
#     4  10  21  36  55  79 104 131 163 200 247 300
#     4  10  21  37  56  78 104 132 162 200 247 299
#     4  10  19  32  50  73 104 138 170 206 247 293
#     4  11  22  34  51  76 102 131 169 208 249 298
#     4  10  21  35  51  72 100 134 171 210 250 292
#     4   9  19  34  50  71 100 135 173 210 249 291
#     4  10  19  31  48  72 103 136 169 204 245 295
#     4  10  20  33  51  75 102 133 169 208 250 296
#
# _framework density 18.021491999999999
#
# number of rings (size 3 to 8) (size 9 to 14) (size 15 to 20)
#    0.000    2.000    0.000    4.500    0.000    7.500 
#    0.000    0.000    0.000    0.750    0.000    0.000 
#    0.000    0.000    0.000    0.000    0.000    0.000 
#
# Total GULP energy -396880.910744 kJ/mol
# GULP energy per Si atom -12402.528461 kJ/mol
# Density = 1.798047 g / cm^3
# Si number density = 18.021492 Si / 1000 Ang^3
#
#
#
# Elastic Constant Matrix: (Units=GPa)
#
#
# Indices 1 2 3 4 5 6 
#
# 1 95.3368 56.0707 42.7265 0.0000 0.0000 0.0000
# 2 56.0707 135.8076 60.8613 0.0000 0.0000 0.0000
# 3 42.7265 60.8613 73.8389 0.0000 0.0000 0.0000
# 4 0.0000 0.0000 0.0000 25.8122 0.0000 0.0000
# 5 0.0000 0.0000 0.0000 0.0000 27.7677 0.0000
# 6 0.0000 0.0000 0.0000 0.0000 0.0000 31.8015
#
#
#
# Elastic Compliance Matrix: (Units=1/GPa)
#
#
# Indices 1 2 3 4 5 6 
#
# 1 0.015259 -0.003715 -0.005767 0.000000 0.000000 0.000000
# 2 -0.003715 0.012581 -0.008220 0.000000 0.000000 0.000000
# 3 -0.005767 -0.008220 0.023655 0.000000 0.000000 0.000000
# 4 0.000000 0.000000 0.000000 0.038741 0.000000 0.000000
# 5 0.000000 0.000000 0.000000 0.000000 0.036013 0.000000
# 6 0.000000 0.000000 0.000000 0.000000 0.000000 0.031445
#
#
# Mechanical properties :
#
#
# Convention : Reuss Voigt Hill
#
# Bulk Modulus (GPa) = 62.14889 69.36670 65.75780
# Shear Modulus (GPa) = 25.19361 26.76461 25.97911
#
# Velocity S-wave (km/s) = 3.74301 3.85794 3.80091
# Velocity P-wave (km/s) = 7.29664 7.64327 7.47197
#
# Compressibility (1/GPa) = 0.01609039
#
# Stress axis : x y z
#
# Youngs Moduli (GPa) = 65.53565 79.48447 42.27384
#
# Poissons Ratio (x) = 0.29532 0.24379
# Poissons Ratio (y) = 0.24349 0.34749
# Poissons Ratio (z) = 0.37794 0.65336
#
# Static dielectric constant tensor:
#      x y z
#    x 3.414950 0.000000 0.000000 
#    y 0.000000 3.433850 0.000000 
#    z 0.000000 0.000000 3.151330 
# 
# 
# High freq. dielectric constant tensor:
#      x y z
#    x 1.710750 0.000000 0.000000 
#    y 0.000000 1.699850 0.000000 
#    z 0.000000 0.000000 1.673920 
# 
# From -- ./inp_files/26383.got.cif
#   From: 2010.03.12/outbox.cif.g09.slc.cpg/sg40_14_cif.got.tgz:26383.got - 2010.04.14 01:38:03.
