data_PCOD8182990
_publ_section_title
;
Structure prediction by ZEFSAII (Michael W. Deem and Ramdas Pophale) SiO2 
 PCOD8182990
Probable space group: A M A 2
;
_chemical_formula_sum "Si O2"
_cell_formula_units_Z 64
_cell_length_a 8.989780
_cell_length_b 13.374208
_cell_length_c 29.198328
_cell_angle_alpha 90.000000
_cell_angle_beta 90.000000
_cell_angle_gamma 90.000000
_cell_volume 3510.549651
_symmetry_space_group_name_H-M "A M A 2"
_symmetry_group_IT_number 40
_symmetry_cell_setting 'orthorhombic'
loop_
_space_group_symop_operation_xyz
x,y,z
-x,-y,z
1/2-x,y,z
1/2+x,-y,z
x,1/2+y,1/2+z
-x,1/2-y,1/2+z
1/2-x,1/2+y,1/2+z
1/2+x,1/2-y,1/2+z
loop_
_atom_site_type_symbol
_atom_site_label
_atom_site_fract_x
_atom_site_fract_y
_atom_site_fract_z
Si Si1 0.577259 0.097987 0.332470
Si Si2 0.427701 0.393472 0.998427
Si Si3 0.075176 0.238905 0.679618
Si Si4 0.081899 0.305008 0.094090
Si Si5 0.579232 0.299652 0.281103
Si Si6 0.423022 0.400057 0.361940
Si Si7 0.918128 0.899941 0.129749
Si Si8 0.074634 0.200723 0.414826
O O1 0.750000 0.078897 0.342879
O O2 0.553636 0.185504 0.295979
O O3 0.493994 0.121201 0.379871
O O4 0.500000 0.000000 0.311143
O O5 0.500000 0.500000 0.987725
O O6 0.250000 0.398431 0.994112
O O7 0.479882 0.357559 0.048685
O O8 0.493619 0.312731 0.963293
O O9 0.250000 0.254356 0.676155
O O10 0.030120 0.191027 0.728217
O O11 0.017876 0.165439 0.638617
O O12 0.998382 0.348498 0.673806
O O13 0.250000 0.340601 0.103704
O O14 0.076829 0.183119 0.088765
O O15 0.750000 0.330971 0.288200
O O16 0.480394 0.374027 0.311098
O O17 0.500000 0.500000 0.380641
O O18 0.250000 0.419748 0.358243
O O19 0.461570 0.312264 0.397483
O O20 0.750000 0.927281 0.143278
O O21 0.000000 0.000000 0.113367
O O22 0.250000 0.181769 0.419386
#
# Coordination Sequence:
#
# PCOD8182990 Si02
#       8
#     8   8   8   8   8   8   8   8
#     4  10  19  32  49  73 107 144 178 218 265 315
#     4  11  22  38  59  83 109 140 177 219 270 323
#     4   9  17  31  52  76 105 140 178 222 267 310
#     4   8  19  36  52  73 106 142 179 222 268 320
#     4   9  19  34  52  77 109 143 183 224 266 315
#     4  10  21  37  59  82 108 142 180 220 267 319
#     4   9  17  31  50  74 103 139 179 219 264 317
#     4  10  21  37  56  81 108 138 176 217 265 320
#
# _framework density 18.230761999999999
#
# number of rings (size 3 to 8) (size 9 to 14) (size 15 to 20)
#    0.750    1.750    0.000    2.250    0.000    4.500 
#    0.000    2.500    0.000    4.500    0.000    0.000 
#    0.000    0.000    0.000    0.000    0.000    0.000 
#
# Total GULP energy -396661.711720 kJ/mol
# GULP energy per Si atom -12395.678491 kJ/mol
# Density = 1.818927 g / cm^3
# Si number density = 18.230762 Si / 1000 Ang^3
#
#
#
# Elastic Constant Matrix: (Units=GPa)
#
#
# Indices 1 2 3 4 5 6 
#
# 1 104.9060 44.4967 53.6047 0.0000 0.0000 0.0000
# 2 44.4967 80.0098 35.4276 0.0000 0.0000 0.0000
# 3 53.6047 35.4276 120.6559 0.0000 0.0000 0.0000
# 4 0.0000 0.0000 0.0000 18.3023 0.0000 0.0000
# 5 0.0000 0.0000 0.0000 0.0000 29.6619 0.0000
# 6 0.0000 0.0000 0.0000 0.0000 0.0000 30.1193
#
#
#
# Elastic Compliance Matrix: (Units=1/GPa)
#
#
# Indices 1 2 3 4 5 6 
#
# 1 0.014449 -0.005969 -0.004667 0.000000 0.000000 0.000000
# 2 -0.005969 0.016832 -0.002290 0.000000 0.000000 0.000000
# 3 -0.004667 -0.002290 0.011034 0.000000 0.000000 0.000000
# 4 0.000000 0.000000 0.000000 0.054638 0.000000 0.000000
# 5 0.000000 0.000000 0.000000 0.000000 0.033713 0.000000
# 6 0.000000 0.000000 0.000000 0.000000 0.000000 0.033201
#
#
# Mechanical properties :
#
#
# Convention : Reuss Voigt Hill
#
# Bulk Modulus (GPa) = 60.74394 63.62554 62.18474
# Shear Modulus (GPa) = 25.61378 27.08621 26.35000
#
# Velocity S-wave (km/s) = 3.75237 3.85871 3.80591
# Velocity P-wave (km/s) = 7.22257 7.40464 7.31417
#
# Compressibility (1/GPa) = 0.01646255
#
# Stress axis : x y z
#
# Youngs Moduli (GPa) = 69.21022 59.40932 90.63063
#
# Poissons Ratio (x) = 0.35463 0.42293
# Poissons Ratio (y) = 0.41313 0.20758
# Poissons Ratio (z) = 0.32297 0.13607
#
# Static dielectric constant tensor:
#      x y z
#    x 3.409630 0.000000 0.000000 
#    y 0.000000 3.214380 0.000000 
#    z 0.000000 0.000000 3.251350 
# 
# 
# High freq. dielectric constant tensor:
#      x y z
#    x 1.719670 0.000000 0.000000 
#    y 0.000000 1.693910 0.000000 
#    z 0.000000 0.000000 1.689670 
# 
# From -- ./inp_files/26444.got.cif
#   From: 2010.03.12/outbox.cif.g09.slc.cpg/sg40_14_cif.got.tgz:26444.got - 2010.04.14 01:38:03.
