data_PCOD8182959
_publ_section_title
;
Structure prediction by ZEFSAII (Michael W. Deem and Ramdas Pophale) SiO2 
 PCOD8182959
Probable space group: A M A 2
;
_chemical_formula_sum "Si O2"
_cell_formula_units_Z 64
_cell_length_a 8.823467
_cell_length_b 23.417271
_cell_length_c 18.868483
_cell_angle_alpha 90.000000
_cell_angle_beta 90.000000
_cell_angle_gamma 90.000000
_cell_volume 3898.634598
_symmetry_space_group_name_H-M "A M A 2"
_symmetry_group_IT_number 40
_symmetry_cell_setting 'orthorhombic'
loop_
_space_group_symop_operation_xyz
x,y,z
-x,-y,z
1/2-x,y,z
1/2+x,-y,z
x,1/2+y,1/2+z
-x,1/2-y,1/2+z
1/2-x,1/2+y,1/2+z
1/2+x,1/2-y,1/2+z
loop_
_atom_site_type_symbol
_atom_site_label
_atom_site_fract_x
_atom_site_fract_y
_atom_site_fract_z
Si Si1 0.572837 0.332252 0.362830
Si Si2 0.929579 0.113204 0.636241
Si Si3 0.929079 0.228329 0.985531
Si Si4 0.926186 0.770380 0.282998
Si Si5 0.926336 0.440889 0.273909
Si Si6 0.925342 0.243508 0.626031
Si Si7 0.571469 0.668020 0.902867
Si Si8 0.572755 0.559695 0.989376
O O1 0.750000 0.317726 0.365407
O O2 0.500856 0.323908 0.440728
O O3 0.494270 0.289891 0.307227
O O4 0.541833 0.396420 0.337162
O O5 0.750000 0.110262 0.645031
O O6 0.984467 0.178735 0.634514
O O7 0.987306 0.082795 0.564652
O O8 0.004211 0.080381 0.700751
O O9 0.750000 0.225539 0.979211
O O10 0.978691 0.222954 0.067140
O O11 0.990022 0.287955 0.955249
O O12 0.750000 0.770991 0.303462
O O13 0.950333 0.777515 0.199208
O O14 0.010689 0.822423 0.323006
O O15 0.750000 0.450153 0.260967
O O16 0.000000 0.500000 0.298208
O O17 0.750000 0.242958 0.603126
O O18 0.750000 0.679309 0.907067
O O19 0.530068 0.604365 0.927549
O O20 0.500000 0.500000 0.968493
O O21 0.750000 0.550694 0.994419
#
# Coordination Sequence:
#
# PCOD8182959 Si02
#       8
#     8   8   8   8   8   8   8   8
#     4  10  20  34  50  70  98 131 166 205 250 295
#     4  10  19  34  50  68 100 137 170 204 242 288
#     4  11  21  31  50  75  98 127 166 206 246 294
#     4  10  19  31  51  75  97 127 164 203 248 292
#     4  11  23  35  50  72  98 134 174 209 247 291
#     4  10  19  33  51  72 103 135 161 198 249 299
#     4  10  19  34  50  68  98 132 163 202 253 295
#     4  10  21  34  49  68  94 133 171 203 243 282
#
# _framework density 16.416004000000001
#
# number of rings (size 3 to 8) (size 9 to 14) (size 15 to 20)
#    0.000    1.750    2.500    4.500    0.000    5.500 
#    0.000    0.000    0.000    0.000    0.000    0.875 
#    0.000    6.000    0.000    0.000    0.000    0.000 
#
# Total GULP energy -396854.092395 kJ/mol
# GULP energy per Si atom -12401.690387 kJ/mol
# Density = 1.637864 g / cm^3
# Si number density = 16.416004 Si / 1000 Ang^3
#
#
#
# Elastic Constant Matrix: (Units=GPa)
#
#
# Indices 1 2 3 4 5 6 
#
# 1 69.0890 35.1792 41.5833 0.0000 0.0000 0.0000
# 2 35.1792 95.6598 56.6065 0.0000 0.0000 0.0000
# 3 41.5833 56.6065 105.2104 0.0000 0.0000 0.0000
# 4 0.0000 0.0000 0.0000 21.2502 0.0000 0.0000
# 5 0.0000 0.0000 0.0000 0.0000 26.2461 0.0000
# 6 0.0000 0.0000 0.0000 0.0000 0.0000 21.3004
#
#
#
# Elastic Compliance Matrix: (Units=1/GPa)
#
#
# Indices 1 2 3 4 5 6 
#
# 1 0.019945 -0.003917 -0.005775 0.000000 0.000000 0.000000
# 2 -0.003917 0.016106 -0.007117 0.000000 0.000000 0.000000
# 3 -0.005775 -0.007117 0.015617 0.000000 0.000000 0.000000
# 4 0.000000 0.000000 0.000000 0.047058 0.000000 0.000000
# 5 0.000000 0.000000 0.000000 0.000000 0.038101 0.000000
# 6 0.000000 0.000000 0.000000 0.000000 0.000000 0.046948
#
#
# Mechanical properties :
#
#
# Convention : Reuss Voigt Hill
#
# Bulk Modulus (GPa) = 55.40860 59.63301 57.52081
# Shear Modulus (GPa) = 22.38043 22.86537 22.62290
#
# Velocity S-wave (km/s) = 3.69634 3.73617 3.71630
# Velocity P-wave (km/s) = 7.21410 7.41734 7.31643
#
# Compressibility (1/GPa) = 0.01804774
#
# Stress axis : x y z
#
# Youngs Moduli (GPa) = 50.13860 62.08910 64.03392
#
# Poissons Ratio (x) = 0.24321 0.36982
# Poissons Ratio (y) = 0.19640 0.45575
# Poissons Ratio (z) = 0.28957 0.44190
#
# Static dielectric constant tensor:
#      x y z
#    x 3.166910 0.000000 0.000000 
#    y 0.000000 3.089940 0.000000 
#    z 0.000000 0.000000 3.196780 
# 
# 
# High freq. dielectric constant tensor:
#      x y z
#    x 1.643200 0.000000 0.000000 
#    y 0.000000 1.606130 0.000000 
#    z 0.000000 0.000000 1.628370 
# 
# From -- ./inp_files/19728.got.cif
#   From: 2010.03.12/outbox.cif.g09.slc.cpg/sg40_10_cif.got.tgz:19728.got - 2010.04.14 01:38:03.
