data_PCOD8182528
_publ_section_title
;
Structure prediction by ZEFSAII (Michael W. Deem and Ramdas Pophale) SiO2 
 PCOD8182528
Probable space group: A M A 2
;
_chemical_formula_sum "Si O2"
_cell_formula_units_Z 64
_cell_length_a 9.074759
_cell_length_b 18.329881
_cell_length_c 26.412619
_cell_angle_alpha 90.000000
_cell_angle_beta 90.000000
_cell_angle_gamma 90.000000
_cell_volume 4393.455303
_symmetry_space_group_name_H-M "A M A 2"
_symmetry_group_IT_number 40
_symmetry_cell_setting 'orthorhombic'
loop_
_space_group_symop_operation_xyz
x,y,z
-x,-y,z
1/2-x,y,z
1/2+x,-y,z
x,1/2+y,1/2+z
-x,1/2-y,1/2+z
1/2-x,1/2+y,1/2+z
1/2+x,1/2-y,1/2+z
loop_
_atom_site_type_symbol
_atom_site_label
_atom_site_fract_x
_atom_site_fract_y
_atom_site_fract_z
Si Si1 0.417462 0.574085 0.313570
Si Si2 0.923863 0.924778 0.295935
Si Si3 0.576277 0.924158 0.115623
Si Si4 0.079412 0.847156 0.201962
Si Si5 0.578144 0.925789 0.000354
Si Si6 0.423093 0.669689 0.408808
Si Si7 0.418400 0.213108 0.355098
Si Si8 0.915859 0.283032 0.266361
O O1 0.500000 0.500000 0.301515
O O2 0.250000 0.551606 0.322405
O O3 0.476633 0.615124 0.364050
O O4 0.435942 0.628944 0.264961
O O5 0.750000 0.933911 0.284138
O O6 0.948250 0.872714 0.345103
O O7 0.004343 0.893768 0.246333
O O8 0.000000 0.000000 0.311229
O O9 0.750000 0.930643 0.125228
O O10 0.506265 0.860779 0.149762
O O11 0.539296 0.903375 0.057713
O O12 0.500000 0.000000 0.130921
O O13 0.250000 0.870899 0.197105
O O14 0.066411 0.759698 0.213105
O O15 0.750000 0.940223 0.993622
O O16 0.500000 0.000000 0.984232
O O17 0.523788 0.861919 0.962806
O O18 0.250000 0.679233 0.407084
O O19 0.490735 0.750790 0.401308
O O20 0.250000 0.228384 0.367407
O O21 0.460671 0.252381 0.303164
O O22 0.750000 0.266932 0.288012
#
# Coordination Sequence:
#
# PCOD8182528 Si02
#       8
#     8   8   8   8   8   8   8   8
#     4   9  16  25  38  57  79 102 129 159 189 226
#     4  10  19  29  41  59  82 106 134 165 197 235
#     4  10  19  30  42  58  81 106 135 170 203 234
#     4  10  18  29  44  58  76 106 139 167 200 238
#     4   9  18  30  43  59  80 107 137 169 201 233
#     4   9  17  29  42  56  78 108 137 161 193 235
#     4   9  17  27  40  59  79 100 130 166 197 228
#     4   8  16  29  41  54  76 105 133 161 194 235
#
# _framework density 14.567121
#
# number of rings (size 3 to 8) (size 9 to 14) (size 15 to 20)
#    0.000    2.750    0.000    3.000    0.000    5.000 
#    0.000    0.000    0.000    0.000    0.000    0.000 
#    0.000    1.000    0.000    4.500    0.000    4.000 
#
# Total GULP energy -396527.262057 kJ/mol
# GULP energy per Si atom -12391.476939 kJ/mol
# Density = 1.453397 g / cm^3
# Si number density = 14.567121 Si / 1000 Ang^3
#
#
#
# Elastic Constant Matrix: (Units=GPa)
#
#
# Indices 1 2 3 4 5 6 
#
# 1 63.6968 45.3704 35.1238 0.0000 0.0000 0.0000
# 2 45.3704 98.7531 50.6224 0.0000 0.0000 0.0000
# 3 35.1238 50.6224 77.1972 0.0000 0.0000 0.0000
# 4 0.0000 0.0000 0.0000 26.0311 0.0000 0.0000
# 5 0.0000 0.0000 0.0000 0.0000 17.7811 0.0000
# 6 0.0000 0.0000 0.0000 0.0000 0.0000 25.1799
#
#
#
# Elastic Compliance Matrix: (Units=1/GPa)
#
#
# Indices 1 2 3 4 5 6 
#
# 1 0.024935 -0.008496 -0.005774 0.000000 0.000000 0.000000
# 2 -0.008496 0.018149 -0.008036 0.000000 0.000000 0.000000
# 3 -0.005774 -0.008036 0.020850 0.000000 0.000000 0.000000
# 4 0.000000 0.000000 0.000000 0.038416 0.000000 0.000000
# 5 0.000000 0.000000 0.000000 0.000000 0.056240 0.000000
# 6 0.000000 0.000000 0.000000 0.000000 0.000000 0.039714
#
#
# Mechanical properties :
#
#
# Convention : Reuss Voigt Hill
#
# Bulk Modulus (GPa) = 51.75162 55.76448 53.75805
# Shear Modulus (GPa) = 20.05175 21.03378 20.54277
#
# Velocity S-wave (km/s) = 3.71416 3.80402 3.75936
# Velocity P-wave (km/s) = 7.34825 7.59330 7.47178
#
# Compressibility (1/GPa) = 0.01932306
#
# Stress axis : x y z
#
# Youngs Moduli (GPa) = 40.10459 55.09997 47.96139
#
# Poissons Ratio (x) = 0.46814 0.27691
# Poissons Ratio (y) = 0.34074 0.38539
# Poissons Ratio (z) = 0.23155 0.44276
#
# Static dielectric constant tensor:
#      x y z
#    x 2.923640 0.000000 0.000000 
#    y 0.000000 2.960650 0.000000 
#    z 0.000000 0.000000 2.757520 
# 
# 
# High freq. dielectric constant tensor:
#      x y z
#    x 1.569800 0.000000 0.000000 
#    y 0.000000 1.545270 0.000000 
#    z 0.000000 0.000000 1.521860 
# 
# From -- ./inp_files/25521.got.cif
#   From: 2010.03.12/outbox.cif.g09.slc.cpg/sg40_13_cif.got.tgz:25521.got - 2010.04.14 01:38:03.
