data_PCOD8182935
_publ_section_title
;
Structure prediction by ZEFSAII (Michael W. Deem and Ramdas Pophale) SiO2 
 PCOD8182935
Probable space group: A M A 2
;
_chemical_formula_sum "Si O2"
_cell_formula_units_Z 48
_cell_length_a 8.811976
_cell_length_b 13.765838
_cell_length_c 23.689291
_cell_angle_alpha 90.000000
_cell_angle_beta 90.000000
_cell_angle_gamma 90.000000
_cell_volume 2873.611301
_symmetry_space_group_name_H-M "A M A 2"
_symmetry_group_IT_number 40
_symmetry_cell_setting 'orthorhombic'
loop_
_space_group_symop_operation_xyz
x,y,z
-x,-y,z
1/2-x,y,z
1/2+x,-y,z
x,1/2+y,1/2+z
-x,1/2-y,1/2+z
1/2-x,1/2+y,1/2+z
1/2+x,1/2-y,1/2+z
loop_
_atom_site_type_symbol
_atom_site_label
_atom_site_fract_x
_atom_site_fract_y
_atom_site_fract_z
Si Si1 0.927707 0.793245 0.557230
Si Si2 0.430135 0.603153 0.820581
Si Si3 0.930225 0.720296 0.723456
Si Si4 0.425978 0.398837 0.615673
Si Si5 0.073635 0.099407 0.447636
Si Si6 0.569702 0.103980 0.660516
O O1 0.750000 0.810237 0.570686
O O2 0.971711 0.681281 0.568728
O O3 0.968599 0.816201 0.492180
O O4 0.021804 0.864073 0.597691
O O5 0.500000 0.500000 0.802377
O O6 0.250000 0.599516 0.812284
O O7 0.502124 0.687761 0.783093
O O8 0.479654 0.628623 0.884787
O O9 0.750000 0.732670 0.726887
O O10 0.977683 0.639870 0.676942
O O11 0.004169 0.822543 0.707150
O O12 0.500000 0.500000 0.599480
O O13 0.250000 0.418664 0.615657
O O14 0.250000 0.078859 0.446756
O O15 0.000000 0.000000 0.468632
O O16 0.750000 0.100124 0.664695
O O17 0.500000 0.000000 0.674718
#
# Coordination Sequence:
#
# PCOD8182935 Si02
#       6
#     8   8   8   8   8   8
#     4   9  18  33  49  69  97 129 162 199 240 284
#     4  10  19  31  48  72  98 128 162 199 243 290
#     4  10  20  34  50  70  96 127 160 198 241 288
#     4   9  18  30  46  67  93 122 154 191 234 280
#     4   9  18  31  48  69  96 127 160 197 240 286
#     4  11  21  33  50  73  99 127 158 196 240 290
#
# _framework density 16.703721000000002
#
# number of rings (size 3 to 8) (size 9 to 14) (size 15 to 20)
#    0.000    2.333    0.000    4.500    0.000    7.333 
#    0.000    0.000    0.000    1.000    0.000    2.333 
#    0.000    0.000    0.000    0.000    0.000    0.000 
#
# Total GULP energy -297596.517339 kJ/mol
# GULP energy per Si atom -12399.854889 kJ/mol
# Density = 1.666570 g / cm^3
# Si number density = 16.703721 Si / 1000 Ang^3
#
#
#
# Elastic Constant Matrix: (Units=GPa)
#
#
# Indices 1 2 3 4 5 6 
#
# 1 76.2214 51.7387 40.7427 0.0000 0.0000 0.0000
# 2 51.7387 137.6487 71.9211 0.0000 0.0000 0.0000
# 3 40.7427 71.9211 110.2294 0.0000 0.0000 0.0000
# 4 0.0000 0.0000 0.0000 23.2117 0.0000 0.0000
# 5 0.0000 0.0000 0.0000 0.0000 45.7512 0.0000
# 6 0.0000 0.0000 0.0000 0.0000 0.0000 31.1766
#
#
#
# Elastic Compliance Matrix: (Units=1/GPa)
#
#
# Indices 1 2 3 4 5 6 
#
# 1 0.018455 -0.005117 -0.003482 0.000000 0.000000 0.000000
# 2 -0.005117 0.012441 -0.006226 0.000000 0.000000 0.000000
# 3 -0.003482 -0.006226 0.014422 0.000000 0.000000 0.000000
# 4 0.000000 0.000000 0.000000 0.043082 0.000000 0.000000
# 5 0.000000 0.000000 0.000000 0.000000 0.021857 0.000000
# 6 0.000000 0.000000 0.000000 0.000000 0.000000 0.032075
#
#
# Mechanical properties :
#
#
# Convention : Reuss Voigt Hill
#
# Bulk Modulus (GPa) = 63.83207 72.54493 68.18850
# Shear Modulus (GPa) = 28.21583 30.67438 29.44511
#
# Velocity S-wave (km/s) = 4.11444 4.28995 4.20311
# Velocity P-wave (km/s) = 7.80184 8.25002 8.02906
#
# Compressibility (1/GPa) = 0.01566611
#
# Stress axis : x y z
#
# Youngs Moduli (GPa) = 54.18716 80.37635 69.34038
#
# Poissons Ratio (x) = 0.41129 0.24147
# Poissons Ratio (y) = 0.27728 0.43173
# Poissons Ratio (z) = 0.18870 0.50045
#
# Static dielectric constant tensor:
#      x y z
#    x 3.135340 0.000000 0.000000 
#    y 0.000000 3.339430 0.000000 
#    z 0.000000 0.000000 3.253110 
# 
# 
# High freq. dielectric constant tensor:
#      x y z
#    x 1.651550 0.000000 0.000000 
#    y 0.000000 1.634730 0.000000 
#    z 0.000000 0.000000 1.635090 
# 
# From -- ./inp_files/21995.got.cif
#   From: 2010.03.12/outbox.cif.g09.slc.cpg/sg40_11_cif.got.tgz:21995.got - 2010.04.14 01:38:03.
