data_PCOD8182623
_publ_section_title
;
Structure prediction by ZEFSAII (Michael W. Deem and Ramdas Pophale) SiO2 
 PCOD8182623
Probable space group: A M A 2
;
_chemical_formula_sum "Si O2"
_cell_formula_units_Z 64
_cell_length_a 8.684917
_cell_length_b 25.052211
_cell_length_c 15.338091
_cell_angle_alpha 90.000000
_cell_angle_beta 90.000000
_cell_angle_gamma 90.000000
_cell_volume 3337.206212
_symmetry_space_group_name_H-M "A M A 2"
_symmetry_group_IT_number 40
_symmetry_cell_setting 'orthorhombic'
loop_
_space_group_symop_operation_xyz
x,y,z
-x,-y,z
1/2-x,y,z
1/2+x,-y,z
x,1/2+y,1/2+z
-x,1/2-y,1/2+z
1/2-x,1/2+y,1/2+z
1/2+x,1/2-y,1/2+z
loop_
_atom_site_type_symbol
_atom_site_label
_atom_site_fract_x
_atom_site_fract_y
_atom_site_fract_z
Si Si1 0.071001 0.241960 0.224590
Si Si2 0.071626 0.163520 0.941705
Si Si3 0.432344 0.556755 0.121755
Si Si4 0.933489 0.360664 0.626086
Si Si5 0.933510 0.941713 0.271942
Si Si6 0.074633 0.780551 0.401398
Si Si7 0.932487 0.852237 0.750342
Si Si8 0.071139 0.396751 0.949001
O O1 0.250000 0.253222 0.211506
O O2 0.008169 0.196822 0.159348
O O3 0.042240 0.219338 0.321161
O O4 0.982431 0.296927 0.205830
O O5 0.250000 0.149701 0.936187
O O6 0.046694 0.227037 0.957543
O O7 0.997588 0.144694 0.849334
O O8 0.002705 0.132722 0.026457
O O9 0.500000 0.500000 0.148886
O O10 0.250000 0.553954 0.122607
O O11 0.495958 0.598891 0.192935
O O12 0.485830 0.572785 0.025843
O O13 0.750000 0.360494 0.627013
O O14 0.992762 0.407888 0.688420
O O15 0.750000 0.943100 0.278791
O O16 0.000837 0.915396 0.358224
O O17 0.000000 0.000000 0.258584
O O18 0.250000 0.780844 0.365067
O O19 0.045447 0.833040 0.460019
O O20 0.750000 0.853186 0.753681
O O21 0.250000 0.412352 0.951928
#
# Coordination Sequence:
#
# PCOD8182623 Si02
#       8
#     8   8   8   8   8   8   8   8
#     4  10  18  30  53  83 114 145 182 225 271 325
#     4   8  15  32  55  79 109 145 183 218 266 330
#     4  11  24  41  59  81 110 146 191 240 288 337
#     4   9  18  31  53  82 111 143 182 228 271 322
#     4  11  22  38  56  79 112 150 189 231 279 331
#     4   9  18  32  53  79 112 148 184 219 267 332
#     4   9  20  38  58  80 110 148 186 231 282 333
#     4  11  22  36  57  85 113 148 186 229 282 337
#
# _framework density 19.177717999999999
#
# number of rings (size 3 to 8) (size 9 to 14) (size 15 to 20)
#    0.000    2.250    1.250    2.625    1.750    1.500 
#    0.000    0.625    0.000    6.750    0.000    0.000 
#    0.000    0.000    0.000    0.000    0.000    0.000 
#
# Total GULP energy -396664.919157 kJ/mol
# GULP energy per Si atom -12395.778724 kJ/mol
# Density = 1.913407 g / cm^3
# Si number density = 19.177718 Si / 1000 Ang^3
#
#
#
# Elastic Constant Matrix: (Units=GPa)
#
#
# Indices 1 2 3 4 5 6 
#
# 1 36.2386 23.1275 19.2317 0.0000 0.0000 0.0000
# 2 23.1275 128.4310 64.2683 0.0000 0.0000 0.0000
# 3 19.2317 64.2683 111.7187 0.0000 0.0000 0.0000
# 4 0.0000 0.0000 0.0000 32.0341 0.0000 0.0000
# 5 0.0000 0.0000 0.0000 0.0000 15.8185 0.0000
# 6 0.0000 0.0000 0.0000 0.0000 0.0000 25.3521
#
#
#
# Elastic Compliance Matrix: (Units=1/GPa)
#
#
# Indices 1 2 3 4 5 6 
#
# 1 0.031912 -0.004209 -0.003072 0.000000 0.000000 0.000000
# 2 -0.004209 0.011489 -0.005885 0.000000 0.000000 0.000000
# 3 -0.003072 -0.005885 0.012865 0.000000 0.000000 0.000000
# 4 0.000000 0.000000 0.000000 0.031217 0.000000 0.000000
# 5 0.000000 0.000000 0.000000 0.000000 0.063217 0.000000
# 6 0.000000 0.000000 0.000000 0.000000 0.000000 0.039444
#
#
# Mechanical properties :
#
#
# Convention : Reuss Voigt Hill
#
# Bulk Modulus (GPa) = 33.40693 54.40482 43.90588
# Shear Modulus (GPa) = 22.07955 25.95831 24.01893
#
# Velocity S-wave (km/s) = 3.39678 3.68308 3.54282
# Velocity P-wave (km/s) = 5.73076 6.82034 6.29916
#
# Compressibility (1/GPa) = 0.02993391
#
# Stress axis : x y z
#
# Youngs Moduli (GPa) = 31.33664 87.03936 77.72945
#
# Poissons Ratio (x) = 0.36638 0.23878
# Poissons Ratio (y) = 0.13191 0.45741
# Poissons Ratio (z) = 0.09626 0.51220
#
# Static dielectric constant tensor:
#      x y z
#    x 3.298040 0.000000 0.000000 
#    y 0.000000 3.680320 0.000000 
#    z 0.000000 0.000000 3.805600 
# 
# 
# High freq. dielectric constant tensor:
#      x y z
#    x 1.723140 0.000000 0.000000 
#    y 0.000000 1.744950 0.000000 
#    z 0.000000 0.000000 1.746890 
# 
# From -- ./inp_files/15701.got.cif
#   From: 2010.03.12/outbox.cif.g09.slc.cpg/sg40_8_cif.got.tgz:15701.got - 2010.04.14 01:38:03.
