data_PCOD8182160
_publ_section_title
;
Structure prediction by ZEFSAII (Michael W. Deem and Ramdas Pophale) SiO2 
 PCOD8182160
Probable space group: A B M 2
;
_chemical_formula_sum "Si O2"
_cell_formula_units_Z 64
_cell_length_a 23.458807
_cell_length_b 8.498181
_cell_length_c 15.252685
_cell_angle_alpha 90.000000
_cell_angle_beta 90.000000
_cell_angle_gamma 90.000000
_cell_volume 3040.732390
_symmetry_space_group_name_H-M "A B M 2"
_symmetry_group_IT_number 39
_symmetry_cell_setting 'orthorhombic'
loop_
_space_group_symop_operation_xyz
x,y,z
-x,-y,z
-x,1/2+y,z
x,1/2-y,z
x,1/2+y,1/2+z
-x,1/2-y,1/2+z
-x,y,1/2+z
x,-y,1/2+z
loop_
_atom_site_type_symbol
_atom_site_label
_atom_site_fract_x
_atom_site_fract_y
_atom_site_fract_z
Si Si1 0.255885 0.071276 0.814890
Si Si2 0.127475 0.564995 0.576053
Si Si3 0.758786 0.567921 0.501795
Si Si4 0.645747 0.565672 0.064805
Si Si5 0.061015 0.564653 0.917558
Si Si6 0.130778 0.432977 0.759606
Si Si7 0.437777 0.567656 0.414707
Si Si8 0.371173 0.929304 0.760177
O O1 0.277710 0.250000 0.806480
O O2 0.198964 0.044618 0.758735
O O3 0.242899 0.039203 0.916075
O O4 0.304710 0.957428 0.779512
O O5 0.139497 0.750000 0.574513
O O6 0.184732 0.470003 0.555669
O O7 0.078518 0.522028 0.507019
O O8 0.105687 0.509896 0.671456
O O9 0.759144 0.750000 0.474878
O O10 0.704491 0.530526 0.562289
O O11 0.659056 0.750000 0.051868
O O12 0.616158 0.533820 0.158491
O O13 0.604360 0.498223 0.989005
O O14 0.059277 0.750000 0.933740
O O15 0.106138 0.525864 0.842199
O O16 0.000000 0.500000 0.887496
O O17 0.113664 0.250000 0.766146
O O18 0.500000 0.500000 0.426278
O O19 0.443050 0.750000 0.430365
O O20 0.412581 0.535353 0.318627
O O21 0.385431 0.750000 0.783262
#
# Coordination Sequence:
#
# PCOD8182160 Si02
#       8
#     8   8   8   8   8   8   8   8
#     4  11  22  38  63  94 132 170 207 257 319 380
#     4  12  25  43  67  97 134 173 215 267 323 382
#     4  12  23  37  64  97 130 169 213 259 316 384
#     4  10  23  42  64  92 129 166 205 257 318 378
#     4  12  26  46  70  96 129 170 219 270 324 383
#     4  11  24  43  68  99 133 171 216 264 321 386
#     4  11  24  43  65  88 122 165 210 264 317 371
#     4  11  23  40  64  95 127 164 209 257 313 377
#
# _framework density 21.047561000000002
#
# number of rings (size 3 to 8) (size 9 to 14) (size 15 to 20)
#    0.000    0.750    2.500    5.625    0.000    6.000 
#    0.000    3.750    0.000    0.000    0.000    0.000 
#    0.000    0.000    0.000    0.000    0.000    0.000 
#
# Total GULP energy -397047.796775 kJ/mol
# GULP energy per Si atom -12407.743649 kJ/mol
# Density = 2.099966 g / cm^3
# Si number density = 21.047561 Si / 1000 Ang^3
#
#
#
# Elastic Constant Matrix: (Units=GPa)
#
#
# Indices 1 2 3 4 5 6 
#
# 1 79.9216 25.7015 7.1683 0.0000 0.0000 0.0000
# 2 25.7015 67.7217 21.7662 0.0000 0.0000 0.0000
# 3 7.1683 21.7662 106.3923 0.0000 0.0000 0.0000
# 4 0.0000 0.0000 0.0000 32.9001 0.0000 0.0000
# 5 0.0000 0.0000 0.0000 0.0000 13.0529 0.0000
# 6 0.0000 0.0000 0.0000 0.0000 0.0000 36.4259
#
#
#
# Elastic Compliance Matrix: (Units=1/GPa)
#
#
# Indices 1 2 3 4 5 6 
#
# 1 0.014254 -0.005460 0.000157 0.000000 0.000000 0.000000
# 2 -0.005460 0.017897 -0.003294 0.000000 0.000000 0.000000
# 3 0.000157 -0.003294 0.010062 0.000000 0.000000 0.000000
# 4 0.000000 0.000000 0.000000 0.030395 0.000000 0.000000
# 5 0.000000 0.000000 0.000000 0.000000 0.076611 0.000000
# 6 0.000000 0.000000 0.000000 0.000000 0.000000 0.027453
#
#
# Mechanical properties :
#
#
# Convention : Reuss Voigt Hill
#
# Bulk Modulus (GPa) = 39.96853 40.36751 40.16802
# Shear Modulus (GPa) = 24.72720 29.76910 27.24815
#
# Velocity S-wave (km/s) = 3.43129 3.76489 3.60196
# Velocity P-wave (km/s) = 5.89315 6.17414 6.03528
#
# Compressibility (1/GPa) = 0.02501969
#
# Stress axis : x y z
#
# Youngs Moduli (GPa) = 70.15551 55.87512 99.37950
#
# Poissons Ratio (x) = 0.30508 -0.01557
# Poissons Ratio (y) = 0.38305 0.32731
# Poissons Ratio (z) = -0.01099 0.18403
#
# Static dielectric constant tensor:
#      x y z
#    x 3.874750 0.000000 0.000000 
#    y 0.000000 3.800820 0.000000 
#    z 0.000000 0.000000 3.936180 
# 
# 
# High freq. dielectric constant tensor:
#      x y z
#    x 1.817660 0.000000 0.000000 
#    y 0.000000 1.832850 0.000000 
#    z 0.000000 0.000000 1.836980 
# 
# From -- ./inp_files/10691.got.cif
#   From: 2010.03.12/outbox.cif.g09.slc.cpg/sg39_6_cif.got.tgz:10691.got - 2010.04.14 02:53:20.
