data_PCOD8182910
_publ_section_title
;
Structure prediction by ZEFSAII (Michael W. Deem and Ramdas Pophale) SiO2 
 PCOD8182910
Probable space group: A M A 2
;
_chemical_formula_sum "Si O2"
_cell_formula_units_Z 48
_cell_length_a 8.771169
_cell_length_b 13.835349
_cell_length_c 23.891215
_cell_angle_alpha 90.000000
_cell_angle_beta 90.000000
_cell_angle_gamma 90.000000
_cell_volume 2899.251125
_symmetry_space_group_name_H-M "A M A 2"
_symmetry_group_IT_number 40
_symmetry_cell_setting 'orthorhombic'
loop_
_space_group_symop_operation_xyz
x,y,z
-x,-y,z
1/2-x,y,z
1/2+x,-y,z
x,1/2+y,1/2+z
-x,1/2-y,1/2+z
1/2-x,1/2+y,1/2+z
1/2+x,1/2-y,1/2+z
loop_
_atom_site_type_symbol
_atom_site_label
_atom_site_fract_x
_atom_site_fract_y
_atom_site_fract_z
Si Si1 0.068950 0.602117 0.037180
Si Si2 0.931045 0.103586 0.991516
Si Si3 0.572017 0.600630 0.830819
Si Si4 0.430879 0.397814 0.706230
Si Si5 0.070100 0.287484 0.600585
Si Si6 0.429914 0.283052 0.937561
O O1 0.250000 0.595060 0.030690
O O2 0.019926 0.678310 0.085588
O O3 0.000000 0.500000 0.055164
O O4 0.999644 0.636434 0.978511
O O5 0.750000 0.099448 0.987460
O O6 0.988857 0.139160 0.052501
O O7 0.000000 0.000000 0.977673
O O8 0.992827 0.179045 0.945645
O O9 0.500000 0.500000 0.850261
O O10 0.750000 0.581645 0.829427
O O11 0.514488 0.631782 0.768695
O O12 0.529949 0.684694 0.874359
O O13 0.500000 0.500000 0.688643
O O14 0.250000 0.405707 0.702864
O O15 0.493643 0.319017 0.661397
O O16 0.250000 0.293320 0.600775
O O17 0.250000 0.276113 0.947985
#
# Coordination Sequence:
#
# PCOD8182910 Si02
#       6
#     8   8   8   8   8   8
#     4  10  19  31  46  67  91 119 151 186 226 269
#     4  10  19  31  47  69  93 120 150 184 223 266
#     4   9  18  29  45  67  91 118 149 181 220 264
#     4   9  16  29  46  66  90 117 145 179 219 263
#     4   8  16  29  46  66  90 117 147 180 220 264
#     4  10  19  31  46  67  92 121 152 184 221 266
#
# _framework density 16.555999
#
# number of rings (size 3 to 8) (size 9 to 14) (size 15 to 20)
#    0.000    2.667    0.000    3.500    0.000    2.667 
#    0.000    4.167    0.000    1.000    0.000    2.333 
#    0.000    0.000    0.000    0.000    0.000    0.000 
#
# Total GULP energy -297515.506322 kJ/mol
# GULP energy per Si atom -12396.479430 kJ/mol
# Density = 1.651832 g / cm^3
# Si number density = 16.555999 Si / 1000 Ang^3
#
#
#
# Elastic Constant Matrix: (Units=GPa)
#
#
# Indices 1 2 3 4 5 6 
#
# 1 54.9612 40.1333 34.7457 0.0000 0.0000 0.0000
# 2 40.1333 143.3949 77.9964 0.0000 0.0000 0.0000
# 3 34.7457 77.9964 118.6760 0.0000 0.0000 0.0000
# 4 0.0000 0.0000 0.0000 22.4320 0.0000 0.0000
# 5 0.0000 0.0000 0.0000 0.0000 16.9363 0.0000
# 6 0.0000 0.0000 0.0000 0.0000 0.0000 29.4665
#
#
#
# Elastic Compliance Matrix: (Units=1/GPa)
#
#
# Indices 1 2 3 4 5 6 
#
# 1 0.024073 -0.004520 -0.004078 0.000000 0.000000 0.000000
# 2 -0.004520 0.011702 -0.006368 0.000000 0.000000 0.000000
# 3 -0.004078 -0.006368 0.013805 0.000000 0.000000 0.000000
# 4 0.000000 0.000000 0.000000 0.044579 0.000000 0.000000
# 5 0.000000 0.000000 0.000000 0.000000 0.059045 0.000000
# 6 0.000000 0.000000 0.000000 0.000000 0.000000 0.033937
#
#
# Mechanical properties :
#
#
# Convention : Reuss Voigt Hill
#
# Bulk Modulus (GPa) = 50.88981 69.19810 60.04395
# Shear Modulus (GPa) = 22.35927 24.71073 23.53500
#
# Velocity S-wave (km/s) = 3.67893 3.86755 3.77442
# Velocity P-wave (km/s) = 6.98933 7.86327 7.43915
#
# Compressibility (1/GPa) = 0.01965030
#
# Stress axis : x y z
#
# Youngs Moduli (GPa) = 41.54091 85.45343 72.43660
#
# Poissons Ratio (x) = 0.38621 0.29537
# Poissons Ratio (y) = 0.18775 0.46126
# Poissons Ratio (z) = 0.16939 0.54415
#
# Static dielectric constant tensor:
#      x y z
#    x 3.057440 0.000000 0.000000 
#    y 0.000000 3.101350 0.000000 
#    z 0.000000 0.000000 3.454630 
# 
# 
# High freq. dielectric constant tensor:
#      x y z
#    x 1.634520 0.000000 0.000000 
#    y 0.000000 1.629010 0.000000 
#    z 0.000000 0.000000 1.630220 
# 
# From -- ./inp_files/21996.got.cif
#   From: 2010.03.12/outbox.cif.g09.slc.cpg/sg40_11_cif.got.tgz:21996.got - 2010.04.14 01:38:03.
