data_PCOD8182735
_publ_section_title
;
Structure prediction by ZEFSAII (Michael W. Deem and Ramdas Pophale) SiO2 
 PCOD8182735
Probable space group: A M A 2
;
_chemical_formula_sum "Si O2"
_cell_formula_units_Z 32
_cell_length_a 14.115422
_cell_length_b 15.767787
_cell_length_c 8.169761
_cell_angle_alpha 90.000000
_cell_angle_beta 90.000000
_cell_angle_gamma 90.000000
_cell_volume 1818.335271
_symmetry_space_group_name_H-M "A M A 2"
_symmetry_group_IT_number 40
_symmetry_cell_setting 'orthorhombic'
loop_
_space_group_symop_operation_xyz
x,y,z
-x,-y,z
1/2-x,y,z
1/2+x,-y,z
x,1/2+y,1/2+z
-x,1/2-y,1/2+z
1/2-x,1/2+y,1/2+z
1/2+x,1/2-y,1/2+z
loop_
_atom_site_type_symbol
_atom_site_label
_atom_site_fract_x
_atom_site_fract_y
_atom_site_fract_z
Si Si1 0.750000 0.907712 0.485970
Si Si2 0.096256 0.806540 0.188676
Si Si3 0.250000 0.676721 0.298646
Si Si4 0.401796 0.720777 0.857536
Si Si5 0.250000 0.261410 0.105919
Si Si6 0.750000 0.092764 0.337521
O O1 0.750000 0.909089 0.687705
O O2 0.656943 0.858989 0.424570
O O3 0.750000 0.000555 0.413714
O O4 0.155238 0.726491 0.250695
O O5 0.156959 0.892110 0.224194
O O6 0.999214 0.814782 0.287187
O O7 0.078420 0.792270 0.995496
O O8 0.250000 0.672397 0.497674
O O9 0.343895 0.767118 0.714407
O O10 0.250000 0.340834 0.985824
#
# Coordination Sequence:
#
# PCOD8182735 Si02
#       6
#     4   8   4   8   4   4
#     4   9  20  33  50  74 104 133 160 201 260 307
#     4   9  17  30  52  74  97 130 171 206 243 298
#     4   8  16  31  48  73  98 127 166 202 242 296
#     4  10  18  33  54  74  96 131 173 210 246 298
#     4   9  17  31  52  74  96 129 171 211 248 295
#     4  10  19  33  50  75 104 131 161 206 260 306
#
# _framework density 17.598514999999999
#
# number of rings (size 3 to 8) (size 9 to 14) (size 15 to 20)
#    0.000    3.000    0.000    5.250    0.000    1.000 
#    0.000    5.000    0.000    6.000    0.000    0.000 
#    0.000    0.000    0.000    0.000    0.000    0.000 
#
# Total GULP energy -198216.379822 kJ/mol
# GULP energy per Si atom -12388.523739 kJ/mol
# Density = 1.755846 g / cm^3
# Si number density = 17.598515 Si / 1000 Ang^3
#
#
#
# Elastic Constant Matrix: (Units=GPa)
#
#
# Indices 1 2 3 4 5 6 
#
# 1 132.5153 25.6906 47.5228 0.0000 0.0000 0.0000
# 2 25.6906 88.5611 44.5443 0.0000 0.0000 0.0000
# 3 47.5228 44.5443 136.4778 0.0000 0.0000 0.0000
# 4 0.0000 0.0000 0.0000 26.0481 0.0000 0.0000
# 5 0.0000 0.0000 0.0000 0.0000 25.0431 0.0000
# 6 0.0000 0.0000 0.0000 0.0000 0.0000 -7.4726
#
#
#
# Elastic Compliance Matrix: (Units=1/GPa)
#
#
# Indices 1 2 3 4 5 6 
#
# 1 0.008728 -0.001200 -0.002648 0.000000 0.000000 0.000000
# 2 -0.001200 0.013674 -0.004045 0.000000 0.000000 0.000000
# 3 -0.002648 -0.004045 0.009569 0.000000 0.000000 0.000000
# 4 0.000000 0.000000 0.000000 0.038391 0.000000 0.000000
# 5 0.000000 0.000000 0.000000 0.000000 0.039931 0.000000
# 6 0.000000 0.000000 0.000000 0.000000 0.000000 -0.133822
#
#
# Mechanical properties :
#
#
# Convention : Reuss Voigt Hill
#
# Bulk Modulus (GPa) = 61.78116 65.89662 63.83889
# Shear Modulus (GPa) = -2130.80984 24.71015 -1053.04985
#
# Velocity S-wave (km/s) = -34.83415 3.75120 -24.48823
# Velocity P-wave (km/s) = 39.78327 7.50252 27.62626
#
# Compressibility (1/GPa) = 0.01618616
#
# Stress axis : x y z
#
# Youngs Moduli (GPa) = 114.56741 73.12896 104.50003
#
# Poissons Ratio (x) = 0.08778 0.27667
# Poissons Ratio (y) = 0.13752 0.42272
# Poissons Ratio (z) = 0.30332 0.29582
#
# Static dielectric constant tensor:
#      x y z
#    x 3.401440 0.000000 0.000000 
#    y 0.000000 2.856980 0.000000 
#    z 0.000000 0.000000 3.839960 
# 
# 
# High freq. dielectric constant tensor:
#      x y z
#    x 1.693250 0.000000 0.000000 
#    y 0.000000 1.621630 0.000000 
#    z 0.000000 0.000000 1.701130 
# 
# From -- ./inp_files/4997.got.cif
#   From: 2010.03.12/outbox.cif.g09.slc.cpg/sg40_3_cif.got.tgz:4997.got - 2010.04.14 01:38:03.
