data_PCOD8182938
_publ_section_title
;
Structure prediction by ZEFSAII (Michael W. Deem and Ramdas Pophale) SiO2 
 PCOD8182938
Probable space group: A M A 2
;
_chemical_formula_sum "Si O2"
_cell_formula_units_Z 64
_cell_length_a 8.901228
_cell_length_b 15.914210
_cell_length_c 23.010884
_cell_angle_alpha 90.000000
_cell_angle_beta 90.000000
_cell_angle_gamma 90.000000
_cell_volume 3259.630052
_symmetry_space_group_name_H-M "A M A 2"
_symmetry_group_IT_number 40
_symmetry_cell_setting 'orthorhombic'
loop_
_space_group_symop_operation_xyz
x,y,z
-x,-y,z
1/2-x,y,z
1/2+x,-y,z
x,1/2+y,1/2+z
-x,1/2-y,1/2+z
1/2-x,1/2+y,1/2+z
1/2+x,1/2-y,1/2+z
loop_
_atom_site_type_symbol
_atom_site_label
_atom_site_fract_x
_atom_site_fract_y
_atom_site_fract_z
Si Si1 0.416702 0.195049 0.714950
Si Si2 0.425106 0.258551 0.453406
Si Si3 0.430265 0.588352 0.110655
Si Si4 0.581352 0.618373 0.669127
Si Si5 0.425097 0.579877 0.782145
Si Si6 0.572105 0.588529 0.536568
Si Si7 0.077186 0.756880 0.823177
Si Si8 0.570139 0.591995 0.991268
O O1 0.250000 0.163802 0.728412
O O2 0.490984 0.138967 0.665515
O O3 0.417730 0.285376 0.686074
O O4 0.502735 0.182881 0.775585
O O5 0.250000 0.238505 0.465714
O O6 0.483694 0.332172 0.496857
O O7 0.449037 0.292508 0.387664
O O8 0.517202 0.170573 0.452127
O O9 0.500000 0.500000 0.122748
O O10 0.250000 0.588884 0.103374
O O11 0.506590 0.624121 0.052826
O O12 0.750000 0.581160 0.675622
O O13 0.467583 0.574280 0.713662
O O14 0.523233 0.606236 0.603109
O O15 0.500000 0.500000 0.814207
O O16 0.250000 0.571760 0.790187
O O17 0.490092 0.662925 0.813538
O O18 0.500000 0.500000 0.515588
O O19 0.750000 0.580704 0.530080
O O20 0.250000 0.752104 0.806802
O O21 0.500000 0.500000 0.974403
O O22 0.750000 0.582930 0.990857
#
# Coordination Sequence:
#
# PCOD8182938 Si02
#       8
#     8   8   8   8   8   8   8   8
#     4   9  18  33  54  77 104 136 172 214 264 318
#     4  10  21  40  59  77 107 148 188 230 277 325
#     4  10  19  33  53  79 109 140 173 216 269 327
#     4   9  17  31  51  76 102 132 165 204 257 314
#     4  10  19  31  48  74 103 132 163 202 251 307
#     4  10  21  36  56  79 107 141 180 225 272 321
#     4   9  20  36  54  74 100 136 179 221 263 311
#     4  11  22  36  57  86 116 147 181 224 274 333
#
# _framework density 19.634129000000001
#
# number of rings (size 3 to 8) (size 9 to 14) (size 15 to 20)
#    0.000    2.250    0.000    3.750    0.000    6.500 
#    0.000    4.375    0.000    3.000    0.000    0.000 
#    0.000    0.000    0.000    0.000    0.000    0.000 
#
# Total GULP energy -396508.770799 kJ/mol
# GULP energy per Si atom -12390.899087 kJ/mol
# Density = 1.958944 g / cm^3
# Si number density = 19.634129 Si / 1000 Ang^3
#
#
#
# Elastic Constant Matrix: (Units=GPa)
#
#
# Indices 1 2 3 4 5 6 
#
# 1 66.5077 19.3348 22.3256 0.0000 0.0000 0.0000
# 2 19.3348 91.1348 -20.1396 0.0000 0.0000 0.0000
# 3 22.3256 -20.1396 113.3303 0.0000 0.0000 0.0000
# 4 0.0000 0.0000 0.0000 19.1067 0.0000 0.0000
# 5 0.0000 0.0000 0.0000 0.0000 25.6208 0.0000
# 6 0.0000 0.0000 0.0000 0.0000 0.0000 5.8573
#
#
#
# Elastic Compliance Matrix: (Units=1/GPa)
#
#
# Indices 1 2 3 4 5 6 
#
# 1 0.017887 -0.004760 -0.004370 0.000000 0.000000 0.000000
# 2 -0.004760 0.012688 0.003193 0.000000 0.000000 0.000000
# 3 -0.004370 0.003193 0.010252 0.000000 0.000000 0.000000
# 4 0.000000 0.000000 0.000000 0.052338 0.000000 0.000000
# 5 0.000000 0.000000 0.000000 0.000000 0.039031 0.000000
# 6 0.000000 0.000000 0.000000 0.000000 0.000000 0.170727
#
#
# Mechanical properties :
#
#
# Convention : Reuss Voigt Hill
#
# Bulk Modulus (GPa) = 34.53993 34.89049 34.71521
# Shear Modulus (GPa) = 15.41083 26.74709 21.07896
#
# Velocity S-wave (km/s) = 2.80465 3.69491 3.28012
# Velocity P-wave (km/s) = 5.30264 6.00100 5.66260
#
# Compressibility (1/GPa) = 0.02895200
#
# Stress axis : x y z
#
# Youngs Moduli (GPa) = 55.90791 78.81328 97.54299
#
# Poissons Ratio (x) = 0.37518 0.42622
# Poissons Ratio (y) = 0.26614 -0.31141
# Poissons Ratio (z) = 0.24429 -0.25162
#
# Static dielectric constant tensor:
#      x y z
#    x 3.532820 0.000000 0.000000 
#    y 0.000000 3.672060 0.000000 
#    z 0.000000 0.000000 3.100400 
# 
# 
# High freq. dielectric constant tensor:
#      x y z
#    x 1.755500 0.000000 0.000000 
#    y 0.000000 1.759130 0.000000 
#    z 0.000000 0.000000 1.762770 
# 
# From -- ./inp_files/24235.got.cif
#   From: 2010.03.12/outbox.cif.g09.slc.cpg/sg40_13_cif.got.tgz:24235.got - 2010.04.14 01:38:03.
