data_PCOD8182894
_publ_section_title
;
Structure prediction by ZEFSAII (Michael W. Deem and Ramdas Pophale) SiO2 
 PCOD8182894
Probable space group: A M A 2
;
_chemical_formula_sum "Si O2"
_cell_formula_units_Z 48
_cell_length_a 15.138138
_cell_length_b 8.992768
_cell_length_c 18.861637
_cell_angle_alpha 90.000000
_cell_angle_beta 90.000000
_cell_angle_gamma 90.000000
_cell_volume 2567.705621
_symmetry_space_group_name_H-M "A M A 2"
_symmetry_group_IT_number 40
_symmetry_cell_setting 'orthorhombic'
loop_
_space_group_symop_operation_xyz
x,y,z
-x,-y,z
1/2-x,y,z
1/2+x,-y,z
x,1/2+y,1/2+z
-x,1/2-y,1/2+z
1/2-x,1/2+y,1/2+z
1/2+x,1/2-y,1/2+z
loop_
_atom_site_type_symbol
_atom_site_label
_atom_site_fract_x
_atom_site_fract_y
_atom_site_fract_z
Si Si1 0.592741 0.420887 0.206250
Si Si2 0.152466 0.275683 0.161991
Si Si3 0.487254 0.174646 0.421032
Si Si4 0.649728 0.718777 0.833631
Si Si5 0.351372 0.622254 0.805778
Si Si6 0.509517 0.823941 0.576062
O O1 0.500000 0.500000 0.227044
O O2 0.659222 0.550704 0.183061
O O3 0.635394 0.335025 0.271143
O O4 0.579322 0.302455 0.140718
O O5 0.250000 0.222930 0.137936
O O6 0.118856 0.181777 0.229502
O O7 0.084186 0.249441 0.097711
O O8 0.579224 0.250657 0.396015
O O9 0.409080 0.207183 0.365445
O O10 0.461930 0.240543 0.499128
O O11 0.500000 0.000000 0.428184
O O12 0.750000 0.733757 0.862811
O O13 0.631705 0.553535 0.804656
O O14 0.250000 0.662282 0.822043
O O15 0.500000 0.000000 0.569659
#
# Coordination Sequence:
#
# PCOD8182894 Si02
#       6
#     8   8   8   8   8   8
#     4   9  17  30  46  67  92 121 156 192 233 279
#     4   9  16  28  47  67  88 117 154 193 231 276
#     4   9  16  29  46  66  95 122 150 193 236 276
#     4  10  19  30  48  73  97 122 155 195 238 282
#     4   9  18  31  49  71  92 122 161 198 237 278
#     4   8  16  28  43  66  92 118 150 189 233 275
#
# _framework density 18.693731
#
# number of rings (size 3 to 8) (size 9 to 14) (size 15 to 20)
#    0.000    3.333    0.000    2.500    0.000    0.667 
#    0.000    9.167    0.000    6.000    0.000    4.667 
#    0.000    0.000    0.000    0.000    0.000    0.000 
#
# Total GULP energy -297355.924539 kJ/mol
# GULP energy per Si atom -12389.830189 kJ/mol
# Density = 1.865118 g / cm^3
# Si number density = 18.693731 Si / 1000 Ang^3
#
#
#
# Elastic Constant Matrix: (Units=GPa)
#
#
# Indices 1 2 3 4 5 6 
#
# 1 69.6115 9.2316 25.8444 0.0000 0.0000 0.0000
# 2 9.2316 21.3735 13.2337 0.0000 0.0000 0.0000
# 3 25.8444 13.2337 81.4899 0.0000 0.0000 0.0000
# 4 0.0000 0.0000 0.0000 9.2917 0.0000 0.0000
# 5 0.0000 0.0000 0.0000 0.0000 21.1993 0.0000
# 6 0.0000 0.0000 0.0000 0.0000 0.0000 18.1178
#
#
#
# Elastic Compliance Matrix: (Units=1/GPa)
#
#
# Indices 1 2 3 4 5 6 
#
# 1 0.016640 -0.004358 -0.004570 0.000000 0.000000 0.000000
# 2 -0.004358 0.053158 -0.007251 0.000000 0.000000 0.000000
# 3 -0.004570 -0.007251 0.014898 0.000000 0.000000 0.000000
# 4 0.000000 0.000000 0.000000 0.107623 0.000000 0.000000
# 5 0.000000 0.000000 0.000000 0.000000 0.047171 0.000000
# 6 0.000000 0.000000 0.000000 0.000000 0.000000 0.055194
#
#
# Mechanical properties :
#
#
# Convention : Reuss Voigt Hill
#
# Bulk Modulus (GPa) = 19.10570 29.89936 24.50253
# Shear Modulus (GPa) = 14.51431 17.99946 16.25689
#
# Velocity S-wave (km/s) = 2.78947 3.10637 2.95217
# Velocity P-wave (km/s) = 4.54064 5.37541 4.97556
#
# Compressibility (1/GPa) = 0.05234041
#
# Stress axis : x y z
#
# Youngs Moduli (GPa) = 60.09655 18.81171 67.12222
#
# Poissons Ratio (x) = 0.08198 0.30672
# Poissons Ratio (y) = 0.26188 0.48668
# Poissons Ratio (z) = 0.27462 0.13640
#
# Static dielectric constant tensor:
#      x y z
#    x 3.494550 0.000000 0.000000 
#    y 0.000000 3.073160 0.000000 
#    z 0.000000 0.000000 3.900000 
# 
# 
# High freq. dielectric constant tensor:
#      x y z
#    x 1.725930 0.000000 0.000000 
#    y 0.000000 1.682260 0.000000 
#    z 0.000000 0.000000 1.719990 
# 
# From -- ./inp_files/20634.got.cif
#   From: 2010.03.12/outbox.cif.g09.slc.cpg/sg40_11_cif.got.tgz:20634.got - 2010.04.14 01:38:03.
