data_PCOD8182471
_publ_section_title
;
Structure prediction by ZEFSAII (Michael W. Deem and Ramdas Pophale) SiO2 
 PCOD8182471
Probable space group: A M A 2
;
_chemical_formula_sum "Si O2"
_cell_formula_units_Z 64
_cell_length_a 8.575300
_cell_length_b 26.703281
_cell_length_c 18.530641
_cell_angle_alpha 90.000000
_cell_angle_beta 90.000000
_cell_angle_gamma 90.000000
_cell_volume 4243.306384
_symmetry_space_group_name_H-M "A M A 2"
_symmetry_group_IT_number 40
_symmetry_cell_setting 'orthorhombic'
loop_
_space_group_symop_operation_xyz
x,y,z
-x,-y,z
1/2-x,y,z
1/2+x,-y,z
x,1/2+y,1/2+z
-x,1/2-y,1/2+z
1/2-x,1/2+y,1/2+z
1/2+x,1/2-y,1/2+z
loop_
_atom_site_type_symbol
_atom_site_label
_atom_site_fract_x
_atom_site_fract_y
_atom_site_fract_z
Si Si1 0.932005 0.293563 0.137310
Si Si2 0.434434 0.753975 0.850775
Si Si3 0.068264 0.200458 0.215313
Si Si4 0.065320 0.052915 0.834664
Si Si5 0.567050 0.648957 0.258514
Si Si6 0.435930 0.647778 0.581390
Si Si7 0.065893 0.052045 0.999821
Si Si8 0.067317 0.749527 0.506904
O O1 0.750000 0.282698 0.146896
O O2 0.038976 0.250633 0.170969
O O3 0.979740 0.343506 0.181294
O O4 0.978249 0.293336 0.052317
O O5 0.250000 0.751067 0.864828
O O6 0.494968 0.709131 0.796633
O O7 0.479263 0.807492 0.815529
O O8 0.527234 0.744952 0.923428
O O9 0.250000 0.192750 0.222817
O O10 0.002600 0.154930 0.164981
O O11 0.250000 0.054708 0.825812
O O12 0.013018 0.060676 0.917557
O O13 0.987257 0.095989 0.788202
O O14 0.000000 0.000000 0.806252
O O15 0.750000 0.648515 0.244415
O O16 0.250000 0.645345 0.579859
O O17 0.506080 0.596888 0.548181
O O18 0.491229 0.694740 0.532959
O O19 0.250000 0.050648 0.005831
O O20 0.000000 0.000000 0.030340
O O21 0.250000 0.756450 0.518091
#
# Coordination Sequence:
#
# PCOD8182471 Si02
#       8
#     8   8   8   8   8   8   8   8
#     4  10  18  28  42  60  82 107 137 171 206 247
#     4   9  17  27  40  60  84 108 136 170 207 247
#     4   8  15  28  42  57  80 108 137 170 207 246
#     4  10  19  30  43  61  84 111 144 180 215 249
#     4  10  19  31  45  61  84 113 143 175 211 249
#     4   8  14  26  42  56  74 106 141 168 199 242
#     4   9  17  28  41  58  81 108 140 175 209 244
#     4  10  18  28  42  59  81 109 140 171 205 246
#
# _framework density 15.082579000000001
#
# number of rings (size 3 to 8) (size 9 to 14) (size 15 to 20)
#    0.000    2.750    0.000    4.500    0.000    4.000 
#    0.000    3.125    0.000    0.000    0.000    0.000 
#    0.000    1.000    0.000    7.000    0.000    3.250 
#
# Total GULP energy -396475.997995 kJ/mol
# GULP energy per Si atom -12389.874937 kJ/mol
# Density = 1.504825 g / cm^3
# Si number density = 15.082579 Si / 1000 Ang^3
#
#
#
# Elastic Constant Matrix: (Units=GPa)
#
#
# Indices 1 2 3 4 5 6 
#
# 1 15.7963 17.1838 26.8593 0.0000 0.0000 0.0000
# 2 17.1838 88.0794 62.4199 0.0000 0.0000 0.0000
# 3 26.8593 62.4199 111.8363 0.0000 0.0000 0.0000
# 4 0.0000 0.0000 0.0000 20.8270 0.0000 0.0000
# 5 0.0000 0.0000 0.0000 0.0000 21.7050 0.0000
# 6 0.0000 0.0000 0.0000 0.0000 0.0000 18.7571
#
#
#
# Elastic Compliance Matrix: (Units=1/GPa)
#
#
# Indices 1 2 3 4 5 6 
#
# 1 0.108045 -0.004450 -0.023465 0.000000 0.000000 0.000000
# 2 -0.004450 0.018966 -0.009517 0.000000 0.000000 0.000000
# 3 -0.023465 -0.009517 0.019889 0.000000 0.000000 0.000000
# 4 0.000000 0.000000 0.000000 0.048015 0.000000 0.000000
# 5 0.000000 0.000000 0.000000 0.000000 0.046072 0.000000
# 6 0.000000 0.000000 0.000000 0.000000 0.000000 0.053313
#
#
# Mechanical properties :
#
#
# Convention : Reuss Voigt Hill
#
# Bulk Modulus (GPa) = 13.88184 47.62644 30.75414
# Shear Modulus (GPa) = 12.71694 19.54110 16.12902
#
# Velocity S-wave (km/s) = 2.90686 3.60336 3.27369
# Velocity P-wave (km/s) = 4.52663 6.99699 5.89272
#
# Compressibility (1/GPa) = 0.07203654
#
# Stress axis : x y z
#
# Youngs Moduli (GPa) = 9.25536 52.72609 50.27923
#
# Poissons Ratio (x) = 0.23462 1.17982
# Poissons Ratio (y) = 0.04118 0.47850
# Poissons Ratio (z) = 0.21718 0.50179
#
# Static dielectric constant tensor:
#      x y z
#    x 2.777190 0.000000 0.000000 
#    y 0.000000 2.952630 0.000000 
#    z 0.000000 0.000000 3.212120 
# 
# 
# High freq. dielectric constant tensor:
#      x y z
#    x 1.575300 0.000000 0.000000 
#    y 0.000000 1.543450 0.000000 
#    z 0.000000 0.000000 1.572510 
# 
# From -- ./inp_files/19722.got.cif
#   From: 2010.03.12/outbox.cif.g09.slc.cpg/sg40_10_cif.got.tgz:19722.got - 2010.04.14 01:38:03.
