data_PCOD8182893
_publ_section_title
;
Structure prediction by ZEFSAII (Michael W. Deem and Ramdas Pophale) SiO2 
 PCOD8182893
Probable space group: A M A 2
;
_chemical_formula_sum "Si O2"
_cell_formula_units_Z 48
_cell_length_a 18.650542
_cell_length_b 15.529210
_cell_length_c 9.713081
_cell_angle_alpha 90.000000
_cell_angle_beta 90.000000
_cell_angle_gamma 90.000000
_cell_volume 2813.182005
_symmetry_space_group_name_H-M "A M A 2"
_symmetry_group_IT_number 40
_symmetry_cell_setting 'orthorhombic'
loop_
_space_group_symop_operation_xyz
x,y,z
-x,-y,z
1/2-x,y,z
1/2+x,-y,z
x,1/2+y,1/2+z
-x,1/2-y,1/2+z
1/2-x,1/2+y,1/2+z
1/2+x,1/2-y,1/2+z
loop_
_atom_site_type_symbol
_atom_site_label
_atom_site_fract_x
_atom_site_fract_y
_atom_site_fract_z
Si Si1 0.669352 0.909347 0.796890
Si Si2 0.167832 0.902419 0.788153
Si Si3 0.414452 0.404137 0.573886
Si Si4 0.080609 0.596017 0.564343
Si Si5 0.168926 0.775676 0.263447
Si Si6 0.666506 0.743948 0.084558
O O1 0.750000 0.903473 0.863446
O O2 0.659359 0.822883 0.704454
O O3 0.661358 0.001361 0.720276
O O4 0.608187 0.909061 0.909726
O O5 0.250000 0.882492 0.827005
O O6 0.139186 0.837053 0.673102
O O7 0.122806 0.891482 0.926873
O O8 0.405231 0.501882 0.631230
O O9 0.497377 0.380685 0.558677
O O10 0.382976 0.339902 0.686055
O O11 0.123877 0.672106 0.641112
O O12 0.250000 0.808037 0.241047
O O13 0.149158 0.774713 0.425156
O O14 0.750000 0.761360 0.107595
#
# Coordination Sequence:
#
# PCOD8182893 Si02
#       6
#     8   8   8   8   8   8
#     4   8  15  30  51  70  91 121 154 187 228 280
#     4   9  17  31  51  73  93 116 153 197 232 266
#     4  10  19  30  48  71  94 121 156 195 226 265
#     4   9  18  31  47  67  95 126 156 184 227 280
#     4   9  17  30  48  69  93 123 154 184 227 278
#     4   9  18  32  49  68  92 123 155 187 230 281
#
# _framework density 17.062529000000001
#
# number of rings (size 3 to 8) (size 9 to 14) (size 15 to 20)
#    0.000    3.000    0.000    2.000    0.000    4.667 
#    0.000    1.667    0.000   12.000    0.000    0.000 
#    0.000    0.000    0.000    0.000    0.000    0.000 
#
# Total GULP energy -297328.567108 kJ/mol
# GULP energy per Si atom -12388.690296 kJ/mol
# Density = 1.702369 g / cm^3
# Si number density = 17.062529 Si / 1000 Ang^3
#
#
#
# Elastic Constant Matrix: (Units=GPa)
#
#
# Indices 1 2 3 4 5 6 
#
# 1 96.1286 73.5197 37.0210 0.0000 0.0000 0.0000
# 2 73.5197 166.2178 59.1953 0.0000 0.0000 0.0000
# 3 37.0210 59.1953 50.9081 0.0000 0.0000 0.0000
# 4 0.0000 0.0000 0.0000 29.7575 0.0000 0.0000
# 5 0.0000 0.0000 0.0000 0.0000 13.0413 0.0000
# 6 0.0000 0.0000 0.0000 0.0000 0.0000 29.3412
#
#
#
# Elastic Compliance Matrix: (Units=1/GPa)
#
#
# Indices 1 2 3 4 5 6 
#
# 1 0.016758 -0.005244 -0.006090 0.000000 0.000000 0.000000
# 2 -0.005244 0.011909 -0.010035 0.000000 0.000000 0.000000
# 3 -0.006090 -0.010035 0.035740 0.000000 0.000000 0.000000
# 4 0.000000 0.000000 0.000000 0.033605 0.000000 0.000000
# 5 0.000000 0.000000 0.000000 0.000000 0.076679 0.000000
# 6 0.000000 0.000000 0.000000 0.000000 0.000000 0.034082
#
#
# Mechanical properties :
#
#
# Convention : Reuss Voigt Hill
#
# Bulk Modulus (GPa) = 46.14340 72.52516 59.33428
# Shear Modulus (GPa) = 19.32498 23.99591 21.66045
#
# Velocity S-wave (km/s) = 3.36906 3.75420 3.56683
# Velocity P-wave (km/s) = 6.49896 7.83517 7.19814
#
# Compressibility (1/GPa) = 0.02167157
#
# Stress axis : x y z
#
# Youngs Moduli (GPa) = 59.67171 83.96904 27.98015
#
# Poissons Ratio (x) = 0.44031 0.17039
# Poissons Ratio (y) = 0.31290 0.28077
# Poissons Ratio (z) = 0.36337 0.84259
#
# Static dielectric constant tensor:
#      x y z
#    x 3.197610 0.000000 0.000000 
#    y 0.000000 3.769780 0.000000 
#    z 0.000000 0.000000 2.743840 
# 
# 
# High freq. dielectric constant tensor:
#      x y z
#    x 1.661610 0.000000 0.000000 
#    y 0.000000 1.682450 0.000000 
#    z 0.000000 0.000000 1.603640 
# 
# From -- ./inp_files/7445.got.cif
#   From: 2010.03.12/outbox.cif.g09.slc.cpg/sg40_4_cif.got.tgz:7445.got - 2010.04.14 01:38:03.
