data_PCOD8182020
_publ_section_title
;
Structure prediction by ZEFSAII (Michael W. Deem and Ramdas Pophale) SiO2 
 PCOD8182020
Probable space group: A B M 2
;
_chemical_formula_sum "Si O2"
_cell_formula_units_Z 48
_cell_length_a 11.753581
_cell_length_b 20.673172
_cell_length_c 9.582145
_cell_angle_alpha 90.000000
_cell_angle_beta 90.000000
_cell_angle_gamma 90.000000
_cell_volume 2328.306020
_symmetry_space_group_name_H-M "A B M 2"
_symmetry_group_IT_number 39
_symmetry_cell_setting 'orthorhombic'
loop_
_space_group_symop_operation_xyz
x,y,z
-x,-y,z
-x,1/2+y,z
x,1/2-y,z
x,1/2+y,1/2+z
-x,1/2-y,1/2+z
-x,y,1/2+z
x,-y,1/2+z
loop_
_atom_site_type_symbol
_atom_site_label
_atom_site_fract_x
_atom_site_fract_y
_atom_site_fract_z
Si Si1 0.613887 0.956788 0.484500
Si Si2 0.532655 0.675827 0.590841
Si Si3 0.036800 0.425392 0.099418
Si Si4 0.132349 0.098526 0.819654
Si Si5 0.245785 0.523076 0.723448
Si Si6 0.355568 0.178250 0.872421
O O1 0.607741 0.881555 0.526894
O O2 0.652638 0.953657 0.323182
O O3 0.500000 0.000000 0.493640
O O4 0.706023 0.989091 0.585072
O O5 0.569382 0.750000 0.546807
O O6 0.541270 0.669181 0.759075
O O7 0.406013 0.662604 0.526728
O O8 0.160613 0.420016 0.174866
O O9 0.000000 0.500000 0.082423
O O10 0.941645 0.384099 0.182569
O O11 0.050002 0.390224 0.951121
O O12 0.250265 0.135730 0.828294
O O13 0.166711 0.023790 0.815314
O O14 0.307082 0.250000 0.868310
#
# Coordination Sequence:
#
# PCOD8182020 Si02
#       6
#     8   8   8   8   8   8
#     4  12  24  36  60  95 133 165 209 262 316 381
#     4  10  23  41  62  88 125 173 212 250 313 389
#     4  10  22  36  60  85 119 159 205 253 319 379
#     4  11  21  39  58  87 119 162 204 258 312 372
#     4  11  22  37  57  90 128 160 199 259 318 368
#     4  10  22  41  63  88 122 163 212 262 313 380
#
# _framework density 20.615846000000001
#
# number of rings (size 3 to 8) (size 9 to 14) (size 15 to 20)
#    0.000    1.333    3.333    3.000    4.667    0.000 
#    0.000    0.833    0.000    1.000    0.000    0.000 
#    0.000    0.000    0.000    0.000    0.000    0.000 
#
# Total GULP energy -297349.473076 kJ/mol
# GULP energy per Si atom -12389.561378 kJ/mol
# Density = 2.056892 g / cm^3
# Si number density = 20.615846 Si / 1000 Ang^3
#
#
#
# Elastic Constant Matrix: (Units=GPa)
#
#
# Indices 1 2 3 4 5 6 
#
# 1 103.9931 15.5417 49.2588 0.0000 0.0000 0.0000
# 2 15.5417 39.7433 10.2296 0.0000 0.0000 0.0000
# 3 49.2588 10.2296 109.0408 0.0000 0.0000 0.0000
# 4 0.0000 0.0000 0.0000 14.5968 0.0000 0.0000
# 5 0.0000 0.0000 0.0000 0.0000 48.2367 0.0000
# 6 0.0000 0.0000 0.0000 0.0000 0.0000 7.7593
#
#
#
# Elastic Compliance Matrix: (Units=1/GPa)
#
#
# Indices 1 2 3 4 5 6 
#
# 1 0.012712 -0.003579 -0.005407 0.000000 0.000000 0.000000
# 2 -0.003579 0.026792 -0.000896 0.000000 0.000000 0.000000
# 3 -0.005407 -0.000896 0.011697 0.000000 0.000000 0.000000
# 4 0.000000 0.000000 0.000000 0.068508 0.000000 0.000000
# 5 0.000000 0.000000 0.000000 0.000000 0.020731 0.000000
# 6 0.000000 0.000000 0.000000 0.000000 0.000000 0.128877
#
#
# Mechanical properties :
#
#
# Convention : Reuss Voigt Hill
#
# Bulk Modulus (GPa) = 31.81058 44.75971 38.28514
# Shear Modulus (GPa) = 16.69104 25.96837 21.32971
#
# Velocity S-wave (km/s) = 2.84847 3.55298 3.22005
# Velocity P-wave (km/s) = 5.12660 6.21208 5.69526
#
# Compressibility (1/GPa) = 0.03143608
#
# Stress axis : x y z
#
# Youngs Moduli (GPa) = 78.66570 37.32460 85.48846
#
# Poissons Ratio (x) = 0.13360 0.46222
# Poissons Ratio (y) = 0.28158 0.07664
# Poissons Ratio (z) = 0.42533 0.03346
#
# Static dielectric constant tensor:
#      x y z
#    x 3.772580 0.000000 0.000000 
#    y 0.000000 3.589160 0.000000 
#    z 0.000000 0.000000 4.058690 
# 
# 
# High freq. dielectric constant tensor:
#      x y z
#    x 1.802530 0.000000 0.000000 
#    y 0.000000 1.769210 0.000000 
#    z 0.000000 0.000000 1.823980 
# 
# From -- ./inp_files/2697.got.cif
#   From: 2010.03.12/outbox.cif.g09.slc.cpg/sg39_2_cif.got.tgz:2697.got - 2010.04.14 02:53:20.
