data_PCOD8182186
_publ_section_title
;
Structure prediction by ZEFSAII (Michael W. Deem and Ramdas Pophale) SiO2 
 PCOD8182186
Probable space group: A B M 2
;
_chemical_formula_sum "Si O2"
_cell_formula_units_Z 40
_cell_length_a 7.585962
_cell_length_b 20.417029
_cell_length_c 11.123309
_cell_angle_alpha 90.000000
_cell_angle_beta 90.000000
_cell_angle_gamma 90.000000
_cell_volume 1722.809312
_symmetry_space_group_name_H-M "A B M 2"
_symmetry_group_IT_number 39
_symmetry_cell_setting 'orthorhombic'
loop_
_space_group_symop_operation_xyz
x,y,z
-x,-y,z
-x,1/2+y,z
x,1/2-y,z
x,1/2+y,1/2+z
-x,1/2-y,1/2+z
-x,y,1/2+z
x,-y,1/2+z
loop_
_atom_site_type_symbol
_atom_site_label
_atom_site_fract_x
_atom_site_fract_y
_atom_site_fract_z
Si Si1 0.277245 0.179187 0.744950
Si Si2 0.582170 0.065486 0.092126
Si Si3 0.081420 0.934082 0.930895
Si Si4 0.118408 0.822244 0.742603
Si Si5 0.740545 0.134672 0.505715
O O1 0.356293 0.250000 0.704859
O O2 0.391395 0.119032 0.696620
O O3 0.080533 0.172008 0.692491
O O4 0.265103 0.180590 0.889386
O O5 0.436165 0.091477 0.999049
O O6 0.500000 0.000000 0.152894
O O7 0.760545 0.048637 0.021322
O O8 0.155101 0.881232 0.835545
O O9 0.000000 0.000000 0.867827
O O10 0.918462 0.907486 0.007411
O O11 0.145849 0.750000 0.803566
O O12 0.253317 0.825486 0.630798
#
# Coordination Sequence:
#
# PCOD8182186 Si02
#       5
#     8   8   8   8   8
#     4  10  24  45  70 103 141 184 235 286 344 420
#     4  12  26  44  72 102 140 187 238 285 346 412
#     4  11  24  46  71 101 141 186 235 289 345 408
#     4  10  23  45  74 102 140 186 228 287 355 413
#     4  11  24  44  70 103 140 185 229 290 345 412
#
# _framework density 23.217890000000001
#
# number of rings (size 3 to 8) (size 9 to 14) (size 15 to 20)
#    0.000    1.200    4.000    0.600    2.800    8.000 
#    0.000    0.000    0.000    0.000    0.000    0.000 
#    0.000    0.000    0.000    0.000    0.000    0.000 
#
# Total GULP energy -247884.702347 kJ/mol
# GULP energy per Si atom -12394.235117 kJ/mol
# Density = 2.316504 g / cm^3
# Si number density = 23.217890 Si / 1000 Ang^3
#
#
#
# Elastic Constant Matrix: (Units=GPa)
#
#
# Indices 1 2 3 4 5 6 
#
# 1 105.7517 42.9382 32.1498 0.0000 0.0000 0.0000
# 2 42.9382 200.7329 65.7361 0.0000 0.0000 0.0000
# 3 32.1498 65.7361 99.1670 0.0000 0.0000 0.0000
# 4 0.0000 0.0000 0.0000 30.0080 0.0000 0.0000
# 5 0.0000 0.0000 0.0000 0.0000 17.8902 0.0000
# 6 0.0000 0.0000 0.0000 0.0000 0.0000 28.0635
#
#
#
# Elastic Compliance Matrix: (Units=1/GPa)
#
#
# Indices 1 2 3 4 5 6 
#
# 1 0.010828 -0.001490 -0.002523 0.000000 0.000000 0.000000
# 2 -0.001490 0.006568 -0.003871 0.000000 0.000000 0.000000
# 3 -0.002523 -0.003871 0.013468 0.000000 0.000000 0.000000
# 4 0.000000 0.000000 0.000000 0.033325 0.000000 0.000000
# 5 0.000000 0.000000 0.000000 0.000000 0.055897 0.000000
# 6 0.000000 0.000000 0.000000 0.000000 0.000000 0.035633
#
#
# Mechanical properties :
#
#
# Convention : Reuss Voigt Hill
#
# Bulk Modulus (GPa) = 66.23939 76.36666 71.30302
# Shear Modulus (GPa) = 28.32576 32.84750 30.58663
#
# Velocity S-wave (km/s) = 3.49663 3.76540 3.63350
# Velocity P-wave (km/s) = 6.70025 7.20187 6.95558
#
# Compressibility (1/GPa) = 0.01509676
#
# Stress axis : x y z
#
# Youngs Moduli (GPa) = 92.35270 152.25127 74.25145
#
# Poissons Ratio (x) = 0.22686 0.18731
# Poissons Ratio (y) = 0.13761 0.28741
# Poissons Ratio (z) = 0.23298 0.58933
#
# Static dielectric constant tensor:
#      x y z
#    x 4.254340 0.000000 0.000000 
#    y 0.000000 4.335690 0.000000 
#    z 0.000000 0.000000 3.622550 
# 
# 
# High freq. dielectric constant tensor:
#      x y z
#    x 1.925640 0.000000 0.000000 
#    y 0.000000 1.931440 0.000000 
#    z 0.000000 0.000000 1.884840 
# 
# From -- ./inp_files/5047.got.cif
#   From: 2010.03.12/outbox.cif.g09.slc.cpg/sg39_3_cif.got.tgz:5047.got - 2010.04.14 02:53:20.
