data_PCOD8182467
_publ_section_title
;
Structure prediction by ZEFSAII (Michael W. Deem and Ramdas Pophale) SiO2 
 PCOD8182467
Probable space group: A M A 2
;
_chemical_formula_sum "Si O2"
_cell_formula_units_Z 64
_cell_length_a 9.364745
_cell_length_b 18.680369
_cell_length_c 21.100539
_cell_angle_alpha 90.000000
_cell_angle_beta 90.000000
_cell_angle_gamma 90.000000
_cell_volume 3691.262716
_symmetry_space_group_name_H-M "A M A 2"
_symmetry_group_IT_number 40
_symmetry_cell_setting 'orthorhombic'
loop_
_space_group_symop_operation_xyz
x,y,z
-x,-y,z
1/2-x,y,z
1/2+x,-y,z
x,1/2+y,1/2+z
-x,1/2-y,1/2+z
1/2-x,1/2+y,1/2+z
1/2+x,1/2-y,1/2+z
loop_
_atom_site_type_symbol
_atom_site_label
_atom_site_fract_x
_atom_site_fract_y
_atom_site_fract_z
Si Si1 0.919788 0.279099 0.281560
Si Si2 0.580272 0.133507 0.334291
Si Si3 0.417435 0.824709 0.580561
Si Si4 0.917553 0.071533 0.466188
Si Si5 0.084735 0.431557 0.703566
Si Si6 0.584470 0.218076 0.146751
Si Si7 0.591837 0.436674 0.147350
Si Si8 0.907391 0.935523 0.795366
O O1 0.750000 0.286644 0.279788
O O2 0.970539 0.216702 0.330006
O O3 0.968694 0.256838 0.211202
O O4 0.980470 0.356694 0.304276
O O5 0.750000 0.133814 0.333751
O O6 0.521974 0.097057 0.398100
O O7 0.524744 0.089966 0.273193
O O8 0.250000 0.822851 0.595234
O O9 0.449747 0.862916 0.513852
O O10 0.486171 0.745150 0.587363
O O11 0.503628 0.864942 0.635973
O O12 0.750000 0.054215 0.464044
O O13 0.000000 0.000000 0.487194
O O14 0.250000 0.451821 0.708458
O O15 0.061532 0.366916 0.654213
O O16 0.000000 0.500000 0.677826
O O17 0.750000 0.235690 0.132951
O O18 0.500000 0.500000 0.114902
O O19 0.750000 0.434146 0.115911
O O20 0.609081 0.450269 0.221194
O O21 0.750000 0.938097 0.826995
O O22 0.000000 0.000000 0.826187
#
# Coordination Sequence:
#
# PCOD8182467 Si02
#       8
#     8   8   8   8   8   8   8   8
#     4   8  13  26  46  65  84 113 152 188 226 272
#     4   8  15  29  49  68  89 119 156 193 226 271
#     4  11  21  30  42  63  91 122 157 193 227 262
#     4  10  21  34  47  67  93 124 160 194 225 264
#     4   9  17  29  50  74  95 119 148 187 236 284
#     4   9  17  31  47  65  89 120 154 186 227 281
#     4  10  18  28  41  58  84 118 154 186 219 264
#     4   9  16  25  39  60  85 113 143 178 217 265
#
# _framework density 17.338239999999999
#
# number of rings (size 3 to 8) (size 9 to 14) (size 15 to 20)
#    0.000    2.750    1.250    3.000    0.000    3.000 
#    0.000    0.000    0.000    1.500    0.000    0.875 
#    0.000    4.000    0.000    0.000    0.000    0.000 
#
# Total GULP energy -396506.543469 kJ/mol
# GULP energy per Si atom -12390.829483 kJ/mol
# Density = 1.729878 g / cm^3
# Si number density = 17.338240 Si / 1000 Ang^3
#
#
#
# Elastic Constant Matrix: (Units=GPa)
#
#
# Indices 1 2 3 4 5 6 
#
# 1 74.7847 51.2321 26.9582 0.0000 0.0000 0.0000
# 2 51.2321 128.2790 28.2493 0.0000 0.0000 0.0000
# 3 26.9582 28.2493 47.6808 0.0000 0.0000 0.0000
# 4 0.0000 0.0000 0.0000 20.6071 0.0000 0.0000
# 5 0.0000 0.0000 0.0000 0.0000 10.4858 0.0000
# 6 0.0000 0.0000 0.0000 0.0000 0.0000 31.1172
#
#
#
# Elastic Compliance Matrix: (Units=1/GPa)
#
#
# Indices 1 2 3 4 5 6 
#
# 1 0.020663 -0.006532 -0.007813 0.000000 0.000000 0.000000
# 2 -0.006532 0.011030 -0.002842 0.000000 0.000000 0.000000
# 3 -0.007813 -0.002842 0.027074 0.000000 0.000000 0.000000
# 4 0.000000 0.000000 0.000000 0.048527 0.000000 0.000000
# 5 0.000000 0.000000 0.000000 0.000000 0.095367 0.000000
# 6 0.000000 0.000000 0.000000 0.000000 0.000000 0.032137
#
#
# Mechanical properties :
#
#
# Convention : Reuss Voigt Hill
#
# Bulk Modulus (GPa) = 40.99400 51.51373 46.25387
# Shear Modulus (GPa) = 18.03095 22.06235 20.04665
#
# Velocity S-wave (km/s) = 3.22833 3.57104 3.40400
# Velocity P-wave (km/s) = 6.13116 6.83949 6.49499
#
# Compressibility (1/GPa) = 0.02439381
#
# Stress axis : x y z
#
# Youngs Moduli (GPa) = 48.39655 90.66173 36.93623
#
# Poissons Ratio (x) = 0.59218 0.28857
# Poissons Ratio (y) = 0.31612 0.10497
# Poissons Ratio (z) = 0.37810 0.25765
#
# Static dielectric constant tensor:
#      x y z
#    x 3.184860 0.000000 0.000000 
#    y 0.000000 3.536500 0.000000 
#    z 0.000000 0.000000 2.940490 
# 
# 
# High freq. dielectric constant tensor:
#      x y z
#    x 1.647880 0.000000 0.000000 
#    y 0.000000 1.679770 0.000000 
#    z 0.000000 0.000000 1.617170 
# 
# From -- ./inp_files/24384.got.cif
#   From: 2010.03.12/outbox.cif.g09.slc.cpg/sg40_13_cif.got.tgz:24384.got - 2010.04.14 01:38:03.
