data_PCOD8182116
_publ_section_title
;
Structure prediction by ZEFSAII (Michael W. Deem and Ramdas Pophale) SiO2 
 PCOD8182116
Probable space group: A B M 2
;
_chemical_formula_sum "Si O2"
_cell_formula_units_Z 40
_cell_length_a 9.067379
_cell_length_b 14.213809
_cell_length_c 13.250023
_cell_angle_alpha 90.000000
_cell_angle_beta 90.000000
_cell_angle_gamma 90.000000
_cell_volume 1707.689375
_symmetry_space_group_name_H-M "A B M 2"
_symmetry_group_IT_number 39
_symmetry_cell_setting 'orthorhombic'
loop_
_space_group_symop_operation_xyz
x,y,z
-x,-y,z
-x,1/2+y,z
x,1/2-y,z
x,1/2+y,1/2+z
-x,1/2-y,1/2+z
-x,y,1/2+z
x,-y,1/2+z
loop_
_atom_site_type_symbol
_atom_site_label
_atom_site_fract_x
_atom_site_fract_y
_atom_site_fract_z
Si Si1 0.753620 0.354780 0.472340
Si Si2 0.733920 0.853023 0.283761
Si Si3 0.747720 0.995265 0.628860
Si Si4 0.944554 0.095644 0.290216
Si Si5 0.413994 0.142611 0.490740
O O1 0.776145 0.250000 0.519242
O O2 0.821183 0.434836 0.545351
O O3 0.827913 0.354214 0.362471
O O4 0.580998 0.376667 0.457406
O O5 0.664823 0.750000 0.258027
O O6 0.692411 0.882053 0.397369
O O7 0.910995 0.841559 0.272194
O O8 0.670876 0.933681 0.209812
O O9 0.871424 0.931110 0.682314
O O10 0.625655 0.926240 0.582636
O O11 0.000000 0.000000 0.343827
O O12 0.390084 0.250000 0.525985
#
# Coordination Sequence:
#
# PCOD8182116 Si02
#       5
#     8   8   8   8   8
#     4  11  24  43  66  95 127 165 210 260 314 373
#     4  10  22  42  65  93 128 168 210 259 314 373
#     4  11  22  38  62  92 127 164 204 254 309 370
#     4  10  23  40  63  93 127 165 211 259 312 371
#     4  10  24  43  65  93 127 166 211 258 313 373
#
# _framework density 23.423462000000001
#
# number of rings (size 3 to 8) (size 9 to 14) (size 15 to 20)
#    0.000    1.600    0.000    4.200    0.000   12.000 
#    0.000    6.000    0.000    0.000    0.000    0.000 
#    0.000    0.000    0.000    0.000    0.000    0.000 
#
# Total GULP energy -247918.937631 kJ/mol
# GULP energy per Si atom -12395.946882 kJ/mol
# Density = 2.337015 g / cm^3
# Si number density = 23.423462 Si / 1000 Ang^3
#
#
#
# Elastic Constant Matrix: (Units=GPa)
#
#
# Indices 1 2 3 4 5 6 
#
# 1 99.3395 40.0157 60.8121 0.0000 0.0000 0.0000
# 2 40.0157 122.0925 69.3411 0.0000 0.0000 0.0000
# 3 60.8121 69.3411 125.7881 0.0000 0.0000 0.0000
# 4 0.0000 0.0000 0.0000 41.3096 0.0000 0.0000
# 5 0.0000 0.0000 0.0000 0.0000 33.2683 0.0000
# 6 0.0000 0.0000 0.0000 0.0000 0.0000 24.2495
#
#
#
# Elastic Compliance Matrix: (Units=1/GPa)
#
#
# Indices 1 2 3 4 5 6 
#
# 1 0.014401 -0.001115 -0.006348 0.000000 0.000000 0.000000
# 2 -0.001115 0.012010 -0.006081 0.000000 0.000000 0.000000
# 3 -0.006348 -0.006081 0.014371 0.000000 0.000000 0.000000
# 4 0.000000 0.000000 0.000000 0.024207 0.000000 0.000000
# 5 0.000000 0.000000 0.000000 0.000000 0.030059 0.000000
# 6 0.000000 0.000000 0.000000 0.000000 0.000000 0.041238
#
#
# Mechanical properties :
#
#
# Convention : Reuss Voigt Hill
#
# Bulk Modulus (GPa) = 73.02398 76.39533 74.70966
# Shear Modulus (GPa) = 29.77265 31.56890 30.67077
#
# Velocity S-wave (km/s) = 3.56906 3.67515 3.62249
# Velocity P-wave (km/s) = 6.94460 7.12002 7.03286
#
# Compressibility (1/GPa) = 0.01369413
#
# Stress axis : x y z
#
# Youngs Moduli (GPa) = 69.43739 83.26528 69.58414
#
# Poissons Ratio (x) = 0.09284 0.44170
# Poissons Ratio (y) = 0.07742 0.42317
# Poissons Ratio (z) = 0.44077 0.50637
#
# Static dielectric constant tensor:
#      x y z
#    x 4.024290 0.000000 0.000000 
#    y 0.000000 4.448060 0.000000 
#    z 0.000000 0.000000 4.107500 
# 
# 
# High freq. dielectric constant tensor:
#      x y z
#    x 1.909410 0.000000 0.000000 
#    y 0.000000 1.947650 0.000000 
#    z 0.000000 0.000000 1.916720 
# 
# From -- ./inp_files/8077.got.cif
#   From: 2010.03.12/outbox.cif.g09.slc.cpg/sg39_5_cif.got.tgz:8077.got - 2010.04.14 02:53:20.
