data_PCOD8182615
_publ_section_title
;
Structure prediction by ZEFSAII (Michael W. Deem and Ramdas Pophale) SiO2 
 PCOD8182615
Probable space group: A M A 2
;
_chemical_formula_sum "Si O2"
_cell_formula_units_Z 64
_cell_length_a 15.146665
_cell_length_b 25.619377
_cell_length_c 8.907815
_cell_angle_alpha 90.000000
_cell_angle_beta 90.000000
_cell_angle_gamma 90.000000
_cell_volume 3456.660872
_symmetry_space_group_name_H-M "A M A 2"
_symmetry_group_IT_number 40
_symmetry_cell_setting 'orthorhombic'
loop_
_space_group_symop_operation_xyz
x,y,z
-x,-y,z
1/2-x,y,z
1/2+x,-y,z
x,1/2+y,1/2+z
-x,1/2-y,1/2+z
1/2-x,1/2+y,1/2+z
1/2+x,1/2-y,1/2+z
loop_
_atom_site_type_symbol
_atom_site_label
_atom_site_fract_x
_atom_site_fract_y
_atom_site_fract_z
Si Si1 0.060135 0.950458 0.731120
Si Si2 0.464210 0.904469 0.259635
Si Si3 0.511487 0.151284 0.570025
Si Si4 0.849306 0.706694 0.262131
Si Si5 0.650345 0.110581 0.980934
Si Si6 0.155516 0.585538 0.783617
Si Si7 0.846948 0.306198 0.946956
Si Si8 0.151800 0.980932 0.434931
O O1 0.004146 0.900318 0.673806
O O2 0.111404 0.937079 0.883563
O O3 0.130868 0.965234 0.604589
O O4 0.000000 0.000000 0.765722
O O5 0.469632 0.863696 0.397128
O O6 0.562927 0.917255 0.192302
O O7 0.417443 0.957063 0.317100
O O8 0.407242 0.879331 0.128419
O O9 0.588054 0.190248 0.624893
O O10 0.418891 0.183209 0.577808
O O11 0.750000 0.711711 0.197606
O O12 0.853197 0.663765 0.390650
O O13 0.880923 0.760890 0.335259
O O14 0.750000 0.095924 0.026847
O O15 0.250000 0.574380 0.695491
O O16 0.164076 0.642033 0.851786
O O17 0.146404 0.543450 0.918484
O O18 0.750000 0.291077 0.014999
O O19 0.250000 0.959887 0.398804
#
# Coordination Sequence:
#
# PCOD8182615 Si02
#       8
#     8   8   8   8   8   8   8   8
#     4  10  19  33  51  73 103 137 170 206 251 303
#     4  10  19  32  51  76 101 130 167 211 251 296
#     4   9  19  33  54  78 100 132 172 210 248 296
#     4   9  19  35  54  74 101 135 169 206 253 303
#     4  10  21  35  50  73 103 134 166 207 259 306
#     4   9  18  31  49  73  99 128 166 206 246 292
#     4   9  17  31  51  75 100 128 163 205 249 293
#     4  10  18  30  51  76 101 132 169 209 249 297
#
# _framework density 18.514979
#
# number of rings (size 3 to 8) (size 9 to 14) (size 15 to 20)
#    0.000    2.500    0.000    3.375    0.000    6.500 
#    0.000    0.625    0.000    4.500    0.000    0.000 
#    0.000    0.000    0.000    0.000    0.000    0.000 
#
# Total GULP energy -396526.790129 kJ/mol
# GULP energy per Si atom -12391.462192 kJ/mol
# Density = 1.847284 g / cm^3
# Si number density = 18.514979 Si / 1000 Ang^3
#
#
#
# Elastic Constant Matrix: (Units=GPa)
#
#
# Indices 1 2 3 4 5 6 
#
# 1 174.0366 47.1376 49.6987 0.0000 0.0000 0.0000
# 2 47.1376 95.9746 15.1027 0.0000 0.0000 0.0000
# 3 49.6987 15.1027 61.0119 0.0000 0.0000 0.0000
# 4 0.0000 0.0000 0.0000 13.4573 0.0000 0.0000
# 5 0.0000 0.0000 0.0000 0.0000 29.5253 0.0000
# 6 0.0000 0.0000 0.0000 0.0000 0.0000 18.2476
#
#
#
# Elastic Compliance Matrix: (Units=1/GPa)
#
#
# Indices 1 2 3 4 5 6 
#
# 1 0.008306 -0.003137 -0.005989 0.000000 0.000000 0.000000
# 2 -0.003137 0.012026 -0.000422 0.000000 0.000000 0.000000
# 3 -0.005989 -0.000422 0.021373 0.000000 0.000000 0.000000
# 4 0.000000 0.000000 0.000000 0.074309 0.000000 0.000000
# 5 0.000000 0.000000 0.000000 0.000000 0.033869 0.000000
# 6 0.000000 0.000000 0.000000 0.000000 0.000000 0.054802
#
#
# Mechanical properties :
#
#
# Convention : Reuss Voigt Hill
#
# Bulk Modulus (GPa) = 44.22848 61.65567 52.94207
# Shear Modulus (GPa) = 21.61527 26.85165 24.23346
#
# Velocity S-wave (km/s) = 3.42050 3.81237 3.62174
# Velocity P-wave (km/s) = 6.28805 7.26303 6.79305
#
# Compressibility (1/GPa) = 0.02260987
#
# Stress axis : x y z
#
# Youngs Moduli (GPa) = 120.39687 83.14983 46.78730
#
# Poissons Ratio (x) = 0.26083 0.28022
# Poissons Ratio (y) = 0.37768 0.01973
# Poissons Ratio (z) = 0.72109 0.03507
#
# Static dielectric constant tensor:
#      x y z
#    x 4.233590 0.000000 0.000000 
#    y 0.000000 3.455170 0.000000 
#    z 0.000000 0.000000 3.015860 
# 
# 
# High freq. dielectric constant tensor:
#      x y z
#    x 1.740600 0.000000 0.000000 
#    y 0.000000 1.723290 0.000000 
#    z 0.000000 0.000000 1.670500 
# 
# From -- ./inp_files/6876.got.cif
#   From: 2010.03.12/outbox.cif.g09.slc.cpg/sg40_4_cif.got.tgz:6876.got - 2010.04.14 01:38:03.
