data_PCOD8182460
_publ_section_title
;
Structure prediction by ZEFSAII (Michael W. Deem and Ramdas Pophale) SiO2 
 PCOD8182460
Probable space group: A M A 2
;
_chemical_formula_sum "Si O2"
_cell_formula_units_Z 56
_cell_length_a 8.968096
_cell_length_b 18.094481
_cell_length_c 21.134247
_cell_angle_alpha 90.000000
_cell_angle_beta 90.000000
_cell_angle_gamma 90.000000
_cell_volume 3429.518565
_symmetry_space_group_name_H-M "A M A 2"
_symmetry_group_IT_number 40
_symmetry_cell_setting 'orthorhombic'
loop_
_space_group_symop_operation_xyz
x,y,z
-x,-y,z
1/2-x,y,z
1/2+x,-y,z
x,1/2+y,1/2+z
-x,1/2-y,1/2+z
1/2-x,1/2+y,1/2+z
1/2+x,1/2-y,1/2+z
loop_
_atom_site_type_symbol
_atom_site_label
_atom_site_fract_x
_atom_site_fract_y
_atom_site_fract_z
Si Si1 0.917219 0.293666 0.634260
Si Si2 0.914486 0.203124 0.762968
Si Si3 0.072290 0.421969 0.700237
Si Si4 0.925518 0.836630 0.576243
Si Si5 0.425414 0.149524 0.319884
Si Si6 0.574982 0.921156 0.451865
Si Si7 0.923790 0.422302 0.202111
O O1 0.750000 0.315863 0.612873
O O2 0.911638 0.248383 0.698499
O O3 0.016700 0.366279 0.645557
O O4 0.992697 0.242328 0.580920
O O5 0.750000 0.171395 0.778002
O O6 0.964264 0.262673 0.816241
O O7 0.027273 0.134529 0.757566
O O8 0.250000 0.426941 0.699172
O O9 0.000000 0.500000 0.683773
O O10 0.020105 0.397045 0.769778
O O11 0.750000 0.821563 0.576926
O O12 0.981143 0.874634 0.511967
O O13 0.971656 0.890469 0.633892
O O14 0.250000 0.137001 0.305377
O O15 0.471622 0.122981 0.389239
O O16 0.750000 0.933758 0.455741
O O17 0.500000 0.000000 0.451993
O O18 0.750000 0.434536 0.207105
O O19 0.000000 0.500000 0.213820
#
# Coordination Sequence:
#
# PCOD8182460 Si02
#       7
#     8   8   8   8   8   8   8
#     4   9  17  30  47  66  88 116 150 187 227 272
#     4   8  15  28  44  61  84 113 146 183 224 267
#     4  11  20  30  46  68  94 121 150 188 231 275
#     4   9  18  31  45  64  91 123 155 186 221 264
#     4   9  18  32  47  65  91 124 158 191 227 269
#     4  10  20  32  46  66  94 126 160 192 223 262
#     4  10  18  27  42  64  89 115 145 181 223 267
#
# _framework density 16.328821999999999
#
# number of rings (size 3 to 8) (size 9 to 14) (size 15 to 20)
#    0.000    2.571    0.000    3.857    0.000    6.286 
#    0.000    0.000    0.000    0.000    0.000    1.000 
#    0.000    4.571    0.000    0.000    0.000    0.000 
#
# Total GULP energy -347151.209716 kJ/mol
# GULP energy per Si atom -12398.257490 kJ/mol
# Density = 1.629166 g / cm^3
# Si number density = 16.328822 Si / 1000 Ang^3
#
#
#
# Elastic Constant Matrix: (Units=GPa)
#
#
# Indices 1 2 3 4 5 6 
#
# 1 83.6996 65.1258 32.2261 0.0000 0.0000 0.0000
# 2 65.1258 143.6020 64.8680 0.0000 0.0000 0.0000
# 3 32.2261 64.8680 78.7726 0.0000 0.0000 0.0000
# 4 0.0000 0.0000 0.0000 27.0707 0.0000 0.0000
# 5 0.0000 0.0000 0.0000 0.0000 16.9194 0.0000
# 6 0.0000 0.0000 0.0000 0.0000 0.0000 32.9925
#
#
#
# Elastic Compliance Matrix: (Units=1/GPa)
#
#
# Indices 1 2 3 4 5 6 
#
# 1 0.018517 -0.007923 -0.001051 0.000000 0.000000 0.000000
# 2 -0.007923 0.014479 -0.008681 0.000000 0.000000 0.000000
# 3 -0.001051 -0.008681 0.020274 0.000000 0.000000 0.000000
# 4 0.000000 0.000000 0.000000 0.036940 0.000000 0.000000
# 5 0.000000 0.000000 0.000000 0.000000 0.059104 0.000000
# 6 0.000000 0.000000 0.000000 0.000000 0.000000 0.030310
#
#
# Mechanical properties :
#
#
# Convention : Reuss Voigt Hill
#
# Bulk Modulus (GPa) = 55.68407 70.05709 62.87058
# Shear Modulus (GPa) = 22.63261 24.98680 23.80970
#
# Velocity S-wave (km/s) = 3.72701 3.91605 3.82270
# Velocity P-wave (km/s) = 7.25924 7.96520 7.62040
#
# Compressibility (1/GPa) = 0.01795846
#
# Stress axis : x y z
#
# Youngs Moduli (GPa) = 54.00474 69.06783 49.32486
#
# Poissons Ratio (x) = 0.54723 0.05183
# Poissons Ratio (y) = 0.42788 0.42821
# Poissons Ratio (z) = 0.05675 0.59961
#
# Static dielectric constant tensor:
#      x y z
#    x 3.186350 0.000000 0.000000 
#    y 0.000000 3.268900 0.000000 
#    z 0.000000 0.000000 2.982600 
# 
# 
# High freq. dielectric constant tensor:
#      x y z
#    x 1.634390 0.000000 0.000000 
#    y 0.000000 1.631440 0.000000 
#    z 0.000000 0.000000 1.588690 
# 
# From -- ./inp_files/22290.got.cif
#   From: 2010.03.12/outbox.cif.g09.slc.cpg/sg40_12_cif.got.tgz:22290.got - 2010.04.14 01:38:03.
