data_PCOD8182696
_publ_section_title
;
Structure prediction by ZEFSAII (Michael W. Deem and Ramdas Pophale) SiO2 
 PCOD8182696
Probable space group: A M A 2
;
_chemical_formula_sum "Si O2"
_cell_formula_units_Z 64
_cell_length_a 8.649229
_cell_length_b 28.944225
_cell_length_c 12.751901
_cell_angle_alpha 90.000000
_cell_angle_beta 90.000000
_cell_angle_gamma 90.000000
_cell_volume 3192.377592
_symmetry_space_group_name_H-M "A M A 2"
_symmetry_group_IT_number 40
_symmetry_cell_setting 'orthorhombic'
loop_
_space_group_symop_operation_xyz
x,y,z
-x,-y,z
1/2-x,y,z
1/2+x,-y,z
x,1/2+y,1/2+z
-x,1/2-y,1/2+z
1/2-x,1/2+y,1/2+z
1/2+x,1/2-y,1/2+z
loop_
_atom_site_type_symbol
_atom_site_label
_atom_site_fract_x
_atom_site_fract_y
_atom_site_fract_z
Si Si1 0.068334 0.300939 0.148610
Si Si2 0.573403 0.046509 0.021400
Si Si3 0.066828 0.448958 0.870406
Si Si4 0.571558 0.324301 0.357312
Si Si5 0.070111 0.400324 0.078298
Si Si6 0.575060 0.584612 0.305986
Si Si7 0.066172 0.702852 0.582678
Si Si8 0.068275 0.610504 0.683451
O O1 0.250000 0.300863 0.133274
O O2 0.000784 0.348073 0.094598
O O3 0.996015 0.253785 0.102449
O O4 0.027679 0.297839 0.270652
O O5 0.750000 0.050122 0.059234
O O6 0.476736 0.088059 0.071823
O O7 0.500000 0.000000 0.066482
O O8 0.562856 0.044842 0.893778
O O9 0.250000 0.453671 0.875085
O O10 0.000000 0.500000 0.851542
O O11 0.022423 0.414076 0.777397
O O12 0.997101 0.427166 0.978815
O O13 0.750000 0.310473 0.346403
O O14 0.551743 0.378622 0.340588
O O15 0.501027 0.311457 0.469711
O O16 0.250000 0.395288 0.054874
O O17 0.039588 0.430378 0.185262
O O18 0.750000 0.605871 0.307022
O O19 0.250000 0.704154 0.578905
O O20 0.019377 0.664677 0.671322
O O21 0.250000 0.604845 0.703324
#
# Coordination Sequence:
#
# PCOD8182696 Si02
#       8
#     8   8   8   8   8   8   8   8
#     4   9  18  36  57  81 112 153 191 231 288 351
#     4  11  22  35  55  83 112 143 182 228 280 339
#     4  11  23  40  60  84 113 154 199 246 294 349
#     4  10  18  32  53  80 110 143 182 232 284 332
#     4   8  17  35  59  81 109 146 188 230 281 341
#     4   9  18  35  57  80 107 145 183 222 278 343
#     4   9  19  34  56  81 111 149 188 230 289 345
#     4  11  22  39  58  80 112 151 191 237 289 346
#
# _framework density 20.047754000000001
#
# number of rings (size 3 to 8) (size 9 to 14) (size 15 to 20)
#    0.000    2.250    1.250    2.625    0.000    2.000 
#    0.000    8.750    0.000    0.000    0.000    0.000 
#    0.000    0.000    0.000    0.000    0.000    0.000 
#
# Total GULP energy -396485.205955 kJ/mol
# GULP energy per Si atom -12390.162686 kJ/mol
# Density = 2.000212 g / cm^3
# Si number density = 20.047754 Si / 1000 Ang^3
#
#
#
# Elastic Constant Matrix: (Units=GPa)
#
#
# Indices 1 2 3 4 5 6 
#
# 1 32.1863 17.1389 12.8881 0.0000 0.0000 0.0000
# 2 17.1389 85.9634 36.1131 0.0000 0.0000 0.0000
# 3 12.8881 36.1131 122.1095 0.0000 0.0000 0.0000
# 4 0.0000 0.0000 0.0000 26.6877 0.0000 0.0000
# 5 0.0000 0.0000 0.0000 0.0000 24.4526 0.0000
# 6 0.0000 0.0000 0.0000 0.0000 0.0000 16.4970
#
#
#
# Elastic Compliance Matrix: (Units=1/GPa)
#
#
# Indices 1 2 3 4 5 6 
#
# 1 0.035129 -0.006219 -0.001869 0.000000 0.000000 0.000000
# 2 -0.006219 0.014384 -0.003598 0.000000 0.000000 0.000000
# 3 -0.001869 -0.003598 0.009451 0.000000 0.000000 0.000000
# 4 0.000000 0.000000 0.000000 0.037470 0.000000 0.000000
# 5 0.000000 0.000000 0.000000 0.000000 0.040895 0.000000
# 6 0.000000 0.000000 0.000000 0.000000 0.000000 0.060617
#
#
# Mechanical properties :
#
#
# Convention : Reuss Voigt Hill
#
# Bulk Modulus (GPa) = 28.09502 41.39329 34.74415
# Shear Modulus (GPa) = 21.44259 25.13541 23.28900
#
# Velocity S-wave (km/s) = 3.27398 3.54471 3.41203
# Velocity P-wave (km/s) = 5.32320 6.11927 5.73506
#
# Compressibility (1/GPa) = 0.03559350
#
# Stress axis : x y z
#
# Youngs Moduli (GPa) = 28.46666 69.52126 105.81383
#
# Poissons Ratio (x) = 0.43234 0.19772
# Poissons Ratio (y) = 0.17703 0.38068
# Poissons Ratio (z) = 0.05319 0.25011
#
# Static dielectric constant tensor:
#      x y z
#    x 3.347320 0.000000 0.000000 
#    y 0.000000 3.825430 0.000000 
#    z 0.000000 0.000000 3.871020 
# 
# 
# High freq. dielectric constant tensor:
#      x y z
#    x 1.756250 0.000000 0.000000 
#    y 0.000000 1.775040 0.000000 
#    z 0.000000 0.000000 1.789710 
# 
# From -- ./inp_files/10602.got.cif
#   From: 2010.03.12/outbox.cif.g09.slc.cpg/sg40_6_cif.got.tgz:10602.got - 2010.04.14 01:38:03.
