data_PCOD8182739
_publ_section_title
;
Structure prediction by ZEFSAII (Michael W. Deem and Ramdas Pophale) SiO2 
 PCOD8182739
Probable space group: A M A 2
;
_chemical_formula_sum "Si O2"
_cell_formula_units_Z 64
_cell_length_a 8.658572
_cell_length_b 19.618302
_cell_length_c 20.740986
_cell_angle_alpha 90.000000
_cell_angle_beta 90.000000
_cell_angle_gamma 90.000000
_cell_volume 3523.198292
_symmetry_space_group_name_H-M "A M A 2"
_symmetry_group_IT_number 40
_symmetry_cell_setting 'orthorhombic'
loop_
_space_group_symop_operation_xyz
x,y,z
-x,-y,z
1/2-x,y,z
1/2+x,-y,z
x,1/2+y,1/2+z
-x,1/2-y,1/2+z
1/2-x,1/2+y,1/2+z
1/2+x,1/2-y,1/2+z
loop_
_atom_site_type_symbol
_atom_site_label
_atom_site_fract_x
_atom_site_fract_y
_atom_site_fract_z
Si Si1 0.567184 0.793212 0.187420
Si Si2 0.433329 0.205891 0.433907
Si Si3 0.932397 0.212737 0.811065
Si Si4 0.569012 0.571080 0.729843
Si Si5 0.432591 0.570544 0.122241
Si Si6 0.567338 0.571864 0.878375
Si Si7 0.567717 0.069813 0.762890
Si Si8 0.432266 0.796944 0.567201
O O1 0.750000 0.798483 0.191152
O O2 0.499155 0.752108 0.248909
O O3 0.497915 0.868798 0.185878
O O4 0.513788 0.754988 0.122714
O O5 0.250000 0.209656 0.440425
O O6 0.497032 0.254266 0.376561
O O7 0.485348 0.128856 0.421038
O O8 0.512704 0.233437 0.498970
O O9 0.750000 0.220759 0.808773
O O10 0.978964 0.132948 0.808783
O O11 0.500000 0.500000 0.704830
O O12 0.750000 0.567694 0.721278
O O13 0.521191 0.584118 0.803961
O O14 0.500000 0.500000 0.094297
O O15 0.250000 0.565603 0.125873
O O16 0.499195 0.584700 0.192936
O O17 0.483905 0.630759 0.075316
O O18 0.500000 0.500000 0.902161
O O19 0.750000 0.573926 0.889133
O O20 0.750000 0.062763 0.755452
O O21 0.500000 0.000000 0.792859
O O22 0.250000 0.808297 0.568912
#
# Coordination Sequence:
#
# PCOD8182739 Si02
#       8
#     8   8   8   8   8   8   8   8
#     4  10  19  36  59  80 107 145 182 225 274 322
#     4  11  22  37  56  79 108 144 184 226 271 323
#     4   9  18  34  57  80 107 143 181 222 272 321
#     4  10  20  33  54  84 114 142 179 227 272 323
#     4  11  21  34  53  79 110 146 185 224 266 319
#     4  10  20  34  52  78 110 146 182 220 265 319
#     4  10  18  33  54  82 112 143 179 222 274 321
#     4  11  23  39  56  78 111 147 182 224 275 327
#
# _framework density 18.165313999999999
#
# number of rings (size 3 to 8) (size 9 to 14) (size 15 to 20)
#    0.000    1.750    2.500    3.750    0.000    2.500 
#    0.000    5.000    0.000    0.750    0.000    3.500 
#    0.000    0.000    0.000    0.000    0.000    0.000 
#
# Total GULP energy -396888.838841 kJ/mol
# GULP energy per Si atom -12402.776214 kJ/mol
# Density = 1.812397 g / cm^3
# Si number density = 18.165314 Si / 1000 Ang^3
#
#
#
# Elastic Constant Matrix: (Units=GPa)
#
#
# Indices 1 2 3 4 5 6 
#
# 1 75.0157 36.4405 31.5207 0.0000 0.0000 0.0000
# 2 36.4405 132.7155 71.5161 0.0000 0.0000 0.0000
# 3 31.5207 71.5161 112.7880 0.0000 0.0000 0.0000
# 4 0.0000 0.0000 0.0000 26.7079 0.0000 0.0000
# 5 0.0000 0.0000 0.0000 0.0000 14.7094 0.0000
# 6 0.0000 0.0000 0.0000 0.0000 0.0000 27.6062
#
#
#
# Elastic Compliance Matrix: (Units=1/GPa)
#
#
# Indices 1 2 3 4 5 6 
#
# 1 0.015846 -0.002984 -0.002536 0.000000 0.000000 0.000000
# 2 -0.002984 0.012008 -0.006780 0.000000 0.000000 0.000000
# 3 -0.002536 -0.006780 0.013874 0.000000 0.000000 0.000000
# 4 0.000000 0.000000 0.000000 0.037442 0.000000 0.000000
# 5 0.000000 0.000000 0.000000 0.000000 0.067984 0.000000
# 6 0.000000 0.000000 0.000000 0.000000 0.000000 0.036224
#
#
# Mechanical properties :
#
#
# Convention : Reuss Voigt Hill
#
# Bulk Modulus (GPa) = 58.38723 66.60820 62.49771
# Shear Modulus (GPa) = 23.39877 25.87417 24.63647
#
# Velocity S-wave (km/s) = 3.59291 3.77818 3.68671
# Velocity P-wave (km/s) = 7.03021 7.46862 7.25273
#
# Compressibility (1/GPa) = 0.01712703
#
# Stress axis : x y z
#
# Youngs Moduli (GPa) = 63.10791 83.27973 72.07786
#
# Poissons Ratio (x) = 0.24852 0.18280
# Poissons Ratio (y) = 0.18833 0.48867
# Poissons Ratio (z) = 0.16005 0.56462
#
# Static dielectric constant tensor:
#      x y z
#    x 3.270930 0.000000 0.000000 
#    y 0.000000 3.243600 0.000000 
#    z 0.000000 0.000000 3.300420 
# 
# 
# High freq. dielectric constant tensor:
#      x y z
#    x 1.705280 0.000000 0.000000 
#    y 0.000000 1.708490 0.000000 
#    z 0.000000 0.000000 1.679630 
# 
# From -- ./inp_files/19614.got.cif
#   From: 2010.03.12/outbox.cif.g09.slc.cpg/sg40_10_cif.got.tgz:19614.got - 2010.04.14 01:38:03.
