data_PCOD8182338
_publ_section_title
;
Structure prediction by ZEFSAII (Michael W. Deem and Ramdas Pophale) SiO2 
 PCOD8182338
Probable space group: A M A 2
;
_chemical_formula_sum "Si O2"
_cell_formula_units_Z 52
_cell_length_a 9.307747
_cell_length_b 20.694817
_cell_length_c 14.185224
_cell_angle_alpha 90.000000
_cell_angle_beta 90.000000
_cell_angle_gamma 90.000000
_cell_volume 2732.387932
_symmetry_space_group_name_H-M "A M A 2"
_symmetry_group_IT_number 40
_symmetry_cell_setting 'orthorhombic'
loop_
_space_group_symop_operation_xyz
x,y,z
-x,-y,z
1/2-x,y,z
1/2+x,-y,z
x,1/2+y,1/2+z
-x,1/2-y,1/2+z
1/2-x,1/2+y,1/2+z
1/2+x,1/2-y,1/2+z
loop_
_atom_site_type_symbol
_atom_site_label
_atom_site_fract_x
_atom_site_fract_y
_atom_site_fract_z
Si Si1 0.415892 0.936958 0.602420
Si Si2 0.584190 0.651385 0.926555
Si Si3 0.408612 0.601999 0.579688
Si Si4 0.080594 0.699421 0.431411
Si Si5 0.000000 0.500000 0.439648
Si Si6 0.577306 0.434378 0.782505
Si Si7 0.088422 0.891313 0.803910
O O1 0.250000 0.956341 0.611068
O O2 0.441229 0.880450 0.527698
O O3 0.475440 0.912982 0.703180
O O4 0.500000 0.000000 0.567794
O O5 0.750000 0.643054 0.893740
O O6 0.541621 0.725939 0.937661
O O7 0.474998 0.622077 0.851060
O O8 0.250000 0.623031 0.609614
O O9 0.480930 0.663082 0.525542
O O10 0.398149 0.541730 0.507865
O O11 0.484388 0.583158 0.678044
O O12 0.250000 0.686790 0.423222
O O13 0.007920 0.667907 0.339810
O O14 0.907804 0.547762 0.374540
O O15 0.500000 0.500000 0.815715
O O16 0.750000 0.442755 0.787360
O O17 0.250000 0.865348 0.791799
#
# Coordination Sequence:
#
# PCOD8182338 Si02
#       7
#     8   8   8   8   4   8   8
#     4  10  21  37  57  83 111 144 184 229 279 328
#     4  10  22  40  58  77 111 153 191 228 270 324
#     4   9  18  32  54  82 110 144 180 221 276 332
#     4   9  20  38  57  80 112 152 186 221 275 334
#     4  10  16  32  54  80 114 146 172 222 276 334
#     4  11  22  37  58  85 113 145 186 231 277 326
#     4  10  20  33  56  87 113 141 181 231 278 327
#
# _framework density 19.030971999999998
#
# number of rings (size 3 to 8) (size 9 to 14) (size 15 to 20)
#    0.000    2.154    1.538    1.385    0.000    4.923 
#    0.000    3.846    0.000    0.000    0.000    0.000 
#    0.000    0.000    0.000    0.000    0.000    0.000 
#
# Total GULP energy -322344.075385 kJ/mol
# GULP energy per Si atom -12397.849053 kJ/mol
# Density = 1.898766 g / cm^3
# Si number density = 19.030972 Si / 1000 Ang^3
#
#
#
# Elastic Constant Matrix: (Units=GPa)
#
#
# Indices 1 2 3 4 5 6 
#
# 1 60.5770 44.4164 31.5053 0.0000 0.0000 0.0000
# 2 44.4164 153.3188 60.4652 0.0000 0.0000 0.0000
# 3 31.5053 60.4652 116.0933 0.0000 0.0000 0.0000
# 4 0.0000 0.0000 0.0000 24.6393 0.0000 0.0000
# 5 0.0000 0.0000 0.0000 0.0000 44.0672 0.0000
# 6 0.0000 0.0000 0.0000 0.0000 0.0000 27.2934
#
#
#
# Elastic Compliance Matrix: (Units=1/GPa)
#
#
# Indices 1 2 3 4 5 6 
#
# 1 0.021935 -0.005043 -0.003326 0.000000 0.000000 0.000000
# 2 -0.005043 0.009368 -0.003510 0.000000 0.000000 0.000000
# 3 -0.003326 -0.003510 0.011345 0.000000 0.000000 0.000000
# 4 0.000000 0.000000 0.000000 0.040586 0.000000 0.000000
# 5 0.000000 0.000000 0.000000 0.000000 0.022693 0.000000
# 6 0.000000 0.000000 0.000000 0.000000 0.000000 0.036639
#
#
# Mechanical properties :
#
#
# Convention : Reuss Voigt Hill
#
# Bulk Modulus (GPa) = 52.94188 66.97364 59.95776
# Shear Modulus (GPa) = 28.96524 32.10679 30.53601
#
# Velocity S-wave (km/s) = 3.90552 4.11187 4.01002
# Velocity P-wave (km/s) = 6.94382 7.60339 7.28108
#
# Compressibility (1/GPa) = 0.01888864
#
# Stress axis : x y z
#
# Youngs Moduli (GPa) = 45.58830 106.74952 88.14582
#
# Poissons Ratio (x) = 0.53832 0.29320
# Poissons Ratio (y) = 0.22990 0.30943
# Poissons Ratio (z) = 0.15164 0.37474
#
# Static dielectric constant tensor:
#      x y z
#    x 3.231530 0.000000 0.000000 
#    y 0.000000 3.447740 0.000000 
#    z 0.000000 0.000000 3.634540 
# 
# 
# High freq. dielectric constant tensor:
#      x y z
#    x 1.720280 0.000000 0.000000 
#    y 0.000000 1.738930 0.000000 
#    z 0.000000 0.000000 1.748750 
# 
# From -- ./inp_files/15233.got.cif
#   From: 2010.03.12/outbox.cif.g09.slc.cpg/sg40_8_cif.got.tgz:15233.got - 2010.04.14 01:38:03.
