data_PCOD8182002
_publ_section_title
;
Structure prediction by ZEFSAII (Michael W. Deem and Ramdas Pophale) SiO2 
 PCOD8182002
Probable space group: A B M 2
;
_chemical_formula_sum "Si O2"
_cell_formula_units_Z 64
_cell_length_a 9.059908
_cell_length_b 31.058167
_cell_length_c 10.613003
_cell_angle_alpha 90.000000
_cell_angle_beta 90.000000
_cell_angle_gamma 90.000000
_cell_volume 2986.330676
_symmetry_space_group_name_H-M "A B M 2"
_symmetry_group_IT_number 39
_symmetry_cell_setting 'orthorhombic'
loop_
_space_group_symop_operation_xyz
x,y,z
-x,-y,z
-x,1/2+y,z
x,1/2-y,z
x,1/2+y,1/2+z
-x,1/2-y,1/2+z
-x,y,1/2+z
x,-y,1/2+z
loop_
_atom_site_type_symbol
_atom_site_label
_atom_site_fract_x
_atom_site_fract_y
_atom_site_fract_z
Si Si1 0.296704 0.026137 0.289890
Si Si2 0.205329 0.572019 0.552401
Si Si3 0.365536 0.200444 0.272932
Si Si4 0.100827 0.070226 0.456153
Si Si5 0.789259 0.871009 0.668932
Si Si6 0.592465 0.300362 0.056576
Si Si7 0.108786 0.362095 0.241694
Si Si8 0.402996 0.567437 0.328227
O O1 0.211728 0.036583 0.161480
O O2 0.189636 0.027541 0.412558
O O3 0.421091 0.063553 0.313466
O O4 0.348331 0.977727 0.272396
O O5 0.166472 0.619005 0.608385
O O6 0.358856 0.572486 0.475260
O O7 0.072594 0.559255 0.457921
O O8 0.332613 0.250000 0.258107
O O9 0.463130 0.185260 0.153126
O O10 0.447355 0.191401 0.408407
O O11 0.202978 0.180205 0.269931
O O12 0.156690 0.088068 0.588797
O O13 0.143153 0.104330 0.350045
O O14 0.730946 0.830779 0.588509
O O15 0.662048 0.890495 0.758761
O O16 0.932861 0.852477 0.741883
O O17 0.633641 0.250000 0.078073
#
# Coordination Sequence:
#
# PCOD8182002 Si02
#       8
#     8   8   8   8   8   8   8   8
#     4  10  26  42  63  90 128 170 220 262 331 380
#     4  10  23  43  61  90 129 164 214 272 313 387
#     4  10  22  43  69  98 133 171 213 270 332 396
#     4  10  21  43  60  90 124 168 215 261 319 387
#     4  11  23  38  66  90 129 171 213 265 326 385
#     4  10  23  42  66  99 132 168 217 267 328 400
#     4  10  21  42  62  94 124 165 216 260 324 392
#     4  11  25  42  62  96 126 170 217 276 323 385
#
# _framework density 21.430983000000001
#
# number of rings (size 3 to 8) (size 9 to 14) (size 15 to 20)
#    0.000    1.750    2.500    0.000    7.000    3.000 
#    2.250    0.000    0.000    0.000    0.000    0.000 
#    0.000    0.000    0.000    0.000    0.000    0.000 
#
# Total GULP energy -396665.830867 kJ/mol
# GULP energy per Si atom -12395.807215 kJ/mol
# Density = 2.138220 g / cm^3
# Si number density = 21.430983 Si / 1000 Ang^3
#
#
#
# Elastic Constant Matrix: (Units=GPa)
#
#
# Indices 1 2 3 4 5 6 
#
# 1 98.1106 36.0555 37.8448 0.0000 0.0000 0.0000
# 2 36.0555 51.4212 22.2013 0.0000 0.0000 0.0000
# 3 37.8448 22.2013 100.1820 0.0000 0.0000 0.0000
# 4 0.0000 0.0000 0.0000 21.4074 0.0000 0.0000
# 5 0.0000 0.0000 0.0000 0.0000 37.6156 0.0000
# 6 0.0000 0.0000 0.0000 0.0000 0.0000 32.7135
#
#
#
# Elastic Compliance Matrix: (Units=1/GPa)
#
#
# Indices 1 2 3 4 5 6 
#
# 1 0.014848 -0.008834 -0.003651 0.000000 0.000000 0.000000
# 2 -0.008834 0.026761 -0.002593 0.000000 0.000000 0.000000
# 3 -0.003651 -0.002593 0.011936 0.000000 0.000000 0.000000
# 4 0.000000 0.000000 0.000000 0.046713 0.000000 0.000000
# 5 0.000000 0.000000 0.000000 0.000000 0.026585 0.000000
# 6 0.000000 0.000000 0.000000 0.000000 0.000000 0.030568
#
#
# Mechanical properties :
#
#
# Convention : Reuss Voigt Hill
#
# Bulk Modulus (GPa) = 42.75845 49.10190 45.93018
# Shear Modulus (GPa) = 25.59327 28.58813 27.09070
#
# Velocity S-wave (km/s) = 3.45950 3.65631 3.55926
# Velocity P-wave (km/s) = 5.99604 6.38640 6.19430
#
# Compressibility (1/GPa) = 0.02338719
#
# Stress axis : x y z
#
# Youngs Moduli (GPa) = 67.35115 37.36721 83.78196
#
# Poissons Ratio (x) = 0.33012 0.30589
# Poissons Ratio (y) = 0.59501 0.21727
# Poissons Ratio (z) = 0.24590 0.09690
#
# Static dielectric constant tensor:
#      x y z
#    x 3.914200 0.000000 0.000000 
#    y 0.000000 3.722090 0.000000 
#    z 0.000000 0.000000 4.003220 
# 
# 
# High freq. dielectric constant tensor:
#      x y z
#    x 1.838190 0.000000 0.000000 
#    y 0.000000 1.829070 0.000000 
#    z 0.000000 0.000000 1.848550 
# 
# From -- ./inp_files/5403.got.cif
#   From: 2010.03.12/outbox.cif.g09.slc.cpg/sg39_3_cif.got.tgz:5403.got - 2010.04.14 02:53:20.
