data_PCOD8182024
_publ_section_title
;
Structure prediction by ZEFSAII (Michael W. Deem and Ramdas Pophale) SiO2 
 PCOD8182024
Probable space group: A B M 2
;
_chemical_formula_sum "Si O2"
_cell_formula_units_Z 40
_cell_length_a 9.195059
_cell_length_b 8.991944
_cell_length_c 25.269731
_cell_angle_alpha 90.000000
_cell_angle_beta 90.000000
_cell_angle_gamma 90.000000
_cell_volume 2089.338142
_symmetry_space_group_name_H-M "A B M 2"
_symmetry_group_IT_number 39
_symmetry_cell_setting 'orthorhombic'
loop_
_space_group_symop_operation_xyz
x,y,z
-x,-y,z
-x,1/2+y,z
x,1/2-y,z
x,1/2+y,1/2+z
-x,1/2-y,1/2+z
-x,y,1/2+z
x,-y,1/2+z
loop_
_atom_site_type_symbol
_atom_site_label
_atom_site_fract_x
_atom_site_fract_y
_atom_site_fract_z
Si Si1 0.155747 0.574469 0.409930
Si Si2 0.353012 0.077409 0.006274
Si Si3 0.350554 0.925473 0.625410
Si Si4 0.655189 0.925182 0.320033
Si Si5 0.848699 0.577518 0.218773
O O1 0.142345 0.750000 0.399469
O O2 0.219105 0.538752 0.468076
O O3 0.262751 0.502263 0.368039
O O4 0.000000 0.500000 0.404837
O O5 0.389016 0.250000 0.005355
O O6 0.310339 0.025386 0.065567
O O7 0.500000 0.000000 0.986075
O O8 0.371399 0.750000 0.630767
O O9 0.223015 0.981601 0.664234
O O10 0.500000 0.000000 0.643735
O O11 0.639224 0.750000 0.331136
O O12 0.741128 0.958611 0.266505
O O13 0.500000 0.000000 0.313855
O O14 0.882246 0.750000 0.214408
O O15 0.000000 0.500000 0.229872
#
# Coordination Sequence:
#
# PCOD8182024 Si02
#       5
#     8   8   8   8   8
#     4  11  23  38  56  81 112 146 182 225 273 324
#     4   9  19  35  56  80 108 141 180 223 268 318
#     4   9  18  35  56  80 108 140 179 223 267 317
#     4  11  23  39  59  83 109 142 182 225 271 324
#     4  10  22  37  55  80 111 143 178 220 269 321
#
# _framework density 19.144818999999998
#
# number of rings (size 3 to 8) (size 9 to 14) (size 15 to 20)
#    0.000    2.000    0.000    3.000    0.000    8.000 
#    0.000    0.000    0.000    0.000    0.000    0.000 
#    0.000    0.000    0.000    0.000    0.000    0.000 
#
# Total GULP energy -248049.504325 kJ/mol
# GULP energy per Si atom -12402.475216 kJ/mol
# Density = 1.910124 g / cm^3
# Si number density = 19.144819 Si / 1000 Ang^3
#
#
#
# Elastic Constant Matrix: (Units=GPa)
#
#
# Indices 1 2 3 4 5 6 
#
# 1 160.0533 71.3247 72.5765 0.0000 0.0000 0.0000
# 2 71.3247 75.8600 59.2126 0.0000 0.0000 0.0000
# 3 72.5765 59.2126 113.6644 0.0000 0.0000 0.0000
# 4 0.0000 0.0000 0.0000 27.2509 0.0000 0.0000
# 5 0.0000 0.0000 0.0000 0.0000 74.3284 0.0000
# 6 0.0000 0.0000 0.0000 0.0000 0.0000 38.0265
#
#
#
# Elastic Compliance Matrix: (Units=1/GPa)
#
#
# Indices 1 2 3 4 5 6 
#
# 1 0.011267 -0.008389 -0.002824 0.000000 0.000000 0.000000
# 2 -0.008389 0.028462 -0.009470 0.000000 0.000000 0.000000
# 3 -0.002824 -0.009470 0.015534 0.000000 0.000000 0.000000
# 4 0.000000 0.000000 0.000000 0.036696 0.000000 0.000000
# 5 0.000000 0.000000 0.000000 0.000000 0.013454 0.000000
# 6 0.000000 0.000000 0.000000 0.000000 0.000000 0.026297
#
#
# Mechanical properties :
#
#
# Convention : Reuss Voigt Hill
#
# Bulk Modulus (GPa) = 71.96080 83.97836 77.96958
# Shear Modulus (GPa) = 28.13584 37.68543 32.91063
#
# Velocity S-wave (km/s) = 3.83774 4.44152 4.15062
# Velocity P-wave (km/s) = 7.57013 8.38229 7.98654
#
# Compressibility (1/GPa) = 0.01389645
#
# Stress axis : x y z
#
# Youngs Moduli (GPa) = 88.75626 35.13468 64.37310
#
# Poissons Ratio (x) = 0.29475 0.18178
# Poissons Ratio (y) = 0.74459 0.60964
# Poissons Ratio (z) = 0.25063 0.33274
#
# Static dielectric constant tensor:
#      x y z
#    x 3.434180 0.000000 0.000000 
#    y 0.000000 3.543380 0.000000 
#    z 0.000000 0.000000 3.945610 
# 
# 
# High freq. dielectric constant tensor:
#      x y z
#    x 1.747330 0.000000 0.000000 
#    y 0.000000 1.745740 0.000000 
#    z 0.000000 0.000000 1.761580 
# 
# From -- ./inp_files/15449.got.cif
#   From: 2010.03.12/outbox.cif.g09.slc.cpg/sg39_8_cif.got.tgz:15449.got - 2010.04.14 02:53:20.
