data_PCOD8182631
_publ_section_title
;
Structure prediction by ZEFSAII (Michael W. Deem and Ramdas Pophale) SiO2 
 PCOD8182631
Probable space group: A M A 2
;
_chemical_formula_sum "Si O2"
_cell_formula_units_Z 64
_cell_length_a 8.933218
_cell_length_b 29.944825
_cell_length_c 14.350630
_cell_angle_alpha 90.000000
_cell_angle_beta 90.000000
_cell_angle_gamma 90.000000
_cell_volume 3838.845900
_symmetry_space_group_name_H-M "A M A 2"
_symmetry_group_IT_number 40
_symmetry_cell_setting 'orthorhombic'
loop_
_space_group_symop_operation_xyz
x,y,z
-x,-y,z
1/2-x,y,z
1/2+x,-y,z
x,1/2+y,1/2+z
-x,1/2-y,1/2+z
1/2-x,1/2+y,1/2+z
1/2+x,1/2-y,1/2+z
loop_
_atom_site_type_symbol
_atom_site_label
_atom_site_fract_x
_atom_site_fract_y
_atom_site_fract_z
Si Si1 0.078293 0.278850 0.726430
Si Si2 0.583576 0.822495 0.738685
Si Si3 0.426476 0.044861 0.611400
Si Si4 0.576743 0.636188 0.404583
Si Si5 0.426726 0.786065 0.435761
Si Si6 0.927046 0.545170 0.310353
Si Si7 0.426785 0.698251 0.543670
Si Si8 0.581664 0.362884 0.042178
O O1 0.250000 0.294581 0.720463
O O2 0.059769 0.227129 0.701078
O O3 0.012083 0.287055 0.829963
O O4 0.984358 0.305488 0.649523
O O5 0.750000 0.827086 0.783738
O O6 0.460107 0.833729 0.814941
O O7 0.565242 0.854664 0.651738
O O8 0.250000 0.038234 0.627794
O O9 0.501862 0.056239 0.710342
O O10 0.456392 0.084293 0.535637
O O11 0.500000 0.000000 0.569305
O O12 0.750000 0.641860 0.428182
O O13 0.535118 0.584842 0.382591
O O14 0.482464 0.653631 0.492149
O O15 0.250000 0.781773 0.433637
O O16 0.490578 0.742840 0.491306
O O17 0.469693 0.832734 0.483296
O O18 0.750000 0.539306 0.297883
O O19 0.000000 0.500000 0.351585
O O20 0.250000 0.698966 0.544882
O O21 0.750000 0.352428 0.007800
#
# Coordination Sequence:
#
# PCOD8182631 Si02
#       8
#     8   8   8   8   8   8   8   8
#     4  10  20  36  51  69 100 135 169 210 251 288
#     4  10  18  31  49  70 102 137 168 206 246 289
#     4  10  19  31  48  71 100 133 166 204 250 298
#     4  11  22  33  49  74 101 135 173 207 246 297
#     4  10  21  34  50  72 100 132 170 209 247 293
#     4  10  20  32  48  72 100 131 167 204 247 298
#     4  11  22  35  51  74 100 132 172 208 247 297
#     4  10  20  32  49  72  99 135 171 204 248 294
#
# _framework density 16.671676000000001
#
# number of rings (size 3 to 8) (size 9 to 14) (size 15 to 20)
#    0.000    1.750    3.750    2.250    0.000    4.500 
#    0.000    0.000    0.000    0.000    0.000    0.875 
#    0.000    6.000    0.000    0.000    0.000    0.000 
#
# Total GULP energy -396756.455002 kJ/mol
# GULP energy per Si atom -12398.639219 kJ/mol
# Density = 1.663373 g / cm^3
# Si number density = 16.671676 Si / 1000 Ang^3
#
#
#
# Elastic Constant Matrix: (Units=GPa)
#
#
# Indices 1 2 3 4 5 6 
#
# 1 60.4898 32.9888 30.6451 0.0000 0.0000 0.0000
# 2 32.9888 89.5096 36.2139 0.0000 0.0000 0.0000
# 3 30.6451 36.2139 71.4232 0.0000 0.0000 0.0000
# 4 0.0000 0.0000 0.0000 23.0931 0.0000 0.0000
# 5 0.0000 0.0000 0.0000 0.0000 26.7015 0.0000
# 6 0.0000 0.0000 0.0000 0.0000 0.0000 26.7267
#
#
#
# Elastic Compliance Matrix: (Units=1/GPa)
#
#
# Indices 1 2 3 4 5 6 
#
# 1 0.023223 -0.005696 -0.007076 0.000000 0.000000 0.000000
# 2 -0.005696 0.015452 -0.005391 0.000000 0.000000 0.000000
# 3 -0.007076 -0.005391 0.019771 0.000000 0.000000 0.000000
# 4 0.000000 0.000000 0.000000 0.043303 0.000000 0.000000
# 5 0.000000 0.000000 0.000000 0.000000 0.037451 0.000000
# 6 0.000000 0.000000 0.000000 0.000000 0.000000 0.037416
#
#
# Mechanical properties :
#
#
# Convention : Reuss Voigt Hill
#
# Bulk Modulus (GPa) = 45.20825 46.79092 45.99959
# Shear Modulus (GPa) = 22.69482 23.40925 23.05204
#
# Velocity S-wave (km/s) = 3.69356 3.75124 3.72251
# Velocity P-wave (km/s) = 6.73539 6.84759 6.79172
#
# Compressibility (1/GPa) = 0.02211985
#
# Stress axis : x y z
#
# Youngs Moduli (GPa) = 43.06092 64.71533 50.58041
#
# Poissons Ratio (x) = 0.36862 0.35791
# Poissons Ratio (y) = 0.24527 0.27267
# Poissons Ratio (z) = 0.30470 0.34887
#
# Static dielectric constant tensor:
#      x y z
#    x 3.142560 0.000000 0.000000 
#    y 0.000000 3.239620 0.000000 
#    z 0.000000 0.000000 2.920100 
# 
# 
# High freq. dielectric constant tensor:
#      x y z
#    x 1.646660 0.000000 0.000000 
#    y 0.000000 1.637310 0.000000 
#    z 0.000000 0.000000 1.611600 
# 
# From -- ./inp_files/15882.got.cif
#   From: 2010.03.12/outbox.cif.g09.slc.cpg/sg40_8_cif.got.tgz:15882.got - 2010.04.14 01:38:03.
