data_PCOD8182187
_publ_section_title
;
Structure prediction by ZEFSAII (Michael W. Deem and Ramdas Pophale) SiO2 
 PCOD8182187
Probable space group: A B M 2
;
_chemical_formula_sum "Si O2"
_cell_formula_units_Z 44
_cell_length_a 15.346311
_cell_length_b 15.054243
_cell_length_c 8.639423
_cell_angle_alpha 90.000000
_cell_angle_beta 90.000000
_cell_angle_gamma 90.000000
_cell_volume 1995.940798
_symmetry_space_group_name_H-M "A B M 2"
_symmetry_group_IT_number 39
_symmetry_cell_setting 'orthorhombic'
loop_
_space_group_symop_operation_xyz
x,y,z
-x,-y,z
-x,1/2+y,z
x,1/2-y,z
x,1/2+y,1/2+z
-x,1/2-y,1/2+z
-x,y,1/2+z
x,-y,1/2+z
loop_
_atom_site_type_symbol
_atom_site_label
_atom_site_fract_x
_atom_site_fract_y
_atom_site_fract_z
Si Si1 0.133751 0.250000 0.619961
Si Si2 0.016322 0.250000 0.322663
Si Si3 0.395575 0.750000 0.531097
Si Si4 0.720172 0.893149 0.645503
Si Si5 0.415081 0.250000 0.667340
Si Si6 0.000000 0.500000 0.360487
Si Si7 0.910642 0.594815 0.123011
Si Si8 0.722829 0.587048 0.009118
O O1 0.052357 0.250000 0.498406
O O2 0.193292 0.161923 0.595534
O O3 0.090018 0.250000 0.794270
O O4 0.050345 0.333027 0.232003
O O5 0.485462 0.750000 0.620516
O O6 0.411685 0.750000 0.350628
O O7 0.345194 0.840999 0.577875
O O8 0.634315 0.836668 0.602309
O O9 0.706973 0.985467 0.557066
O O10 0.723738 0.910715 0.826340
O O11 0.916851 0.511715 0.243730
O O12 0.971355 0.417741 0.470297
O O13 0.814049 0.618577 0.077472
#
# Coordination Sequence:
#
# PCOD8182187 Si02
#       8
#     4   4   4   8   4   4   8   8
#     4  11  28  46  62  96 139 184 233 282 339 388
#     4  12  27  40  64  88 129 174 234 276 330 385
#     4  10  23  46  72 102 133 174 218 274 347 406
#     4  10  25  46  69  98 141 178 224 275 343 400
#     4   9  22  48  72 100 139 174 211 280 332 417
#     4  10  24  40  62  86 132 176 226 274 320 384
#     4  11  24  41  60  93 127 177 223 277 325 383
#     4  11  24  43  71  99 138 178 221 280 338 403
#
# _framework density 22.044741999999999
#
# number of rings (size 3 to 8) (size 9 to 14) (size 15 to 20)
#    0.000    1.455    0.000    3.273   15.273    2.182 
#    3.273    3.636    0.000    0.000    0.000    0.000 
#    0.000    0.000    0.000    0.000    0.000    0.000 
#
# Total GULP energy -272573.814379 kJ/mol
# GULP energy per Si atom -12389.718835 kJ/mol
# Density = 2.199457 g / cm^3
# Si number density = 22.044742 Si / 1000 Ang^3
#
#
#
# Elastic Constant Matrix: (Units=GPa)
#
#
# Indices 1 2 3 4 5 6 
#
# 1 157.7284 59.6724 51.9520 0.0000 0.0000 0.0000
# 2 59.6724 135.8737 40.6523 0.0000 0.0000 0.0000
# 3 51.9520 40.6523 96.0648 0.0000 0.0000 0.0000
# 4 0.0000 0.0000 0.0000 42.0621 0.0000 0.0000
# 5 0.0000 0.0000 0.0000 0.0000 34.1112 0.0000
# 6 0.0000 0.0000 0.0000 0.0000 0.0000 33.7136
#
#
#
# Elastic Compliance Matrix: (Units=1/GPa)
#
#
# Indices 1 2 3 4 5 6 
#
# 1 0.008499 -0.002699 -0.003454 0.000000 0.000000 0.000000
# 2 -0.002699 0.009284 -0.002469 0.000000 0.000000 0.000000
# 3 -0.003454 -0.002469 0.013322 0.000000 0.000000 0.000000
# 4 0.000000 0.000000 0.000000 0.023774 0.000000 0.000000
# 5 0.000000 0.000000 0.000000 0.000000 0.029316 0.000000
# 6 0.000000 0.000000 0.000000 0.000000 0.000000 0.029662
#
#
# Mechanical properties :
#
#
# Convention : Reuss Voigt Hill
#
# Bulk Modulus (GPa) = 72.14554 77.13559 74.64057
# Shear Modulus (GPa) = 36.84020 37.80342 37.32181
#
# Velocity S-wave (km/s) = 4.09241 4.14557 4.11908
# Velocity P-wave (km/s) = 7.42485 7.61451 7.52028
#
# Compressibility (1/GPa) = 0.01386087
#
# Stress axis : x y z
#
# Youngs Moduli (GPa) = 117.66385 107.71389 75.06153
#
# Poissons Ratio (x) = 0.29073 0.25926
# Poissons Ratio (y) = 0.31758 0.18533
# Poissons Ratio (z) = 0.40641 0.26595
#
# Static dielectric constant tensor:
#      x y z
#    x 4.455840 0.000000 0.000000 
#    y 0.000000 4.101400 0.000000 
#    z 0.000000 0.000000 4.172260 
# 
# 
# High freq. dielectric constant tensor:
#      x y z
#    x 1.852590 0.000000 0.000000 
#    y 0.000000 1.889730 0.000000 
#    z 0.000000 0.000000 1.877080 
# 
# From -- ./inp_files/3209.got.cif
#   From: 2010.03.12/outbox.cif.g09.slc.cpg/sg39_2_cif.got.tgz:3209.got - 2010.04.14 02:53:20.
