data_PCOD8182466
_publ_section_title
;
Structure prediction by ZEFSAII (Michael W. Deem and Ramdas Pophale) SiO2 
 PCOD8182466
Probable space group: A M A 2
;
_chemical_formula_sum "Si O2"
_cell_formula_units_Z 64
_cell_length_a 8.992920
_cell_length_b 23.424105
_cell_length_c 19.229277
_cell_angle_alpha 90.000000
_cell_angle_beta 90.000000
_cell_angle_gamma 90.000000
_cell_volume 4050.668397
_symmetry_space_group_name_H-M "A M A 2"
_symmetry_group_IT_number 40
_symmetry_cell_setting 'orthorhombic'
loop_
_space_group_symop_operation_xyz
x,y,z
-x,-y,z
1/2-x,y,z
1/2+x,-y,z
x,1/2+y,1/2+z
-x,1/2-y,1/2+z
1/2-x,1/2+y,1/2+z
1/2+x,1/2-y,1/2+z
loop_
_atom_site_type_symbol
_atom_site_label
_atom_site_fract_x
_atom_site_fract_y
_atom_site_fract_z
Si Si1 0.926118 0.758212 0.314580
Si Si2 0.573702 0.887922 0.310188
Si Si3 0.924808 0.940380 0.457070
Si Si4 0.424456 0.769435 0.962209
Si Si5 0.425438 0.273586 0.165716
Si Si6 0.925469 0.337424 0.050911
Si Si7 0.424766 0.441726 0.677448
Si Si8 0.076643 0.831396 0.093842
O O1 0.750000 0.762167 0.319445
O O2 0.985668 0.823037 0.309129
O O3 0.992913 0.727368 0.384089
O O4 0.972992 0.721954 0.246856
O O5 0.750000 0.891582 0.298311
O O6 0.524721 0.915566 0.383041
O O7 0.492043 0.923298 0.250775
O O8 0.750000 0.948828 0.457816
O O9 0.974818 0.897576 0.518551
O O10 0.000000 0.000000 0.473196
O O11 0.250000 0.763876 0.953037
O O12 0.482992 0.712170 0.999434
O O13 0.464520 0.823666 0.011526
O O14 0.250000 0.275852 0.156051
O O15 0.497871 0.327204 0.125694
O O16 0.481702 0.212607 0.138731
O O17 0.750000 0.333879 0.061438
O O18 0.500000 0.500000 0.651822
O O19 0.250000 0.450897 0.686786
O O20 0.461048 0.395232 0.617791
O O21 0.250000 0.816624 0.105685
#
# Coordination Sequence:
#
# PCOD8182466 Si02
#       8
#     8   8   8   8   8   8   8   8
#     4   9  15  25  45  70  92 118 148 179 221 269
#     4  10  18  31  47  66  93 125 157 188 221 264
#     4  10  20  32  48  66  89 124 162 194 227 263
#     4   8  13  26  47  65  84 113 149 183 215 267
#     4  10  18  27  45  70  93 116 145 185 229 266
#     4   9  17  31  47  63  87 122 155 184 222 268
#     4  11  22  33  45  65  91 125 160 191 226 265
#     4   9  18  31  47  65  87 117 153 188 224 266
#
# _framework density 15.799861999999999
#
# number of rings (size 3 to 8) (size 9 to 14) (size 15 to 20)
#    0.000    2.500    2.500    1.875    0.000    2.500 
#    0.000    0.000    0.000    6.000    0.000    0.875 
#    0.000    4.000    0.000    0.000    0.000    0.000 
#
# Total GULP energy -396626.311647 kJ/mol
# GULP energy per Si atom -12394.572239 kJ/mol
# Density = 1.576390 g / cm^3
# Si number density = 15.799862 Si / 1000 Ang^3
#
#
#
# Elastic Constant Matrix: (Units=GPa)
#
#
# Indices 1 2 3 4 5 6 
#
# 1 37.0024 32.8151 35.4154 0.0000 0.0000 0.0000
# 2 32.8151 105.6146 74.5642 0.0000 0.0000 0.0000
# 3 35.4154 74.5642 138.8735 0.0000 0.0000 0.0000
# 4 0.0000 0.0000 0.0000 25.4555 0.0000 0.0000
# 5 0.0000 0.0000 0.0000 0.0000 19.0443 0.0000
# 6 0.0000 0.0000 0.0000 0.0000 0.0000 19.6997
#
#
#
# Elastic Compliance Matrix: (Units=1/GPa)
#
#
# Indices 1 2 3 4 5 6 
#
# 1 0.039893 -0.008395 -0.005666 0.000000 0.000000 0.000000
# 2 -0.008395 0.017015 -0.006995 0.000000 0.000000 0.000000
# 3 -0.005666 -0.006995 0.012402 0.000000 0.000000 0.000000
# 4 0.000000 0.000000 0.000000 0.039284 0.000000 0.000000
# 5 0.000000 0.000000 0.000000 0.000000 0.052509 0.000000
# 6 0.000000 0.000000 0.000000 0.000000 0.000000 0.050762
#
#
# Mechanical properties :
#
#
# Convention : Reuss Voigt Hill
#
# Bulk Modulus (GPa) = 36.76733 63.00887 49.88810
# Shear Modulus (GPa) = 19.00828 22.08630 20.54729
#
# Velocity S-wave (km/s) = 3.47229 3.74288 3.61012
# Velocity P-wave (km/s) = 6.27669 7.65799 7.00149
#
# Compressibility (1/GPa) = 0.02719806
#
# Stress axis : x y z
#
# Youngs Moduli (GPa) = 25.06695 58.77106 80.63494
#
# Poissons Ratio (x) = 0.49336 0.45690
# Poissons Ratio (y) = 0.21043 0.56404
# Poissons Ratio (z) = 0.14203 0.41110
#
# Static dielectric constant tensor:
#      x y z
#    x 2.819310 0.000000 0.000000 
#    y 0.000000 2.953480 0.000000 
#    z 0.000000 0.000000 3.374440 
# 
# 
# High freq. dielectric constant tensor:
#      x y z
#    x 1.588530 0.000000 0.000000 
#    y 0.000000 1.582650 0.000000 
#    z 0.000000 0.000000 1.608670 
# 
# From -- ./inp_files/19705.got.cif
#   From: 2010.03.12/outbox.cif.g09.slc.cpg/sg40_10_cif.got.tgz:19705.got - 2010.04.14 01:38:03.
