data_PCOD8182882
_publ_section_title
;
Structure prediction by ZEFSAII (Michael W. Deem and Ramdas Pophale) SiO2 
 PCOD8182882
Probable space group: A M A 2
;
_chemical_formula_sum "Si O2"
_cell_formula_units_Z 56
_cell_length_a 9.719047
_cell_length_b 20.617839
_cell_length_c 14.786155
_cell_angle_alpha 90.000000
_cell_angle_beta 90.000000
_cell_angle_gamma 90.000000
_cell_volume 2962.934704
_symmetry_space_group_name_H-M "A M A 2"
_symmetry_group_IT_number 40
_symmetry_cell_setting 'orthorhombic'
loop_
_space_group_symop_operation_xyz
x,y,z
-x,-y,z
1/2-x,y,z
1/2+x,-y,z
x,1/2+y,1/2+z
-x,1/2-y,1/2+z
1/2-x,1/2+y,1/2+z
1/2+x,1/2-y,1/2+z
loop_
_atom_site_type_symbol
_atom_site_label
_atom_site_fract_x
_atom_site_fract_y
_atom_site_fract_z
Si Si1 0.912726 0.307725 0.736630
Si Si2 0.600596 0.551611 0.116517
Si Si3 0.909845 0.435080 0.845503
Si Si4 0.904548 0.217121 0.061726
Si Si5 0.400216 0.947233 0.822570
Si Si6 0.587127 0.192990 0.866338
Si Si7 0.099069 0.133685 0.533018
O O1 0.750000 0.297502 0.720443
O O2 0.943456 0.381165 0.768716
O O3 0.970443 0.254565 0.809436
O O4 0.991989 0.296235 0.642969
O O5 0.500000 0.500000 0.065975
O O6 0.750000 0.554463 0.068419
O O7 0.620435 0.531382 0.219421
O O8 0.519656 0.619200 0.106673
O O9 0.750000 0.455294 0.840835
O O10 0.000000 0.500000 0.830803
O O11 0.944922 0.398774 0.938680
O O12 0.750000 0.193167 0.088404
O O13 0.894535 0.290197 0.026574
O O14 0.963504 0.184709 0.970132
O O15 0.250000 0.949121 0.870932
O O16 0.461978 0.874695 0.821798
O O17 0.500000 0.000000 0.870432
O O18 0.750000 0.200220 0.865412
O O19 0.250000 0.106788 0.563074
#
# Coordination Sequence:
#
# PCOD8182882 Si02
#       7
#     8   8   8   8   8   8   8
#     4  10  20  38  60  82 111 149 191 234 283 339
#     4  10  19  30  46  73 105 139 175 215 264 324
#     4  10  21  37  57  80 111 152 193 236 286 343
#     4  10  20  35  57  83 109 141 186 233 281 335
#     4   9  18  32  51  74 102 139 179 216 265 326
#     4   9  17  35  59  78 104 145 183 218 274 342
#     4  10  19  33  52  78 108 141 179 226 282 337
#
# _framework density 18.900179999999999
#
# number of rings (size 3 to 8) (size 9 to 14) (size 15 to 20)
#    0.000    2.286    1.429    1.714    0.000    4.571 
#    0.000    2.857    0.000    3.429    0.000    0.000 
#    0.000    0.000    0.000    0.000    0.000    0.000 
#
# Total GULP energy -346873.279179 kJ/mol
# GULP energy per Si atom -12388.331399 kJ/mol
# Density = 1.885716 g / cm^3
# Si number density = 18.900180 Si / 1000 Ang^3
#
#
#
# Elastic Constant Matrix: (Units=GPa)
#
#
# Indices 1 2 3 4 5 6 
#
# 1 101.7739 52.1409 40.1601 0.0000 0.0000 0.0000
# 2 52.1409 111.9252 34.2862 0.0000 0.0000 0.0000
# 3 40.1601 34.2862 89.9496 0.0000 0.0000 0.0000
# 4 0.0000 0.0000 0.0000 29.5246 0.0000 0.0000
# 5 0.0000 0.0000 0.0000 0.0000 23.8545 0.0000
# 6 0.0000 0.0000 0.0000 0.0000 0.0000 30.1913
#
#
#
# Elastic Compliance Matrix: (Units=1/GPa)
#
#
# Indices 1 2 3 4 5 6 
#
# 1 0.014261 -0.005314 -0.004342 0.000000 0.000000 0.000000
# 2 -0.005314 0.012096 -0.002238 0.000000 0.000000 0.000000
# 3 -0.004342 -0.002238 0.013909 0.000000 0.000000 0.000000
# 4 0.000000 0.000000 0.000000 0.033870 0.000000 0.000000
# 5 0.000000 0.000000 0.000000 0.000000 0.041921 0.000000
# 6 0.000000 0.000000 0.000000 0.000000 0.000000 0.033122
#
#
# Mechanical properties :
#
#
# Convention : Reuss Voigt Hill
#
# Bulk Modulus (GPa) = 60.68477 61.86922 61.27699
# Shear Modulus (GPa) = 28.01765 28.51816 28.26791
#
# Velocity S-wave (km/s) = 3.85437 3.88865 3.87155
# Velocity P-wave (km/s) = 7.21013 7.27791 7.24410
#
# Compressibility (1/GPa) = 0.01647860
#
# Stress axis : x y z
#
# Youngs Moduli (GPa) = 70.11984 82.67527 71.89611
#
# Poissons Ratio (x) = 0.43931 0.31216
# Poissons Ratio (y) = 0.37259 0.16091
# Poissons Ratio (z) = 0.30445 0.18503
#
# Static dielectric constant tensor:
#      x y z
#    x 3.719070 0.000000 0.000000 
#    y 0.000000 3.565120 0.000000 
#    z 0.000000 0.000000 3.281340 
# 
# 
# High freq. dielectric constant tensor:
#      x y z
#    x 1.722820 0.000000 0.000000 
#    y 0.000000 1.737830 0.000000 
#    z 0.000000 0.000000 1.710570 
# 
# From -- ./inp_files/15269.got.cif
#   From: 2010.03.12/outbox.cif.g09.slc.cpg/sg40_8_cif.got.tgz:15269.got - 2010.04.14 01:38:03.
