data_PCOD8182752
_publ_section_title
;
Structure prediction by ZEFSAII (Michael W. Deem and Ramdas Pophale) SiO2 
 PCOD8182752
Probable space group: A M A 2
;
_chemical_formula_sum "Si O2"
_cell_formula_units_Z 64
_cell_length_a 18.971557
_cell_length_b 17.511681
_cell_length_c 9.424005
_cell_angle_alpha 90.000000
_cell_angle_beta 90.000000
_cell_angle_gamma 90.000000
_cell_volume 3130.879264
_symmetry_space_group_name_H-M "A M A 2"
_symmetry_group_IT_number 40
_symmetry_cell_setting 'orthorhombic'
loop_
_space_group_symop_operation_xyz
x,y,z
-x,-y,z
1/2-x,y,z
1/2+x,-y,z
x,1/2+y,1/2+z
-x,1/2-y,1/2+z
1/2-x,1/2+y,1/2+z
1/2+x,1/2-y,1/2+z
loop_
_atom_site_type_symbol
_atom_site_label
_atom_site_fract_x
_atom_site_fract_y
_atom_site_fract_z
Si Si1 0.172271 0.147672 0.421640
Si Si2 0.827388 0.182209 0.833798
Si Si3 0.573498 0.845924 0.947662
Si Si4 0.832548 0.097637 0.278932
Si Si5 0.449531 0.655910 0.115809
Si Si6 0.102776 0.325760 0.033338
Si Si7 0.830952 0.935996 0.143417
Si Si8 0.928255 0.669594 0.561775
O O1 0.250000 0.113194 0.461138
O O2 0.177141 0.238524 0.419504
O O3 0.114323 0.113416 0.531630
O O4 0.151720 0.126543 0.261740
O O5 0.750000 0.143577 0.832013
O O6 0.855755 0.190617 0.676948
O O7 0.881768 0.135144 0.931173
O O8 0.558214 0.859724 0.782062
O O9 0.597446 0.757717 0.960885
O O10 0.629672 0.908962 0.000582
O O11 0.505332 0.867095 0.043505
O O12 0.750000 0.115928 0.251405
O O13 0.850900 0.112959 0.443775
O O14 0.886942 0.155099 0.205977
O O15 0.853809 0.015592 0.216043
O O16 0.527907 0.632550 0.064283
O O17 0.442671 0.741349 0.061359
O O18 0.750000 0.939344 0.099532
#
# Coordination Sequence:
#
# PCOD8182752 Si02
#       8
#     8   8   8   8   8   8   8   8
#     4   9  19  36  58  84 116 156 199 246 305 361
#     4  10  18  33  57  86 119 154 196 249 306 362
#     4  11  21  37  62  90 122 157 203 254 303 367
#     4  11  24  41  60  89 124 160 202 250 306 369
#     4  10  21  36  59  91 121 150 199 258 303 357
#     4  11  21  36  60  92 122 155 201 256 309 362
#     4  10  23  41  61  86 120 160 203 250 302 365
#     4  10  21  36  58  89 122 156 192 252 312 357
#
# _framework density 20.441541999999998
#
# number of rings (size 3 to 8) (size 9 to 14) (size 15 to 20)
#    0.000    1.750    3.750    0.750    1.750    2.000 
#    0.000    1.250    2.750    3.000    0.000    0.000 
#    0.000    0.000    0.000    0.000    0.000    0.000 
#
# Total GULP energy -396456.117243 kJ/mol
# GULP energy per Si atom -12389.253664 kJ/mol
# Density = 2.039502 g / cm^3
# Si number density = 20.441542 Si / 1000 Ang^3
#
#
#
# Elastic Constant Matrix: (Units=GPa)
#
#
# Indices 1 2 3 4 5 6 
#
# 1 131.1970 24.1982 46.0031 0.0000 0.0000 0.0000
# 2 24.1982 36.8983 11.2149 0.0000 0.0000 0.0000
# 3 46.0031 11.2149 89.4514 0.0000 0.0000 0.0000
# 4 0.0000 0.0000 0.0000 21.6392 0.0000 0.0000
# 5 0.0000 0.0000 0.0000 0.0000 45.1449 0.0000
# 6 0.0000 0.0000 0.0000 0.0000 0.0000 19.2540
#
#
#
# Elastic Compliance Matrix: (Units=1/GPa)
#
#
# Indices 1 2 3 4 5 6 
#
# 1 0.010207 -0.005301 -0.004585 0.000000 0.000000 0.000000
# 2 -0.005301 0.030928 -0.001152 0.000000 0.000000 0.000000
# 3 -0.004585 -0.001152 0.013682 0.000000 0.000000 0.000000
# 4 0.000000 0.000000 0.000000 0.046212 0.000000 0.000000
# 5 0.000000 0.000000 0.000000 0.000000 0.022151 0.000000
# 6 0.000000 0.000000 0.000000 0.000000 0.000000 0.051937
#
#
# Mechanical properties :
#
#
# Convention : Reuss Voigt Hill
#
# Bulk Modulus (GPa) = 30.54129 46.70877 38.62503
# Shear Modulus (GPa) = 24.02626 28.94965 26.48795
#
# Velocity S-wave (km/s) = 3.43208 3.76735 3.60361
# Velocity P-wave (km/s) = 5.53884 6.46710 6.02089
#
# Compressibility (1/GPa) = 0.03274256
#
# Stress axis : x y z
#
# Youngs Moduli (GPa) = 97.96787 32.33355 73.09106
#
# Poissons Ratio (x) = 0.17139 0.33512
# Poissons Ratio (y) = 0.51928 0.08417
# Poissons Ratio (z) = 0.44918 0.03723
#
# Static dielectric constant tensor:
#      x y z
#    x 4.274570 0.000000 0.000000 
#    y 0.000000 3.269320 0.000000 
#    z 0.000000 0.000000 3.661560 
# 
# 
# High freq. dielectric constant tensor:
#      x y z
#    x 1.820330 0.000000 0.000000 
#    y 0.000000 1.750290 0.000000 
#    z 0.000000 0.000000 1.802000 
# 
# From -- ./inp_files/7783.got.cif
#   From: 2010.03.12/outbox.cif.g09.slc.cpg/sg40_4_cif.got.tgz:7783.got - 2010.04.14 01:38:03.
