data_PCOD8182372
_publ_section_title
;
Structure prediction by ZEFSAII (Michael W. Deem and Ramdas Pophale) SiO2 
 PCOD8182372
Probable space group: A M A 2
;
_chemical_formula_sum "Si O2"
_cell_formula_units_Z 64
_cell_length_a 8.883610
_cell_length_b 24.668629
_cell_length_c 20.194440
_cell_angle_alpha 90.000000
_cell_angle_beta 90.000000
_cell_angle_gamma 90.000000
_cell_volume 4425.540427
_symmetry_space_group_name_H-M "A M A 2"
_symmetry_group_IT_number 40
_symmetry_cell_setting 'orthorhombic'
loop_
_space_group_symop_operation_xyz
x,y,z
-x,-y,z
1/2-x,y,z
1/2+x,-y,z
x,1/2+y,1/2+z
-x,1/2-y,1/2+z
1/2-x,1/2+y,1/2+z
1/2+x,1/2-y,1/2+z
loop_
_atom_site_type_symbol
_atom_site_label
_atom_site_fract_x
_atom_site_fract_y
_atom_site_fract_z
Si Si1 0.425095 0.944384 0.333060
Si Si2 0.073909 0.756530 0.266333
Si Si3 0.422391 0.160940 0.349442
Si Si4 0.419684 0.903122 0.188913
Si Si5 0.420998 0.774541 0.890988
Si Si6 0.426768 0.164275 0.008935
Si Si7 0.420709 0.445646 0.547555
Si Si8 0.923848 0.297513 0.649069
O O1 0.250000 0.945590 0.350673
O O2 0.504612 0.895333 0.374079
O O3 0.457455 0.936531 0.255125
O O4 0.500000 0.000000 0.357020
O O5 0.250000 0.746270 0.271614
O O6 0.026236 0.818230 0.287724
O O7 0.988407 0.715217 0.316618
O O8 0.017943 0.751689 0.189991
O O9 0.250000 0.151860 0.326252
O O10 0.427700 0.209068 0.404791
O O11 0.250000 0.878021 0.192311
O O12 0.430888 0.944080 0.127172
O O13 0.542628 0.857016 0.177289
O O14 0.250000 0.795940 0.893806
O O15 0.521926 0.805332 0.943285
O O16 0.250000 0.154444 0.006767
O O17 0.504038 0.106181 0.013292
O O18 0.470214 0.202506 0.071598
O O19 0.500000 0.500000 0.521694
O O20 0.250000 0.446959 0.522858
O O21 0.750000 0.283892 0.659202
#
# Coordination Sequence:
#
# PCOD8182372 Si02
#       8
#     8   8   8   8   8   8   8   8
#     4  11  20  27  38  56  79 108 141 177 211 246
#     4  10  17  27  44  61  80 107 139 172 212 255
#     4   9  18  30  43  58  77 103 137 174 212 251
#     4   9  17  27  38  52  73 106 142 175 209 243
#     4   9  18  31  47  63  80 106 139 176 215 256
#     4  10  20  31  45  64  85 110 143 179 214 254
#     4  10  19  30  41  55  78 108 141 175 212 250
#     4  10  18  27  41  61  84 110 140 177 214 248
#
# _framework density 14.461511
#
# number of rings (size 3 to 8) (size 9 to 14) (size 15 to 20)
#    0.750    1.500    1.250    3.375    0.000    2.500 
#    0.000    0.000    0.000    0.000    0.000    0.000 
#    0.000    0.000    0.000    1.125    0.000   17.500 
#
# Total GULP energy -396510.262427 kJ/mol
# GULP energy per Si atom -12390.945701 kJ/mol
# Density = 1.442860 g / cm^3
# Si number density = 14.461511 Si / 1000 Ang^3
#
#
#
# Elastic Constant Matrix: (Units=GPa)
#
#
# Indices 1 2 3 4 5 6 
#
# 1 82.1784 27.3224 30.0531 0.0000 0.0000 0.0000
# 2 27.3224 51.2377 29.0623 0.0000 0.0000 0.0000
# 3 30.0531 29.0623 58.7226 0.0000 0.0000 0.0000
# 4 0.0000 0.0000 0.0000 16.7774 0.0000 0.0000
# 5 0.0000 0.0000 0.0000 0.0000 19.0136 0.0000
# 6 0.0000 0.0000 0.0000 0.0000 0.0000 24.0369
#
#
#
# Elastic Compliance Matrix: (Units=1/GPa)
#
#
# Indices 1 2 3 4 5 6 
#
# 1 0.015976 -0.005397 -0.005506 0.000000 0.000000 0.000000
# 2 -0.005397 0.028957 -0.011569 0.000000 0.000000 0.000000
# 3 -0.005506 -0.011569 0.025572 0.000000 0.000000 0.000000
# 4 0.000000 0.000000 0.000000 0.059604 0.000000 0.000000
# 5 0.000000 0.000000 0.000000 0.000000 0.052594 0.000000
# 6 0.000000 0.000000 0.000000 0.000000 0.000000 0.041603
#
#
# Mechanical properties :
#
#
# Convention : Reuss Voigt Hill
#
# Bulk Modulus (GPa) = 39.11887 40.55715 39.83801
# Shear Modulus (GPa) = 18.00054 19.01229 18.50642
#
# Velocity S-wave (km/s) = 3.53189 3.62979 3.58117
# Velocity P-wave (km/s) = 6.61373 6.75817 6.68634
#
# Compressibility (1/GPa) = 0.02556311
#
# Stress axis : x y z
#
# Youngs Moduli (GPa) = 62.59270 34.53449 39.10458
#
# Poissons Ratio (x) = 0.18637 0.21529
# Poissons Ratio (y) = 0.33778 0.45240
# Poissons Ratio (z) = 0.34461 0.39953
#
# Static dielectric constant tensor:
#      x y z
#    x 2.908780 0.000000 0.000000 
#    y 0.000000 2.526480 0.000000 
#    z 0.000000 0.000000 2.618580 
# 
# 
# High freq. dielectric constant tensor:
#      x y z
#    x 1.574210 0.000000 0.000000 
#    y 0.000000 1.516200 0.000000 
#    z 0.000000 0.000000 1.514010 
# 
# From -- ./inp_files/22589.got.cif
#   From: 2010.03.12/outbox.cif.g09.slc.cpg/sg40_12_cif.got.tgz:22589.got - 2010.04.14 01:38:03.
