data_PCOD8182507
_publ_section_title
;
Structure prediction by ZEFSAII (Michael W. Deem and Ramdas Pophale) SiO2 
 PCOD8182507
Probable space group: A M A 2
;
_chemical_formula_sum "Si O2"
_cell_formula_units_Z 64
_cell_length_a 14.504377
_cell_length_b 18.155876
_cell_length_c 14.144743
_cell_angle_alpha 90.000000
_cell_angle_beta 90.000000
_cell_angle_gamma 90.000000
_cell_volume 3724.871958
_symmetry_space_group_name_H-M "A M A 2"
_symmetry_group_IT_number 40
_symmetry_cell_setting 'orthorhombic'
loop_
_space_group_symop_operation_xyz
x,y,z
-x,-y,z
1/2-x,y,z
1/2+x,-y,z
x,1/2+y,1/2+z
-x,1/2-y,1/2+z
1/2-x,1/2+y,1/2+z
1/2+x,1/2-y,1/2+z
loop_
_atom_site_type_symbol
_atom_site_label
_atom_site_fract_x
_atom_site_fract_y
_atom_site_fract_z
Si Si1 0.854675 0.314545 0.772940
Si Si2 0.355773 0.113195 0.461371
Si Si3 0.600054 0.524931 0.258110
Si Si4 0.473299 0.825048 0.777688
Si Si5 0.854982 0.814705 0.060872
Si Si6 0.851808 0.039609 0.549535
Si Si7 0.147347 0.614613 0.372331
Si Si8 0.976980 0.675870 0.056219
O O1 0.750000 0.284008 0.774574
O O2 0.865700 0.381389 0.847191
O O3 0.922047 0.249324 0.806991
O O4 0.879932 0.342318 0.667048
O O5 0.250000 0.129142 0.492560
O O6 0.422345 0.174498 0.508082
O O7 0.388155 0.033236 0.496446
O O8 0.500000 0.500000 0.223503
O O9 0.592416 0.605790 0.305979
O O10 0.658925 0.525839 0.162334
O O11 0.639049 0.469496 0.337171
O O12 0.573226 0.830662 0.825978
O O13 0.491640 0.828327 0.667088
O O14 0.750000 0.784482 0.059694
O O15 0.922670 0.749511 0.028013
O O16 0.866638 0.881858 0.986463
O O17 0.750000 0.059229 0.511895
O O18 0.918765 0.105662 0.521342
O O19 0.250000 0.643356 0.346410
#
# Coordination Sequence:
#
# PCOD8182507 Si02
#       8
#     8   8   8   8   8   8   8   8
#     4   9  18  32  47  64  86 115 153 187 214 248
#     4  10  19  29  44  66  91 118 145 178 219 261
#     4   9  17  28  43  66  94 119 142 173 217 265
#     4   9  18  30  46  68  91 117 143 177 220 264
#     4   9  18  31  47  66  87 116 152 184 214 251
#     4  10  18  28  45  69  93 115 141 175 220 268
#     4  10  18  28  44  67  94 119 143 176 219 263
#     4  10  18  30  47  66  92 117 142 178 220 264
#
# _framework density 17.181799000000002
#
# number of rings (size 3 to 8) (size 9 to 14) (size 15 to 20)
#    0.000    2.500    0.000    4.125    0.000    5.000 
#    0.000    0.000    0.000    4.500    0.000    0.000 
#    0.000   14.000    0.000    0.000    0.000    0.000 
#
# Total GULP energy -396611.265754 kJ/mol
# GULP energy per Si atom -12394.102055 kJ/mol
# Density = 1.714269 g / cm^3
# Si number density = 17.181799 Si / 1000 Ang^3
#
#
#
# Elastic Constant Matrix: (Units=GPa)
#
#
# Indices 1 2 3 4 5 6 
#
# 1 76.8507 20.7468 33.4384 0.0000 0.0000 0.0000
# 2 20.7468 62.8082 47.8552 0.0000 0.0000 0.0000
# 3 33.4384 47.8552 74.7767 0.0000 0.0000 0.0000
# 4 0.0000 0.0000 0.0000 25.1759 0.0000 0.0000
# 5 0.0000 0.0000 0.0000 0.0000 22.5206 0.0000
# 6 0.0000 0.0000 0.0000 0.0000 0.0000 19.2928
#
#
#
# Elastic Compliance Matrix: (Units=1/GPa)
#
#
# Indices 1 2 3 4 5 6 
#
# 1 0.016159 0.000328 -0.007436 0.000000 0.000000 0.000000
# 2 0.000328 0.031080 -0.020037 0.000000 0.000000 0.000000
# 3 -0.007436 -0.020037 0.029521 0.000000 0.000000 0.000000
# 4 0.000000 0.000000 0.000000 0.039720 0.000000 0.000000
# 5 0.000000 0.000000 0.000000 0.000000 0.044404 0.000000
# 6 0.000000 0.000000 0.000000 0.000000 0.000000 0.051833
#
#
# Mechanical properties :
#
#
# Convention : Reuss Voigt Hill
#
# Bulk Modulus (GPa) = 44.50256 46.50181 45.50219
# Shear Modulus (GPa) = 18.21509 20.89088 19.55298
#
# Velocity S-wave (km/s) = 3.25951 3.49072 3.37709
# Velocity P-wave (km/s) = 6.33428 6.58560 6.46116
#
# Compressibility (1/GPa) = 0.02247062
#
# Stress axis : x y z
#
# Youngs Moduli (GPa) = 61.88460 32.17511 33.87367
#
# Poissons Ratio (x) = -0.01055 0.25188
# Poissons Ratio (y) = -0.02029 0.67873
# Poissons Ratio (z) = 0.46016 0.64469
#
# Static dielectric constant tensor:
#      x y z
#    x 3.326430 0.000000 0.000000 
#    y 0.000000 3.179260 0.000000 
#    z 0.000000 0.000000 3.178070 
# 
# 
# High freq. dielectric constant tensor:
#      x y z
#    x 1.674470 0.000000 0.000000 
#    y 0.000000 1.636320 0.000000 
#    z 0.000000 0.000000 1.652040 
# 
# From -- ./inp_files/17279.got.cif
#   From: 2010.03.12/outbox.cif.g09.slc.cpg/sg40_9_cif.got.tgz:17279.got - 2010.04.14 01:38:03.
