data_PCOD8182758
_publ_section_title
;
Structure prediction by ZEFSAII (Michael W. Deem and Ramdas Pophale) SiO2 
 PCOD8182758
Probable space group: A M A 2
;
_chemical_formula_sum "Si O2"
_cell_formula_units_Z 64
_cell_length_a 8.773896
_cell_length_b 23.962877
_cell_length_c 15.363522
_cell_angle_alpha 90.000000
_cell_angle_beta 90.000000
_cell_angle_gamma 90.000000
_cell_volume 3230.146557
_symmetry_space_group_name_H-M "A M A 2"
_symmetry_group_IT_number 40
_symmetry_cell_setting 'orthorhombic'
loop_
_space_group_symop_operation_xyz
x,y,z
-x,-y,z
1/2-x,y,z
1/2+x,-y,z
x,1/2+y,1/2+z
-x,1/2-y,1/2+z
1/2-x,1/2+y,1/2+z
1/2+x,1/2-y,1/2+z
loop_
_atom_site_type_symbol
_atom_site_label
_atom_site_fract_x
_atom_site_fract_y
_atom_site_fract_z
Si Si1 0.068436 0.060647 0.130100
Si Si2 0.428307 0.639604 0.782029
Si Si3 0.923847 0.747588 0.022047
Si Si4 0.928885 0.559868 0.121552
Si Si5 0.070574 0.632224 0.470009
Si Si6 0.571900 0.372781 0.274631
Si Si7 0.926550 0.864615 0.477130
Si Si8 0.076329 0.758498 0.727737
O O1 0.250000 0.056641 0.131447
O O2 0.004159 0.096795 0.211273
O O3 0.006324 0.088726 0.040973
O O4 0.000000 0.000000 0.138521
O O5 0.250000 0.645398 0.763948
O O6 0.462407 0.616169 0.878430
O O7 0.493860 0.702259 0.770340
O O8 0.750000 0.737348 0.990478
O O9 0.993362 0.805558 0.986110
O O10 0.033334 0.700215 0.984618
O O11 0.930519 0.748631 0.125178
O O12 0.750000 0.553308 0.125083
O O13 0.000000 0.500000 0.104574
O O14 0.982427 0.585184 0.212738
O O15 0.970928 0.599990 0.042163
O O16 0.250000 0.636632 0.483080
O O17 0.027332 0.611237 0.373572
O O18 0.750000 0.380610 0.257074
O O19 0.529934 0.308935 0.257213
O O20 0.750000 0.873713 0.500835
O O21 0.250000 0.770450 0.757888
#
# Coordination Sequence:
#
# PCOD8182758 Si02
#       8
#     8   8   8   8   8   8   8   8
#     4  10  20  39  60  81 111 150 194 236 281 338
#     4   9  19  36  60  86 117 157 194 231 284 347
#     4  10  18  33  59  87 117 157 195 231 284 344
#     4  12  26  45  64  83 111 152 198 244 295 348
#     4   9  19  36  60  86 117 157 194 231 284 347
#     4  11  22  37  59  90 122 152 189 237 290 344
#     4  11  22  37  59  90 122 152 189 237 290 344
#     4  10  18  33  59  87 117 157 195 231 284 344
#
# _framework density 19.813343
#
# number of rings (size 3 to 8) (size 9 to 14) (size 15 to 20)
#    0.000    1.750    2.500    2.625    0.000    1.000 
#    0.000    7.500    0.000    0.000    0.000    0.000 
#    0.000    0.000    0.000    0.000    0.000    0.000 
#
# Total GULP energy -396853.861622 kJ/mol
# GULP energy per Si atom -12401.683176 kJ/mol
# Density = 1.976825 g / cm^3
# Si number density = 19.813343 Si / 1000 Ang^3
#
#
#
# Elastic Constant Matrix: (Units=GPa)
#
#
# Indices 1 2 3 4 5 6 
#
# 1 67.7498 14.7280 29.0601 0.0000 0.0000 0.0000
# 2 14.7280 83.2439 21.4179 0.0000 0.0000 0.0000
# 3 29.0601 21.4179 108.5823 0.0000 0.0000 0.0000
# 4 0.0000 0.0000 0.0000 9.4611 0.0000 0.0000
# 5 0.0000 0.0000 0.0000 0.0000 12.2591 0.0000
# 6 0.0000 0.0000 0.0000 0.0000 0.0000 33.9284
#
#
#
# Elastic Compliance Matrix: (Units=1/GPa)
#
#
# Indices 1 2 3 4 5 6 
#
# 1 0.016964 -0.001931 -0.004159 0.000000 0.000000 0.000000
# 2 -0.001931 0.012875 -0.002023 0.000000 0.000000 0.000000
# 3 -0.004159 -0.002023 0.010722 0.000000 0.000000 0.000000
# 4 0.000000 0.000000 0.000000 0.105696 0.000000 0.000000
# 5 0.000000 0.000000 0.000000 0.000000 0.081572 0.000000
# 6 0.000000 0.000000 0.000000 0.000000 0.000000 0.029474
#
#
# Mechanical properties :
#
#
# Convention : Reuss Voigt Hill
#
# Bulk Modulus (GPa) = 41.09405 43.33201 42.21303
# Shear Modulus (GPa) = 17.75315 24.08772 20.92044
#
# Velocity S-wave (km/s) = 2.99661 3.49052 3.25295
# Velocity P-wave (km/s) = 5.72350 6.17758 5.95487
#
# Compressibility (1/GPa) = 0.02433442
#
# Stress axis : x y z
#
# Youngs Moduli (GPa) = 58.94828 77.66986 93.26862
#
# Poissons Ratio (x) = 0.15000 0.38792
# Poissons Ratio (y) = 0.11384 0.18866
# Poissons Ratio (z) = 0.24518 0.15711
#
# Static dielectric constant tensor:
#      x y z
#    x 3.477830 0.000000 0.000000 
#    y 0.000000 3.658160 0.000000 
#    z 0.000000 0.000000 3.837330 
# 
# 
# High freq. dielectric constant tensor:
#      x y z
#    x 1.746450 0.000000 0.000000 
#    y 0.000000 1.773420 0.000000 
#    z 0.000000 0.000000 1.789180 
# 
# From -- ./inp_files/15580.got.cif
#   From: 2010.03.12/outbox.cif.g09.slc.cpg/sg40_8_cif.got.tgz:15580.got - 2010.04.14 01:38:03.
