data_PCOD8182692
_publ_section_title
;
Structure prediction by ZEFSAII (Michael W. Deem and Ramdas Pophale) SiO2 
 PCOD8182692
Probable space group: A M A 2
;
_chemical_formula_sum "Si O2"
_cell_formula_units_Z 60
_cell_length_a 9.842406
_cell_length_b 15.365571
_cell_length_c 21.023292
_cell_angle_alpha 90.000000
_cell_angle_beta 90.000000
_cell_angle_gamma 90.000000
_cell_volume 3179.440499
_symmetry_space_group_name_H-M "A M A 2"
_symmetry_group_IT_number 40
_symmetry_cell_setting 'orthorhombic'
loop_
_space_group_symop_operation_xyz
x,y,z
-x,-y,z
1/2-x,y,z
1/2+x,-y,z
x,1/2+y,1/2+z
-x,1/2-y,1/2+z
1/2-x,1/2+y,1/2+z
1/2+x,1/2-y,1/2+z
loop_
_atom_site_type_symbol
_atom_site_label
_atom_site_fract_x
_atom_site_fract_y
_atom_site_fract_z
Si Si1 0.894688 0.895315 0.321100
Si Si2 0.900205 0.929772 0.829654
Si Si3 0.500000 0.500000 0.927114
Si Si4 0.912079 0.729097 0.135072
Si Si5 0.096432 0.832773 0.497956
Si Si6 0.406067 0.077056 0.681670
Si Si7 0.096315 0.075212 0.175796
Si Si8 0.905248 0.245611 0.368237
O O1 0.750000 0.845046 0.322519
O O2 0.884667 0.969901 0.376188
O O3 0.915140 0.935136 0.251638
O O4 0.017049 0.830921 0.333578
O O5 0.750000 0.937962 0.860626
O O6 0.888454 0.944897 0.755040
O O7 0.965758 0.836738 0.845481
O O8 0.000000 0.000000 0.861210
O O9 0.472997 0.421099 0.974794
O O10 0.750000 0.711549 0.146694
O O11 0.948741 0.828580 0.152339
O O12 0.009307 0.667024 0.176843
O O13 0.960155 0.707773 0.063037
O O14 0.250000 0.859560 0.509257
O O15 0.079178 0.759199 0.444301
O O16 0.250000 0.081412 0.652557
O O17 0.500000 0.000000 0.650029
O O18 0.250000 0.057724 0.152562
O O19 0.000000 0.000000 0.145617
O O20 0.750000 0.236027 0.346265
#
# Coordination Sequence:
#
# PCOD8182692 Si02
#       8
#     8   8   4   8   8   8   8   8
#     4  10  19  31  51  80 107 132 168 219 275 321
#     4   9  18  32  51  75 102 132 170 214 261 310
#     4  10  18  32  52  78 110 136 172 216 264 330
#     4  10  21  37  54  76 108 146 185 221 266 319
#     4   9  19  34  52  73 103 142 175 209 258 319
#     4  10  20  34  53  79 108 140 177 218 266 318
#     4  10  21  36  55  79 108 142 180 228 276 324
#     4   9  18  33  52  74 102 137 171 209 262 318
#
# _framework density 18.871245999999999
#
# number of rings (size 3 to 8) (size 9 to 14) (size 15 to 20)
#    0.000    2.400    0.667    1.600    0.933    2.667 
#    0.000    3.333    0.000    0.000    0.000    0.000 
#    0.000    0.000    0.000    0.000    0.000    0.000 
#
# Total GULP energy -371656.909919 kJ/mol
# GULP energy per Si atom -12388.563664 kJ/mol
# Density = 1.882829 g / cm^3
# Si number density = 18.871246 Si / 1000 Ang^3
#
#
#
# Elastic Constant Matrix: (Units=GPa)
#
#
# Indices 1 2 3 4 5 6 
#
# 1 96.0568 68.2572 16.7093 0.0000 0.0000 0.0000
# 2 68.2572 131.1041 22.8211 0.0000 0.0000 0.0000
# 3 16.7093 22.8211 49.5631 0.0000 0.0000 0.0000
# 4 0.0000 0.0000 0.0000 19.3980 0.0000 0.0000
# 5 0.0000 0.0000 0.0000 0.0000 11.7360 0.0000
# 6 0.0000 0.0000 0.0000 0.0000 0.0000 33.2563
#
#
#
# Elastic Compliance Matrix: (Units=1/GPa)
#
#
# Indices 1 2 3 4 5 6 
#
# 1 0.016664 -0.008369 -0.001765 0.000000 0.000000 0.000000
# 2 -0.008369 0.012495 -0.002932 0.000000 0.000000 0.000000
# 3 -0.001765 -0.002932 0.022121 0.000000 0.000000 0.000000
# 4 0.000000 0.000000 0.000000 0.051552 0.000000 0.000000
# 5 0.000000 0.000000 0.000000 0.000000 0.085208 0.000000
# 6 0.000000 0.000000 0.000000 0.000000 0.000000 0.030069
#
#
# Mechanical properties :
#
#
# Convention : Reuss Voigt Hill
#
# Bulk Modulus (GPa) = 39.76185 54.69990 47.23088
# Shear Modulus (GPa) = 19.79229 24.14047 21.96638
#
# Velocity S-wave (km/s) = 3.24204 3.58050 3.41547
# Velocity P-wave (km/s) = 5.92708 6.79280 6.37465
#
# Compressibility (1/GPa) = 0.02514974
#
# Stress axis : x y z
#
# Youngs Moduli (GPa) = 60.00855 80.03232 45.20552
#
# Poissons Ratio (x) = 0.66978 0.07977
# Poissons Ratio (y) = 0.50220 0.13254
# Poissons Ratio (z) = 0.10590 0.23464
#
# Static dielectric constant tensor:
#      x y z
#    x 3.869680 0.000000 0.000000 
#    y 0.000000 3.504830 0.000000 
#    z 0.000000 0.000000 3.426730 
# 
# 
# High freq. dielectric constant tensor:
#      x y z
#    x 1.732720 0.000000 0.000000 
#    y 0.000000 1.731520 0.000000 
#    z 0.000000 0.000000 1.710670 
# 
# From -- ./inp_files/24199.got.cif
#   From: 2010.03.12/outbox.cif.g09.slc.cpg/sg40_13_cif.got.tgz:24199.got - 2010.04.14 01:38:03.
