data_PCOD8182599
_publ_section_title
;
Structure prediction by ZEFSAII (Michael W. Deem and Ramdas Pophale) SiO2 
 PCOD8182599
Probable space group: A M A 2
;
_chemical_formula_sum "Si O2"
_cell_formula_units_Z 64
_cell_length_a 9.297840
_cell_length_b 18.302352
_cell_length_c 21.427275
_cell_angle_alpha 90.000000
_cell_angle_beta 90.000000
_cell_angle_gamma 90.000000
_cell_volume 3646.329538
_symmetry_space_group_name_H-M "A M A 2"
_symmetry_group_IT_number 40
_symmetry_cell_setting 'orthorhombic'
loop_
_space_group_symop_operation_xyz
x,y,z
-x,-y,z
1/2-x,y,z
1/2+x,-y,z
x,1/2+y,1/2+z
-x,1/2-y,1/2+z
1/2-x,1/2+y,1/2+z
1/2+x,1/2-y,1/2+z
loop_
_atom_site_type_symbol
_atom_site_label
_atom_site_fract_x
_atom_site_fract_y
_atom_site_fract_z
Si Si1 0.583059 0.648070 0.887430
Si Si2 0.418386 0.282288 0.435644
Si Si3 0.087778 0.331155 0.643097
Si Si4 0.088481 0.702699 0.063557
Si Si5 0.406438 0.063868 0.074388
Si Si6 0.412144 0.068824 0.928594
Si Si7 0.083403 0.426541 0.017491
Si Si8 0.417820 0.425773 0.759672
O O1 0.750000 0.672058 0.883435
O O2 0.484582 0.719679 0.891453
O O3 0.533449 0.602651 0.827194
O O4 0.555686 0.595515 0.946090
O O5 0.250000 0.292289 0.420809
O O6 0.444233 0.260001 0.507579
O O7 0.499925 0.356864 0.417989
O O8 0.250000 0.356864 0.627983
O O9 0.075300 0.243736 0.631026
O O10 0.043285 0.359890 0.711482
O O11 0.982187 0.360856 0.590250
O O12 0.250000 0.671538 0.054677
O O13 0.976274 0.636604 0.062908
O O14 0.250000 0.061292 0.105773
O O15 0.500000 0.000000 0.106070
O O16 0.394306 0.053217 0.001259
O O17 0.250000 0.074272 0.899567
O O18 0.500000 0.000000 0.898964
O O19 0.250000 0.438006 0.032353
O O20 0.000000 0.500000 0.033046
O O21 0.500000 0.500000 0.742189
O O22 0.250000 0.443922 0.758824
#
# Coordination Sequence:
#
# PCOD8182599 Si02
#       8
#     8   8   8   8   8   8   8   8
#     4   9  19  34  50  70  97 130 167 206 246 291
#     4  10  18  30  49  71  95 126 163 205 251 296
#     4  10  19  32  48  67  95 130 166 203 243 286
#     4   9  18  31  47  68  96 126 159 198 242 294
#     4  10  19  28  41  61  89 126 163 197 234 277
#     4  10  19  29  43  65  95 128 161 198 240 291
#     4  10  19  31  50  73  98 125 157 198 246 295
#     4  10  21  35  51  71  99 135 173 209 244 284
#
# _framework density 17.551897
#
# number of rings (size 3 to 8) (size 9 to 14) (size 15 to 20)
#    0.000    2.250    1.250    2.250    0.000    4.500 
#    0.000    0.000    0.000    0.000    0.000    0.875 
#    0.000    4.000    0.000    0.000    0.000    0.000 
#
# Total GULP energy -396653.909539 kJ/mol
# GULP energy per Si atom -12395.434673 kJ/mol
# Density = 1.751195 g / cm^3
# Si number density = 17.551897 Si / 1000 Ang^3
#
#
#
# Elastic Constant Matrix: (Units=GPa)
#
#
# Indices 1 2 3 4 5 6 
#
# 1 116.7427 71.5108 24.8679 0.0000 0.0000 0.0000
# 2 71.5108 122.2934 35.0969 0.0000 0.0000 0.0000
# 3 24.8679 35.0969 54.2751 0.0000 0.0000 0.0000
# 4 0.0000 0.0000 0.0000 22.4060 0.0000 0.0000
# 5 0.0000 0.0000 0.0000 0.0000 20.4017 0.0000
# 6 0.0000 0.0000 0.0000 0.0000 0.0000 36.9867
#
#
#
# Elastic Compliance Matrix: (Units=1/GPa)
#
#
# Indices 1 2 3 4 5 6 
#
# 1 0.013423 -0.007470 -0.001319 0.000000 0.000000 0.000000
# 2 -0.007470 0.014198 -0.005758 0.000000 0.000000 0.000000
# 3 -0.001319 -0.005758 0.022753 0.000000 0.000000 0.000000
# 4 0.000000 0.000000 0.000000 0.044631 0.000000 0.000000
# 5 0.000000 0.000000 0.000000 0.000000 0.049015 0.000000
# 6 0.000000 0.000000 0.000000 0.000000 0.000000 0.027037
#
#
# Mechanical properties :
#
#
# Convention : Reuss Voigt Hill
#
# Bulk Modulus (GPa) = 46.99813 61.80694 54.40253
# Shear Modulus (GPa) = 24.12604 26.74795 25.43699
#
# Velocity S-wave (km/s) = 3.71152 3.90800 3.81102
# Velocity P-wave (km/s) = 6.72324 7.46013 7.10125
#
# Compressibility (1/GPa) = 0.02127744
#
# Stress axis : x y z
#
# Youngs Moduli (GPa) = 74.49986 70.43315 43.95069
#
# Poissons Ratio (x) = 0.52616 0.05799
# Poissons Ratio (y) = 0.55654 0.25308
# Poissons Ratio (z) = 0.09830 0.40557
#
# Static dielectric constant tensor:
#      x y z
#    x 3.470130 0.000000 0.000000 
#    y 0.000000 3.212230 0.000000 
#    z 0.000000 0.000000 2.931970 
# 
# 
# High freq. dielectric constant tensor:
#      x y z
#    x 1.692130 0.000000 0.000000 
#    y 0.000000 1.675870 0.000000 
#    z 0.000000 0.000000 1.626820 
# 
# From -- ./inp_files/22414.got.cif
#   From: 2010.03.12/outbox.cif.g09.slc.cpg/sg40_12_cif.got.tgz:22414.got - 2010.04.14 01:38:03.
