data_PCOD8182988
_publ_section_title
;
Structure prediction by ZEFSAII (Michael W. Deem and Ramdas Pophale) SiO2 
 PCOD8182988
Probable space group: A M A 2
;
_chemical_formula_sum "Si O2"
_cell_formula_units_Z 48
_cell_length_a 9.957948
_cell_length_b 29.317337
_cell_length_c 8.621958
_cell_angle_alpha 90.000000
_cell_angle_beta 90.000000
_cell_angle_gamma 90.000000
_cell_volume 2517.098879
_symmetry_space_group_name_H-M "A M A 2"
_symmetry_group_IT_number 40
_symmetry_cell_setting 'orthorhombic'
loop_
_space_group_symop_operation_xyz
x,y,z
-x,-y,z
1/2-x,y,z
1/2+x,-y,z
x,1/2+y,1/2+z
-x,1/2-y,1/2+z
1/2-x,1/2+y,1/2+z
1/2+x,1/2-y,1/2+z
loop_
_atom_site_type_symbol
_atom_site_label
_atom_site_fract_x
_atom_site_fract_y
_atom_site_fract_z
Si Si1 0.600468 0.885416 0.725780
Si Si2 0.408037 0.955536 0.578792
Si Si3 0.396403 0.888800 0.307969
Si Si4 0.904205 0.765356 0.224184
Si Si5 0.502811 0.187892 0.517106
Si Si6 0.593932 0.855074 0.069112
O O1 0.750000 0.907984 0.726863
O O2 0.480995 0.921244 0.698447
O O3 0.606419 0.845926 0.594057
O O4 0.565904 0.862946 0.889811
O O5 0.250000 0.963892 0.625617
O O6 0.415629 0.934577 0.407489
O O7 0.500000 0.000000 0.580415
O O8 0.250000 0.889253 0.227793
O O9 0.396705 0.844438 0.421151
O O10 0.510830 0.890023 0.177021
O O11 0.750000 0.773901 0.219703
O O12 0.963217 0.804829 0.111764
O O13 0.948297 0.773135 0.401808
O O14 0.933673 0.714817 0.162188
O O15 0.750000 0.862151 0.110433
#
# Coordination Sequence:
#
# PCOD8182988 Si02
#       6
#     8   8   8   8   8   8
#     4  10  20  36  56  78 107 141 178 219 265 315
#     4  10  21  37  59  85 109 136 171 211 259 316
#     4   9  19  35  54  77 105 137 174 216 264 316
#     4  10  19  32  49  72 104 140 182 225 265 311
#     4  10  19  32  50  75 104 141 181 223 267 312
#     4   9  19  34  53  77 105 141 180 220 265 312
#
# _framework density 19.069572999999998
#
# number of rings (size 3 to 8) (size 9 to 14) (size 15 to 20)
#    0.000    2.333    0.000    2.500    0.000    6.000 
#    0.000   11.667    0.000    2.000    0.000    0.000 
#    0.000    0.000    0.000    0.000    0.000    0.000 
#
# Total GULP energy -297327.877549 kJ/mol
# GULP energy per Si atom -12388.661565 kJ/mol
# Density = 1.902617 g / cm^3
# Si number density = 19.069573 Si / 1000 Ang^3
#
#
#
# Elastic Constant Matrix: (Units=GPa)
#
#
# Indices 1 2 3 4 5 6 
#
# 1 106.8473 40.1018 47.1287 0.0000 0.0000 0.0000
# 2 40.1018 79.2300 37.3006 0.0000 0.0000 0.0000
# 3 47.1287 37.3006 97.4215 0.0000 0.0000 0.0000
# 4 0.0000 0.0000 0.0000 19.0717 0.0000 0.0000
# 5 0.0000 0.0000 0.0000 0.0000 30.3272 0.0000
# 6 0.0000 0.0000 0.0000 0.0000 0.0000 25.5697
#
#
#
# Elastic Compliance Matrix: (Units=1/GPa)
#
#
# Indices 1 2 3 4 5 6 
#
# 1 0.013062 -0.004436 -0.004620 0.000000 0.000000 0.000000
# 2 -0.004436 0.016903 -0.004326 0.000000 0.000000 0.000000
# 3 -0.004620 -0.004326 0.014156 0.000000 0.000000 0.000000
# 4 0.000000 0.000000 0.000000 0.052434 0.000000 0.000000
# 5 0.000000 0.000000 0.000000 0.000000 0.032974 0.000000
# 6 0.000000 0.000000 0.000000 0.000000 0.000000 0.039109
#
#
# Mechanical properties :
#
#
# Convention : Reuss Voigt Hill
#
# Bulk Modulus (GPa) = 57.61452 59.17345 58.39399
# Shear Modulus (GPa) = 24.85235 25.59158 25.22196
#
# Velocity S-wave (km/s) = 3.61397 3.66732 3.64074
# Velocity P-wave (km/s) = 6.90599 7.00214 6.95423
#
# Compressibility (1/GPa) = 0.01735673
#
# Stress axis : x y z
#
# Youngs Moduli (GPa) = 76.55741 59.15981 70.64054
#
# Poissons Ratio (x) = 0.26244 0.32639
# Poissons Ratio (y) = 0.33961 0.30559
# Poissons Ratio (z) = 0.35373 0.25592
#
# Static dielectric constant tensor:
#      x y z
#    x 3.504150 0.000000 0.000000 
#    y 0.000000 3.449930 0.000000 
#    z 0.000000 0.000000 3.404260 
# 
# 
# High freq. dielectric constant tensor:
#      x y z
#    x 1.740660 0.000000 0.000000 
#    y 0.000000 1.726610 0.000000 
#    z 0.000000 0.000000 1.737710 
# 
# From -- ./inp_files/4636.got.cif
#   From: 2010.03.12/outbox.cif.g09.slc.cpg/sg40_3_cif.got.tgz:4636.got - 2010.04.14 01:38:03.
