data_PCOD8182482
_publ_section_title
;
Structure prediction by ZEFSAII (Michael W. Deem and Ramdas Pophale) SiO2 
 PCOD8182482
Probable space group: A M A 2
;
_chemical_formula_sum "Si O2"
_cell_formula_units_Z 64
_cell_length_a 8.691843
_cell_length_b 18.560322
_cell_length_c 26.257199
_cell_angle_alpha 90.000000
_cell_angle_beta 90.000000
_cell_angle_gamma 90.000000
_cell_volume 4235.900745
_symmetry_space_group_name_H-M "A M A 2"
_symmetry_group_IT_number 40
_symmetry_cell_setting 'orthorhombic'
loop_
_space_group_symop_operation_xyz
x,y,z
-x,-y,z
1/2-x,y,z
1/2+x,-y,z
x,1/2+y,1/2+z
-x,1/2-y,1/2+z
1/2-x,1/2+y,1/2+z
1/2+x,1/2-y,1/2+z
loop_
_atom_site_type_symbol
_atom_site_label
_atom_site_fract_x
_atom_site_fract_y
_atom_site_fract_z
Si Si1 0.931827 0.657813 0.846560
Si Si2 0.571740 0.288863 0.704195
Si Si3 0.429302 0.922581 0.745470
Si Si4 0.073748 0.343801 0.142133
Si Si5 0.433295 0.921287 0.244718
Si Si6 0.569432 0.922537 0.551382
Si Si7 0.933204 0.578143 0.945486
Si Si8 0.071786 0.204558 0.794225
O O1 0.750000 0.651367 0.845607
O O2 0.992119 0.608771 0.799563
O O3 0.995740 0.629566 0.900412
O O4 0.979607 0.742298 0.840570
O O5 0.750000 0.287065 0.722265
O O6 0.556851 0.242403 0.652019
O O7 0.508204 0.370589 0.700231
O O8 0.460168 0.250450 0.743995
O O9 0.250000 0.931179 0.747290
O O10 0.481997 0.888323 0.691802
O O11 0.479304 0.870454 0.792194
O O12 0.500000 0.000000 0.753790
O O13 0.250000 0.363576 0.129203
O O14 0.966121 0.365154 0.095295
O O15 0.250000 0.921921 0.239599
O O16 0.500000 0.000000 0.236331
O O17 0.750000 0.931490 0.544142
O O18 0.496520 0.892569 0.499115
O O19 0.500000 0.000000 0.566315
O O20 0.750000 0.574799 0.947495
O O21 0.000000 0.500000 0.934090
O O22 0.250000 0.184840 0.797677
#
# Coordination Sequence:
#
# PCOD8182482 Si02
#       8
#     8   8   8   8   8   8   8   8
#     4   8  16  28  43  61  81 110 143 173 206 245
#     4   9  17  29  43  60  82 108 139 172 207 247
#     4  10  19  29  42  62  85 111 142 173 207 246
#     4   9  18  31  45  60  80 108 141 173 207 247
#     4  10  18  28  42  62  87 113 143 174 207 245
#     4  11  21  31  43  60  82 108 140 175 211 246
#     4  10  18  30  44  59  82 109 140 175 209 242
#     4   9  16  28  43  60  83 109 138 171 207 246
#
# _framework density 15.108947000000001
#
# number of rings (size 3 to 8) (size 9 to 14) (size 15 to 20)
#    0.000    2.500    0.000    6.000    0.000    4.000 
#    0.000    6.875    0.000    0.000    0.000    0.000 
#    0.000    1.000    0.000    4.750    0.000    4.125 
#
# Total GULP energy -396586.672419 kJ/mol
# GULP energy per Si atom -12393.333513 kJ/mol
# Density = 1.507456 g / cm^3
# Si number density = 15.108947 Si / 1000 Ang^3
#
#
#
# Elastic Constant Matrix: (Units=GPa)
#
#
# Indices 1 2 3 4 5 6 
#
# 1 62.0171 35.5642 32.6001 0.0000 0.0000 0.0000
# 2 35.5642 123.4928 54.1815 0.0000 0.0000 0.0000
# 3 32.6001 54.1815 76.0412 0.0000 0.0000 0.0000
# 4 0.0000 0.0000 0.0000 26.8022 0.0000 0.0000
# 5 0.0000 0.0000 0.0000 0.0000 16.8217 0.0000
# 6 0.0000 0.0000 0.0000 0.0000 0.0000 26.2327
#
#
#
# Elastic Compliance Matrix: (Units=1/GPa)
#
#
# Indices 1 2 3 4 5 6 
#
# 1 0.021622 -0.003142 -0.007031 0.000000 0.000000 0.000000
# 2 -0.003142 0.012237 -0.007372 0.000000 0.000000 0.000000
# 3 -0.007031 -0.007372 0.021418 0.000000 0.000000 0.000000
# 4 0.000000 0.000000 0.000000 0.037310 0.000000 0.000000
# 5 0.000000 0.000000 0.000000 0.000000 0.059447 0.000000
# 6 0.000000 0.000000 0.000000 0.000000 0.000000 0.038120
#
#
# Mechanical properties :
#
#
# Convention : Reuss Voigt Hill
#
# Bulk Modulus (GPa) = 49.53737 56.24918 52.89328
# Shear Modulus (GPa) = 21.55410 23.25168 22.40289
#
# Velocity S-wave (km/s) = 3.78110 3.92718 3.85484
# Velocity P-wave (km/s) = 7.20557 7.60747 7.40925
#
# Compressibility (1/GPa) = 0.02018678
#
# Stress axis : x y z
#
# Youngs Moduli (GPa) = 46.24828 81.71936 46.68985
#
# Poissons Ratio (x) = 0.25678 0.32828
# Poissons Ratio (y) = 0.14532 0.34420
# Poissons Ratio (z) = 0.32517 0.60245
#
# Static dielectric constant tensor:
#      x y z
#    x 2.951050 0.000000 0.000000 
#    y 0.000000 3.120380 0.000000 
#    z 0.000000 0.000000 2.881790 
# 
# 
# High freq. dielectric constant tensor:
#      x y z
#    x 1.588070 0.000000 0.000000 
#    y 0.000000 1.573030 0.000000 
#    z 0.000000 0.000000 1.539560 
# 
# From -- ./inp_files/25539.got.cif
#   From: 2010.03.12/outbox.cif.g09.slc.cpg/sg40_13_cif.got.tgz:25539.got - 2010.04.14 01:38:03.
