data_PCOD8182203
_publ_section_title
;
Structure prediction by ZEFSAII (Michael W. Deem and Ramdas Pophale) SiO2 
 PCOD8182203
Probable space group: A B M 2
;
_chemical_formula_sum "Si O2"
_cell_formula_units_Z 36
_cell_length_a 5.080220
_cell_length_b 15.610592
_cell_length_c 17.502049
_cell_angle_alpha 90.000000
_cell_angle_beta 90.000000
_cell_angle_gamma 90.000000
_cell_volume 1388.004226
_symmetry_space_group_name_H-M "A B M 2"
_symmetry_group_IT_number 39
_symmetry_cell_setting 'orthorhombic'
loop_
_space_group_symop_operation_xyz
x,y,z
-x,-y,z
-x,1/2+y,z
x,1/2-y,z
x,1/2+y,1/2+z
-x,1/2-y,1/2+z
-x,y,1/2+z
x,-y,1/2+z
loop_
_atom_site_type_symbol
_atom_site_label
_atom_site_fract_x
_atom_site_fract_y
_atom_site_fract_z
Si Si1 0.582397 0.597100 0.633050
Si Si2 0.000000 0.500000 0.292688
Si Si3 0.634007 0.921172 0.910649
Si Si4 0.085018 0.346166 0.046980
Si Si5 0.654291 0.152798 0.777385
O O1 0.500000 0.500000 0.640749
O O2 0.862881 0.598999 0.589872
O O3 0.591261 0.637246 0.718736
O O4 0.368664 0.650779 0.586171
O O5 0.753468 0.472416 0.340966
O O6 0.883692 0.584666 0.248950
O O7 0.433128 0.856159 0.867245
O O8 0.500000 0.000000 0.959973
O O9 0.861768 0.876366 0.959885
O O10 0.978115 0.250000 0.044917
O O11 0.762172 0.250000 0.768058
#
# Coordination Sequence:
#
# PCOD8182203 Si02
#       5
#     8   4   8   8   8
#     4  12  28  48  75 107 155 207 254 316 393 461
#     4  10  24  44  74 106 146 198 256 318 388 462
#     4  10  24  45  74 107 151 203 256 313 388 462
#     4  12  27  47  73 111 151 199 259 320 383 458
#     4  11  25  47  75 113 153 202 259 321 387 468
#
# _framework density 25.936522
#
# number of rings (size 3 to 8) (size 9 to 14) (size 15 to 20)
#    0.000    0.889    0.000    6.000   15.556    1.778 
#    0.000    0.000    0.000    0.000    0.000    0.000 
#    0.000    0.000    0.000    0.000    0.000    0.000 
#
# Total GULP energy -222996.466558 kJ/mol
# GULP energy per Si atom -12388.692587 kJ/mol
# Density = 2.587749 g / cm^3
# Si number density = 25.936522 Si / 1000 Ang^3
#
#
#
# Elastic Constant Matrix: (Units=GPa)
#
#
# Indices 1 2 3 4 5 6 
#
# 1 119.2307 39.8954 34.4519 0.0000 0.0000 0.0000
# 2 39.8954 185.0202 49.1208 0.0000 0.0000 0.0000
# 3 34.4519 49.1208 93.6114 0.0000 0.0000 0.0000
# 4 0.0000 0.0000 0.0000 21.5281 0.0000 0.0000
# 5 0.0000 0.0000 0.0000 0.0000 27.3161 0.0000
# 6 0.0000 0.0000 0.0000 0.0000 0.0000 24.0136
#
#
#
# Elastic Compliance Matrix: (Units=1/GPa)
#
#
# Indices 1 2 3 4 5 6 
#
# 1 0.009656 -0.001323 -0.002860 0.000000 0.000000 0.000000
# 2 -0.001323 0.006461 -0.002903 0.000000 0.000000 0.000000
# 3 -0.002860 -0.002903 0.013258 0.000000 0.000000 0.000000
# 4 0.000000 0.000000 0.000000 0.046451 0.000000 0.000000
# 5 0.000000 0.000000 0.000000 0.000000 0.036609 0.000000
# 6 0.000000 0.000000 0.000000 0.000000 0.000000 0.041643
#
#
# Mechanical properties :
#
#
# Convention : Reuss Voigt Hill
#
# Bulk Modulus (GPa) = 65.77382 71.64429 68.70905
# Shear Modulus (GPa) = 28.84883 32.86449 30.85666
#
# Velocity S-wave (km/s) = 3.33871 3.56351 3.45294
# Velocity P-wave (km/s) = 6.34644 6.67940 6.51505
#
# Compressibility (1/GPa) = 0.01520362
#
# Stress axis : x y z
#
# Youngs Moduli (GPa) = 103.56220 154.77761 75.42422
#
# Poissons Ratio (x) = 0.20476 0.21568
# Poissons Ratio (y) = 0.13701 0.21898
# Poissons Ratio (z) = 0.29614 0.44937
#
# Static dielectric constant tensor:
#      x y z
#    x 4.664610 0.000000 0.000000 
#    y 0.000000 5.184690 0.000000 
#    z 0.000000 0.000000 4.793680 
# 
# 
# High freq. dielectric constant tensor:
#      x y z
#    x 2.034720 0.000000 0.000000 
#    y 0.000000 2.045780 0.000000 
#    z 0.000000 0.000000 2.035780 
# 
# From -- ./inp_files/13408.got.cif
#   From: 2010.03.12/outbox.cif.g09.slc.cpg/sg39_7_cif.got.tgz:13408.got - 2010.04.14 02:53:20.
