data_PCOD8182655
_publ_section_title
;
Structure prediction by ZEFSAII (Michael W. Deem and Ramdas Pophale) SiO2 
 PCOD8182655
Probable space group: A M A 2
;
_chemical_formula_sum "Si O2"
_cell_formula_units_Z 48
_cell_length_a 8.643727
_cell_length_b 9.569239
_cell_length_c 30.781209
_cell_angle_alpha 90.000000
_cell_angle_beta 90.000000
_cell_angle_gamma 90.000000
_cell_volume 2546.033520
_symmetry_space_group_name_H-M "A M A 2"
_symmetry_group_IT_number 40
_symmetry_cell_setting 'orthorhombic'
loop_
_space_group_symop_operation_xyz
x,y,z
-x,-y,z
1/2-x,y,z
1/2+x,-y,z
x,1/2+y,1/2+z
-x,1/2-y,1/2+z
1/2-x,1/2+y,1/2+z
1/2+x,1/2-y,1/2+z
loop_
_atom_site_type_symbol
_atom_site_label
_atom_site_fract_x
_atom_site_fract_y
_atom_site_fract_z
Si Si1 0.931637 0.352942 0.705590
Si Si2 0.933346 0.845907 0.359878
Si Si3 0.066222 0.844740 0.448224
Si Si4 0.567476 0.153376 0.780305
Si Si5 0.932974 0.846182 0.535634
Si Si6 0.432978 0.148631 0.106545
O O1 0.750000 0.367723 0.710386
O O2 0.994205 0.229481 0.736606
O O3 0.979423 0.318257 0.656248
O O4 0.000000 0.500000 0.721194
O O5 0.750000 0.857682 0.363729
O O6 0.987164 0.744989 0.321229
O O7 0.001833 0.775588 0.403985
O O8 0.000000 0.000000 0.351341
O O9 0.250000 0.843202 0.448383
O O10 0.001877 0.771300 0.492094
O O11 0.000000 0.000000 0.448696
O O12 0.750000 0.140465 0.779356
O O13 0.500000 0.000000 0.783542
O O14 0.750000 0.852500 0.531978
O O15 0.983757 0.763796 0.577993
O O16 0.000000 0.000000 0.540611
O O17 0.250000 0.151628 0.099187
O O18 0.500000 0.000000 0.092258
#
# Coordination Sequence:
#
# PCOD8182655 Si02
#       6
#     8   8   8   8   8   8
#     4   9  19  36  57  80 105 137 178 220 260 310
#     4  10  19  33  54  79 105 136 177 219 261 311
#     4  10  18  31  52  78 106 137 176 219 264 312
#     4  10  22  37  53  77 109 141 174 215 263 314
#     4  11  21  35  55  80 110 143 180 222 269 317
#     4  10  20  36  56  80 110 142 179 221 267 318
#
# _framework density 18.852854000000001
#
# number of rings (size 3 to 8) (size 9 to 14) (size 15 to 20)
#    0.000    2.000    0.000    6.500    0.000    3.333 
#    0.000    2.500    0.000    2.000    0.000    0.000 
#    0.000    0.000    0.000    0.000    0.000    0.000 
#
# Total GULP energy -297573.321439 kJ/mol
# GULP energy per Si atom -12398.888393 kJ/mol
# Density = 1.880994 g / cm^3
# Si number density = 18.852854 Si / 1000 Ang^3
#
#
#
# Elastic Constant Matrix: (Units=GPa)
#
#
# Indices 1 2 3 4 5 6 
#
# 1 103.0176 41.1954 54.2611 0.0000 0.0000 0.0000
# 2 41.1954 109.7770 83.6986 0.0000 0.0000 0.0000
# 3 54.2611 83.6986 154.0504 0.0000 0.0000 0.0000
# 4 0.0000 0.0000 0.0000 787.3495 0.0000 0.0000
# 5 0.0000 0.0000 0.0000 0.0000 29.8819 0.0000
# 6 0.0000 0.0000 0.0000 0.0000 0.0000 31.6493
#
#
#
# Elastic Compliance Matrix: (Units=1/GPa)
#
#
# Indices 1 2 3 4 5 6 
#
# 1 0.012229 -0.002228 -0.003097 0.000000 0.000000 0.000000
# 2 -0.002228 0.015957 -0.007885 0.000000 0.000000 0.000000
# 3 -0.003097 -0.007885 0.011866 0.000000 0.000000 0.000000
# 4 0.000000 0.000000 0.000000 0.001270 0.000000 0.000000
# 5 0.000000 0.000000 0.000000 0.000000 0.033465 0.000000
# 6 0.000000 0.000000 0.000000 0.000000 0.000000 0.031596
#
#
# Mechanical properties :
#
#
# Convention : Reuss Voigt Hill
#
# Bulk Modulus (GPa) = 73.35262 80.57280 76.96271
# Shear Modulus (GPa) = 36.40352 182.28881 109.34616
#
# Velocity S-wave (km/s) = 4.39900 9.84379 7.62402
# Velocity P-wave (km/s) = 8.04947 13.11605 10.88175
#
# Compressibility (1/GPa) = 0.01363278
#
# Stress axis : x y z
#
# Youngs Moduli (GPa) = 81.77118 62.66648 84.27097
#
# Poissons Ratio (x) = 0.13961 0.26099
# Poissons Ratio (y) = 0.18218 0.66450
# Poissons Ratio (z) = 0.25325 0.49414
#
# Static dielectric constant tensor:
#      x y z
#    x 3.486460 0.000000 0.000000 
#    y 0.000000 -14.625300 0.000000 
#    z 0.000000 0.000000 4.246120 
# 
# 
# High freq. dielectric constant tensor:
#      x y z
#    x 1.742410 0.000000 0.000000 
#    y 0.000000 1.703120 0.000000 
#    z 0.000000 0.000000 1.755420 
# 
# From -- ./inp_files/26154.got.cif
#   From: 2010.03.12/outbox.cif.g09.slc.cpg/sg40_14_cif.got.tgz:26154.got - 2010.04.14 01:38:03.
