data_PCOD8182382
_publ_section_title
;
Structure prediction by ZEFSAII (Michael W. Deem and Ramdas Pophale) SiO2 
 PCOD8182382
Probable space group: A M A 2
;
_chemical_formula_sum "Si O2"
_cell_formula_units_Z 64
_cell_length_a 9.090128
_cell_length_b 30.087974
_cell_length_c 14.469863
_cell_angle_alpha 90.000000
_cell_angle_beta 90.000000
_cell_angle_gamma 90.000000
_cell_volume 3957.558680
_symmetry_space_group_name_H-M "A M A 2"
_symmetry_group_IT_number 40
_symmetry_cell_setting 'orthorhombic'
loop_
_space_group_symop_operation_xyz
x,y,z
-x,-y,z
1/2-x,y,z
1/2+x,-y,z
x,1/2+y,1/2+z
-x,1/2-y,1/2+z
1/2-x,1/2+y,1/2+z
1/2+x,1/2-y,1/2+z
loop_
_atom_site_type_symbol
_atom_site_label
_atom_site_fract_x
_atom_site_fract_y
_atom_site_fract_z
Si Si1 0.577798 0.545327 0.175040
Si Si2 0.914599 0.676092 0.287143
Si Si3 0.916680 0.778452 0.301856
Si Si4 0.575857 0.785593 0.508662
Si Si5 0.422545 0.131188 0.628433
Si Si6 0.422297 0.955373 0.889987
Si Si7 0.421165 0.366466 0.476004
Si Si8 0.425372 0.799219 0.123709
O O1 0.500000 0.500000 0.143411
O O2 0.750000 0.541239 0.155027
O O3 0.510218 0.585237 0.113748
O O4 0.543780 0.554973 0.282734
O O5 0.750000 0.657455 0.263616
O O6 0.921575 0.727947 0.268801
O O7 0.951610 0.668046 0.393792
O O8 0.036635 0.651575 0.227277
O O9 0.750000 0.796711 0.300998
O O10 0.986960 0.783768 0.404095
O O11 0.011871 0.805054 0.226731
O O12 0.750000 0.779942 0.504338
O O13 0.529654 0.833220 0.550642
O O14 0.514194 0.745191 0.571750
O O15 0.250000 0.121264 0.625668
O O16 0.250000 0.961622 0.904925
O O17 0.489060 0.914823 0.951278
O O18 0.500000 0.000000 0.924106
O O19 0.250000 0.374453 0.488787
O O20 0.483132 0.342912 0.568139
O O21 0.250000 0.797648 0.128536
#
# Coordination Sequence:
#
# PCOD8182382 Si02
#       8
#     8   8   8   8   8   8   8   8
#     4  10  19  32  49  70  97 126 158 193 235 284
#     4  10  17  28  46  66  91 127 163 194 230 278
#     4  10  19  32  48  66  93 128 163 198 237 278
#     4   9  18  31  47  66  93 128 160 191 236 289
#     4  11  20  30  46  70  96 127 163 196 234 280
#     4   9  17  29  45  66  91 122 155 187 227 278
#     4   9  16  29  48  66  89 127 164 186 225 286
#     4  10  18  31  49  68  91 123 162 199 233 277
#
# _framework density 16.171585
#
# number of rings (size 3 to 8) (size 9 to 14) (size 15 to 20)
#    0.000    2.250    3.750    0.750    0.000    0.500 
#    0.000    3.125    0.000    0.000    0.000    0.875 
#    0.000    4.000    0.000    0.000    0.000    0.000 
#
# Total GULP energy -396667.389497 kJ/mol
# GULP energy per Si atom -12395.855922 kJ/mol
# Density = 1.613478 g / cm^3
# Si number density = 16.171585 Si / 1000 Ang^3
#
#
#
# Elastic Constant Matrix: (Units=GPa)
#
#
# Indices 1 2 3 4 5 6 
#
# 1 42.1259 33.5126 18.4999 0.0000 0.0000 0.0000
# 2 33.5126 103.3741 36.3508 0.0000 0.0000 0.0000
# 3 18.4999 36.3508 72.2016 0.0000 0.0000 0.0000
# 4 0.0000 0.0000 0.0000 25.2224 0.0000 0.0000
# 5 0.0000 0.0000 0.0000 0.0000 20.8942 0.0000
# 6 0.0000 0.0000 0.0000 0.0000 0.0000 22.8929
#
#
#
# Elastic Compliance Matrix: (Units=1/GPa)
#
#
# Indices 1 2 3 4 5 6 
#
# 1 0.032784 -0.009325 -0.003705 0.000000 0.000000 0.000000
# 2 -0.009325 0.014407 -0.004864 0.000000 0.000000 0.000000
# 3 -0.003705 -0.004864 0.017248 0.000000 0.000000 0.000000
# 4 0.000000 0.000000 0.000000 0.039647 0.000000 0.000000
# 5 0.000000 0.000000 0.000000 0.000000 0.047860 0.000000
# 6 0.000000 0.000000 0.000000 0.000000 0.000000 0.043682
#
#
# Mechanical properties :
#
#
# Convention : Reuss Voigt Hill
#
# Bulk Modulus (GPa) = 34.90340 43.82536 39.36438
# Shear Modulus (GPa) = 20.74962 22.42445 21.58704
#
# Velocity S-wave (km/s) = 3.58591 3.72783 3.65756
# Velocity P-wave (km/s) = 6.22696 6.75929 6.49858
#
# Compressibility (1/GPa) = 0.02865051
#
# Stress axis : x y z
#
# Youngs Moduli (GPa) = 30.50252 69.40985 57.97655
#
# Poissons Ratio (x) = 0.64727 0.21481
# Poissons Ratio (y) = 0.28445 0.28200
# Poissons Ratio (z) = 0.11302 0.33762
#
# Static dielectric constant tensor:
#      x y z
#    x 2.859150 0.000000 0.000000 
#    y 0.000000 3.199170 0.000000 
#    z 0.000000 0.000000 2.978320 
# 
# 
# High freq. dielectric constant tensor:
#      x y z
#    x 1.600560 0.000000 0.000000 
#    y 0.000000 1.619390 0.000000 
#    z 0.000000 0.000000 1.595220 
# 
# From -- ./inp_files/15863.got.cif
#   From: 2010.03.12/outbox.cif.g09.slc.cpg/sg40_8_cif.got.tgz:15863.got - 2010.04.14 01:38:03.
