data_PCOD8182562
_publ_section_title
;
Structure prediction by ZEFSAII (Michael W. Deem and Ramdas Pophale) SiO2 
 PCOD8182562
Probable space group: A M A 2
;
_chemical_formula_sum "Si O2"
_cell_formula_units_Z 64
_cell_length_a 8.600838
_cell_length_b 23.324961
_cell_length_c 19.219898
_cell_angle_alpha 90.000000
_cell_angle_beta 90.000000
_cell_angle_gamma 90.000000
_cell_volume 3855.784671
_symmetry_space_group_name_H-M "A M A 2"
_symmetry_group_IT_number 40
_symmetry_cell_setting 'orthorhombic'
loop_
_space_group_symop_operation_xyz
x,y,z
-x,-y,z
1/2-x,y,z
1/2+x,-y,z
x,1/2+y,1/2+z
-x,1/2-y,1/2+z
1/2-x,1/2+y,1/2+z
1/2+x,1/2-y,1/2+z
loop_
_atom_site_type_symbol
_atom_site_label
_atom_site_fract_x
_atom_site_fract_y
_atom_site_fract_z
Si Si1 0.932784 0.438006 0.667350
Si Si2 0.067400 0.343318 0.757505
Si Si3 0.065896 0.885713 0.027283
Si Si4 0.932176 0.439962 0.390670
Si Si5 0.565225 0.243752 0.026114
Si Si6 0.932063 0.278727 0.878580
Si Si7 0.567288 0.768087 0.674937
Si Si8 0.432301 0.670457 0.307349
O O1 0.750000 0.441392 0.656178
O O2 0.000000 0.500000 0.683487
O O3 0.974178 0.399306 0.734138
O O4 0.011017 0.412384 0.599123
O O5 0.250000 0.354569 0.750239
O O6 0.008054 0.290711 0.709833
O O7 0.026222 0.327574 0.837264
O O8 0.250000 0.886798 0.025600
O O9 0.999883 0.821103 0.020700
O O10 0.004075 0.923924 0.964485
O O11 0.750000 0.445386 0.400728
O O12 0.975187 0.393356 0.331529
O O13 0.000000 0.500000 0.364071
O O14 0.750000 0.239944 0.028201
O O15 0.497830 0.273601 0.096754
O O16 0.513858 0.281147 0.959445
O O17 0.750000 0.290531 0.870098
O O18 0.968907 0.214764 0.852502
O O19 0.750000 0.763499 0.667704
O O20 0.522612 0.821438 0.725375
O O21 0.250000 0.684444 0.318406
#
# Coordination Sequence:
#
# PCOD8182562 Si02
#       8
#     8   8   8   8   8   8   8   8
#     4  12  24  37  52  73  99 133 172 211 248 295
#     4  10  19  34  52  71  98 133 167 205 248 292
#     4  11  20  34  50  70 100 136 170 205 244 290
#     4  11  22  34  47  68  95 131 172 211 250 293
#     4   9  16  27  48  74  99 129 161 196 244 297
#     4  10  18  29  48  74 100 127 161 202 248 298
#     4   8  14  28  49  70  92 121 158 199 245 295
#     4   9  18  31  48  68  92 124 165 209 251 296
#
# _framework density 16.598437000000001
#
# number of rings (size 3 to 8) (size 9 to 14) (size 15 to 20)
#    0.000    2.000    2.500    3.750    0.000    0.500 
#    0.000    0.000    0.000    0.000    0.000    0.875 
#    0.000    2.000    0.000    0.000    0.000    0.000 
#
# Total GULP energy -396706.218488 kJ/mol
# GULP energy per Si atom -12397.069328 kJ/mol
# Density = 1.656066 g / cm^3
# Si number density = 16.598437 Si / 1000 Ang^3
#
#
#
# Elastic Constant Matrix: (Units=GPa)
#
#
# Indices 1 2 3 4 5 6 
#
# 1 41.8292 16.5431 8.8902 0.0000 0.0000 0.0000
# 2 16.5431 83.8665 49.4661 0.0000 0.0000 0.0000
# 3 8.8902 49.4661 117.9837 0.0000 0.0000 0.0000
# 4 0.0000 0.0000 0.0000 25.6431 0.0000 0.0000
# 5 0.0000 0.0000 0.0000 0.0000 18.3377 0.0000
# 6 0.0000 0.0000 0.0000 0.0000 0.0000 20.9291
#
#
#
# Elastic Compliance Matrix: (Units=1/GPa)
#
#
# Indices 1 2 3 4 5 6 
#
# 1 0.025935 -0.005265 0.000253 0.000000 0.000000 0.000000
# 2 -0.005265 0.016910 -0.006693 0.000000 0.000000 0.000000
# 3 0.000253 -0.006693 0.011263 0.000000 0.000000 0.000000
# 4 0.000000 0.000000 0.000000 0.038997 0.000000 0.000000
# 5 0.000000 0.000000 0.000000 0.000000 0.054533 0.000000
# 6 0.000000 0.000000 0.000000 0.000000 0.000000 0.047780
#
#
# Mechanical properties :
#
#
# Convention : Reuss Voigt Hill
#
# Bulk Modulus (GPa) = 32.57528 43.71980 38.14754
# Shear Modulus (GPa) = 21.82830 24.23396 23.03113
#
# Velocity S-wave (km/s) = 3.63034 3.82516 3.72902
# Velocity P-wave (km/s) = 6.10251 6.77540 6.44774
#
# Compressibility (1/GPa) = 0.03069812
#
# Stress axis : x y z
#
# Youngs Moduli (GPa) = 38.55747 59.13681 88.78822
#
# Poissons Ratio (x) = 0.31137 -0.02249
# Poissons Ratio (y) = 0.20302 0.59425
# Poissons Ratio (z) = -0.00977 0.39580
#
# Static dielectric constant tensor:
#      x y z
#    x 3.036710 0.000000 0.000000 
#    y 0.000000 3.081680 0.000000 
#    z 0.000000 0.000000 3.527830 
# 
# 
# High freq. dielectric constant tensor:
#      x y z
#    x 1.632790 0.000000 0.000000 
#    y 0.000000 1.612210 0.000000 
#    z 0.000000 0.000000 1.640330 
# 
# From -- ./inp_files/19715.got.cif
#   From: 2010.03.12/outbox.cif.g09.slc.cpg/sg40_10_cif.got.tgz:19715.got - 2010.04.14 01:38:03.
