data_PCOD8182446
_publ_section_title
;
Structure prediction by ZEFSAII (Michael W. Deem and Ramdas Pophale) SiO2 
 PCOD8182446
Probable space group: A M A 2
;
_chemical_formula_sum "Si O2"
_cell_formula_units_Z 64
_cell_length_a 8.880776
_cell_length_b 26.272284
_cell_length_c 18.523113
_cell_angle_alpha 90.000000
_cell_angle_beta 90.000000
_cell_angle_gamma 90.000000
_cell_volume 4321.780666
_symmetry_space_group_name_H-M "A M A 2"
_symmetry_group_IT_number 40
_symmetry_cell_setting 'orthorhombic'
loop_
_space_group_symop_operation_xyz
x,y,z
-x,-y,z
1/2-x,y,z
1/2+x,-y,z
x,1/2+y,1/2+z
-x,1/2-y,1/2+z
1/2-x,1/2+y,1/2+z
1/2+x,1/2-y,1/2+z
loop_
_atom_site_type_symbol
_atom_site_label
_atom_site_fract_x
_atom_site_fract_y
_atom_site_fract_z
Si Si1 0.073381 0.358655 0.963050
Si Si2 0.573941 0.700535 0.093727
Si Si3 0.924678 0.802816 0.013768
Si Si4 0.576061 0.651396 0.638654
Si Si5 0.923925 0.744810 0.876662
Si Si6 0.071273 0.053456 0.377088
Si Si7 0.426142 0.447703 0.726146
Si Si8 0.072059 0.741712 0.725127
O O1 0.250000 0.373256 0.961026
O O2 0.043622 0.309189 0.913837
O O3 0.973012 0.404965 0.936230
O O4 0.012123 0.346401 0.045154
O O5 0.750000 0.693441 0.088021
O O6 0.527295 0.752588 0.056011
O O7 0.521691 0.708155 0.177125
O O8 0.750000 0.815893 0.021703
O O9 0.017179 0.846883 0.055332
O O10 0.965580 0.792158 0.929972
O O11 0.750000 0.665479 0.640501
O O12 0.545623 0.594285 0.665317
O O13 0.495299 0.689819 0.693624
O O14 0.750000 0.748010 0.854327
O O15 0.024287 0.751614 0.806433
O O16 0.250000 0.048552 0.372040
O O17 0.004628 0.070415 0.300066
O O18 0.000000 0.000000 0.401320
O O19 0.500000 0.500000 0.698258
O O20 0.250000 0.456188 0.741779
O O21 0.250000 0.735487 0.720700
#
# Coordination Sequence:
#
# PCOD8182446 Si02
#       8
#     8   8   8   8   8   8   8   8
#     4   9  16  29  45  57  77 109 140 169 203 240
#     4   7  13  26  41  56  76 105 137 166 197 235
#     4   8  15  28  43  58  79 108 139 167 199 242
#     4  10  19  29  42  60  82 108 138 172 209 244
#     4   9  17  28  42  61  85 112 139 169 205 240
#     4  11  21  31  43  60  81 105 136 171 205 240
#     4  10  20  32  44  59  80 107 138 171 206 240
#     4  10  18  27  41  61  84 112 143 169 198 241
#
# _framework density 14.80871
#
# number of rings (size 3 to 8) (size 9 to 14) (size 15 to 20)
#    0.000    2.750    0.000    6.000    0.000    6.000 
#    0.000    5.625    0.000    0.000    0.000    0.000 
#    0.000    1.000    0.000    9.000    0.000    5.750 
#
# Total GULP energy -396436.390357 kJ/mol
# GULP energy per Si atom -12388.637199 kJ/mol
# Density = 1.477500 g / cm^3
# Si number density = 14.808710 Si / 1000 Ang^3
#
#
#
# Elastic Constant Matrix: (Units=GPa)
#
#
# Indices 1 2 3 4 5 6 
#
# 1 83.8101 43.2233 46.9879 0.0000 0.0000 0.0000
# 2 43.2233 71.2382 50.0421 0.0000 0.0000 0.0000
# 3 46.9879 50.0421 96.3588 0.0000 0.0000 0.0000
# 4 0.0000 0.0000 0.0000 26.6419 0.0000 0.0000
# 5 0.0000 0.0000 0.0000 0.0000 15.5808 0.0000
# 6 0.0000 0.0000 0.0000 0.0000 0.0000 20.1267
#
#
#
# Elastic Compliance Matrix: (Units=1/GPa)
#
#
# Indices 1 2 3 4 5 6 
#
# 1 0.018843 -0.007838 -0.005118 0.000000 0.000000 0.000000
# 2 -0.007838 0.025359 -0.009348 0.000000 0.000000 0.000000
# 3 -0.005118 -0.009348 0.017728 0.000000 0.000000 0.000000
# 4 0.000000 0.000000 0.000000 0.037535 0.000000 0.000000
# 5 0.000000 0.000000 0.000000 0.000000 0.064181 0.000000
# 6 0.000000 0.000000 0.000000 0.000000 0.000000 0.049685
#
#
# Mechanical properties :
#
#
# Convention : Reuss Voigt Hill
#
# Bulk Modulus (GPa) = 57.72586 59.10154 58.41370
# Shear Modulus (GPa) = 18.95982 19.88014 19.41998
#
# Velocity S-wave (km/s) = 3.58203 3.66794 3.62524
# Velocity P-wave (km/s) = 7.49490 7.61150 7.55343
#
# Compressibility (1/GPa) = 0.01732326
#
# Stress axis : x y z
#
# Youngs Moduli (GPa) = 53.06880 39.43296 56.40637
#
# Poissons Ratio (x) = 0.30906 0.28871
# Poissons Ratio (y) = 0.41594 0.52729
# Poissons Ratio (z) = 0.27163 0.36862
#
# Static dielectric constant tensor:
#      x y z
#    x 2.843250 0.000000 0.000000 
#    y 0.000000 2.731370 0.000000 
#    z 0.000000 0.000000 3.090940 
# 
# 
# High freq. dielectric constant tensor:
#      x y z
#    x 1.568080 0.000000 0.000000 
#    y 0.000000 1.533800 0.000000 
#    z 0.000000 0.000000 1.560880 
# 
# From -- ./inp_files/22573.got.cif
#   From: 2010.03.12/outbox.cif.g09.slc.cpg/sg40_12_cif.got.tgz:22573.got - 2010.04.14 01:38:03.
