data_PCOD8182744
_publ_section_title
;
Structure prediction by ZEFSAII (Michael W. Deem and Ramdas Pophale) SiO2 
 PCOD8182744
Probable space group: A M A 2
;
_chemical_formula_sum "Si O2"
_cell_formula_units_Z 64
_cell_length_a 9.024098
_cell_length_b 20.823968
_cell_length_c 19.646087
_cell_angle_alpha 90.000000
_cell_angle_beta 90.000000
_cell_angle_gamma 90.000000
_cell_volume 3691.844104
_symmetry_space_group_name_H-M "A M A 2"
_symmetry_group_IT_number 40
_symmetry_cell_setting 'orthorhombic'
loop_
_space_group_symop_operation_xyz
x,y,z
-x,-y,z
1/2-x,y,z
1/2+x,-y,z
x,1/2+y,1/2+z
-x,1/2-y,1/2+z
1/2-x,1/2+y,1/2+z
1/2+x,1/2-y,1/2+z
loop_
_atom_site_type_symbol
_atom_site_label
_atom_site_fract_x
_atom_site_fract_y
_atom_site_fract_z
Si Si1 0.576217 0.763425 0.137300
Si Si2 0.573511 0.311987 0.776807
Si Si3 0.924175 0.064781 0.773976
Si Si4 0.421639 0.565121 0.855265
Si Si5 0.577396 0.372409 0.996248
Si Si6 0.574736 0.263602 0.486893
Si Si7 0.574337 0.187522 0.859505
Si Si8 0.924982 0.118656 0.630509
O O1 0.750000 0.760267 0.148288
O O2 0.512042 0.806851 0.198962
O O3 0.517507 0.690805 0.144438
O O4 0.536335 0.790962 0.062604
O O5 0.750000 0.313808 0.780092
O O6 0.509406 0.376491 0.810831
O O7 0.518429 0.249667 0.818149
O O8 0.750000 0.057015 0.780907
O O9 0.978983 0.124055 0.819904
O O10 0.969301 0.076114 0.695367
O O11 0.000000 0.000000 0.800660
O O12 0.500000 0.500000 0.832842
O O13 0.250000 0.557325 0.838495
O O14 0.448235 0.578338 0.934834
O O15 0.750000 0.356513 0.006197
O O16 0.510752 0.406496 0.063589
O O17 0.493247 0.306900 0.978133
O O18 0.750000 0.258665 0.476092
O O19 0.503215 0.312531 0.433229
O O20 0.750000 0.188270 0.869212
O O21 0.750000 0.116899 0.616041
#
# Coordination Sequence:
#
# PCOD8182744 Si02
#       8
#     8   8   8   8   8   8   8   8
#     4   8  14  27  50  75  97 124 163 204 247 300
#     4   9  15  30  54  74  93 126 172 208 241 299
#     4  10  21  35  53  75 104 141 176 216 261 311
#     4  10  21  34  50  71  98 133 169 208 249 296
#     4  10  19  32  49  72 102 138 174 206 247 304
#     4  10  19  30  50  80 107 130 163 214 261 301
#     4  10  18  33  56  76  99 135 176 213 254 305
#     4   9  17  31  50  73 100 134 171 208 251 298
#
# _framework density 17.335509999999999
#
# number of rings (size 3 to 8) (size 9 to 14) (size 15 to 20)
#    0.000    2.500    2.500    1.500    0.000    2.500 
#    0.000    2.500    0.000    4.500    0.000    3.500 
#    0.000    0.000    0.000    0.000    0.000    0.000 
#
# Total GULP energy -396689.659615 kJ/mol
# GULP energy per Si atom -12396.551863 kJ/mol
# Density = 1.729605 g / cm^3
# Si number density = 17.335510 Si / 1000 Ang^3
#
#
#
# Elastic Constant Matrix: (Units=GPa)
#
#
# Indices 1 2 3 4 5 6 
#
# 1 41.2512 32.1744 36.4489 0.0000 0.0000 0.0000
# 2 32.1744 119.2542 63.9663 0.0000 0.0000 0.0000
# 3 36.4489 63.9663 115.9508 0.0000 0.0000 0.0000
# 4 0.0000 0.0000 0.0000 22.1861 0.0000 0.0000
# 5 0.0000 0.0000 0.0000 0.0000 24.5371 0.0000
# 6 0.0000 0.0000 0.0000 0.0000 0.0000 25.5800
#
#
#
# Elastic Compliance Matrix: (Units=1/GPa)
#
#
# Indices 1 2 3 4 5 6 
#
# 1 0.035639 -0.005122 -0.008378 0.000000 0.000000 0.000000
# 2 -0.005122 0.012646 -0.005366 0.000000 0.000000 0.000000
# 3 -0.008378 -0.005366 0.014218 0.000000 0.000000 0.000000
# 4 0.000000 0.000000 0.000000 0.045073 0.000000 0.000000
# 5 0.000000 0.000000 0.000000 0.000000 0.040755 0.000000
# 6 0.000000 0.000000 0.000000 0.000000 0.000000 0.039093
#
#
# Mechanical properties :
#
#
# Convention : Reuss Voigt Hill
#
# Bulk Modulus (GPa) = 40.36854 60.18171 50.27513
# Shear Modulus (GPa) = 21.42140 24.05172 22.73656
#
# Velocity S-wave (km/s) = 3.51906 3.72886 3.62548
# Velocity P-wave (km/s) = 6.31260 7.30277 6.82566
#
# Compressibility (1/GPa) = 0.02477176
#
# Stress axis : x y z
#
# Youngs Moduli (GPa) = 28.05939 79.07889 70.33252
#
# Poissons Ratio (x) = 0.40501 0.58921
# Poissons Ratio (y) = 0.14371 0.37742
# Poissons Ratio (z) = 0.23507 0.42435
#
# Static dielectric constant tensor:
#      x y z
#    x 2.979330 0.000000 0.000000 
#    y 0.000000 3.093270 0.000000 
#    z 0.000000 0.000000 3.547100 
# 
# 
# High freq. dielectric constant tensor:
#      x y z
#    x 1.645040 0.000000 0.000000 
#    y 0.000000 1.644340 0.000000 
#    z 0.000000 0.000000 1.678010 
# 
# From -- ./inp_files/19595.got.cif
#   From: 2010.03.12/outbox.cif.g09.slc.cpg/sg40_10_cif.got.tgz:19595.got - 2010.04.14 01:38:03.
