data_PCOD8182780
_publ_section_title
;
Structure prediction by ZEFSAII (Michael W. Deem and Ramdas Pophale) SiO2 
 PCOD8182780
Probable space group: A M A 2
;
_chemical_formula_sum "Si O2"
_cell_formula_units_Z 64
_cell_length_a 18.510744
_cell_length_b 15.878735
_cell_length_c 11.929318
_cell_angle_alpha 90.000000
_cell_angle_beta 90.000000
_cell_angle_gamma 90.000000
_cell_volume 3506.351021
_symmetry_space_group_name_H-M "A M A 2"
_symmetry_group_IT_number 40
_symmetry_cell_setting 'orthorhombic'
loop_
_space_group_symop_operation_xyz
x,y,z
-x,-y,z
1/2-x,y,z
1/2+x,-y,z
x,1/2+y,1/2+z
-x,1/2-y,1/2+z
1/2-x,1/2+y,1/2+z
1/2+x,1/2-y,1/2+z
loop_
_atom_site_type_symbol
_atom_site_label
_atom_site_fract_x
_atom_site_fract_y
_atom_site_fract_z
Si Si1 0.333614 0.815663 0.978590
Si Si2 0.582149 0.006831 0.582639
Si Si3 0.076419 0.393676 0.673429
Si Si4 0.926968 0.660867 0.922078
Si Si5 0.907640 0.352998 0.934561
Si Si6 0.166478 0.384997 0.242714
Si Si7 0.334512 0.235956 0.079317
Si Si8 0.409898 0.085158 0.187311
O O1 0.250000 0.823766 0.012536
O O2 0.349128 0.720318 0.941917
O O3 0.351950 0.876414 0.873787
O O4 0.384211 0.837498 0.081835
O O5 0.608911 0.917139 0.536242
O O6 0.500000 0.000000 0.621234
O O7 0.592490 0.074275 0.484029
O O8 0.625949 0.033799 0.693078
O O9 0.092959 0.351607 0.792741
O O10 0.107587 0.487872 0.663920
O O11 0.991087 0.392231 0.651151
O O12 0.010993 0.683519 0.941363
O O13 0.878451 0.737384 0.968343
O O14 0.897905 0.402061 0.818782
O O15 0.250000 0.401262 0.222222
O O16 0.142928 0.299112 0.179738
O O17 0.250000 0.239362 0.051885
O O18 0.355501 0.141599 0.114686
#
# Coordination Sequence:
#
# PCOD8182780 Si02
#       8
#     8   8   8   8   8   8   8   8
#     4  11  23  38  53  76 115 153 183 219 270 335
#     4   9  17  33  57  86 109 133 181 233 274 315
#     4  10  21  37  57  83 112 144 179 228 285 327
#     4   9  18  34  57  84 112 138 175 233 285 318
#     4  10  18  34  60  83 107 140 185 232 268 320
#     4   9  19  35  52  76 111 146 178 219 269 321
#     4  10  19  33  55  81 108 141 183 225 264 324
#     4  10  19  36  59  84 108 140 188 230 271 329
#
# _framework density 18.252593000000001
#
# number of rings (size 3 to 8) (size 9 to 14) (size 15 to 20)
#    0.000    2.250    2.500    0.750    0.000    1.500 
#    2.250    1.250    0.000    0.000    0.000    0.000 
#    0.000    0.000    0.000    0.000    0.000    0.000 
#
# Total GULP energy -396867.327232 kJ/mol
# GULP energy per Si atom -12402.103976 kJ/mol
# Density = 1.821105 g / cm^3
# Si number density = 18.252593 Si / 1000 Ang^3
#
#
#
# Elastic Constant Matrix: (Units=GPa)
#
#
# Indices 1 2 3 4 5 6 
#
# 1 45.1180 27.3949 35.8156 0.0000 0.0000 0.0000
# 2 27.3949 68.3487 26.2619 0.0000 0.0000 0.0000
# 3 35.8156 26.2619 83.5722 0.0000 0.0000 0.0000
# 4 0.0000 0.0000 0.0000 23.6008 0.0000 0.0000
# 5 0.0000 0.0000 0.0000 0.0000 25.8873 0.0000
# 6 0.0000 0.0000 0.0000 0.0000 0.0000 30.4281
#
#
#
# Elastic Compliance Matrix: (Units=1/GPa)
#
#
# Indices 1 2 3 4 5 6 
#
# 1 0.039317 -0.010560 -0.013532 0.000000 0.000000 0.000000
# 2 -0.010560 0.019476 -0.001595 0.000000 0.000000 0.000000
# 3 -0.013532 -0.001595 0.018266 0.000000 0.000000 0.000000
# 4 0.000000 0.000000 0.000000 0.042372 0.000000 0.000000
# 5 0.000000 0.000000 0.000000 0.000000 0.038629 0.000000
# 6 0.000000 0.000000 0.000000 0.000000 0.000000 0.032864
#
#
# Mechanical properties :
#
#
# Convention : Reuss Voigt Hill
#
# Bulk Modulus (GPa) = 38.92943 41.77595 40.35269
# Shear Modulus (GPa) = 19.93156 23.15432 21.54294
#
# Velocity S-wave (km/s) = 3.30811 3.56553 3.43923
# Velocity P-wave (km/s) = 5.99716 6.31570 6.15849
#
# Compressibility (1/GPa) = 0.02568751
#
# Stress axis : x y z
#
# Youngs Moduli (GPa) = 25.43409 51.34518 54.74680
#
# Poissons Ratio (x) = 0.54218 0.74081
# Poissons Ratio (y) = 0.26857 0.08731
# Poissons Ratio (z) = 0.34416 0.08188
#
# Static dielectric constant tensor:
#      x y z
#    x 3.285460 0.000000 0.000000 
#    y 0.000000 3.270380 0.000000 
#    z 0.000000 0.000000 3.300070 
# 
# 
# High freq. dielectric constant tensor:
#      x y z
#    x 1.701520 0.000000 0.000000 
#    y 0.000000 1.699760 0.000000 
#    z 0.000000 0.000000 1.700970 
# 
# From -- ./inp_files/13131.got.cif
#   From: 2010.03.12/outbox.cif.g09.slc.cpg/sg40_7_cif.got.tgz:13131.got - 2010.04.14 01:38:03.
