data_PCOD8182026
_publ_section_title
;
Structure prediction by ZEFSAII (Michael W. Deem and Ramdas Pophale) SiO2 
 PCOD8182026
Probable space group: A B M 2
;
_chemical_formula_sum "Si O2"
_cell_formula_units_Z 48
_cell_length_a 8.521428
_cell_length_b 29.226500
_cell_length_c 9.548359
_cell_angle_alpha 90.000000
_cell_angle_beta 90.000000
_cell_angle_gamma 90.000000
_cell_volume 2378.033279
_symmetry_space_group_name_H-M "A B M 2"
_symmetry_group_IT_number 39
_symmetry_cell_setting 'orthorhombic'
loop_
_space_group_symop_operation_xyz
x,y,z
-x,-y,z
-x,1/2+y,z
x,1/2-y,z
x,1/2+y,1/2+z
-x,1/2-y,1/2+z
-x,y,1/2+z
x,-y,1/2+z
loop_
_atom_site_type_symbol
_atom_site_label
_atom_site_fract_x
_atom_site_fract_y
_atom_site_fract_z
Si Si1 0.696265 0.197732 0.625000
Si Si2 0.571509 0.802048 0.827257
Si Si3 0.932255 0.378869 0.548490
Si Si4 0.338154 0.524824 0.299202
Si Si5 0.204332 0.120829 0.750602
Si Si6 0.840196 0.521889 0.068942
O O1 0.757957 0.250000 0.624348
O O2 0.601834 0.186735 0.767739
O O3 0.577684 0.189174 0.494121
O O4 0.845936 0.164980 0.614775
O O5 0.615280 0.750000 0.789683
O O6 0.699110 0.832640 0.749162
O O7 0.921749 0.379142 0.379027
O O8 0.851196 0.424693 0.604518
O O9 0.111633 0.380128 0.603111
O O10 0.500000 0.500000 0.257897
O O11 0.330135 0.579261 0.266577
O O12 0.196972 0.503461 0.211859
O O13 0.301823 0.514323 0.460522
O O14 0.000000 0.500000 0.007430
#
# Coordination Sequence:
#
# PCOD8182026 Si02
#       6
#     8   8   8   8   8   8
#     4   9  19  37  59  84 115 149 189 236 288 343
#     4   9  19  37  58  83 116 150 186 236 289 341
#     4  10  22  37  57  84 112 150 191 233 289 341
#     4  11  24  39  58  86 116 151 196 240 290 341
#     4  10  22  39  56  85 115 150 191 237 287 342
#     4  11  22  40  60  82 116 155 191 239 291 344
#
# _framework density 20.184744999999999
#
# number of rings (size 3 to 8) (size 9 to 14) (size 15 to 20)
#    0.000    2.000    1.667    1.000    4.667    2.000 
#    3.000    0.000    0.000    0.000    0.000    0.000 
#    0.000    0.000    0.000    0.000    0.000    0.000 
#
# Total GULP energy -297559.677939 kJ/mol
# GULP energy per Si atom -12398.319914 kJ/mol
# Density = 2.013880 g / cm^3
# Si number density = 20.184745 Si / 1000 Ang^3
#
#
#
# Elastic Constant Matrix: (Units=GPa)
#
#
# Indices 1 2 3 4 5 6 
#
# 1 78.6829 37.3786 20.8615 0.0000 0.0000 0.0000
# 2 37.3786 104.2361 29.5420 0.0000 0.0000 0.0000
# 3 20.8615 29.5420 39.3312 0.0000 0.0000 0.0000
# 4 0.0000 0.0000 0.0000 25.6046 0.0000 0.0000
# 5 0.0000 0.0000 0.0000 0.0000 35.3444 0.0000
# 6 0.0000 0.0000 0.0000 0.0000 0.0000 33.0648
#
#
#
# Elastic Compliance Matrix: (Units=1/GPa)
#
#
# Indices 1 2 3 4 5 6 
#
# 1 0.016162 -0.004276 -0.005360 0.000000 0.000000 0.000000
# 2 -0.004276 0.013320 -0.007736 0.000000 0.000000 0.000000
# 3 -0.005360 -0.007736 0.034079 0.000000 0.000000 0.000000
# 4 0.000000 0.000000 0.000000 0.039056 0.000000 0.000000
# 5 0.000000 0.000000 0.000000 0.000000 0.028293 0.000000
# 6 0.000000 0.000000 0.000000 0.000000 0.000000 0.030244
#
#
# Mechanical properties :
#
#
# Convention : Reuss Voigt Hill
#
# Bulk Modulus (GPa) = 34.70463 44.20160 39.45311
# Shear Modulus (GPa) = 24.33043 27.76729 26.04886
#
# Velocity S-wave (km/s) = 3.47564 3.71301 3.59628
# Velocity P-wave (km/s) = 5.77387 6.35043 6.06900
#
# Compressibility (1/GPa) = 0.02881460
#
# Stress axis : x y z
#
# Youngs Moduli (GPa) = 61.87360 75.07680 29.34353
#
# Poissons Ratio (x) = 0.32106 0.15729
# Poissons Ratio (y) = 0.26460 0.22701
# Poissons Ratio (z) = 0.33166 0.58082
#
# Static dielectric constant tensor:
#      x y z
#    x 3.284210 0.000000 0.000000 
#    y 0.000000 3.855930 0.000000 
#    z 0.000000 0.000000 3.650810 
# 
# 
# High freq. dielectric constant tensor:
#      x y z
#    x 1.761750 0.000000 0.000000 
#    y 0.000000 1.804160 0.000000 
#    z 0.000000 0.000000 1.787350 
# 
# From -- ./inp_files/2302.got.cif
#   From: 2010.03.12/outbox.cif.g09.slc.cpg/sg39_2_cif.got.tgz:2302.got - 2010.04.14 02:53:20.
