data_PCOD8182427
_publ_section_title
;
Structure prediction by ZEFSAII (Michael W. Deem and Ramdas Pophale) SiO2 
 PCOD8182427
Probable space group: A M A 2
;
_chemical_formula_sum "Si O2"
_cell_formula_units_Z 64
_cell_length_a 9.073490
_cell_length_b 26.639892
_cell_length_c 18.342726
_cell_angle_alpha 90.000000
_cell_angle_beta 90.000000
_cell_angle_gamma 90.000000
_cell_volume 4433.744916
_symmetry_space_group_name_H-M "A M A 2"
_symmetry_group_IT_number 40
_symmetry_cell_setting 'orthorhombic'
loop_
_space_group_symop_operation_xyz
x,y,z
-x,-y,z
1/2-x,y,z
1/2+x,-y,z
x,1/2+y,1/2+z
-x,1/2-y,1/2+z
1/2-x,1/2+y,1/2+z
1/2+x,1/2-y,1/2+z
loop_
_atom_site_type_symbol
_atom_site_label
_atom_site_fract_x
_atom_site_fract_y
_atom_site_fract_z
Si Si1 0.076885 0.050097 0.689840
Si Si2 0.078546 0.549627 0.358098
Si Si3 0.419187 0.149805 0.620338
Si Si4 0.422106 0.653048 0.426150
Si Si5 0.575753 0.248034 0.195764
Si Si6 0.919020 0.795846 0.068980
Si Si7 0.419207 0.756785 0.844996
Si Si8 0.083507 0.711345 0.990671
O O1 0.250000 0.043814 0.677125
O O2 0.036791 0.058992 0.774069
O O3 0.007328 0.097610 0.645765
O O4 0.000000 0.000000 0.659692
O O5 0.250000 0.540650 0.368128
O O6 0.024815 0.597666 0.403846
O O7 0.000000 0.500000 0.388872
O O8 0.250000 0.144909 0.642915
O O9 0.480803 0.198368 0.664030
O O10 0.439851 0.158025 0.532562
O O11 0.250000 0.661703 0.406584
O O12 0.448156 0.657576 0.513746
O O13 0.516746 0.692651 0.380151
O O14 0.750000 0.244596 0.200553
O O15 0.518007 0.203564 0.142147
O O16 0.509529 0.239458 0.275145
O O17 0.750000 0.793355 0.093567
O O18 0.958513 0.747631 0.020820
O O19 0.250000 0.766681 0.823569
O O20 0.431562 0.710335 0.903057
O O21 0.250000 0.730716 0.011426
#
# Coordination Sequence:
#
# PCOD8182427 Si02
#       8
#     8   8   8   8   8   8   8   8
#     4   9  16  26  39  54  74  99 129 161 189 219
#     4   9  17  28  40  56  78 105 136 167 197 229
#     4   8  14  26  42  54  69 101 135 156 182 227
#     4   9  17  29  43  57  78 108 136 162 199 242
#     4  10  18  28  41  56  78 107 135 160 193 236
#     4   9  16  26  40  58  78 100 129 164 197 231
#     4  10  18  26  39  60  82 102 131 167 196 229
#     4   8  15  27  40  55  76 102 130 159 192 231
#
# _framework density 14.434749999999999
#
# number of rings (size 3 to 8) (size 9 to 14) (size 15 to 20)
#    0.000    3.000    0.000    2.625    0.000    3.500 
#    0.000    5.625    0.000    0.000    0.000    0.000 
#    0.000    1.000    0.000    3.750    0.000    2.875 
#
# Total GULP energy -396488.397384 kJ/mol
# GULP energy per Si atom -12390.262418 kJ/mol
# Density = 1.440190 g / cm^3
# Si number density = 14.434750 Si / 1000 Ang^3
#
#
#
# Elastic Constant Matrix: (Units=GPa)
#
#
# Indices 1 2 3 4 5 6 
#
# 1 53.8014 27.2900 40.8761 0.0000 0.0000 0.0000
# 2 27.2900 82.8474 52.1524 0.0000 0.0000 0.0000
# 3 40.8761 52.1524 105.1641 0.0000 0.0000 0.0000
# 4 0.0000 0.0000 0.0000 25.2059 0.0000 0.0000
# 5 0.0000 0.0000 0.0000 0.0000 22.0589 0.0000
# 6 0.0000 0.0000 0.0000 0.0000 0.0000 17.4902
#
#
#
# Elastic Compliance Matrix: (Units=1/GPa)
#
#
# Indices 1 2 3 4 5 6 
#
# 1 0.026991 -0.003325 -0.008843 0.000000 0.000000 0.000000
# 2 -0.003325 0.017958 -0.007613 0.000000 0.000000 0.000000
# 3 -0.008843 -0.007613 0.016722 0.000000 0.000000 0.000000
# 4 0.000000 0.000000 0.000000 0.039673 0.000000 0.000000
# 5 0.000000 0.000000 0.000000 0.000000 0.045333 0.000000
# 6 0.000000 0.000000 0.000000 0.000000 0.000000 0.057175
#
#
# Mechanical properties :
#
#
# Convention : Reuss Voigt Hill
#
# Bulk Modulus (GPa) = 45.22857 53.60555 49.41706
# Shear Modulus (GPa) = 19.93747 21.05061 20.49404
#
# Velocity S-wave (km/s) = 3.72050 3.82295 3.77207
# Velocity P-wave (km/s) = 7.06097 7.53018 7.29935
#
# Compressibility (1/GPa) = 0.02210992
#
# Stress axis : x y z
#
# Youngs Moduli (GPa) = 37.04874 55.68485 59.80289
#
# Poissons Ratio (x) = 0.18513 0.52881
# Poissons Ratio (y) = 0.12317 0.45531
# Poissons Ratio (z) = 0.32761 0.42396
#
# Static dielectric constant tensor:
#      x y z
#    x 2.798940 0.000000 0.000000 
#    y 0.000000 2.769210 0.000000 
#    z 0.000000 0.000000 2.969180 
# 
# 
# High freq. dielectric constant tensor:
#      x y z
#    x 1.552110 0.000000 0.000000 
#    y 0.000000 1.514950 0.000000 
#    z 0.000000 0.000000 1.544300 
# 
# From -- ./inp_files/19759.got.cif
#   From: 2010.03.12/outbox.cif.g09.slc.cpg/sg40_10_cif.got.tgz:19759.got - 2010.04.14 01:38:03.
