data_PCOD8182829
_publ_section_title
;
Structure prediction by ZEFSAII (Michael W. Deem and Ramdas Pophale) SiO2 
 PCOD8182829
Probable space group: A M A 2
;
_chemical_formula_sum "Si O2"
_cell_formula_units_Z 40
_cell_length_a 16.221747
_cell_length_b 11.832626
_cell_length_c 9.424470
_cell_angle_alpha 90.000000
_cell_angle_beta 90.000000
_cell_angle_gamma 90.000000
_cell_volume 1808.988049
_symmetry_space_group_name_H-M "A M A 2"
_symmetry_group_IT_number 40
_symmetry_cell_setting 'orthorhombic'
loop_
_space_group_symop_operation_xyz
x,y,z
-x,-y,z
1/2-x,y,z
1/2+x,-y,z
x,1/2+y,1/2+z
-x,1/2-y,1/2+z
1/2-x,1/2+y,1/2+z
1/2+x,1/2-y,1/2+z
loop_
_atom_site_type_symbol
_atom_site_label
_atom_site_fract_x
_atom_site_fract_y
_atom_site_fract_z
Si Si1 0.250000 0.861627 0.406340
Si Si2 0.078780 0.241789 0.979791
Si Si3 0.250000 0.473327 0.173632
Si Si4 0.882044 0.998295 0.887717
Si Si5 0.250000 0.487019 0.616726
Si Si6 0.250000 0.218311 0.276199
Si Si7 0.427267 0.263887 0.314478
O O1 0.166882 0.790870 0.434075
O O2 0.250000 0.978347 0.501672
O O3 0.250000 0.900441 0.245411
O O4 0.069764 0.112442 0.931846
O O5 0.001275 0.301857 0.897395
O O6 0.064164 0.248326 0.146601
O O7 0.171030 0.529978 0.246000
O O8 0.250000 0.336728 0.192513
O O9 0.939823 0.103529 0.849633
O O10 0.828291 0.039279 0.020871
O O11 0.250000 0.618206 0.661819
O O12 0.336472 0.216471 0.364919
#
# Coordination Sequence:
#
# PCOD8182829 Si02
#       7
#     4   8   4   8   4   4   8
#     4  12  23  43  66 100 146 168 229 295 335 408
#     4  12  24  46  69 100 137 181 226 290 341 409
#     4   9  17  39  71  92 122 176 227 269 334 408
#     4  10  20  43  71  93 128 183 232 265 346 419
#     4  11  22  37  73 103 127 188 231 276 348 412
#     4  10  18  47  66  89 135 180 211 282 329 396
#     4  11  24  43  73 100 134 179 232 283 340 416
#
# _framework density 22.111810999999999
#
# number of rings (size 3 to 8) (size 9 to 14) (size 15 to 20)
#    0.000    1.200    6.000    2.400    2.800    0.000 
#    3.600    1.000    0.000    0.000    0.000    0.000 
#    0.000    0.000    0.000    0.000    0.000    0.000 
#
# Total GULP energy -247769.256194 kJ/mol
# GULP energy per Si atom -12388.462810 kJ/mol
# Density = 2.206148 g / cm^3
# Si number density = 22.111811 Si / 1000 Ang^3
#
#
#
# Elastic Constant Matrix: (Units=GPa)
#
#
# Indices 1 2 3 4 5 6 
#
# 1 193.7976 18.3728 75.4393 0.0000 0.0000 0.0000
# 2 18.3728 71.6698 30.8990 0.0000 0.0000 0.0000
# 3 75.4393 30.8990 116.5079 0.0000 0.0000 0.0000
# 4 0.0000 0.0000 0.0000 37.5263 0.0000 0.0000
# 5 0.0000 0.0000 0.0000 0.0000 12.8213 0.0000
# 6 0.0000 0.0000 0.0000 0.0000 0.0000 38.8743
#
#
#
# Elastic Compliance Matrix: (Units=1/GPa)
#
#
# Indices 1 2 3 4 5 6 
#
# 1 0.006901 0.000178 -0.004515 0.000000 0.000000 0.000000
# 2 0.000178 0.015759 -0.004294 0.000000 0.000000 0.000000
# 3 -0.004515 -0.004294 0.012646 0.000000 0.000000 0.000000
# 4 0.000000 0.000000 0.000000 0.026648 0.000000 0.000000
# 5 0.000000 0.000000 0.000000 0.000000 0.077995 0.000000
# 6 0.000000 0.000000 0.000000 0.000000 0.000000 0.025724
#
#
# Mechanical properties :
#
#
# Convention : Reuss Voigt Hill
#
# Bulk Modulus (GPa) = 55.42910 70.15526 62.79218
# Shear Modulus (GPa) = 26.46191 34.99533 30.72862
#
# Velocity S-wave (km/s) = 3.46313 3.98257 3.73190
# Velocity P-wave (km/s) = 6.41195 7.27628 6.85775
#
# Compressibility (1/GPa) = 0.01804106
#
# Stress axis : x y z
#
# Youngs Moduli (GPa) = 144.90837 63.45670 79.07750
#
# Poissons Ratio (x) = -0.01128 0.35707
# Poissons Ratio (y) = -0.02575 0.33959
# Poissons Ratio (z) = 0.65433 0.27251
#
# Static dielectric constant tensor:
#      x y z
#    x 4.302330 0.000000 0.000000 
#    y 0.000000 3.729200 0.000000 
#    z 0.000000 0.000000 4.130780 
# 
# 
# High freq. dielectric constant tensor:
#      x y z
#    x 1.892480 0.000000 0.000000 
#    y 0.000000 1.842370 0.000000 
#    z 0.000000 0.000000 1.864950 
# 
# From -- ./inp_files/7197.got.cif
#   From: 2010.03.12/outbox.cif.g09.slc.cpg/sg40_4_cif.got.tgz:7197.got - 2010.04.14 01:38:03.
