data_PCOD8182218
_publ_section_title
;
Structure prediction by ZEFSAII (Michael W. Deem and Ramdas Pophale) SiO2 
 PCOD8182218
Probable space group: A B M 2
;
_chemical_formula_sum "Si O2"
_cell_formula_units_Z 32
_cell_length_a 16.771805
_cell_length_b 8.147265
_cell_length_c 10.016279
_cell_angle_alpha 90.000000
_cell_angle_beta 90.000000
_cell_angle_gamma 90.000000
_cell_volume 1368.667832
_symmetry_space_group_name_H-M "A B M 2"
_symmetry_group_IT_number 39
_symmetry_cell_setting 'orthorhombic'
loop_
_space_group_symop_operation_xyz
x,y,z
-x,-y,z
-x,1/2+y,z
x,1/2-y,z
x,1/2+y,1/2+z
-x,1/2-y,1/2+z
-x,y,1/2+z
x,-y,1/2+z
loop_
_atom_site_type_symbol
_atom_site_label
_atom_site_fract_x
_atom_site_fract_y
_atom_site_fract_z
Si Si1 0.911145 0.559928 0.748380
Si Si2 0.467505 0.250000 0.533054
Si Si3 0.660573 0.428126 0.893656
Si Si4 0.183910 0.062935 0.005998
Si Si5 0.591965 0.750000 0.811926
O O1 0.906293 0.750000 0.712834
O O2 0.850169 0.465521 0.652782
O O3 0.000000 0.500000 0.724627
O O4 0.885187 0.520356 0.899301
O O5 0.416336 0.088054 0.491583
O O6 0.475348 0.250000 0.694991
O O7 0.551888 0.250000 0.458133
O O8 0.669235 0.250000 0.816502
O O9 0.646524 0.585531 0.797421
O O10 0.739121 0.451049 0.982768
O O11 0.211512 0.250000 0.990600
#
# Coordination Sequence:
#
# PCOD8182218 Si02
#       5
#     8   4   8   8   4
#     4  11  25  43  68 101 140 180 235 289 348 421
#     4  10  28  46  76 104 141 187 238 286 357 429
#     4  10  25  44  70 107 137 189 232 292 349 417
#     4  11  24  44  70 100 141 186 233 290 347 415
#     4  12  24  54  70 104 147 181 236 296 351 427
#
# _framework density 23.380396999999999
#
# number of rings (size 3 to 8) (size 9 to 14) (size 15 to 20)
#    0.750    0.500    1.250    3.000    3.500   10.000 
#    2.250    0.000    0.000    0.000    0.000    0.000 
#    0.000    0.000    0.000    0.000    0.000    0.000 
#
# Total GULP energy -198342.823779 kJ/mol
# GULP energy per Si atom -12396.426486 kJ/mol
# Density = 2.332718 g / cm^3
# Si number density = 23.380397 Si / 1000 Ang^3
#
#
#
# Elastic Constant Matrix: (Units=GPa)
#
#
# Indices 1 2 3 4 5 6 
#
# 1 69.2797 24.6412 -17.4982 0.0000 0.0000 0.0000
# 2 24.6412 151.5037 27.1247 0.0000 0.0000 0.0000
# 3 -17.4982 27.1247 70.2148 0.0000 0.0000 0.0000
# 4 0.0000 0.0000 0.0000 20.4850 0.0000 0.0000
# 5 0.0000 0.0000 0.0000 0.0000 46.4649 0.0000
# 6 0.0000 0.0000 0.0000 0.0000 0.0000 36.3875
#
#
#
# Elastic Compliance Matrix: (Units=1/GPa)
#
#
# Indices 1 2 3 4 5 6 
#
# 1 0.017263 -0.003844 0.005787 0.000000 0.000000 0.000000
# 2 -0.003844 0.007947 -0.004028 0.000000 0.000000 0.000000
# 3 0.005787 -0.004028 0.017240 0.000000 0.000000 0.000000
# 4 0.000000 0.000000 0.000000 0.048816 0.000000 0.000000
# 5 0.000000 0.000000 0.000000 0.000000 0.021522 0.000000
# 6 0.000000 0.000000 0.000000 0.000000 0.000000 0.027482
#
#
# Mechanical properties :
#
#
# Convention : Reuss Voigt Hill
#
# Bulk Modulus (GPa) = 26.12281 39.94820 33.03550
# Shear Modulus (GPa) = 31.80675 37.78285 34.79480
#
# Velocity S-wave (km/s) = 3.69236 4.02432 3.86191
# Velocity P-wave (km/s) = 5.41990 6.22228 5.83490
#
# Compressibility (1/GPa) = 0.03828073
#
# Stress axis : x y z
#
# Youngs Moduli (GPa) = 57.92721 125.83666 58.00397
#
# Poissons Ratio (x) = 0.48369 -0.33567
# Poissons Ratio (y) = 0.22266 0.23363
# Poissons Ratio (z) = -0.33523 0.50685
#
# Static dielectric constant tensor:
#      x y z
#    x 4.048030 0.000000 0.000000 
#    y 0.000000 4.352720 0.000000 
#    z 0.000000 0.000000 3.820990 
# 
# 
# High freq. dielectric constant tensor:
#      x y z
#    x 1.926410 0.000000 0.000000 
#    y 0.000000 1.942390 0.000000 
#    z 0.000000 0.000000 1.898890 
# 
# From -- ./inp_files/6204.got.cif
#   From: 2010.03.12/outbox.cif.g09.slc.cpg/sg39_4_cif.got.tgz:6204.got - 2010.04.14 02:53:20.
