data_PCOD8182111
_publ_section_title
;
Structure prediction by ZEFSAII (Michael W. Deem and Ramdas Pophale) SiO2 
 PCOD8182111
Probable space group: A B M 2
;
_chemical_formula_sum "Si O2"
_cell_formula_units_Z 56
_cell_length_a 11.586347
_cell_length_b 21.456848
_cell_length_c 10.963641
_cell_angle_alpha 90.000000
_cell_angle_beta 90.000000
_cell_angle_gamma 90.000000
_cell_volume 2725.632268
_symmetry_space_group_name_H-M "A B M 2"
_symmetry_group_IT_number 39
_symmetry_cell_setting 'orthorhombic'
loop_
_space_group_symop_operation_xyz
x,y,z
-x,-y,z
-x,1/2+y,z
x,1/2-y,z
x,1/2+y,1/2+z
-x,1/2-y,1/2+z
-x,y,1/2+z
x,-y,1/2+z
loop_
_atom_site_type_symbol
_atom_site_label
_atom_site_fract_x
_atom_site_fract_y
_atom_site_fract_z
Si Si1 0.663607 0.383613 0.345970
Si Si2 0.372369 0.525412 0.132313
Si Si3 0.877717 0.324677 0.754295
Si Si4 0.858859 0.179085 0.219664
Si Si5 0.443869 0.818744 0.804750
Si Si6 0.695003 0.895391 0.122229
Si Si7 0.737617 0.634352 0.480660
O O1 0.617652 0.438229 0.259379
O O2 0.793954 0.363956 0.316480
O O3 0.579781 0.324409 0.328404
O O4 0.656470 0.404178 0.483963
O O5 0.500000 0.500000 0.092118
O O6 0.288017 0.467087 0.163202
O O7 0.308577 0.567012 0.027302
O O8 0.858738 0.250000 0.771916
O O9 0.806470 0.351052 0.638426
O O10 0.008448 0.341831 0.723164
O O11 0.831009 0.365114 0.869668
O O12 0.849651 0.250000 0.261724
O O13 0.800757 0.171556 0.087923
O O14 0.415847 0.750000 0.756687
O O15 0.409937 0.866858 0.699364
O O16 0.374972 0.829863 0.931173
#
# Coordination Sequence:
#
# PCOD8182111 Si02
#       7
#     8   8   8   8   8   8   8
#     4  11  25  40  62 100 129 170 219 271 333 403
#     4  11  23  43  67  94 130 175 220 267 326 399
#     4  10  23  43  69  97 130 175 223 277 331 392
#     4  10  22  41  67  95 130 173 220 270 332 399
#     4  11  23  40  64  98 136 167 209 276 339 394
#     4  11  24  41  65  93 129 170 219 271 327 389
#     4  10  22  41  66  98 126 174 223 267 325 390
#
# _framework density 20.545691999999999
#
# number of rings (size 3 to 8) (size 9 to 14) (size 15 to 20)
#    0.000    1.429    1.429    3.857    8.000    2.857 
#    0.000    2.857    0.000    0.000    0.000    0.000 
#    0.000    0.000    0.000    0.000    0.000    0.000 
#
# Total GULP energy -347012.701454 kJ/mol
# GULP energy per Si atom -12393.310766 kJ/mol
# Density = 2.049893 g / cm^3
# Si number density = 20.545692 Si / 1000 Ang^3
#
#
#
# Elastic Constant Matrix: (Units=GPa)
#
#
# Indices 1 2 3 4 5 6 
#
# 1 135.2766 48.5255 39.3574 0.0000 0.0000 0.0000
# 2 48.5255 131.2456 49.0796 0.0000 0.0000 0.0000
# 3 39.3574 49.0796 115.5317 0.0000 0.0000 0.0000
# 4 0.0000 0.0000 0.0000 27.8945 0.0000 0.0000
# 5 0.0000 0.0000 0.0000 0.0000 11.4983 0.0000
# 6 0.0000 0.0000 0.0000 0.0000 0.0000 16.6867
#
#
#
# Elastic Compliance Matrix: (Units=1/GPa)
#
#
# Indices 1 2 3 4 5 6 
#
# 1 0.008873 -0.002556 -0.001937 0.000000 0.000000 0.000000
# 2 -0.002556 0.009795 -0.003290 0.000000 0.000000 0.000000
# 3 -0.001937 -0.003290 0.010713 0.000000 0.000000 0.000000
# 4 0.000000 0.000000 0.000000 0.035849 0.000000 0.000000
# 5 0.000000 0.000000 0.000000 0.000000 0.086970 0.000000
# 6 0.000000 0.000000 0.000000 0.000000 0.000000 0.059928
#
#
# Mechanical properties :
#
#
# Convention : Reuss Voigt Hill
#
# Bulk Modulus (GPa) = 72.38819 72.88652 72.63736
# Shear Modulus (GPa) = 21.52403 27.55531 24.53967
#
# Velocity S-wave (km/s) = 3.24020 3.66617 3.45975
# Velocity P-wave (km/s) = 7.02195 7.31255 7.16873
#
# Compressibility (1/GPa) = 0.01381441
#
# Stress axis : x y z
#
# Youngs Moduli (GPa) = 112.70544 102.09500 93.34383
#
# Poissons Ratio (x) = 0.26098 0.18077
# Poissons Ratio (y) = 0.28811 0.30711
# Poissons Ratio (z) = 0.21827 0.33591
#
# Static dielectric constant tensor:
#      x y z
#    x 3.789460 0.000000 0.000000 
#    y 0.000000 3.744750 0.000000 
#    z 0.000000 0.000000 3.713370 
# 
# 
# High freq. dielectric constant tensor:
#      x y z
#    x 1.804050 0.000000 0.000000 
#    y 0.000000 1.804610 0.000000 
#    z 0.000000 0.000000 1.803710 
# 
# From -- ./inp_files/5972.got.cif
#   From: 2010.03.12/outbox.cif.g09.slc.cpg/sg39_3_cif.got.tgz:5972.got - 2010.04.14 02:53:20.
