data_PCOD8182232
_publ_section_title
;
Structure prediction by ZEFSAII (Michael W. Deem and Ramdas Pophale) SiO2 
 PCOD8182232
Probable space group: A B M 2
;
_chemical_formula_sum "Si O2"
_cell_formula_units_Z 56
_cell_length_a 15.381494
_cell_length_b 8.796189
_cell_length_c 20.430879
_cell_angle_alpha 90.000000
_cell_angle_beta 90.000000
_cell_angle_gamma 90.000000
_cell_volume 2764.267861
_symmetry_space_group_name_H-M "A B M 2"
_symmetry_group_IT_number 39
_symmetry_cell_setting 'orthorhombic'
loop_
_space_group_symop_operation_xyz
x,y,z
-x,-y,z
-x,1/2+y,z
x,1/2-y,z
x,1/2+y,1/2+z
-x,1/2-y,1/2+z
-x,y,1/2+z
x,-y,1/2+z
loop_
_atom_site_type_symbol
_atom_site_label
_atom_site_fract_x
_atom_site_fract_y
_atom_site_fract_z
Si Si1 0.260341 0.426384 0.835560
Si Si2 0.089935 0.570263 0.650338
Si Si3 0.675156 0.420716 0.468558
Si Si4 0.590676 0.068583 0.595635
Si Si5 0.872197 0.920655 0.002931
Si Si6 0.086088 0.573287 0.873256
Si Si7 0.268295 0.073357 0.689593
O O1 0.242836 0.250000 0.852642
O O2 0.320508 0.495309 0.895182
O O3 0.168000 0.507866 0.834970
O O4 0.303155 0.446747 0.764440
O O5 0.092920 0.750000 0.663399
O O6 0.094800 0.529997 0.573739
O O7 0.171190 0.492518 0.686218
O O8 0.000000 0.500000 0.677966
O O9 0.642323 0.250000 0.459317
O O10 0.610001 0.496349 0.521788
O O11 0.768420 0.428858 0.503081
O O12 0.587387 0.250000 0.596673
O O13 0.500000 0.000000 0.620225
O O14 0.666452 0.017970 0.644158
O O15 0.903067 0.750000 0.984916
O O16 0.911163 0.037252 0.950644
O O17 0.083205 0.750000 0.861081
O O18 0.000000 0.500000 0.841847
O O19 0.267260 0.250000 0.669490
#
# Coordination Sequence:
#
# PCOD8182232 Si02
#       7
#     8   8   8   8   8   8   8
#     4   9  20  39  60  81 112 156 199 240 298 357
#     4  11  22  36  55  82 119 163 208 254 303 357
#     4   8  15  34  61  85 111 147 188 235 293 351
#     4  11  22  40  66  95 123 155 195 244 302 365
#     4   9  17  33  54  78 110 151 194 244 302 351
#     4  11  21  32  50  78 111 151 199 251 298 350
#     4  11  23  40  62  89 123 162 203 251 302 361
#
# _framework density 20.25853
#
# number of rings (size 3 to 8) (size 9 to 14) (size 15 to 20)
#    0.000    2.000    1.429    3.857    0.000    4.000 
#    0.000    1.429    0.000    1.714    0.000    0.000 
#    0.000    0.000    0.000    0.000    0.000    0.000 
#
# Total GULP energy -347061.051531 kJ/mol
# GULP energy per Si atom -12395.037555 kJ/mol
# Density = 2.021242 g / cm^3
# Si number density = 20.258530 Si / 1000 Ang^3
#
#
#
# Elastic Constant Matrix: (Units=GPa)
#
#
# Indices 1 2 3 4 5 6 
#
# 1 88.9594 29.2056 42.4387 0.0000 0.0000 0.0000
# 2 29.2056 92.0010 36.8564 0.0000 0.0000 0.0000
# 3 42.4387 36.8564 109.7296 0.0000 0.0000 0.0000
# 4 0.0000 0.0000 0.0000 23.7263 0.0000 0.0000
# 5 0.0000 0.0000 0.0000 0.0000 5.1655 0.0000
# 6 0.0000 0.0000 0.0000 0.0000 0.0000 29.1351
#
#
#
# Elastic Compliance Matrix: (Units=1/GPa)
#
#
# Indices 1 2 3 4 5 6 
#
# 1 0.014339 -0.002693 -0.004641 0.000000 0.000000 0.000000
# 2 -0.002693 0.013065 -0.003347 0.000000 0.000000 0.000000
# 3 -0.004641 -0.003347 0.012033 0.000000 0.000000 0.000000
# 4 0.000000 0.000000 0.000000 0.042147 0.000000 0.000000
# 5 0.000000 0.000000 0.000000 0.000000 0.193593 0.000000
# 6 0.000000 0.000000 0.000000 0.000000 0.000000 0.034323
#
#
# Mechanical properties :
#
#
# Convention : Reuss Voigt Hill
#
# Bulk Modulus (GPa) = 55.32508 56.41014 55.86761
# Shear Modulus (GPa) = 14.84176 23.75134 19.29655
#
# Velocity S-wave (km/s) = 2.70963 3.42776 3.08963
# Velocity P-wave (km/s) = 6.09576 6.60088 6.35334
#
# Compressibility (1/GPa) = 0.01807499
#
# Stress axis : x y z
#
# Youngs Moduli (GPa) = 69.73845 76.54022 83.10756
#
# Poissons Ratio (x) = 0.20609 0.38574
# Poissons Ratio (y) = 0.18778 0.27816
# Poissons Ratio (z) = 0.32369 0.25618
#
# Static dielectric constant tensor:
#      x y z
#    x 3.544000 0.000000 0.000000 
#    y 0.000000 3.512680 0.000000 
#    z 0.000000 0.000000 3.838920 
# 
# 
# High freq. dielectric constant tensor:
#      x y z
#    x 1.771570 0.000000 0.000000 
#    y 0.000000 1.776980 0.000000 
#    z 0.000000 0.000000 1.799670 
# 
# From -- ./inp_files/14760.got.cif
#   From: 2010.03.12/outbox.cif.g09.slc.cpg/sg39_8_cif.got.tgz:14760.got - 2010.04.14 02:53:20.
