data_PCOD8182588
_publ_section_title
;
Structure prediction by ZEFSAII (Michael W. Deem and Ramdas Pophale) SiO2 
 PCOD8182588
Probable space group: A M A 2
;
_chemical_formula_sum "Si O2"
_cell_formula_units_Z 64
_cell_length_a 8.805043
_cell_length_b 18.564988
_cell_length_c 22.016667
_cell_angle_alpha 90.000000
_cell_angle_beta 90.000000
_cell_angle_gamma 90.000000
_cell_volume 3598.965868
_symmetry_space_group_name_H-M "A M A 2"
_symmetry_group_IT_number 40
_symmetry_cell_setting 'orthorhombic'
loop_
_space_group_symop_operation_xyz
x,y,z
-x,-y,z
1/2-x,y,z
1/2+x,-y,z
x,1/2+y,1/2+z
-x,1/2-y,1/2+z
1/2-x,1/2+y,1/2+z
1/2+x,1/2-y,1/2+z
loop_
_atom_site_type_symbol
_atom_site_label
_atom_site_fract_x
_atom_site_fract_y
_atom_site_fract_z
Si Si1 0.572810 0.216693 0.022890
Si Si2 0.427547 0.575991 0.198821
Si Si3 0.427920 0.127668 0.568436
Si Si4 0.923832 0.223279 0.405629
Si Si5 0.074215 0.932349 0.902740
Si Si6 0.427988 0.427727 0.949455
Si Si7 0.428693 0.573043 0.532642
Si Si8 0.922811 0.335583 0.313824
O O1 0.750000 0.199677 0.018072
O O2 0.537235 0.287389 0.062506
O O3 0.515066 0.227078 0.953603
O O4 0.495057 0.148848 0.058007
O O5 0.500000 0.500000 0.219210
O O6 0.250000 0.562574 0.195701
O O7 0.489399 0.601288 0.133569
O O8 0.465522 0.642364 0.245065
O O9 0.250000 0.112707 0.559864
O O10 0.517752 0.082423 0.518529
O O11 0.750000 0.225736 0.428186
O O12 0.981920 0.140631 0.408832
O O13 0.935971 0.251481 0.335193
O O14 0.250000 0.942090 0.920169
O O15 0.972143 0.924087 0.962241
O O16 0.050867 0.867635 0.857176
O O17 0.000000 0.000000 0.867275
O O18 0.500000 0.500000 0.921369
O O19 0.250000 0.437750 0.948735
O O20 0.500000 0.500000 0.562592
O O21 0.250000 0.570604 0.542962
O O22 0.750000 0.362307 0.327330
#
# Coordination Sequence:
#
# PCOD8182588 Si02
#       8
#     8   8   8   8   8   8   8   8
#     4  10  18  30  48  70  95 124 159 202 248 292
#     4  10  21  35  50  70  97 132 170 205 240 280
#     4   9  19  34  51  71  97 128 165 205 243 287
#     4   9  18  31  47  67  93 124 159 197 240 296
#     4  11  20  29  42  62  89 124 161 194 232 275
#     4  10  19  31  49  73  97 124 156 196 248 298
#     4  11  20  30  44  65  94 125 158 194 236 287
#     4  10  19  32  48  66  93 127 163 203 239 279
#
# _framework density 17.782885
#
# number of rings (size 3 to 8) (size 9 to 14) (size 15 to 20)
#    0.000    2.000    1.250    4.500    0.000    4.000 
#    0.000    0.000    0.000    0.000    0.000    0.875 
#    0.000    2.000    0.000    0.000    0.000    0.750 
#
# Total GULP energy -396474.354803 kJ/mol
# GULP energy per Si atom -12389.823588 kJ/mol
# Density = 1.774241 g / cm^3
# Si number density = 17.782885 Si / 1000 Ang^3
#
#
#
# Elastic Constant Matrix: (Units=GPa)
#
#
# Indices 1 2 3 4 5 6 
#
# 1 71.0397 34.6651 9.2504 0.0000 0.0000 0.0000
# 2 34.6651 129.2367 34.7378 0.0000 0.0000 0.0000
# 3 9.2504 34.7378 67.6484 0.0000 0.0000 0.0000
# 4 0.0000 0.0000 0.0000 24.1480 0.0000 0.0000
# 5 0.0000 0.0000 0.0000 0.0000 13.9350 0.0000
# 6 0.0000 0.0000 0.0000 0.0000 0.0000 29.7310
#
#
#
# Elastic Compliance Matrix: (Units=1/GPa)
#
#
# Indices 1 2 3 4 5 6 
#
# 1 0.016197 -0.004349 0.000019 0.000000 0.000000 0.000000
# 2 -0.004349 0.010145 -0.004615 0.000000 0.000000 0.000000
# 3 0.000019 -0.004615 0.017149 0.000000 0.000000 0.000000
# 4 0.000000 0.000000 0.000000 0.041411 0.000000 0.000000
# 5 0.000000 0.000000 0.000000 0.000000 0.071762 0.000000
# 6 0.000000 0.000000 0.000000 0.000000 0.000000 0.033635
#
#
# Mechanical properties :
#
#
# Convention : Reuss Voigt Hill
#
# Bulk Modulus (GPa) = 39.06251 47.24795 43.15523
# Shear Modulus (GPa) = 23.07093 26.18089 24.62591
#
# Velocity S-wave (km/s) = 3.60581 3.84116 3.72534
# Velocity P-wave (km/s) = 6.27294 6.80439 6.54406
#
# Compressibility (1/GPa) = 0.02560000
#
# Stress axis : x y z
#
# Youngs Moduli (GPa) = 61.74138 98.57308 58.31111
#
# Poissons Ratio (x) = 0.42874 -0.00109
# Poissons Ratio (y) = 0.26854 0.26908
# Poissons Ratio (z) = -0.00115 0.45488
#
# Static dielectric constant tensor:
#      x y z
#    x 3.274780 0.000000 0.000000 
#    y 0.000000 4.013140 0.000000 
#    z 0.000000 0.000000 3.003670 
# 
# 
# High freq. dielectric constant tensor:
#      x y z
#    x 1.693160 0.000000 0.000000 
#    y 0.000000 1.701890 0.000000 
#    z 0.000000 0.000000 1.629490 
# 
# From -- ./inp_files/24413.got.cif
#   From: 2010.03.12/outbox.cif.g09.slc.cpg/sg40_13_cif.got.tgz:24413.got - 2010.04.14 01:38:03.
