data_PCOD8182484
_publ_section_title
;
Structure prediction by ZEFSAII (Michael W. Deem and Ramdas Pophale) SiO2 
 PCOD8182484
Probable space group: A M A 2
;
_chemical_formula_sum "Si O2"
_cell_formula_units_Z 64
_cell_length_a 8.794117
_cell_length_b 18.375093
_cell_length_c 21.608648
_cell_angle_alpha 90.000000
_cell_angle_beta 90.000000
_cell_angle_gamma 90.000000
_cell_volume 3491.800157
_symmetry_space_group_name_H-M "A M A 2"
_symmetry_group_IT_number 40
_symmetry_cell_setting 'orthorhombic'
loop_
_space_group_symop_operation_xyz
x,y,z
-x,-y,z
1/2-x,y,z
1/2+x,-y,z
x,1/2+y,1/2+z
-x,1/2-y,1/2+z
1/2-x,1/2+y,1/2+z
1/2+x,1/2-y,1/2+z
loop_
_atom_site_type_symbol
_atom_site_label
_atom_site_fract_x
_atom_site_fract_y
_atom_site_fract_z
Si Si1 0.927087 0.571875 0.137510
Si Si2 0.581787 0.687239 0.785952
Si Si3 0.426773 0.126121 0.514027
Si Si4 0.071951 0.573817 0.557101
Si Si5 0.081534 0.434786 0.686540
Si Si6 0.569594 0.077410 0.388052
Si Si7 0.573567 0.218434 0.065541
Si Si8 0.425345 0.274537 0.189441
O O1 0.750000 0.560963 0.123064
O O2 0.953912 0.639118 0.183738
O O3 0.000000 0.500000 0.168944
O O4 0.016819 0.583688 0.073910
O O5 0.750000 0.716524 0.803740
O O6 0.594887 0.634381 0.728291
O O7 0.508885 0.642872 0.843498
O O8 0.479959 0.753125 0.759093
O O9 0.250000 0.108595 0.502781
O O10 0.524478 0.097244 0.457267
O O11 0.455250 0.212141 0.521987
O O12 0.250000 0.572648 0.544789
O O13 0.000000 0.500000 0.527197
O O14 0.030188 0.578188 0.629170
O O15 0.003824 0.649672 0.530361
O O16 0.250000 0.457176 0.662642
O O17 0.000000 0.500000 0.725019
O O18 0.750000 0.071395 0.380794
O O19 0.500000 0.000000 0.368271
O O20 0.750000 0.200876 0.074288
O O21 0.510659 0.232242 0.134506
O O22 0.250000 0.254296 0.182172
#
# Coordination Sequence:
#
# PCOD8182484 Si02
#       8
#     8   8   8   8   8   8   8   8
#     4  10  20  34  53  79 106 134 168 210 261 314
#     4  10  21  34  49  69  99 137 173 210 253 299
#     4  10  21  36  55  76 101 137 175 218 264 306
#     4  11  20  29  44  68  98 131 166 203 249 298
#     4  10  18  28  42  62  91 128 167 202 240 287
#     4  11  23  38  54  75 104 140 181 220 255 300
#     4  10  19  33  51  72 100 132 170 212 261 313
#     4  10  20  32  50  75 101 131 169 210 255 309
#
# _framework density 18.328655000000001
#
# number of rings (size 3 to 8) (size 9 to 14) (size 15 to 20)
#    0.000    1.750    1.250    4.875    0.000    4.500 
#    0.000    0.000    0.000    0.000    0.000    0.875 
#    0.000    4.000    0.000    0.000    0.000    0.000 
#
# Total GULP energy -396623.688233 kJ/mol
# GULP energy per Si atom -12394.490257 kJ/mol
# Density = 1.828694 g / cm^3
# Si number density = 18.328655 Si / 1000 Ang^3
#
#
#
# Elastic Constant Matrix: (Units=GPa)
#
#
# Indices 1 2 3 4 5 6 
#
# 1 102.3414 50.4061 18.1309 0.0000 0.0000 0.0000
# 2 50.4061 118.0862 22.8264 0.0000 0.0000 0.0000
# 3 18.1309 22.8264 54.4098 0.0000 0.0000 0.0000
# 4 0.0000 0.0000 0.0000 22.1334 0.0000 0.0000
# 5 0.0000 0.0000 0.0000 0.0000 19.2177 0.0000
# 6 0.0000 0.0000 0.0000 0.0000 0.0000 32.3931
#
#
#
# Elastic Compliance Matrix: (Units=1/GPa)
#
#
# Indices 1 2 3 4 5 6 
#
# 1 0.012592 -0.004967 -0.002112 0.000000 0.000000 0.000000
# 2 -0.004967 0.011175 -0.003033 0.000000 0.000000 0.000000
# 3 -0.002112 -0.003033 0.020355 0.000000 0.000000 0.000000
# 4 0.000000 0.000000 0.000000 0.045181 0.000000 0.000000
# 5 0.000000 0.000000 0.000000 0.000000 0.052035 0.000000
# 6 0.000000 0.000000 0.000000 0.000000 0.000000 0.030871
#
#
# Mechanical properties :
#
#
# Convention : Reuss Voigt Hill
#
# Bulk Modulus (GPa) = 41.84479 50.84048 46.34263
# Shear Modulus (GPa) = 24.95032 26.98043 25.96537
#
# Velocity S-wave (km/s) = 3.69355 3.84087 3.76793
# Velocity P-wave (km/s) = 6.40855 6.88972 6.65349
#
# Compressibility (1/GPa) = 0.02389784
#
# Stress axis : x y z
#
# Youngs Moduli (GPa) = 79.41813 89.48794 49.12706
#
# Poissons Ratio (x) = 0.44444 0.10377
# Poissons Ratio (y) = 0.39443 0.14901
# Poissons Ratio (z) = 0.16775 0.27143
#
# Static dielectric constant tensor:
#      x y z
#    x 3.704950 0.000000 0.000000 
#    y 0.000000 3.936240 0.000000 
#    z 0.000000 0.000000 2.989160 
# 
# 
# High freq. dielectric constant tensor:
#      x y z
#    x 1.725930 0.000000 0.000000 
#    y 0.000000 1.723940 0.000000 
#    z 0.000000 0.000000 1.653240 
# 
# From -- ./inp_files/24401.got.cif
#   From: 2010.03.12/outbox.cif.g09.slc.cpg/sg40_13_cif.got.tgz:24401.got - 2010.04.14 01:38:03.
