data_PCOD8182837
_publ_section_title
;
Structure prediction by ZEFSAII (Michael W. Deem and Ramdas Pophale) SiO2 
 PCOD8182837
Probable space group: A M A 2
;
_chemical_formula_sum "Si O2"
_cell_formula_units_Z 64
_cell_length_a 9.077271
_cell_length_b 18.338300
_cell_length_c 21.374126
_cell_angle_alpha 90.000000
_cell_angle_beta 90.000000
_cell_angle_gamma 90.000000
_cell_volume 3557.973751
_symmetry_space_group_name_H-M "A M A 2"
_symmetry_group_IT_number 40
_symmetry_cell_setting 'orthorhombic'
loop_
_space_group_symop_operation_xyz
x,y,z
-x,-y,z
1/2-x,y,z
1/2+x,-y,z
x,1/2+y,1/2+z
-x,1/2-y,1/2+z
1/2-x,1/2+y,1/2+z
1/2+x,1/2-y,1/2+z
loop_
_atom_site_type_symbol
_atom_site_label
_atom_site_fract_x
_atom_site_fract_y
_atom_site_fract_z
Si Si1 0.913696 0.569945 0.247400
Si Si2 0.417483 0.215064 0.733620
Si Si3 0.418631 0.295211 0.607911
Si Si4 0.422198 0.370763 0.783390
Si Si5 0.589855 0.565800 0.100111
Si Si6 0.426006 0.073870 0.158762
Si Si7 0.583930 0.329801 0.024905
Si Si8 0.074618 0.075590 0.408437
O O1 0.750000 0.571399 0.276838
O O2 0.903487 0.558644 0.173817
O O3 0.000000 0.500000 0.276382
O O4 0.989034 0.647712 0.260953
O O5 0.250000 0.187698 0.732739
O O6 0.464748 0.239514 0.663778
O O7 0.439480 0.283371 0.780349
O O8 0.250000 0.320907 0.620880
O O9 0.528443 0.363726 0.608986
O O10 0.430462 0.257176 0.538869
O O11 0.250000 0.393371 0.783177
O O12 0.503904 0.408210 0.725676
O O13 0.501953 0.400714 0.844122
O O14 0.500000 0.500000 0.069152
O O15 0.750000 0.562546 0.069643
O O16 0.514485 0.640049 0.080725
O O17 0.250000 0.067553 0.163161
O O18 0.500000 0.000000 0.133717
O O19 0.750000 0.355815 0.036914
O O20 0.534522 0.358907 0.957071
O O21 0.250000 0.065729 0.400777
O O22 0.000000 0.000000 0.431095
#
# Coordination Sequence:
#
# PCOD8182837 Si02
#       8
#     8   8   8   8   8   8   8   8
#     4  10  19  28  42  66  97 130 164 202 244 295
#     4   9  17  31  51  71  96 129 166 208 258 308
#     4   9  18  33  51  73 102 134 167 207 255 310
#     4  10  21  37  55  75 101 136 174 217 264 309
#     4  10  19  28  41  63  92 129 169 204 241 287
#     4  11  21  34  54  79 106 134 167 210 259 313
#     4  10  20  34  51  70  99 136 172 210 253 298
#     4  11  23  37  53  75 103 140 181 220 256 298
#
# _framework density 17.987766000000001
#
# number of rings (size 3 to 8) (size 9 to 14) (size 15 to 20)
#    0.000    2.000    1.250    4.125    0.000    6.000 
#    0.000    0.000    0.000    0.000    0.000    0.875 
#    0.000    6.000    0.000    0.000    0.000    0.000 
#
# Total GULP energy -396587.122214 kJ/mol
# GULP energy per Si atom -12393.347569 kJ/mol
# Density = 1.794683 g / cm^3
# Si number density = 17.987766 Si / 1000 Ang^3
#
#
#
# Elastic Constant Matrix: (Units=GPa)
#
#
# Indices 1 2 3 4 5 6 
#
# 1 117.5122 59.6650 26.9564 0.0000 0.0000 0.0000
# 2 59.6650 109.8383 30.3647 0.0000 0.0000 0.0000
# 3 26.9564 30.3647 53.8100 0.0000 0.0000 0.0000
# 4 0.0000 0.0000 0.0000 17.7300 0.0000 0.0000
# 5 0.0000 0.0000 0.0000 0.0000 38.4779 0.0000
# 6 0.0000 0.0000 0.0000 0.0000 0.0000 35.4600
#
#
#
# Elastic Compliance Matrix: (Units=1/GPa)
#
#
# Indices 1 2 3 4 5 6 
#
# 1 0.012093 -0.005799 -0.002786 0.000000 0.000000 0.000000
# 2 -0.005799 0.013568 -0.004751 0.000000 0.000000 0.000000
# 3 -0.002786 -0.004751 0.022661 0.000000 0.000000 0.000000
# 4 0.000000 0.000000 0.000000 0.056402 0.000000 0.000000
# 5 0.000000 0.000000 0.000000 0.000000 0.025989 0.000000
# 6 0.000000 0.000000 0.000000 0.000000 0.000000 0.028201
#
#
# Mechanical properties :
#
#
# Convention : Reuss Voigt Hill
#
# Bulk Modulus (GPa) = 46.19038 57.23697 51.71367
# Shear Modulus (GPa) = 25.93344 29.27854 27.60599
#
# Velocity S-wave (km/s) = 3.80113 4.03884 3.92179
# Velocity P-wave (km/s) = 6.70815 7.32384 7.02275
#
# Compressibility (1/GPa) = 0.02164953
#
# Stress axis : x y z
#
# Youngs Moduli (GPa) = 82.69170 73.70397 44.12958
#
# Poissons Ratio (x) = 0.42740 0.12294
# Poissons Ratio (y) = 0.47952 0.20967
# Poissons Ratio (z) = 0.23036 0.35018
#
# Static dielectric constant tensor:
#      x y z
#    x 3.539140 0.000000 0.000000 
#    y 0.000000 3.541710 0.000000 
#    z 0.000000 0.000000 2.926680 
# 
# 
# High freq. dielectric constant tensor:
#      x y z
#    x 1.709990 0.000000 0.000000 
#    y 0.000000 1.699750 0.000000 
#    z 0.000000 0.000000 1.643030 
# 
# From -- ./inp_files/22416.got.cif
#   From: 2010.03.12/outbox.cif.g09.slc.cpg/sg40_12_cif.got.tgz:22416.got - 2010.04.14 01:38:03.
