data_PCOD8182906
_publ_section_title
;
Structure prediction by ZEFSAII (Michael W. Deem and Ramdas Pophale) SiO2 
 PCOD8182906
Probable space group: A M A 2
;
_chemical_formula_sum "Si O2"
_cell_formula_units_Z 64
_cell_length_a 9.048459
_cell_length_b 19.534057
_cell_length_c 22.502671
_cell_angle_alpha 90.000000
_cell_angle_beta 90.000000
_cell_angle_gamma 90.000000
_cell_volume 3977.417170
_symmetry_space_group_name_H-M "A M A 2"
_symmetry_group_IT_number 40
_symmetry_cell_setting 'orthorhombic'
loop_
_space_group_symop_operation_xyz
x,y,z
-x,-y,z
1/2-x,y,z
1/2+x,-y,z
x,1/2+y,1/2+z
-x,1/2-y,1/2+z
1/2-x,1/2+y,1/2+z
1/2+x,1/2-y,1/2+z
loop_
_atom_site_type_symbol
_atom_site_label
_atom_site_fract_x
_atom_site_fract_y
_atom_site_fract_z
Si Si1 0.926363 0.928809 0.745690
Si Si2 0.079843 0.797680 0.944889
Si Si3 0.423775 0.803274 0.806904
Si Si4 0.413899 0.780164 0.539304
Si Si5 0.583287 0.718133 0.713493
Si Si6 0.586932 0.851660 0.632679
Si Si7 0.582344 0.855726 0.117347
Si Si8 0.425161 0.930488 0.016394
O O1 0.750000 0.930688 0.754266
O O2 0.968966 0.911151 0.677253
O O3 0.993909 0.872780 0.789564
O O4 0.000000 0.000000 0.763398
O O5 0.250000 0.787435 0.959936
O O6 0.044987 0.791180 0.875888
O O7 0.029962 0.872069 0.968984
O O8 0.997466 0.735993 0.978235
O O9 0.250000 0.809771 0.792565
O O10 0.491650 0.738429 0.772233
O O11 0.250000 0.802487 0.522191
O O12 0.484195 0.844148 0.574927
O O13 0.417038 0.714332 0.581035
O O14 0.750000 0.695398 0.730683
O O15 0.590388 0.782306 0.670034
O O16 0.498962 0.656014 0.680448
O O17 0.750000 0.868997 0.609062
O O18 0.750000 0.881219 0.128259
O O19 0.491436 0.912585 0.081070
O O20 0.250000 0.939871 0.021685
O O21 0.500000 0.000000 0.993005
#
# Coordination Sequence:
#
# PCOD8182906 Si02
#       8
#     8   8   8   8   8   8   8   8
#     4  10  20  32  45  62  85 116 149 183 218 254
#     4   9  19  32  44  59  84 117 149 180 216 254
#     4  10  19  31  45  62  85 116 151 184 215 252
#     4   9  16  25  42  64  82 103 135 175 217 256
#     4   9  16  27  43  63  84 108 137 174 219 261
#     4   8  15  27  42  59  81 107 135 169 215 261
#     4   9  16  27  43  63  83 106 137 175 218 262
#     4  10  19  31  44  60  84 115 149 184 218 256
#
# _framework density 16.090844000000001
#
# number of rings (size 3 to 8) (size 9 to 14) (size 15 to 20)
#    0.000    2.750    0.000    3.000    0.000    8.500 
#    0.000    1.250    0.000    0.000    0.000    0.000 
#    0.000    1.000    0.000    5.250    0.000    5.250 
#
# Total GULP energy -396713.205368 kJ/mol
# GULP energy per Si atom -12397.287668 kJ/mol
# Density = 1.605422 g / cm^3
# Si number density = 16.090844 Si / 1000 Ang^3
#
#
#
# Elastic Constant Matrix: (Units=GPa)
#
#
# Indices 1 2 3 4 5 6 
#
# 1 104.1563 14.8349 53.5665 0.0000 0.0000 0.0000
# 2 14.8349 6.8855 21.7162 0.0000 0.0000 0.0000
# 3 53.5665 21.7162 92.3893 0.0000 0.0000 0.0000
# 4 0.0000 0.0000 0.0000 16.1377 0.0000 0.0000
# 5 0.0000 0.0000 0.0000 0.0000 26.5306 0.0000
# 6 0.0000 0.0000 0.0000 0.0000 0.0000 21.0318
#
#
#
# Elastic Compliance Matrix: (Units=1/GPa)
#
#
# Indices 1 2 3 4 5 6 
#
# 1 0.014231 -0.017930 -0.004036 0.000000 0.000000 0.000000
# 2 -0.017930 0.584046 -0.126885 0.000000 0.000000 0.000000
# 3 -0.004036 -0.126885 0.042988 0.000000 0.000000 0.000000
# 4 0.000000 0.000000 0.000000 0.061967 0.000000 0.000000
# 5 0.000000 0.000000 0.000000 0.000000 0.037692 0.000000
# 6 0.000000 0.000000 0.000000 0.000000 0.000000 0.047547
#
#
# Mechanical properties :
#
#
# Convention : Reuss Voigt Hill
#
# Bulk Modulus (GPa) = 2.91068 42.62956 22.77012
# Shear Modulus (GPa) = 4.16426 20.29427 12.22926
#
# Velocity S-wave (km/s) = 1.61046 3.55523 2.75983
# Velocity P-wave (km/s) = 2.29585 6.58813 4.93328
#
# Compressibility (1/GPa) = 0.34356287
#
# Stress axis : x y z
#
# Youngs Moduli (GPa) = 70.27159 1.71220 23.26212
#
# Poissons Ratio (x) = 0.03070 0.09389
# Poissons Ratio (y) = 1.25994 2.95161
# Poissons Ratio (z) = 0.28364 0.21725
#
# Static dielectric constant tensor:
#      x y z
#    x 3.270530 0.000000 0.000000 
#    y 0.000000 2.775280 0.000000 
#    z 0.000000 0.000000 2.970040 
# 
# 
# High freq. dielectric constant tensor:
#      x y z
#    x 1.637210 0.000000 0.000000 
#    y 0.000000 1.572670 0.000000 
#    z 0.000000 0.000000 1.601280 
# 
# From -- ./inp_files/19748.got.cif
#   From: 2010.03.12/outbox.cif.g09.slc.cpg/sg40_10_cif.got.tgz:19748.got - 2010.04.14 01:38:03.
