data_PCOD8182277
_publ_section_title
;
Structure prediction by ZEFSAII (Michael W. Deem and Ramdas Pophale) SiO2 
 PCOD8182277
Probable space group: A B M 2
;
_chemical_formula_sum "Si O2"
_cell_formula_units_Z 64
_cell_length_a 13.639217
_cell_length_b 18.186089
_cell_length_c 12.037034
_cell_angle_alpha 90.000000
_cell_angle_beta 90.000000
_cell_angle_gamma 90.000000
_cell_volume 2985.714233
_symmetry_space_group_name_H-M "A B M 2"
_symmetry_group_IT_number 39
_symmetry_cell_setting 'orthorhombic'
loop_
_space_group_symop_operation_xyz
x,y,z
-x,-y,z
-x,1/2+y,z
x,1/2-y,z
x,1/2+y,1/2+z
-x,1/2-y,1/2+z
-x,y,1/2+z
x,-y,1/2+z
loop_
_atom_site_type_symbol
_atom_site_label
_atom_site_fract_x
_atom_site_fract_y
_atom_site_fract_z
Si Si1 0.709424 0.461132 0.168050
Si Si2 0.393712 0.166467 0.048534
Si Si3 0.318851 0.388706 0.275294
Si Si4 0.055649 0.330693 0.775459
Si Si5 0.728303 0.334675 0.334255
Si Si6 0.138831 0.667181 0.906777
Si Si7 0.437746 0.431283 0.475725
Si Si8 0.083110 0.557375 0.093562
O O1 0.673014 0.525491 0.247387
O O2 0.690780 0.384207 0.231727
O O3 0.650388 0.460657 0.052799
O O4 0.823554 0.482578 0.147899
O O5 0.423123 0.250000 0.027284
O O6 0.344027 0.160086 0.168683
O O7 0.492046 0.119179 0.049846
O O8 0.319618 0.139994 0.950751
O O9 0.212383 0.361411 0.312910
O O10 0.396346 0.380473 0.376079
O O11 0.062793 0.250000 0.718161
O O12 0.154977 0.347429 0.843622
O O13 0.030192 0.390915 0.683091
O O14 0.971079 0.331763 0.864456
O O15 0.702298 0.250000 0.306906
O O16 0.169271 0.750000 0.945344
O O17 0.137702 0.608896 0.005130
O O18 0.500000 0.500000 0.428906
O O19 0.000000 0.500000 0.048967
#
# Coordination Sequence:
#
# PCOD8182277 Si02
#       8
#     8   8   8   8   8   8   8   8
#     4  11  24  43  69  98 131 179 223 285 342 404
#     4  11  26  44  68 101 134 177 229 282 344 408
#     4  12  26  45  70  97 136 174 226 284 343 412
#     4   9  20  40  65  94 132 180 224 271 333 399
#     4   9  21  42  68 100 138 179 228 281 339 408
#     4  11  24  43  67  99 138 179 222 278 340 404
#     4  12  26  46  68  95 130 176 225 283 344 408
#     4  11  23  41  64  98 136 176 225 277 335 405
#
# _framework density 21.435407999999999
#
# number of rings (size 3 to 8) (size 9 to 14) (size 15 to 20)
#    0.000    1.250    2.500    2.250    3.500    6.500 
#    0.000    2.500    0.000    0.000    0.000    0.000 
#    0.000    0.000    0.000    0.000    0.000    0.000 
#
# Total GULP energy -396792.793240 kJ/mol
# GULP energy per Si atom -12399.774789 kJ/mol
# Density = 2.138662 g / cm^3
# Si number density = 21.435408 Si / 1000 Ang^3
#
#
#
# Elastic Constant Matrix: (Units=GPa)
#
#
# Indices 1 2 3 4 5 6 
#
# 1 84.5477 29.7645 27.3220 0.0000 0.0000 0.0000
# 2 29.7645 87.8572 20.9854 0.0000 0.0000 0.0000
# 3 27.3220 20.9854 83.9879 0.0000 0.0000 0.0000
# 4 0.0000 0.0000 0.0000 35.3300 0.0000 0.0000
# 5 0.0000 0.0000 0.0000 0.0000 37.1132 0.0000
# 6 0.0000 0.0000 0.0000 0.0000 0.0000 21.3238
#
#
#
# Elastic Compliance Matrix: (Units=1/GPa)
#
#
# Indices 1 2 3 4 5 6 
#
# 1 0.014432 -0.004007 -0.003694 0.000000 0.000000 0.000000
# 2 -0.004007 0.013217 -0.001999 0.000000 0.000000 0.000000
# 3 -0.003694 -0.001999 0.013608 0.000000 0.000000 0.000000
# 4 0.000000 0.000000 0.000000 0.028305 0.000000 0.000000
# 5 0.000000 0.000000 0.000000 0.000000 0.026945 0.000000
# 6 0.000000 0.000000 0.000000 0.000000 0.000000 0.046896
#
#
# Mechanical properties :
#
#
# Convention : Reuss Voigt Hill
#
# Bulk Modulus (GPa) = 45.75124 45.83740 45.79432
# Shear Modulus (GPa) = 29.39682 30.64146 30.01914
#
# Velocity S-wave (km/s) = 3.70728 3.78495 3.74631
# Velocity P-wave (km/s) = 6.30201 6.36643 6.33430
#
# Compressibility (1/GPa) = 0.02185733
#
# Stress axis : x y z
#
# Youngs Moduli (GPa) = 69.29090 75.65969 73.48882
#
# Poissons Ratio (x) = 0.30317 0.27144
# Poissons Ratio (y) = 0.27765 0.14690
# Poissons Ratio (z) = 0.25594 0.15124
#
# Static dielectric constant tensor:
#      x y z
#    x 3.843070 0.000000 0.000000 
#    y 0.000000 4.052890 0.000000 
#    z 0.000000 0.000000 3.708440 
# 
# 
# High freq. dielectric constant tensor:
#      x y z
#    x 1.848310 0.000000 0.000000 
#    y 0.000000 1.849030 0.000000 
#    z 0.000000 0.000000 1.834460 
# 
# From -- ./inp_files/6611.got.cif
#   From: 2010.03.12/outbox.cif.g09.slc.cpg/sg39_4_cif.got.tgz:6611.got - 2010.04.14 02:53:20.
