data_PCOD8182582
_publ_section_title
;
Structure prediction by ZEFSAII (Michael W. Deem and Ramdas Pophale) SiO2 
 PCOD8182582
Probable space group: A M A 2
;
_chemical_formula_sum "Si O2"
_cell_formula_units_Z 64
_cell_length_a 8.836270
_cell_length_b 30.463673
_cell_length_c 14.346199
_cell_angle_alpha 90.000000
_cell_angle_beta 90.000000
_cell_angle_gamma 90.000000
_cell_volume 3861.785018
_symmetry_space_group_name_H-M "A M A 2"
_symmetry_group_IT_number 40
_symmetry_cell_setting 'orthorhombic'
loop_
_space_group_symop_operation_xyz
x,y,z
-x,-y,z
1/2-x,y,z
1/2+x,-y,z
x,1/2+y,1/2+z
-x,1/2-y,1/2+z
1/2-x,1/2+y,1/2+z
1/2+x,1/2-y,1/2+z
loop_
_atom_site_type_symbol
_atom_site_label
_atom_site_fract_x
_atom_site_fract_y
_atom_site_fract_z
Si Si1 0.070169 0.544424 0.485990
Si Si2 0.419886 0.821624 0.913469
Si Si3 0.931476 0.544948 0.282974
Si Si4 0.925577 0.366500 0.579489
Si Si5 0.576915 0.233810 0.399340
Si Si6 0.079249 0.364952 0.218738
Si Si7 0.075693 0.300772 0.703495
Si Si8 0.072267 0.283613 0.108345
O O1 0.250000 0.540361 0.473720
O O2 0.026007 0.583615 0.556637
O O3 0.000000 0.500000 0.529426
O O4 0.996354 0.553248 0.385903
O O5 0.250000 0.821100 0.954639
O O6 0.464799 0.773647 0.878256
O O7 0.430128 0.854140 0.827430
O O8 0.537470 0.835712 0.991948
O O9 0.750000 0.542381 0.289174
O O10 0.985198 0.585060 0.214652
O O11 0.000000 0.500000 0.241030
O O12 0.750000 0.363171 0.600884
O O13 0.012246 0.347724 0.669424
O O14 0.750000 0.250693 0.398805
O O15 0.549188 0.199886 0.314908
O O16 0.538093 0.211747 0.498449
O O17 0.250000 0.366227 0.182267
O O18 0.997567 0.327374 0.156389
O O19 0.250000 0.297661 0.677475
O O20 0.998189 0.260375 0.650063
O O21 0.250000 0.281131 0.130341
#
# Coordination Sequence:
#
# PCOD8182582 Si02
#       8
#     8   8   8   8   8   8   8   8
#     4  10  20  32  48  70  96 125 159 195 240 290
#     4  11  19  29  48  72  98 130 166 201 237 282
#     4  10  18  30  46  69  98 127 160 196 238 289
#     4  11  22  34  48  70  98 134 167 197 240 290
#     4  10  21  34  48  69  99 128 164 208 245 282
#     4   9  18  30  47  70  95 129 166 195 235 289
#     4  11  22  33  47  72  98 127 165 205 241 285
#     4  10  19  34  51  68  93 130 165 201 245 289
#
# _framework density 16.572647
#
# number of rings (size 3 to 8) (size 9 to 14) (size 15 to 20)
#    0.000    1.750    3.750    2.625    0.000    2.000 
#    0.000    1.250    0.000    0.000    0.000    0.875 
#    0.000    4.000    0.000    0.000    0.000    0.000 
#
# Total GULP energy -396636.710891 kJ/mol
# GULP energy per Si atom -12394.897215 kJ/mol
# Density = 1.653493 g / cm^3
# Si number density = 16.572647 Si / 1000 Ang^3
#
#
#
# Elastic Constant Matrix: (Units=GPa)
#
#
# Indices 1 2 3 4 5 6 
#
# 1 56.1028 39.0109 25.1353 0.0000 0.0000 0.0000
# 2 39.0109 125.3853 38.4518 0.0000 0.0000 0.0000
# 3 25.1353 38.4518 73.1424 0.0000 0.0000 0.0000
# 4 0.0000 0.0000 0.0000 24.5980 0.0000 0.0000
# 5 0.0000 0.0000 0.0000 0.0000 15.8995 0.0000
# 6 0.0000 0.0000 0.0000 0.0000 0.0000 22.7120
#
#
#
# Elastic Compliance Matrix: (Units=1/GPa)
#
#
# Indices 1 2 3 4 5 6 
#
# 1 0.024309 -0.005963 -0.005219 0.000000 0.000000 0.000000
# 2 -0.005963 0.010971 -0.003718 0.000000 0.000000 0.000000
# 3 -0.005219 -0.003718 0.017420 0.000000 0.000000 0.000000
# 4 0.000000 0.000000 0.000000 0.040654 0.000000 0.000000
# 5 0.000000 0.000000 0.000000 0.000000 0.062895 0.000000
# 6 0.000000 0.000000 0.000000 0.000000 0.000000 0.044030
#
#
# Mechanical properties :
#
#
# Convention : Reuss Voigt Hill
#
# Bulk Modulus (GPa) = 43.66873 51.09183 47.38028
# Shear Modulus (GPa) = 21.03388 22.77741 21.90564
#
# Velocity S-wave (km/s) = 3.56644 3.71131 3.63959
# Velocity P-wave (km/s) = 6.58532 7.01862 6.80542
#
# Compressibility (1/GPa) = 0.02289968
#
# Stress axis : x y z
#
# Youngs Moduli (GPa) = 41.13742 91.15028 57.40415
#
# Poissons Ratio (x) = 0.54349 0.29960
# Poissons Ratio (y) = 0.24529 0.21346
# Poissons Ratio (z) = 0.21470 0.33894
#
# Static dielectric constant tensor:
#      x y z
#    x 3.131390 0.000000 0.000000 
#    y 0.000000 3.397420 0.000000 
#    z 0.000000 0.000000 3.035810 
# 
# 
# High freq. dielectric constant tensor:
#      x y z
#    x 1.638810 0.000000 0.000000 
#    y 0.000000 1.636590 0.000000 
#    z 0.000000 0.000000 1.608460 
# 
# From -- ./inp_files/15901.got.cif
#   From: 2010.03.12/outbox.cif.g09.slc.cpg/sg40_8_cif.got.tgz:15901.got - 2010.04.14 01:38:03.
