data_PCOD8182548
_publ_section_title
;
Structure prediction by ZEFSAII (Michael W. Deem and Ramdas Pophale) SiO2 
 PCOD8182548
Probable space group: A M A 2
;
_chemical_formula_sum "Si O2"
_cell_formula_units_Z 56
_cell_length_a 8.928436
_cell_length_b 18.164254
_cell_length_c 20.787070
_cell_angle_alpha 90.000000
_cell_angle_beta 90.000000
_cell_angle_gamma 90.000000
_cell_volume 3371.213324
_symmetry_space_group_name_H-M "A M A 2"
_symmetry_group_IT_number 40
_symmetry_cell_setting 'orthorhombic'
loop_
_space_group_symop_operation_xyz
x,y,z
-x,-y,z
1/2-x,y,z
1/2+x,-y,z
x,1/2+y,1/2+z
-x,1/2-y,1/2+z
1/2-x,1/2+y,1/2+z
1/2+x,1/2-y,1/2+z
loop_
_atom_site_type_symbol
_atom_site_label
_atom_site_fract_x
_atom_site_fract_y
_atom_site_fract_z
Si Si1 0.925350 0.659554 0.839000
Si Si2 0.080358 0.290844 0.278624
Si Si3 0.075416 0.661532 0.087008
Si Si4 0.072909 0.579310 0.957595
Si Si5 0.575656 0.078329 0.206196
Si Si6 0.573226 0.421352 0.216472
Si Si7 0.417946 0.207489 0.144248
O O1 0.750000 0.664613 0.854023
O O2 0.958060 0.609732 0.776848
O O3 0.990279 0.741548 0.829826
O O4 0.012307 0.623884 0.897532
O O5 0.250000 0.303954 0.302896
O O6 0.079831 0.249799 0.211155
O O7 0.995150 0.368228 0.271090
O O8 0.250000 0.679343 0.088797
O O9 0.030666 0.608224 0.145751
O O10 0.991357 0.739773 0.090746
O O11 0.025500 0.622024 0.021867
O O12 0.250000 0.570336 0.951552
O O13 0.000000 0.500000 0.959625
O O14 0.750000 0.069841 0.193465
O O15 0.510256 0.132123 0.151435
O O16 0.500000 0.000000 0.199095
O O17 0.500000 0.500000 0.225996
O O18 0.750000 0.426535 0.226261
O O19 0.250000 0.188041 0.122622
#
# Coordination Sequence:
#
# PCOD8182548 Si02
#       7
#     8   8   8   8   8   8   8
#     4  10  20  33  48  67  93 126 160 195 233 276
#     4   9  17  30  47  67  91 120 154 192 234 281
#     4   9  19  33  47  65  93 127 160 193 231 274
#     4  11  22  34  48  68  95 128 163 197 230 269
#     4  10  19  30  46  68  95 123 153 191 235 279
#     4  10  18  29  46  69  96 124 155 193 236 280
#     4   9  17  29  47  68  90 118 153 191 233 279
#
# _framework density 16.611229000000002
#
# number of rings (size 3 to 8) (size 9 to 14) (size 15 to 20)
#    0.000    2.286    0.000    3.429    0.000    8.000 
#    0.000    0.000    0.000    0.000    0.000    1.000 
#    0.000    6.857    0.000    0.000    0.000    0.000 
#
# Total GULP energy -347246.213044 kJ/mol
# GULP energy per Si atom -12401.650466 kJ/mol
# Density = 1.657342 g / cm^3
# Si number density = 16.611229 Si / 1000 Ang^3
#
#
#
# Elastic Constant Matrix: (Units=GPa)
#
#
# Indices 1 2 3 4 5 6 
#
# 1 90.1299 78.2186 43.9877 0.0000 0.0000 0.0000
# 2 78.2186 155.7375 60.3160 0.0000 0.0000 0.0000
# 3 43.9877 60.3160 69.4701 0.0000 0.0000 0.0000
# 4 0.0000 0.0000 0.0000 26.5207 0.0000 0.0000
# 5 0.0000 0.0000 0.0000 0.0000 19.7701 0.0000
# 6 0.0000 0.0000 0.0000 0.0000 0.0000 38.0953
#
#
#
# Elastic Compliance Matrix: (Units=1/GPa)
#
#
# Indices 1 2 3 4 5 6 
#
# 1 0.021378 -0.008278 -0.006349 0.000000 0.000000 0.000000
# 2 -0.008278 0.012879 -0.005941 0.000000 0.000000 0.000000
# 3 -0.006349 -0.005941 0.023573 0.000000 0.000000 0.000000
# 4 0.000000 0.000000 0.000000 0.037706 0.000000 0.000000
# 5 0.000000 0.000000 0.000000 0.000000 0.050582 0.000000
# 6 0.000000 0.000000 0.000000 0.000000 0.000000 0.026250
#
#
# Mechanical properties :
#
#
# Convention : Reuss Voigt Hill
#
# Bulk Modulus (GPa) = 59.90014 75.59803 67.74908
# Shear Modulus (GPa) = 22.82396 25.73155 24.27776
#
# Velocity S-wave (km/s) = 3.71078 3.94006 3.82714
# Velocity P-wave (km/s) = 7.38229 8.14296 7.77194
#
# Compressibility (1/GPa) = 0.01669445
#
# Stress axis : x y z
#
# Youngs Moduli (GPa) = 46.77788 77.64297 42.42183
#
# Poissons Ratio (x) = 0.64272 0.26933
# Poissons Ratio (y) = 0.38722 0.25202
# Poissons Ratio (z) = 0.29699 0.46126
#
# Static dielectric constant tensor:
#      x y z
#    x 3.321330 0.000000 0.000000 
#    y 0.000000 3.211040 0.000000 
#    z 0.000000 0.000000 2.945730 
# 
# 
# High freq. dielectric constant tensor:
#      x y z
#    x 1.659410 0.000000 0.000000 
#    y 0.000000 1.643660 0.000000 
#    z 0.000000 0.000000 1.599380 
# 
# From -- ./inp_files/22147.got.cif
#   From: 2010.03.12/outbox.cif.g09.slc.cpg/sg40_12_cif.got.tgz:22147.got - 2010.04.14 01:38:03.
