data_PCOD8182844
_publ_section_title
;
Structure prediction by ZEFSAII (Michael W. Deem and Ramdas Pophale) SiO2 
 PCOD8182844
Probable space group: A M A 2
;
_chemical_formula_sum "Si O2"
_cell_formula_units_Z 64
_cell_length_a 8.952643
_cell_length_b 13.666650
_cell_length_c 34.476528
_cell_angle_alpha 90.000000
_cell_angle_beta 90.000000
_cell_angle_gamma 90.000000
_cell_volume 4218.294166
_symmetry_space_group_name_H-M "A M A 2"
_symmetry_group_IT_number 40
_symmetry_cell_setting 'orthorhombic'
loop_
_space_group_symop_operation_xyz
x,y,z
-x,-y,z
1/2-x,y,z
1/2+x,-y,z
x,1/2+y,1/2+z
-x,1/2-y,1/2+z
1/2-x,1/2+y,1/2+z
1/2+x,1/2-y,1/2+z
loop_
_atom_site_type_symbol
_atom_site_label
_atom_site_fract_x
_atom_site_fract_y
_atom_site_fract_z
Si Si1 0.076303 0.724286 0.057040
Si Si2 0.577905 0.604137 0.826762
Si Si3 0.074018 0.220818 0.173568
Si Si4 0.575292 0.895687 0.633133
Si Si5 0.924072 0.395854 0.984248
Si Si6 0.075492 0.603531 0.597150
Si Si7 0.575691 0.394602 0.898999
Si Si8 0.924058 0.105413 0.240759
O O1 0.250000 0.752190 0.055636
O O2 0.043970 0.644287 0.090094
O O3 0.984399 0.822697 0.064522
O O4 0.017773 0.680202 0.016396
O O5 0.500000 0.500000 0.824263
O O6 0.750000 0.591241 0.837312
O O7 0.499357 0.664331 0.862519
O O8 0.557642 0.651268 0.784137
O O9 0.250000 0.235268 0.178306
O O10 0.034989 0.143963 0.139674
O O11 0.999272 0.324672 0.164627
O O12 0.003975 0.182161 0.213115
O O13 0.750000 0.903850 0.642017
O O14 0.500000 0.000000 0.637342
O O15 0.750000 0.415382 0.990396
O O16 0.955328 0.348325 0.941567
O O17 0.000000 0.500000 0.989931
O O18 0.250000 0.591115 0.591387
O O19 0.000000 0.500000 0.591131
O O20 0.500000 0.500000 0.899727
O O21 0.750000 0.403957 0.890885
O O22 0.750000 0.093631 0.229857
O O23 0.000000 0.000000 0.236442
#
# Coordination Sequence:
#
# PCOD8182844 Si02
#       8
#     8   8   8   8   8   8   8   8
#     4   9  18  31  45  62  85 112 142 176 211 247
#     4   9  16  25  37  54  78 108 140 171 204 244
#     4  10  20  32  46  64  85 110 142 177 212 252
#     4  10  19  31  47  64  85 113 143 176 213 251
#     4   9  17  27  40  60  85 113 143 175 209 244
#     4  10  20  32  46  63  83 109 140 174 212 252
#     4   9  15  23  36  54  78 108 140 170 202 242
#     4  10  19  29  42  61  85 113 144 177 212 250
#
# _framework density 15.17201
#
# number of rings (size 3 to 8) (size 9 to 14) (size 15 to 20)
#    0.000    2.500    0.000    3.750    0.000    5.500 
#    0.000    0.000    0.000    0.000    0.000    0.000 
#    0.000    1.000    0.000    7.750    0.000    4.750 
#
# Total GULP energy -396623.343962 kJ/mol
# GULP energy per Si atom -12394.479499 kJ/mol
# Density = 1.513748 g / cm^3
# Si number density = 15.172010 Si / 1000 Ang^3
#
#
#
# Elastic Constant Matrix: (Units=GPa)
#
#
# Indices 1 2 3 4 5 6 
#
# 1 93.0404 47.4555 58.2530 0.0000 0.0000 0.0000
# 2 47.4555 88.8388 52.5540 0.0000 0.0000 0.0000
# 3 58.2530 52.5540 129.0361 0.0000 0.0000 0.0000
# 4 0.0000 0.0000 0.0000 19.0102 0.0000 0.0000
# 5 0.0000 0.0000 0.0000 0.0000 32.2329 0.0000
# 6 0.0000 0.0000 0.0000 0.0000 0.0000 23.5641
#
#
#
# Elastic Compliance Matrix: (Units=1/GPa)
#
#
# Indices 1 2 3 4 5 6 
#
# 1 0.017126 -0.006027 -0.005277 0.000000 0.000000 0.000000
# 2 -0.006027 0.016950 -0.004183 0.000000 0.000000 0.000000
# 3 -0.005277 -0.004183 0.011836 0.000000 0.000000 0.000000
# 4 0.000000 0.000000 0.000000 0.052603 0.000000 0.000000
# 5 0.000000 0.000000 0.000000 0.000000 0.031024 0.000000
# 6 0.000000 0.000000 0.000000 0.000000 0.000000 0.042437
#
#
# Mechanical properties :
#
#
# Convention : Reuss Voigt Hill
#
# Bulk Modulus (GPa) = 66.93912 69.71558 68.32735
# Shear Modulus (GPa) = 24.04676 25.13828 24.59252
#
# Velocity S-wave (km/s) = 3.98545 4.07490 4.03043
# Velocity P-wave (km/s) = 8.08668 8.25770 8.17264
#
# Compressibility (1/GPa) = 0.01493895
#
# Stress axis : x y z
#
# Youngs Moduli (GPa) = 58.39165 58.99737 84.49116
#
# Poissons Ratio (x) = 0.35555 0.44585
# Poissons Ratio (y) = 0.35190 0.35340
# Poissons Ratio (z) = 0.30813 0.24677
#
# Static dielectric constant tensor:
#      x y z
#    x 3.034830 0.000000 0.000000 
#    y 0.000000 2.557700 0.000000 
#    z 0.000000 0.000000 3.700560 
# 
# 
# High freq. dielectric constant tensor:
#      x y z
#    x 1.600010 0.000000 0.000000 
#    y 0.000000 1.530270 0.000000 
#    z 0.000000 0.000000 1.590010 
# 
# From -- ./inp_files/26499.got.cif
#   From: 2010.03.12/outbox.cif.g09.slc.cpg/sg40_14_cif.got.tgz:26499.got - 2010.04.14 01:38:03.
