data_PCOD8182407
_publ_section_title
;
Structure prediction by ZEFSAII (Michael W. Deem and Ramdas Pophale) SiO2 
 PCOD8182407
Probable space group: A M A 2
;
_chemical_formula_sum "Si O2"
_cell_formula_units_Z 64
_cell_length_a 27.439548
_cell_length_b 9.759281
_cell_length_c 11.274329
_cell_angle_alpha 90.000000
_cell_angle_beta 90.000000
_cell_angle_gamma 90.000000
_cell_volume 3019.155488
_symmetry_space_group_name_H-M "A M A 2"
_symmetry_group_IT_number 40
_symmetry_cell_setting 'orthorhombic'
loop_
_space_group_symop_operation_xyz
x,y,z
-x,-y,z
1/2-x,y,z
1/2+x,-y,z
x,1/2+y,1/2+z
-x,1/2-y,1/2+z
1/2-x,1/2+y,1/2+z
1/2+x,1/2-y,1/2+z
loop_
_atom_site_type_symbol
_atom_site_label
_atom_site_fract_x
_atom_site_fract_y
_atom_site_fract_z
Si Si1 0.348011 0.802988 0.987820
Si Si2 0.802780 0.674272 0.813313
Si Si3 0.601870 0.275639 0.222261
Si Si4 0.882969 0.800947 0.240959
Si Si5 0.444029 0.963373 0.352656
Si Si6 0.804128 0.978229 0.531011
Si Si7 0.303735 0.036450 0.106378
Si Si8 0.595434 0.545488 0.117030
O O1 0.370161 0.783199 0.858255
O O2 0.389295 0.785943 0.090124
O O3 0.307404 0.683992 0.004518
O O4 0.326622 0.958936 0.991494
O O5 0.750000 0.746805 0.837992
O O6 0.846920 0.781915 0.797716
O O7 0.798879 0.590400 0.693745
O O8 0.815477 0.563174 0.912503
O O9 0.563635 0.186876 0.297781
O O10 0.576913 0.425249 0.205746
O O11 0.836489 0.841510 0.159404
O O12 0.916628 0.696915 0.164414
O O13 0.913000 0.936031 0.269958
O O14 0.426562 0.974853 0.487394
O O15 0.500000 0.000000 0.345536
O O16 0.750000 0.009530 0.580662
O O17 0.845711 0.024110 0.622073
O O18 0.250000 0.098584 0.078054
#
# Coordination Sequence:
#
# PCOD8182407 Si02
#       8
#     8   8   8   8   8   8   8   8
#     4  10  18  35  63  90 133 168 217 254 316 373
#     4   9  15  29  60  90 122 171 215 248 298 370
#     4  10  19  41  65  94 129 164 209 255 321 381
#     4  12  23  43  65  97 130 173 212 268 321 384
#     4  12  25  48  72  92 122 162 213 274 339 393
#     4  10  17  33  60  91 129 173 212 251 306 369
#     4  10  19  32  58  95 133 175 220 256 301 371
#     4  11  25  41  69  97 133 164 212 264 322 381
#
# _framework density 21.197982
#
# number of rings (size 3 to 8) (size 9 to 14) (size 15 to 20)
#    0.000    1.500    7.500    0.375    0.000    6.000 
#    0.000    0.000    0.000    0.000    0.000    0.000 
#    0.000    0.000    0.000    0.000    0.000    0.000 
#
# Total GULP energy -396539.670203 kJ/mol
# GULP energy per Si atom -12391.864694 kJ/mol
# Density = 2.114973 g / cm^3
# Si number density = 21.197982 Si / 1000 Ang^3
#
#
#
# Elastic Constant Matrix: (Units=GPa)
#
#
# Indices 1 2 3 4 5 6 
#
# 1 63.2357 12.8141 16.2392 0.0000 0.0000 0.0000
# 2 12.8141 93.7463 45.1706 0.0000 0.0000 0.0000
# 3 16.2392 45.1706 53.9291 0.0000 0.0000 0.0000
# 4 0.0000 0.0000 0.0000 39.8520 0.0000 0.0000
# 5 0.0000 0.0000 0.0000 0.0000 -0.7329 0.0000
# 6 0.0000 0.0000 0.0000 0.0000 0.0000 1.2388
#
#
#
# Elastic Compliance Matrix: (Units=1/GPa)
#
#
# Indices 1 2 3 4 5 6 
#
# 1 0.017142 0.000242 -0.005364 0.000000 0.000000 0.000000
# 2 0.000242 0.017889 -0.015056 0.000000 0.000000 0.000000
# 3 -0.005364 -0.015056 0.032769 0.000000 0.000000 0.000000
# 4 0.000000 0.000000 0.000000 0.025093 0.000000 0.000000
# 5 0.000000 0.000000 0.000000 0.000000 -1.364472 0.000000
# 6 0.000000 0.000000 0.000000 0.000000 0.000000 0.807265
#
#
# Mechanical properties :
#
#
# Convention : Reuss Voigt Hill
#
# Bulk Modulus (GPa) = 36.43990 39.92877 38.18434
# Shear Modulus (GPa) = -12.05375 17.18406 2.56515
#
# Velocity S-wave (km/s) = -2.38718 2.85027 1.10124
# Velocity P-wave (km/s) = 3.10313 5.45060 4.43500
#
# Compressibility (1/GPa) = 0.02744245
#
# Stress axis : x y z
#
# Youngs Moduli (GPa) = 58.33469 55.90106 30.51655
#
# Poissons Ratio (x) = -0.01350 0.16370
# Poissons Ratio (y) = -0.01409 0.45946
# Poissons Ratio (z) = 0.31292 0.84166
#
# Static dielectric constant tensor:
#      x y z
#    x 3.873390 0.000000 0.000000 
#    y 0.000000 3.906350 0.000000 
#    z 0.000000 0.000000 3.852800 
# 
# 
# High freq. dielectric constant tensor:
#      x y z
#    x 1.798680 0.000000 0.000000 
#    y 0.000000 1.827190 0.000000 
#    z 0.000000 0.000000 1.825980 
# 
# From -- ./inp_files/14395.got.cif
#   From: 2010.03.12/outbox.cif.g09.slc.cpg/sg40_8_cif.got.tgz:14395.got - 2010.04.14 01:38:03.
