data_PCOD8182537
_publ_section_title
;
Structure prediction by ZEFSAII (Michael W. Deem and Ramdas Pophale) SiO2 
 PCOD8182537
Probable space group: A M A 2
;
_chemical_formula_sum "Si O2"
_cell_formula_units_Z 56
_cell_length_a 9.164044
_cell_length_b 21.708209
_cell_length_c 17.618834
_cell_angle_alpha 90.000000
_cell_angle_beta 90.000000
_cell_angle_gamma 90.000000
_cell_volume 3505.002432
_symmetry_space_group_name_H-M "A M A 2"
_symmetry_group_IT_number 40
_symmetry_cell_setting 'orthorhombic'
loop_
_space_group_symop_operation_xyz
x,y,z
-x,-y,z
1/2-x,y,z
1/2+x,-y,z
x,1/2+y,1/2+z
-x,1/2-y,1/2+z
1/2-x,1/2+y,1/2+z
1/2+x,1/2-y,1/2+z
loop_
_atom_site_type_symbol
_atom_site_label
_atom_site_fract_x
_atom_site_fract_y
_atom_site_fract_z
Si Si1 0.419261 0.777805 0.109960
Si Si2 0.086407 0.178901 0.802896
Si Si3 0.418669 0.342256 0.158581
Si Si4 0.087644 0.322524 0.765436
Si Si5 0.419799 0.935933 0.525550
Si Si6 0.080320 0.647570 0.905986
Si Si7 0.583286 0.711742 0.441990
O O1 0.250000 0.756717 0.115981
O O2 0.517021 0.717454 0.117446
O O3 0.454454 0.828156 0.175963
O O4 0.449923 0.809046 0.028355
O O5 0.250000 0.152591 0.806279
O O6 0.083159 0.250216 0.781959
O O7 0.997912 0.142275 0.738219
O O8 0.014202 0.170538 0.885771
O O9 0.250000 0.329451 0.175653
O O10 0.442474 0.399915 0.103882
O O11 0.250000 0.348682 0.781074
O O12 0.973248 0.358363 0.818431
O O13 0.250000 0.946160 0.507531
O O14 0.489641 0.899853 0.455545
O O15 0.500000 0.000000 0.535664
O O16 0.250000 0.630618 0.909936
O O17 0.047030 0.715837 0.936098
O O18 0.750000 0.700057 0.419003
#
# Coordination Sequence:
#
# PCOD8182537 Si02
#       7
#     8   8   8   8   8   8   8
#     4   9  16  27  43  64  89 119 148 178 216 259
#     4   9  17  27  41  60  84 115 147 178 216 261
#     4  10  19  30  44  61  83 112 147 185 223 261
#     4   8  15  26  40  59  85 114 146 177 212 259
#     4  11  23  35  48  65  85 113 151 191 228 265
#     4  10  18  29  45  61  84 115 148 184 222 260
#     4   9  16  26  42  64  90 118 148 179 215 259
#
# _framework density 15.977164999999999
#
# number of rings (size 3 to 8) (size 9 to 14) (size 15 to 20)
#    0.000    2.571    1.429    2.571    0.000    6.286 
#    0.000    0.000    0.000    0.000    0.000    0.000 
#    0.000    1.143    0.000    7.429    0.000    5.571 
#
# Total GULP energy -347118.623982 kJ/mol
# GULP energy per Si atom -12397.093714 kJ/mol
# Density = 1.594080 g / cm^3
# Si number density = 15.977165 Si / 1000 Ang^3
#
#
#
# Elastic Constant Matrix: (Units=GPa)
#
#
# Indices 1 2 3 4 5 6 
#
# 1 118.7424 38.9632 71.9072 0.0000 0.0000 0.0000
# 2 38.9632 34.3677 31.7244 0.0000 0.0000 0.0000
# 3 71.9072 31.7244 146.5242 0.0000 0.0000 0.0000
# 4 0.0000 0.0000 0.0000 12.0432 0.0000 0.0000
# 5 0.0000 0.0000 0.0000 0.0000 29.8937 0.0000
# 6 0.0000 0.0000 0.0000 0.0000 0.0000 17.8693
#
#
#
# Elastic Compliance Matrix: (Units=1/GPa)
#
#
# Indices 1 2 3 4 5 6 
#
# 1 0.015735 -0.013387 -0.004824 0.000000 0.000000 0.000000
# 2 -0.013387 0.047754 -0.003770 0.000000 0.000000 0.000000
# 3 -0.004824 -0.003770 0.010008 0.000000 0.000000 0.000000
# 4 0.000000 0.000000 0.000000 0.083034 0.000000 0.000000
# 5 0.000000 0.000000 0.000000 0.000000 0.033452 0.000000
# 6 0.000000 0.000000 0.000000 0.000000 0.000000 0.055962
#
#
# Mechanical properties :
#
#
# Convention : Reuss Voigt Hill
#
# Bulk Modulus (GPa) = 33.85599 64.98043 49.41821
# Shear Modulus (GPa) = 16.68051 22.43053 19.55552
#
# Velocity S-wave (km/s) = 3.23464 3.75095 3.50232
# Velocity P-wave (km/s) = 5.93184 7.71483 6.88133
#
# Compressibility (1/GPa) = 0.02953687
#
# Stress axis : x y z
#
# Youngs Moduli (GPa) = 63.55127 20.94087 99.91703
#
# Poissons Ratio (x) = 0.28033 0.48198
# Poissons Ratio (y) = 0.85074 0.37666
# Poissons Ratio (z) = 0.30656 0.07894
#
# Static dielectric constant tensor:
#      x y z
#    x 3.205290 0.000000 0.000000 
#    y 0.000000 2.480950 0.000000 
#    z 0.000000 0.000000 3.430950 
# 
# 
# High freq. dielectric constant tensor:
#      x y z
#    x 1.627840 0.000000 0.000000 
#    y 0.000000 1.536360 0.000000 
#    z 0.000000 0.000000 1.632260 
# 
# From -- ./inp_files/19467.got.cif
#   From: 2010.03.12/outbox.cif.g09.slc.cpg/sg40_10_cif.got.tgz:19467.got - 2010.04.14 01:38:03.
