data_PCOD8182239
_publ_section_title
;
Structure prediction by ZEFSAII (Michael W. Deem and Ramdas Pophale) SiO2 
 PCOD8182239
Probable space group: A B M 2
;
_chemical_formula_sum "Si O2"
_cell_formula_units_Z 48
_cell_length_a 4.952157
_cell_length_b 28.119733
_cell_length_c 16.578768
_cell_angle_alpha 90.000000
_cell_angle_beta 90.000000
_cell_angle_gamma 90.000000
_cell_volume 2308.648695
_symmetry_space_group_name_H-M "A B M 2"
_symmetry_group_IT_number 39
_symmetry_cell_setting 'orthorhombic'
loop_
_space_group_symop_operation_xyz
x,y,z
-x,-y,z
-x,1/2+y,z
x,1/2-y,z
x,1/2+y,1/2+z
-x,1/2-y,1/2+z
-x,y,1/2+z
x,-y,1/2+z
loop_
_atom_site_type_symbol
_atom_site_label
_atom_site_fract_x
_atom_site_fract_y
_atom_site_fract_z
Si Si1 0.747916 0.032078 0.603690
Si Si2 0.360210 0.250000 0.874243
Si Si3 0.637710 0.355400 0.315702
Si Si4 0.139493 0.250000 0.481244
Si Si5 0.871686 0.381865 0.719140
Si Si6 0.435952 0.110312 0.989962
Si Si7 0.063574 0.844009 0.060816
O O1 0.828816 0.067271 0.676645
O O2 0.673658 0.059454 0.520602
O O3 0.500000 0.000000 0.634034
O O4 0.000000 0.000000 0.580934
O O5 0.310381 0.201280 0.824605
O O6 0.166880 0.250000 0.951312
O O7 0.669157 0.250000 0.903388
O O8 0.416952 0.362208 0.246180
O O9 0.525721 0.383276 0.394317
O O10 0.916477 0.382419 0.292965
O O11 0.200487 0.294643 0.537518
O O12 0.005188 0.345364 0.655663
O O13 0.722495 0.115692 0.034924
O O14 0.218768 0.150311 0.014155
#
# Coordination Sequence:
#
# PCOD8182239 Si02
#       7
#     8   4   8   4   8   8   8
#     4  11  23  45  70  93 122 167 221 273 327 395
#     4  12  24  38  64  96 134 178 218 256 312 368
#     4  12  23  42  63  98 137 173 209 262 321 383
#     4  12  20  38  62  94 122 176 232 266 284 372
#     4  11  25  41  64  95 133 171 206 269 338 378
#     4  11  22  41  66  93 125 166 217 263 321 383
#     4  11  21  39  62  91 125 173 222 258 309 373
#
# _framework density 20.791384999999998
#
# number of rings (size 3 to 8) (size 9 to 14) (size 15 to 20)
#    0.000    0.667    3.333    7.000    0.000    1.333 
#    0.000    5.000    0.000    0.000    0.000    0.000 
#    0.000    0.000    0.000    0.000    0.000    0.000 
#
# Total GULP energy -297624.195214 kJ/mol
# GULP energy per Si atom -12401.008134 kJ/mol
# Density = 2.074406 g / cm^3
# Si number density = 20.791385 Si / 1000 Ang^3
#
#
#
# Elastic Constant Matrix: (Units=GPa)
#
#
# Indices 1 2 3 4 5 6 
#
# 1 112.3509 34.6232 28.3382 0.0000 0.0000 0.0000
# 2 34.6232 128.7815 52.4832 0.0000 0.0000 0.0000
# 3 28.3382 52.4832 87.4677 0.0000 0.0000 0.0000
# 4 0.0000 0.0000 0.0000 7.0863 0.0000 0.0000
# 5 0.0000 0.0000 0.0000 0.0000 40.8032 0.0000
# 6 0.0000 0.0000 0.0000 0.0000 0.0000 38.0558
#
#
#
# Elastic Compliance Matrix: (Units=1/GPa)
#
#
# Indices 1 2 3 4 5 6 
#
# 1 0.010002 -0.001811 -0.002154 0.000000 0.000000 0.000000
# 2 -0.001811 0.010607 -0.005777 0.000000 0.000000 0.000000
# 3 -0.002154 -0.005777 0.015597 0.000000 0.000000 0.000000
# 4 0.000000 0.000000 0.000000 0.141116 0.000000 0.000000
# 5 0.000000 0.000000 0.000000 0.000000 0.024508 0.000000
# 6 0.000000 0.000000 0.000000 0.000000 0.000000 0.026277
#
#
# Mechanical properties :
#
#
# Convention : Reuss Voigt Hill
#
# Bulk Modulus (GPa) = 59.80515 62.16548 60.98531
# Shear Modulus (GPa) = 19.74989 31.39944 25.57467
#
# Velocity S-wave (km/s) = 3.08540 3.89036 3.51103
# Velocity P-wave (km/s) = 6.44358 7.08127 6.76994
#
# Compressibility (1/GPa) = 0.01672097
#
# Stress axis : x y z
#
# Youngs Moduli (GPa) = 99.97885 94.28104 64.11435
#
# Poissons Ratio (x) = 0.17078 0.13808
# Poissons Ratio (y) = 0.18110 0.37041
# Poissons Ratio (z) = 0.21532 0.54470
#
# Static dielectric constant tensor:
#      x y z
#    x 3.883690 0.000000 0.000000 
#    y 0.000000 3.772360 0.000000 
#    z 0.000000 0.000000 3.678660 
# 
# 
# High freq. dielectric constant tensor:
#      x y z
#    x 1.840210 0.000000 0.000000 
#    y 0.000000 1.805790 0.000000 
#    z 0.000000 0.000000 1.803320 
# 
# From -- ./inp_files/7636.got.cif
#   From: 2010.03.12/outbox.cif.g09.slc.cpg/sg39_4_cif.got.tgz:7636.got - 2010.04.14 02:53:20.
