data_PCOD8182939
_publ_section_title
;
Structure prediction by ZEFSAII (Michael W. Deem and Ramdas Pophale) SiO2 
 PCOD8182939
Probable space group: A M A 2
;
_chemical_formula_sum "Si O2"
_cell_formula_units_Z 64
_cell_length_a 9.844788
_cell_length_b 29.294592
_cell_length_c 12.676078
_cell_angle_alpha 90.000000
_cell_angle_beta 90.000000
_cell_angle_gamma 90.000000
_cell_volume 3655.768825
_symmetry_space_group_name_H-M "A M A 2"
_symmetry_group_IT_number 40
_symmetry_cell_setting 'orthorhombic'
loop_
_space_group_symop_operation_xyz
x,y,z
-x,-y,z
1/2-x,y,z
1/2+x,-y,z
x,1/2+y,1/2+z
-x,1/2-y,1/2+z
1/2-x,1/2+y,1/2+z
1/2+x,1/2-y,1/2+z
loop_
_atom_site_type_symbol
_atom_site_label
_atom_site_fract_x
_atom_site_fract_y
_atom_site_fract_z
Si Si1 0.904386 0.708503 0.772620
Si Si2 0.101976 0.706419 0.136339
Si Si3 0.402175 0.250466 0.417823
Si Si4 0.091709 0.456358 0.787151
Si Si5 0.910252 0.147147 0.909265
Si Si6 0.091047 0.874143 0.678320
Si Si7 0.593543 0.542993 0.028322
Si Si8 0.410696 0.376008 0.635849
O O1 0.750000 0.696923 0.807295
O O2 0.919173 0.760453 0.734568
O O3 0.957188 0.671432 0.688765
O O4 0.005572 0.709367 0.871680
O O5 0.250000 0.682033 0.142828
O O6 0.986106 0.668726 0.128882
O O7 0.099799 0.741921 0.041238
O O8 0.250000 0.247311 0.369420
O O9 0.464562 0.301066 0.399546
O O10 0.250000 0.468193 0.766988
O O11 0.071404 0.439573 0.908183
O O12 0.035841 0.417768 0.707337
O O13 0.000000 0.500000 0.763879
O O14 0.750000 0.149909 0.923806
O O15 0.949675 0.119541 0.802349
O O16 0.969251 0.122423 0.015262
O O17 0.250000 0.863695 0.667290
O O18 0.049493 0.918353 0.611442
O O19 0.500000 0.500000 0.053394
O O20 0.750000 0.528799 0.045701
O O21 0.250000 0.378804 0.633576
#
# Coordination Sequence:
#
# PCOD8182939 Si02
#       8
#     8   8   8   8   8   8   8   8
#     4  10  19  31  49  72  98 132 173 208 239 286
#     4  10  20  32  47  72 105 137 170 204 246 299
#     4  10  19  32  47  68 101 138 170 203 248 295
#     4   9  18  34  55  75  97 124 158 204 253 301
#     4   9  16  30  50  71  99 134 169 202 240 290
#     4  10  20  33  53  77 100 131 173 211 244 295
#     4   9  19  35  54  77  99 124 161 205 255 304
#     4   9  17  31  52  74  97 132 170 202 243 297
#
# _framework density 17.506577
#
# number of rings (size 3 to 8) (size 9 to 14) (size 15 to 20)
#    0.000    2.500    2.500    0.000    1.750    1.000 
#    0.000    1.250    0.000    2.250    0.000    0.000 
#    0.000    0.000    0.000    0.000    0.000    0.000 
#
# Total GULP energy -396573.245166 kJ/mol
# GULP energy per Si atom -12392.913911 kJ/mol
# Density = 1.746673 g / cm^3
# Si number density = 17.506577 Si / 1000 Ang^3
#
#
#
# Elastic Constant Matrix: (Units=GPa)
#
#
# Indices 1 2 3 4 5 6 
#
# 1 46.8164 40.3380 30.3307 0.0000 0.0000 0.0000
# 2 40.3380 100.1861 62.9374 0.0000 0.0000 0.0000
# 3 30.3307 62.9374 108.2928 0.0000 0.0000 0.0000
# 4 0.0000 0.0000 0.0000 31.8967 0.0000 0.0000
# 5 0.0000 0.0000 0.0000 0.0000 19.9105 0.0000
# 6 0.0000 0.0000 0.0000 0.0000 0.0000 26.3560
#
#
#
# Elastic Compliance Matrix: (Units=1/GPa)
#
#
# Indices 1 2 3 4 5 6 
#
# 1 0.033098 -0.011817 -0.002402 0.000000 0.000000 0.000000
# 2 -0.011817 0.019940 -0.008279 0.000000 0.000000 0.000000
# 3 -0.002402 -0.008279 0.014719 0.000000 0.000000 0.000000
# 4 0.000000 0.000000 0.000000 0.031351 0.000000 0.000000
# 5 0.000000 0.000000 0.000000 0.000000 0.050225 0.000000
# 6 0.000000 0.000000 0.000000 0.000000 0.000000 0.037942
#
#
# Mechanical properties :
#
#
# Convention : Reuss Voigt Hill
#
# Bulk Modulus (GPa) = 43.93646 58.05639 50.99642
# Shear Modulus (GPa) = 20.84550 23.74524 22.29537
#
# Velocity S-wave (km/s) = 3.45443 3.68688 3.57254
# Velocity P-wave (km/s) = 6.40799 7.16650 6.79783
#
# Compressibility (1/GPa) = 0.02276014
#
# Stress axis : x y z
#
# Youngs Moduli (GPa) = 30.21288 50.14930 67.94072
#
# Poissons Ratio (x) = 0.59263 0.16321
# Poissons Ratio (y) = 0.35704 0.56249
# Poissons Ratio (z) = 0.07258 0.41519
#
# Static dielectric constant tensor:
#      x y z
#    x 3.077660 0.000000 0.000000 
#    y 0.000000 3.071540 0.000000 
#    z 0.000000 0.000000 3.501980 
# 
# 
# High freq. dielectric constant tensor:
#      x y z
#    x 1.651160 0.000000 0.000000 
#    y 0.000000 1.657010 0.000000 
#    z 0.000000 0.000000 1.686680 
# 
# From -- ./inp_files/11486.got.cif
#   From: 2010.03.12/outbox.cif.g09.slc.cpg/sg40_6_cif.got.tgz:11486.got - 2010.04.14 01:38:03.
