data_PCOD8182525
_publ_section_title
;
Structure prediction by ZEFSAII (Michael W. Deem and Ramdas Pophale) SiO2 
 PCOD8182525
Probable space group: A M A 2
;
_chemical_formula_sum "Si O2"
_cell_formula_units_Z 64
_cell_length_a 8.633362
_cell_length_b 18.509505
_cell_length_c 26.221057
_cell_angle_alpha 90.000000
_cell_angle_beta 90.000000
_cell_angle_gamma 90.000000
_cell_volume 4190.105429
_symmetry_space_group_name_H-M "A M A 2"
_symmetry_group_IT_number 40
_symmetry_cell_setting 'orthorhombic'
loop_
_space_group_symop_operation_xyz
x,y,z
-x,-y,z
1/2-x,y,z
1/2+x,-y,z
x,1/2+y,1/2+z
-x,1/2-y,1/2+z
1/2-x,1/2+y,1/2+z
1/2+x,1/2-y,1/2+z
loop_
_atom_site_type_symbol
_atom_site_label
_atom_site_fract_x
_atom_site_fract_y
_atom_site_fract_z
Si Si1 0.432679 0.835528 0.184800
Si Si2 0.918921 0.293389 0.531355
Si Si3 0.434995 0.843247 0.480440
Si Si4 0.921454 0.704354 0.134310
Si Si5 0.568511 0.422618 0.772249
Si Si6 0.435470 0.578229 0.592125
Si Si7 0.433236 0.077721 0.576464
Si Si8 0.430626 0.576581 0.889853
O O1 0.250000 0.837569 0.178912
O O2 0.490734 0.753636 0.175965
O O3 0.484221 0.859430 0.241157
O O4 0.505475 0.893860 0.146352
O O5 0.750000 0.311951 0.509044
O O6 0.002185 0.238373 0.491839
O O7 0.903011 0.250439 0.583751
O O8 0.000925 0.369289 0.546318
O O9 0.250000 0.843534 0.485844
O O10 0.502320 0.899431 0.521204
O O11 0.487201 0.862437 0.423647
O O12 0.750000 0.683907 0.154942
O O13 0.016865 0.631957 0.121775
O O14 0.500000 0.500000 0.756420
O O15 0.750000 0.423041 0.760343
O O16 0.533378 0.405862 0.831259
O O17 0.500000 0.500000 0.579942
O O18 0.250000 0.578693 0.593081
O O19 0.250000 0.074757 0.573265
O O20 0.500000 0.000000 0.590951
O O21 0.500000 0.500000 0.906012
O O22 0.250000 0.575493 0.901762
#
# Coordination Sequence:
#
# PCOD8182525 Si02
#       8
#     8   8   8   8   8   8   8   8
#     4  11  20  30  45  64  85 113 147 178 213 257
#     4   7  14  27  42  58  79 108 138 170 207 249
#     4  10  18  30  46  62  83 114 148 180 217 258
#     4   9  17  31  46  62  85 112 142 177 216 254
#     4  10  20  33  46  61  84 113 145 182 220 256
#     4  10  18  29  43  61  86 114 145 178 213 253
#     4  11  20  30  44  64  89 117 149 181 214 254
#     4  10  20  32  45  62  84 111 144 182 220 257
#
# _framework density 15.274079
#
# number of rings (size 3 to 8) (size 9 to 14) (size 15 to 20)
#    0.000    2.250    0.000    6.375    0.000    1.500 
#    0.000    1.875    0.000    0.000    0.000    0.000 
#    0.000    1.000    0.000    5.250    0.000    4.875 
#
# Total GULP energy -396618.114529 kJ/mol
# GULP energy per Si atom -12394.316079 kJ/mol
# Density = 1.523931 g / cm^3
# Si number density = 15.274079 Si / 1000 Ang^3
#
#
#
# Elastic Constant Matrix: (Units=GPa)
#
#
# Indices 1 2 3 4 5 6 
#
# 1 98.9057 43.3677 32.4680 0.0000 0.0000 0.0000
# 2 43.3677 113.9725 52.4323 0.0000 0.0000 0.0000
# 3 32.4680 52.4323 68.3894 0.0000 0.0000 0.0000
# 4 0.0000 0.0000 0.0000 46.5981 0.0000 0.0000
# 5 0.0000 0.0000 0.0000 0.0000 20.5162 0.0000
# 6 0.0000 0.0000 0.0000 0.0000 0.0000 24.0062
#
#
#
# Elastic Compliance Matrix: (Units=1/GPa)
#
#
# Indices 1 2 3 4 5 6 
#
# 1 0.012680 -0.003175 -0.003585 0.000000 0.000000 0.000000
# 2 -0.003175 0.014350 -0.009494 0.000000 0.000000 0.000000
# 3 -0.003585 -0.009494 0.023603 0.000000 0.000000 0.000000
# 4 0.000000 0.000000 0.000000 0.021460 0.000000 0.000000
# 5 0.000000 0.000000 0.000000 0.000000 0.048742 0.000000
# 6 0.000000 0.000000 0.000000 0.000000 0.000000 0.041656
#
#
# Mechanical properties :
#
#
# Convention : Reuss Voigt Hill
#
# Bulk Modulus (GPa) = 55.17766 59.75594 57.46680
# Shear Modulus (GPa) = 24.87037 28.42408 26.64723
#
# Velocity S-wave (km/s) = 4.03956 4.31854 4.18138
# Velocity P-wave (km/s) = 7.61320 8.00461 7.81136
#
# Compressibility (1/GPa) = 0.01812328
#
# Stress axis : x y z
#
# Youngs Moduli (GPa) = 78.86463 69.68575 42.36697
#
# Poissons Ratio (x) = 0.22128 0.15190
# Poissons Ratio (y) = 0.25043 0.40224
# Poissons Ratio (z) = 0.28275 0.66162
#
# Static dielectric constant tensor:
#      x y z
#    x 3.016600 0.000000 0.000000 
#    y 0.000000 3.122740 0.000000 
#    z 0.000000 0.000000 2.781240 
# 
# 
# High freq. dielectric constant tensor:
#      x y z
#    x 1.596570 0.000000 0.000000 
#    y 0.000000 1.579070 0.000000 
#    z 0.000000 0.000000 1.550080 
# 
# From -- ./inp_files/25545.got.cif
#   From: 2010.03.12/outbox.cif.g09.slc.cpg/sg40_13_cif.got.tgz:25545.got - 2010.04.14 01:38:03.
