data_PCOD8182888
_publ_section_title
;
Structure prediction by ZEFSAII (Michael W. Deem and Ramdas Pophale) SiO2 
 PCOD8182888
Probable space group: A M A 2
;
_chemical_formula_sum "Si O2"
_cell_formula_units_Z 64
_cell_length_a 9.016863
_cell_length_b 27.832236
_cell_length_c 14.591456
_cell_angle_alpha 90.000000
_cell_angle_beta 90.000000
_cell_angle_gamma 90.000000
_cell_volume 3661.863904
_symmetry_space_group_name_H-M "A M A 2"
_symmetry_group_IT_number 40
_symmetry_cell_setting 'orthorhombic'
loop_
_space_group_symop_operation_xyz
x,y,z
-x,-y,z
1/2-x,y,z
1/2+x,-y,z
x,1/2+y,1/2+z
-x,1/2-y,1/2+z
1/2-x,1/2+y,1/2+z
1/2+x,1/2-y,1/2+z
loop_
_atom_site_type_symbol
_atom_site_label
_atom_site_fract_x
_atom_site_fract_y
_atom_site_fract_z
Si Si1 0.421289 0.777029 0.551000
Si Si2 0.575643 0.281329 0.868532
Si Si3 0.923580 0.863900 0.229900
Si Si4 0.575280 0.950721 0.563898
Si Si5 0.076004 0.325758 0.358643
Si Si6 0.424431 0.048645 0.354727
Si Si7 0.574998 0.176508 0.063168
Si Si8 0.078674 0.368140 0.175291
O O1 0.250000 0.764274 0.535072
O O2 0.490960 0.799511 0.458933
O O3 0.504180 0.728533 0.581149
O O4 0.441302 0.816216 0.629730
O O5 0.750000 0.281964 0.891444
O O6 0.537159 0.315675 0.784628
O O7 0.515634 0.228337 0.843747
O O8 0.750000 0.867934 0.209414
O O9 0.980640 0.908895 0.289061
O O10 0.010779 0.862393 0.134103
O O11 0.750000 0.956444 0.574219
O O12 0.528824 0.939327 0.459057
O O13 0.521495 0.907655 0.627305
O O14 0.500000 0.000000 0.597060
O O15 0.250000 0.322932 0.344537
O O16 0.034202 0.343010 0.461181
O O17 0.017559 0.362023 0.280036
O O18 0.250000 0.041964 0.347654
O O19 0.500000 0.000000 0.320064
O O20 0.750000 0.181492 0.075220
O O21 0.250000 0.384817 0.170947
#
# Coordination Sequence:
#
# PCOD8182888 Si02
#       8
#     8   8   8   8   8   8   8   8
#     4  10  19  30  47  73 103 133 166 204 245 291
#     4   9  17  31  49  69  99 135 166 200 246 296
#     4  10  19  32  51  73  98 130 166 205 250 294
#     4  10  20  35  54  77 103 128 156 193 241 295
#     4   8  16  31  48  66  93 130 166 199 239 285
#     4   9  19  34  52  74 101 130 157 192 242 297
#     4  10  20  33  49  70  98 134 172 208 247 290
#     4  10  19  32  51  72  96 130 168 203 243 290
#
# _framework density 17.477437999999999
#
# number of rings (size 3 to 8) (size 9 to 14) (size 15 to 20)
#    0.000    2.500    0.000    3.375    0.000    5.500 
#    0.000    3.125    0.000    0.750    0.000    1.750 
#    0.000    0.000    0.000    0.000    0.000    0.000 
#
# Total GULP energy -396763.157362 kJ/mol
# GULP energy per Si atom -12398.848668 kJ/mol
# Density = 1.743766 g / cm^3
# Si number density = 17.477438 Si / 1000 Ang^3
#
#
#
# Elastic Constant Matrix: (Units=GPa)
#
#
# Indices 1 2 3 4 5 6 
#
# 1 59.4018 38.3500 45.7059 0.0000 0.0000 0.0000
# 2 38.3500 86.9954 63.8642 0.0000 0.0000 0.0000
# 3 45.7059 63.8642 124.7251 0.0000 0.0000 0.0000
# 4 0.0000 0.0000 0.0000 28.7004 0.0000 0.0000
# 5 0.0000 0.0000 0.0000 0.0000 27.8396 0.0000
# 6 0.0000 0.0000 0.0000 0.0000 0.0000 28.7024
#
#
#
# Elastic Compliance Matrix: (Units=1/GPa)
#
#
# Indices 1 2 3 4 5 6 
#
# 1 0.025948 -0.007143 -0.005851 0.000000 0.000000 0.000000
# 2 -0.007143 0.020385 -0.007820 0.000000 0.000000 0.000000
# 3 -0.005851 -0.007820 0.014166 0.000000 0.000000 0.000000
# 4 0.000000 0.000000 0.000000 0.034843 0.000000 0.000000
# 5 0.000000 0.000000 0.000000 0.000000 0.035920 0.000000
# 6 0.000000 0.000000 0.000000 0.000000 0.000000 0.034840
#
#
# Mechanical properties :
#
#
# Convention : Reuss Voigt Hill
#
# Bulk Modulus (GPa) = 52.99459 62.99584 57.99522
# Shear Modulus (GPa) = 23.36216 25.26194 24.31205
#
# Velocity S-wave (km/s) = 3.66006 3.80597 3.73373
# Velocity P-wave (km/s) = 6.94615 7.44555 7.20018
#
# Compressibility (1/GPa) = 0.01886985
#
# Stress axis : x y z
#
# Youngs Moduli (GPa) = 38.53794 49.05665 70.59171
#
# Poissons Ratio (x) = 0.35043 0.41305
# Poissons Ratio (y) = 0.27529 0.55203
# Poissons Ratio (z) = 0.22549 0.38362
#
# Static dielectric constant tensor:
#      x y z
#    x 3.165520 0.000000 0.000000 
#    y 0.000000 3.147210 0.000000 
#    z 0.000000 0.000000 3.461750 
# 
# 
# High freq. dielectric constant tensor:
#      x y z
#    x 1.666870 0.000000 0.000000 
#    y 0.000000 1.654780 0.000000 
#    z 0.000000 0.000000 1.678290 
# 
# From -- ./inp_files/15929.got.cif
#   From: 2010.03.12/outbox.cif.g09.slc.cpg/sg40_8_cif.got.tgz:15929.got - 2010.04.14 01:38:03.
