data_PCOD8182345
_publ_section_title
;
Structure prediction by ZEFSAII (Michael W. Deem and Ramdas Pophale) SiO2 
 PCOD8182345
Probable space group: A M A 2
;
_chemical_formula_sum "Si O2"
_cell_formula_units_Z 64
_cell_length_a 8.646354
_cell_length_b 26.499722
_cell_length_c 18.532102
_cell_angle_alpha 90.000000
_cell_angle_beta 90.000000
_cell_angle_gamma 90.000000
_cell_volume 4246.185982
_symmetry_space_group_name_H-M "A M A 2"
_symmetry_group_IT_number 40
_symmetry_cell_setting 'orthorhombic'
loop_
_space_group_symop_operation_xyz
x,y,z
-x,-y,z
1/2-x,y,z
1/2+x,-y,z
x,1/2+y,1/2+z
-x,1/2-y,1/2+z
1/2-x,1/2+y,1/2+z
1/2+x,1/2-y,1/2+z
loop_
_atom_site_type_symbol
_atom_site_label
_atom_site_fract_x
_atom_site_fract_y
_atom_site_fract_z
Si Si1 0.419476 0.804079 0.829130
Si Si2 0.569497 0.761098 0.618329
Si Si3 0.080324 0.203148 0.237348
Si Si4 0.565647 0.643420 0.193092
Si Si5 0.432339 0.446030 0.953528
Si Si6 0.434066 0.243649 0.455886
Si Si7 0.933180 0.354876 0.873744
Si Si8 0.932787 0.946021 0.606859
O O1 0.250000 0.825828 0.847077
O O2 0.403896 0.752562 0.785273
O O3 0.499398 0.844335 0.774614
O O4 0.504599 0.789007 0.904665
O O5 0.750000 0.774156 0.620550
O O6 0.534374 0.713300 0.670203
O O7 0.475274 0.810583 0.640311
O O8 0.514738 0.746660 0.537737
O O9 0.250000 0.189330 0.206208
O O10 0.021206 0.158833 0.290829
O O11 0.750000 0.636659 0.192887
O O12 0.482060 0.592887 0.168414
O O13 0.500000 0.500000 0.930616
O O14 0.250000 0.450708 0.961211
O O15 0.477607 0.405985 0.892591
O O16 0.501301 0.428003 0.030019
O O17 0.250000 0.245438 0.446360
O O18 0.491451 0.188942 0.428444
O O19 0.750000 0.363129 0.881129
O O20 0.750000 0.949304 0.601255
O O21 0.000000 0.000000 0.629107
#
# Coordination Sequence:
#
# PCOD8182345 Si02
#       8
#     8   8   8   8   8   8   8   8
#     4   7  12  24  40  56  76 104 137 168 198 239
#     4  10  17  24  39  62  86 111 141 176 209 245
#     4   8  15  27  41  56  79 111 141 170 206 248
#     4  10  18  29  44  60  80 109 143 175 210 249
#     4  11  21  32  45  62  84 109 139 174 209 244
#     4   8  14  24  39  59  81 108 139 169 203 242
#     4   9  16  29  46  60  79 111 146 175 208 247
#     4  11  21  33  46  61  83 109 139 173 207 244
#
# _framework density 15.072349000000001
#
# number of rings (size 3 to 8) (size 9 to 14) (size 15 to 20)
#    0.000    2.750    0.000    6.750    0.000    1.500 
#    0.000    0.625    0.000    7.500    0.000    0.000 
#    0.000    1.000    0.000    8.750    0.000    3.125 
#
# Total GULP energy -396485.305628 kJ/mol
# GULP energy per Si atom -12390.165801 kJ/mol
# Density = 1.503804 g / cm^3
# Si number density = 15.072349 Si / 1000 Ang^3
#
#
#
# Elastic Constant Matrix: (Units=GPa)
#
#
# Indices 1 2 3 4 5 6 
#
# 1 69.7693 28.5694 28.9035 0.0000 0.0000 0.0000
# 2 28.5694 80.5592 52.9230 0.0000 0.0000 0.0000
# 3 28.9035 52.9230 105.8867 0.0000 0.0000 0.0000
# 4 0.0000 0.0000 0.0000 27.7203 0.0000 0.0000
# 5 0.0000 0.0000 0.0000 0.0000 17.5195 0.0000
# 6 0.0000 0.0000 0.0000 0.0000 0.0000 17.9659
#
#
#
# Elastic Compliance Matrix: (Units=1/GPa)
#
#
# Indices 1 2 3 4 5 6 
#
# 1 0.017184 -0.004485 -0.002449 0.000000 0.000000 0.000000
# 2 -0.004485 0.019652 -0.008598 0.000000 0.000000 0.000000
# 3 -0.002449 -0.008598 0.014410 0.000000 0.000000 0.000000
# 4 0.000000 0.000000 0.000000 0.036075 0.000000 0.000000
# 5 0.000000 0.000000 0.000000 0.000000 0.057079 0.000000
# 6 0.000000 0.000000 0.000000 0.000000 0.000000 0.055661
#
#
# Mechanical properties :
#
#
# Convention : Reuss Voigt Hill
#
# Bulk Modulus (GPa) = 49.54962 53.00079 51.27520
# Shear Modulus (GPa) = 21.02137 22.36243 21.69190
#
# Velocity S-wave (km/s) = 3.73862 3.85603 3.79777
# Velocity P-wave (km/s) = 7.18208 7.42064 7.30233
#
# Compressibility (1/GPa) = 0.02018179
#
# Stress axis : x y z
#
# Youngs Moduli (GPa) = 58.19317 50.88446 69.39683
#
# Poissons Ratio (x) = 0.22824 0.16994
# Poissons Ratio (y) = 0.26102 0.59668
# Poissons Ratio (z) = 0.14251 0.43751
#
# Static dielectric constant tensor:
#      x y z
#    x 2.790860 0.000000 0.000000 
#    y 0.000000 2.821350 0.000000 
#    z 0.000000 0.000000 3.170700 
# 
# 
# High freq. dielectric constant tensor:
#      x y z
#    x 1.567650 0.000000 0.000000 
#    y 0.000000 1.545590 0.000000 
#    z 0.000000 0.000000 1.569680 
# 
# From -- ./inp_files/19787.got.cif
#   From: 2010.03.12/outbox.cif.g09.slc.cpg/sg40_10_cif.got.tgz:19787.got - 2010.04.14 01:38:03.
