data_PCOD8182321
_publ_section_title
;
Structure prediction by ZEFSAII (Michael W. Deem and Ramdas Pophale) SiO2 
 PCOD8182321
Probable space group: A B M 2
;
_chemical_formula_sum "Si O2"
_cell_formula_units_Z 32
_cell_length_a 10.753866
_cell_length_b 14.414295
_cell_length_c 7.082780
_cell_angle_alpha 90.000000
_cell_angle_beta 90.000000
_cell_angle_gamma 90.000000
_cell_volume 1097.897456
_symmetry_space_group_name_H-M "A B M 2"
_symmetry_group_IT_number 39
_symmetry_cell_setting 'orthorhombic'
loop_
_space_group_symop_operation_xyz
x,y,z
-x,-y,z
-x,1/2+y,z
x,1/2-y,z
x,1/2+y,1/2+z
-x,1/2-y,1/2+z
-x,y,1/2+z
x,-y,1/2+z
loop_
_atom_site_type_symbol
_atom_site_label
_atom_site_fract_x
_atom_site_fract_y
_atom_site_fract_z
Si Si1 0.268179 0.358652 0.951920
Si Si2 0.282856 0.348810 0.442952
Si Si3 0.854004 0.490103 0.154612
Si Si4 0.508752 0.605976 0.163066
O O1 0.237165 0.250000 0.957726
O O2 0.183113 0.410303 0.800421
O O3 0.215905 0.408518 0.151116
O O4 0.418021 0.383697 0.952643
O O5 0.210155 0.250000 0.447747
O O6 0.190257 0.439062 0.452859
O O7 0.390014 0.340116 0.285949
O O8 0.368920 0.352545 0.639331
O O9 0.000000 0.500000 0.149101
O O10 0.500000 0.500000 0.220616
#
# Coordination Sequence:
#
# PCOD8182321 Si02
#       4
#     8   8   8   8
#     4  12  27  50  81 117 157 209 268 331 406 481
#     4  12  25  45  79 121 165 215 270 337 412 490
#     4  12  28  52  80 113 161 218 273 336 395 474
#     4  12  25  46  77 121 167 209 261 340 421 488
#
# _framework density 29.146622000000001
#
# number of rings (size 3 to 8) (size 9 to 14) (size 15 to 20)
#    0.000    0.000    2.500    7.500    0.000    2.000 
#    0.000    2.500    0.000    0.000    0.000    0.000 
#    0.000    0.000    0.000    0.000    0.000    0.000 
#
# Total GULP energy -198322.419799 kJ/mol
# GULP energy per Si atom -12395.151237 kJ/mol
# Density = 2.908028 g / cm^3
# Si number density = 29.146622 Si / 1000 Ang^3
#
#
#
# Elastic Constant Matrix: (Units=GPa)
#
#
# Indices 1 2 3 4 5 6 
#
# 1 234.3089 87.2535 16.1362 0.0000 0.0000 0.0000
# 2 87.2535 311.2644 23.8580 0.0000 0.0000 0.0000
# 3 16.1362 23.8580 63.0520 0.0000 0.0000 0.0000
# 4 0.0000 0.0000 0.0000 34.9084 0.0000 0.0000
# 5 0.0000 0.0000 0.0000 0.0000 28.8812 0.0000
# 6 0.0000 0.0000 0.0000 0.0000 0.0000 28.0147
#
#
#
# Elastic Compliance Matrix: (Units=1/GPa)
#
#
# Indices 1 2 3 4 5 6 
#
# 1 0.004799 -0.001288 -0.000741 0.000000 0.000000 0.000000
# 2 -0.001288 0.003655 -0.001053 0.000000 0.000000 0.000000
# 3 -0.000741 -0.001053 0.016448 0.000000 0.000000 0.000000
# 4 0.000000 0.000000 0.000000 0.028646 0.000000 0.000000
# 5 0.000000 0.000000 0.000000 0.000000 0.034625 0.000000
# 6 0.000000 0.000000 0.000000 0.000000 0.000000 0.035696
#
#
# Mechanical properties :
#
#
# Convention : Reuss Voigt Hill
#
# Bulk Modulus (GPa) = 53.37023 95.90229 74.63626
# Shear Modulus (GPa) = 36.68985 50.45270 43.57127
#
# Velocity S-wave (km/s) = 3.55181 4.16504 3.87059
# Velocity P-wave (km/s) = 5.93053 7.49032 6.75559
#
# Compressibility (1/GPa) = 0.01873704
#
# Stress axis : x y z
#
# Youngs Moduli (GPa) = 208.39191 273.62890 60.79787
#
# Poissons Ratio (x) = 0.35254 0.04502
# Poissons Ratio (y) = 0.26849 0.06403
# Poissons Ratio (z) = 0.15433 0.28816
#
# Static dielectric constant tensor:
#      x y z
#    x 5.168000 0.000000 0.000000 
#    y 0.000000 5.314760 0.000000 
#    z 0.000000 0.000000 9.315600 
# 
# 
# High freq. dielectric constant tensor:
#      x y z
#    x 2.154240 0.000000 0.000000 
#    y 0.000000 2.185420 0.000000 
#    z 0.000000 0.000000 2.302520 
# 
# From -- ./inp_files/2436.got.cif
#   From: 2010.03.12/outbox.cif.g09.slc.cpg/sg39_2_cif.got.tgz:2436.got - 2010.04.14 02:53:20.
