data_PCOD8182650
_publ_section_title
;
Structure prediction by ZEFSAII (Michael W. Deem and Ramdas Pophale) SiO2 
 PCOD8182650
Probable space group: A M A 2
;
_chemical_formula_sum "Si O2"
_cell_formula_units_Z 64
_cell_length_a 9.133168
_cell_length_b 22.934992
_cell_length_c 18.863275
_cell_angle_alpha 90.000000
_cell_angle_beta 90.000000
_cell_angle_gamma 90.000000
_cell_volume 3951.273898
_symmetry_space_group_name_H-M "A M A 2"
_symmetry_group_IT_number 40
_symmetry_cell_setting 'orthorhombic'
loop_
_space_group_symop_operation_xyz
x,y,z
-x,-y,z
1/2-x,y,z
1/2+x,-y,z
x,1/2+y,1/2+z
-x,1/2-y,1/2+z
1/2-x,1/2+y,1/2+z
1/2+x,1/2-y,1/2+z
loop_
_atom_site_type_symbol
_atom_site_label
_atom_site_fract_x
_atom_site_fract_y
_atom_site_fract_z
Si Si1 0.581048 0.668182 0.692360
Si Si2 0.919970 0.778713 0.067234
Si Si3 0.416746 0.341061 0.146327
Si Si4 0.582765 0.734998 0.274220
Si Si5 0.081547 0.247876 0.431921
Si Si6 0.580212 0.558898 0.786271
Si Si7 0.078900 0.060138 0.569810
Si Si8 0.921138 0.385764 0.918925
O O1 0.750000 0.682937 0.679269
O O2 0.496070 0.673948 0.618100
O O3 0.521024 0.712368 0.751411
O O4 0.558517 0.603153 0.721274
O O5 0.750000 0.793797 0.063908
O O6 0.950908 0.714445 0.097216
O O7 0.986204 0.782991 0.988733
O O8 0.250000 0.361936 0.135433
O O9 0.447278 0.322949 0.227978
O O10 0.525341 0.392803 0.126977
O O11 0.750000 0.756122 0.261079
O O12 0.556722 0.720330 0.356557
O O13 0.250000 0.249977 0.456096
O O14 0.028947 0.181098 0.426008
O O15 0.500000 0.500000 0.763453
O O16 0.750000 0.546161 0.800912
O O17 0.513230 0.583747 0.858216
O O18 0.250000 0.051379 0.580194
O O19 0.039544 0.081444 0.491299
O O20 0.000000 0.000000 0.586111
O O21 0.750000 0.389954 0.900073
#
# Coordination Sequence:
#
# PCOD8182650 Si02
#       8
#     8   8   8   8   8   8   8   8
#     4  10  20  33  49  71  97 128 167 208 249 293
#     4  10  20  32  50  73  99 130 164 203 248 294
#     4   9  18  32  48  69  95 126 162 201 241 287
#     4   9  18  32  51  73  99 130 161 198 249 295
#     4  10  18  31  51  75 103 133 163 198 243 297
#     4  11  23  35  50  71  97 133 173 210 247 291
#     4  11  22  34  48  68  94 131 170 205 242 281
#     4  10  20  33  49  70 100 135 169 203 240 286
#
# _framework density 16.197308
#
# number of rings (size 3 to 8) (size 9 to 14) (size 15 to 20)
#    0.000    2.000    2.500    2.625    0.000    6.500 
#    0.000    0.000    0.000    0.000    0.000    0.875 
#    0.000    4.000    0.000    0.000    0.000    0.000 
#
# Total GULP energy -396895.731304 kJ/mol
# GULP energy per Si atom -12402.991603 kJ/mol
# Density = 1.616044 g / cm^3
# Si number density = 16.197308 Si / 1000 Ang^3
#
#
#
# Elastic Constant Matrix: (Units=GPa)
#
#
# Indices 1 2 3 4 5 6 
#
# 1 100.4536 54.1102 63.1668 0.0000 0.0000 0.0000
# 2 54.1102 74.6070 51.8413 0.0000 0.0000 0.0000
# 3 63.1668 51.8413 114.0575 0.0000 0.0000 0.0000
# 4 0.0000 0.0000 0.0000 20.6363 0.0000 0.0000
# 5 0.0000 0.0000 0.0000 0.0000 27.1548 0.0000
# 6 0.0000 0.0000 0.0000 0.0000 0.0000 25.9622
#
#
#
# Elastic Compliance Matrix: (Units=1/GPa)
#
#
# Indices 1 2 3 4 5 6 
#
# 1 0.018928 -0.009419 -0.006202 0.000000 0.000000 0.000000
# 2 -0.009419 0.024278 -0.005818 0.000000 0.000000 0.000000
# 3 -0.006202 -0.005818 0.014847 0.000000 0.000000 0.000000
# 4 0.000000 0.000000 0.000000 0.048458 0.000000 0.000000
# 5 0.000000 0.000000 0.000000 0.000000 0.036826 0.000000
# 6 0.000000 0.000000 0.000000 0.000000 0.000000 0.038518
#
#
# Mechanical properties :
#
#
# Convention : Reuss Voigt Hill
#
# Bulk Modulus (GPa) = 65.89875 69.70607 67.80241
# Shear Modulus (GPa) = 21.75903 22.75065 22.25484
#
# Velocity S-wave (km/s) = 3.66918 3.75186 3.71075
# Velocity P-wave (km/s) = 7.66315 7.86750 7.76600
#
# Compressibility (1/GPa) = 0.01517480
#
# Stress axis : x y z
#
# Youngs Moduli (GPa) = 52.83200 41.19024 67.35505
#
# Poissons Ratio (x) = 0.38795 0.41771
# Poissons Ratio (y) = 0.49760 0.39190
# Poissons Ratio (z) = 0.32765 0.23967
#
# Static dielectric constant tensor:
#      x y z
#    x 3.137770 0.000000 0.000000 
#    y 0.000000 2.909750 0.000000 
#    z 0.000000 0.000000 3.118420 
# 
# 
# High freq. dielectric constant tensor:
#      x y z
#    x 1.634280 0.000000 0.000000 
#    y 0.000000 1.594320 0.000000 
#    z 0.000000 0.000000 1.619650 
# 
# From -- ./inp_files/19692.got.cif
#   From: 2010.03.12/outbox.cif.g09.slc.cpg/sg40_10_cif.got.tgz:19692.got - 2010.04.14 01:38:03.
