data_PCOD8182357
_publ_section_title
;
Structure prediction by ZEFSAII (Michael W. Deem and Ramdas Pophale) SiO2 
 PCOD8182357
Probable space group: A M A 2
;
_chemical_formula_sum "Si O2"
_cell_formula_units_Z 64
_cell_length_a 8.928219
_cell_length_b 20.380509
_cell_length_c 22.662427
_cell_angle_alpha 90.000000
_cell_angle_beta 90.000000
_cell_angle_gamma 90.000000
_cell_volume 4123.692557
_symmetry_space_group_name_H-M "A M A 2"
_symmetry_group_IT_number 40
_symmetry_cell_setting 'orthorhombic'
loop_
_space_group_symop_operation_xyz
x,y,z
-x,-y,z
1/2-x,y,z
1/2+x,-y,z
x,1/2+y,1/2+z
-x,1/2-y,1/2+z
1/2-x,1/2+y,1/2+z
1/2+x,1/2-y,1/2+z
loop_
_atom_site_type_symbol
_atom_site_label
_atom_site_fract_x
_atom_site_fract_y
_atom_site_fract_z
Si Si1 0.915441 0.357489 0.085680
Si Si2 0.573762 0.847816 0.068169
Si Si3 0.072354 0.309502 0.256961
Si Si4 0.577333 0.182470 0.887643
Si Si5 0.928590 0.568432 0.474826
Si Si6 0.075835 0.932557 0.678715
Si Si7 0.076728 0.738895 0.994762
Si Si8 0.919358 0.227426 0.163771
O O1 0.750000 0.388679 0.090569
O O2 0.924482 0.289453 0.120613
O O3 0.029387 0.410610 0.112249
O O4 0.951337 0.336289 0.017302
O O5 0.750000 0.860332 0.073289
O O6 0.506306 0.833404 0.133278
O O7 0.493960 0.911034 0.038849
O O8 0.540700 0.785611 0.027051
O O9 0.250000 0.300101 0.254906
O O10 0.002852 0.311983 0.323092
O O11 0.024759 0.377129 0.224969
O O12 0.999599 0.246968 0.224804
O O13 0.750000 0.169289 0.875345
O O14 0.516768 0.121032 0.925648
O O15 0.552223 0.250553 0.924472
O O16 0.750000 0.563728 0.478781
O O17 0.000000 0.500000 0.455232
O O18 0.250000 0.944485 0.679374
O O19 0.000000 0.000000 0.697884
O O20 0.250000 0.759561 0.010448
O O21 0.750000 0.205656 0.177250
#
# Coordination Sequence:
#
# PCOD8182357 Si02
#       8
#     8   8   8   8   8   8   8   8
#     4   8  14  25  41  58  76  99 130 166 207 249
#     4  10  17  26  42  62  81 104 135 173 215 258
#     4   9  17  29  43  60  82 112 146 176 204 241
#     4   8  15  28  44  60  83 113 143 172 204 243
#     4  10  19  31  44  60  84 115 148 181 214 250
#     4  10  19  28  39  55  78 108 141 174 206 237
#     4   8  14  26  43  61  81 106 132 165 210 254
#     4   9  16  27  42  60  81 105 133 171 215 254
#
# _framework density 15.52007
#
# number of rings (size 3 to 8) (size 9 to 14) (size 15 to 20)
#    0.000    3.000    0.000    3.750    0.000    4.000 
#    0.000    3.125    0.000    0.000    0.000    0.000 
#    0.000    1.000    0.000    5.000    0.000    4.000 
#
# Total GULP energy -396489.441025 kJ/mol
# GULP energy per Si atom -12390.295032 kJ/mol
# Density = 1.548475 g / cm^3
# Si number density = 15.520070 Si / 1000 Ang^3
#
#
#
# Elastic Constant Matrix: (Units=GPa)
#
#
# Indices 1 2 3 4 5 6 
#
# 1 65.5661 18.4322 35.4410 0.0000 0.0000 0.0000
# 2 18.4322 27.8064 51.3158 0.0000 0.0000 0.0000
# 3 35.4410 51.3158 115.4868 0.0000 0.0000 0.0000
# 4 0.0000 0.0000 0.0000 16.7892 0.0000 0.0000
# 5 0.0000 0.0000 0.0000 0.0000 16.8395 0.0000
# 6 0.0000 0.0000 0.0000 0.0000 0.0000 22.3071
#
#
#
# Elastic Compliance Matrix: (Units=1/GPa)
#
#
# Indices 1 2 3 4 5 6 
#
# 1 0.018779 -0.010073 -0.001287 0.000000 0.000000 0.000000
# 2 -0.010073 0.205223 -0.088098 0.000000 0.000000 0.000000
# 3 -0.001287 -0.088098 0.048200 0.000000 0.000000 0.000000
# 4 0.000000 0.000000 0.000000 0.059562 0.000000 0.000000
# 5 0.000000 0.000000 0.000000 0.000000 0.059384 0.000000
# 6 0.000000 0.000000 0.000000 0.000000 0.000000 0.044829
#
#
# Mechanical properties :
#
#
# Convention : Reuss Voigt Hill
#
# Bulk Modulus (GPa) = 13.64526 46.58191 30.11359
# Shear Modulus (GPa) = 7.58354 18.09849 12.84102
#
# Velocity S-wave (km/s) = 2.21289 3.41858 2.87954
# Velocity P-wave (km/s) = 3.91667 6.75732 5.52276
#
# Compressibility (1/GPa) = 0.07328551
#
# Stress axis : x y z
#
# Youngs Moduli (GPa) = 53.25009 4.87276 20.74689
#
# Poissons Ratio (x) = 0.04908 0.02671
# Poissons Ratio (y) = 0.53636 1.82777
# Poissons Ratio (z) = 0.06855 0.42928
#
# Static dielectric constant tensor:
#      x y z
#    x 2.909690 0.000000 0.000000 
#    y 0.000000 2.809380 0.000000 
#    z 0.000000 0.000000 3.207700 
# 
# 
# High freq. dielectric constant tensor:
#      x y z
#    x 1.593850 0.000000 0.000000 
#    y 0.000000 1.555700 0.000000 
#    z 0.000000 0.000000 1.580390 
# 
# From -- ./inp_files/24398.got.cif
#   From: 2010.03.12/outbox.cif.g09.slc.cpg/sg40_13_cif.got.tgz:24398.got - 2010.04.14 01:38:03.
