data_PCOD8182637
_publ_section_title
;
Structure prediction by ZEFSAII (Michael W. Deem and Ramdas Pophale) SiO2 
 PCOD8182637
Probable space group: A M A 2
;
_chemical_formula_sum "Si O2"
_cell_formula_units_Z 64
_cell_length_a 8.726622
_cell_length_b 18.778334
_cell_length_c 21.925794
_cell_angle_alpha 90.000000
_cell_angle_beta 90.000000
_cell_angle_gamma 90.000000
_cell_volume 3593.011055
_symmetry_space_group_name_H-M "A M A 2"
_symmetry_group_IT_number 40
_symmetry_cell_setting 'orthorhombic'
loop_
_space_group_symop_operation_xyz
x,y,z
-x,-y,z
1/2-x,y,z
1/2+x,-y,z
x,1/2+y,1/2+z
-x,1/2-y,1/2+z
1/2-x,1/2+y,1/2+z
1/2+x,1/2-y,1/2+z
loop_
_atom_site_type_symbol
_atom_site_label
_atom_site_fract_x
_atom_site_fract_y
_atom_site_fract_z
Si Si1 0.078727 0.928587 0.683060
Si Si2 0.578386 0.069463 0.826962
Si Si3 0.568917 0.073311 0.261783
Si Si4 0.568392 0.922548 0.014499
Si Si5 0.931234 0.359120 0.643912
Si Si6 0.072247 0.675241 0.407840
Si Si7 0.931420 0.217237 0.317248
Si Si8 0.431878 0.720046 0.190400
O O1 0.250000 0.923001 0.655907
O O2 0.085167 0.936161 0.755068
O O3 0.986752 0.856943 0.666426
O O4 0.000000 0.000000 0.655472
O O5 0.750000 0.079411 0.853759
O O6 0.463856 0.131355 0.846699
O O7 0.500000 0.000000 0.855762
O O8 0.750000 0.067332 0.254733
O O9 0.499740 0.090667 0.195995
O O10 0.521124 0.134699 0.310095
O O11 0.500000 0.000000 0.287080
O O12 0.750000 0.928009 0.007010
O O13 0.519950 0.895870 0.080852
O O14 0.500000 0.000000 0.000712
O O15 0.497799 0.863523 0.966669
O O16 0.750000 0.354094 0.651362
O O17 0.001449 0.279960 0.645059
O O18 0.250000 0.680789 0.421551
O O19 0.009863 0.752888 0.383738
O O20 0.750000 0.225607 0.315079
O O21 0.995206 0.261620 0.258532
O O22 0.250000 0.722967 0.187637
#
# Coordination Sequence:
#
# PCOD8182637 Si02
#       8
#     8   8   8   8   8   8   8   8
#     4  10  19  29  43  66  97 130 162 199 241 292
#     4  10  19  28  40  62  90 125 162 195 232 276
#     4  10  19  32  50  75  98 126 158 197 249 303
#     4  10  22  35  50  70  97 132 172 207 245 286
#     4  10  20  34  50  71  97 129 166 210 249 293
#     4  10  18  32  49  66  92 128 164 204 241 285
#     4   8  16  29  47  68  93 121 156 195 241 296
#     4  10  18  31  50  72  95 127 164 205 253 301
#
# _framework density 17.812359000000001
#
# number of rings (size 3 to 8) (size 9 to 14) (size 15 to 20)
#    0.000    2.250    1.250    3.375    0.000    4.500 
#    0.000    0.625    0.000    0.000    0.000    0.875 
#    0.000    2.000    0.000    0.000    0.000    0.125 
#
# Total GULP energy -396469.276491 kJ/mol
# GULP energy per Si atom -12389.664890 kJ/mol
# Density = 1.777182 g / cm^3
# Si number density = 17.812359 Si / 1000 Ang^3
#
#
#
# Elastic Constant Matrix: (Units=GPa)
#
#
# Indices 1 2 3 4 5 6 
#
# 1 51.4724 30.0247 20.4970 0.0000 0.0000 0.0000
# 2 30.0247 151.2298 51.9721 0.0000 0.0000 0.0000
# 3 20.4970 51.9721 72.6809 0.0000 0.0000 0.0000
# 4 0.0000 0.0000 0.0000 29.7387 0.0000 0.0000
# 5 0.0000 0.0000 0.0000 0.0000 12.8266 0.0000
# 6 0.0000 0.0000 0.0000 0.0000 0.0000 31.6190
#
#
#
# Elastic Compliance Matrix: (Units=1/GPa)
#
#
# Indices 1 2 3 4 5 6 
#
# 1 0.022924 -0.003089 -0.004256 0.000000 0.000000 0.000000
# 2 -0.003089 0.009183 -0.005695 0.000000 0.000000 0.000000
# 3 -0.004256 -0.005695 0.019032 0.000000 0.000000 0.000000
# 4 0.000000 0.000000 0.000000 0.033626 0.000000 0.000000
# 5 0.000000 0.000000 0.000000 0.000000 0.077963 0.000000
# 6 0.000000 0.000000 0.000000 0.000000 0.000000 0.031627
#
#
# Mechanical properties :
#
#
# Convention : Reuss Voigt Hill
#
# Bulk Modulus (GPa) = 39.90698 53.37451 46.64075
# Shear Modulus (GPa) = 21.85422 26.36281 24.10852
#
# Velocity S-wave (km/s) = 3.50653 3.85129 3.68295
# Velocity P-wave (km/s) = 6.23274 7.05737 6.65784
#
# Compressibility (1/GPa) = 0.02505827
#
# Stress axis : x y z
#
# Youngs Moduli (GPa) = 43.62149 108.89728 52.54355
#
# Poissons Ratio (x) = 0.33634 0.22365
# Poissons Ratio (y) = 0.13473 0.29926
# Poissons Ratio (z) = 0.18567 0.62022
#
# Static dielectric constant tensor:
#      x y z
#    x 3.292560 0.000000 0.000000 
#    y 0.000000 3.591970 0.000000 
#    z 0.000000 0.000000 3.101620 
# 
# 
# High freq. dielectric constant tensor:
#      x y z
#    x 1.685070 0.000000 0.000000 
#    y 0.000000 1.698760 0.000000 
#    z 0.000000 0.000000 1.640540 
# 
# From -- ./inp_files/22546.got.cif
#   From: 2010.03.12/outbox.cif.g09.slc.cpg/sg40_12_cif.got.tgz:22546.got - 2010.04.14 01:38:03.
