data_PCOD8182285
_publ_section_title
;
Structure prediction by ZEFSAII (Michael W. Deem and Ramdas Pophale) SiO2 
 PCOD8182285
Probable space group: A B M 2
;
_chemical_formula_sum "Si O2"
_cell_formula_units_Z 48
_cell_length_a 14.162318
_cell_length_b 17.611623
_cell_length_c 8.691053
_cell_angle_alpha 90.000000
_cell_angle_beta 90.000000
_cell_angle_gamma 90.000000
_cell_volume 2167.734654
_symmetry_space_group_name_H-M "A B M 2"
_symmetry_group_IT_number 39
_symmetry_cell_setting 'orthorhombic'
loop_
_space_group_symop_operation_xyz
x,y,z
-x,-y,z
-x,1/2+y,z
x,1/2-y,z
x,1/2+y,1/2+z
-x,1/2-y,1/2+z
-x,y,1/2+z
x,-y,1/2+z
loop_
_atom_site_type_symbol
_atom_site_label
_atom_site_fract_x
_atom_site_fract_y
_atom_site_fract_z
Si Si1 0.227674 0.918257 0.627450
Si Si2 0.389557 0.837878 0.474645
Si Si3 0.892672 0.162253 0.043705
Si Si4 0.459816 0.082724 0.670200
Si Si5 0.027405 0.912528 0.753101
Si Si6 0.721425 0.928597 0.474154
O O1 0.282668 0.854121 0.530148
O O2 0.119319 0.893497 0.648931
O O3 0.280606 0.930196 0.789845
O O4 0.228196 0.995774 0.532886
O O5 0.401144 0.750000 0.435084
O O6 0.458609 0.860765 0.614021
O O7 0.410958 0.886828 0.323741
O O8 0.905635 0.250000 0.003520
O O9 0.939515 0.140995 0.206547
O O10 0.948527 0.108123 0.926834
O O11 0.781445 0.142808 0.039159
O O12 0.385136 0.077710 0.531475
O O13 0.500000 0.000000 0.707221
O O14 0.000000 0.000000 0.742910
#
# Coordination Sequence:
#
# PCOD8182285 Si02
#       6
#     8   8   8   8   8   8
#     4  11  24  42  70 100 135 183 232 282 340 410
#     4  12  27  45  69 105 142 179 227 288 350 407
#     4  11  25  42  67 103 140 178 227 287 346 399
#     4  12  25  45  74 101 136 184 232 281 342 419
#     4  11  23  43  71  97 137 182 234 279 336 413
#     4  11  24  43  69 100 136 180 234 283 342 408
#
# _framework density 22.142931000000001
#
# number of rings (size 3 to 8) (size 9 to 14) (size 15 to 20)
#    0.000    0.667    3.333    4.000    2.333    6.000 
#    0.000    0.000    0.000    0.000    0.000    0.000 
#    0.000    0.000    0.000    0.000    0.000    0.000 
#
# Total GULP energy -297745.582427 kJ/mol
# GULP energy per Si atom -12406.065934 kJ/mol
# Density = 2.209253 g / cm^3
# Si number density = 22.142931 Si / 1000 Ang^3
#
#
#
# Elastic Constant Matrix: (Units=GPa)
#
#
# Indices 1 2 3 4 5 6 
#
# 1 73.3914 43.4044 19.2977 0.0000 0.0000 0.0000
# 2 43.4044 138.1414 35.4391 0.0000 0.0000 0.0000
# 3 19.2977 35.4391 72.5874 0.0000 0.0000 0.0000
# 4 0.0000 0.0000 0.0000 20.6645 0.0000 0.0000
# 5 0.0000 0.0000 0.0000 0.0000 40.5407 0.0000
# 6 0.0000 0.0000 0.0000 0.0000 0.0000 35.2257
#
#
#
# Elastic Compliance Matrix: (Units=1/GPa)
#
#
# Indices 1 2 3 4 5 6 
#
# 1 0.017035 -0.004791 -0.002190 0.000000 0.000000 0.000000
# 2 -0.004791 0.009623 -0.003424 0.000000 0.000000 0.000000
# 3 -0.002190 -0.003424 0.016031 0.000000 0.000000 0.000000
# 4 0.000000 0.000000 0.000000 0.048392 0.000000 0.000000
# 5 0.000000 0.000000 0.000000 0.000000 0.024667 0.000000
# 6 0.000000 0.000000 0.000000 0.000000 0.000000 0.028388
#
#
# Mechanical properties :
#
#
# Convention : Reuss Voigt Hill
#
# Bulk Modulus (GPa) = 45.70775 53.37807 49.54291
# Shear Modulus (GPa) = 29.02973 31.68478 30.35725
#
# Velocity S-wave (km/s) = 3.62472 3.78685 3.70668
# Velocity P-wave (km/s) = 6.18103 6.57867 6.38294
#
# Compressibility (1/GPa) = 0.02187813
#
# Stress axis : x y z
#
# Youngs Moduli (GPa) = 58.70428 103.92130 62.38073
#
# Poissons Ratio (x) = 0.49784 0.13661
# Poissons Ratio (y) = 0.28122 0.21362
# Poissons Ratio (z) = 0.12855 0.35587
#
# Static dielectric constant tensor:
#      x y z
#    x 4.270690 0.000000 0.000000 
#    y 0.000000 3.797380 0.000000 
#    z 0.000000 0.000000 3.996130 
# 
# 
# High freq. dielectric constant tensor:
#      x y z
#    x 1.886020 0.000000 0.000000 
#    y 0.000000 1.861250 0.000000 
#    z 0.000000 0.000000 1.879960 
# 
# From -- ./inp_files/3226.got.cif
#   From: 2010.03.12/outbox.cif.g09.slc.cpg/sg39_2_cif.got.tgz:3226.got - 2010.04.14 02:53:20.
