data_PCOD8182219
_publ_section_title
;
Structure prediction by ZEFSAII (Michael W. Deem and Ramdas Pophale) SiO2 
 PCOD8182219
Probable space group: A B M 2
;
_chemical_formula_sum "Si O2"
_cell_formula_units_Z 28
_cell_length_a 4.844551
_cell_length_b 9.206526
_cell_length_c 25.339031
_cell_angle_alpha 90.000000
_cell_angle_beta 90.000000
_cell_angle_gamma 90.000000
_cell_volume 1130.158404
_symmetry_space_group_name_H-M "A B M 2"
_symmetry_group_IT_number 39
_symmetry_cell_setting 'orthorhombic'
loop_
_space_group_symop_operation_xyz
x,y,z
-x,-y,z
-x,1/2+y,z
x,1/2-y,z
x,1/2+y,1/2+z
-x,1/2-y,1/2+z
-x,y,1/2+z
x,-y,1/2+z
loop_
_atom_site_type_symbol
_atom_site_label
_atom_site_fract_x
_atom_site_fract_y
_atom_site_fract_z
Si Si1 0.000000 0.000000 0.831650
Si Si2 0.500000 0.500000 0.050372
Si Si3 0.878883 0.750000 0.403753
Si Si4 0.738644 0.750000 0.766371
Si Si5 0.000000 0.500000 0.617366
Si Si6 0.220618 0.250000 0.187810
Si Si7 0.383499 0.250000 0.976693
O O1 0.777192 0.900195 0.799656
O O2 0.180186 0.891412 0.867888
O O3 0.247843 0.574789 0.083526
O O4 0.336937 0.387097 0.013973
O O5 0.693327 0.750000 0.455254
O O6 0.190643 0.750000 0.425361
O O7 0.478328 0.750000 0.727601
O O8 0.981202 0.750000 0.727374
O O9 0.812004 0.390237 0.651180
#
# Coordination Sequence:
#
# PCOD8182219 Si02
#       7
#     4   4   4   4   4   4   4
#     4  10  25  45  70 100 140 184 234 293 355 418
#     4  12  24  42  68 100 138 182 232 288 352 418
#     4  11  24  43  68 100 138 182 231 288 351 418
#     4  11  26  45  70 101 138 183 237 292 351 420
#     4  12  25  45  70 100 140 184 234 293 353 418
#     4  12  26  46  70 101 138 183 238 292 352 420
#     4  12  24  42  68 100 138 180 232 286 346 420
#
# _framework density 24.775286999999999
#
# number of rings (size 3 to 8) (size 9 to 14) (size 15 to 20)
#    0.000    0.571    0.000    7.714    0.000   10.286 
#    0.000    1.429    0.000    0.000    0.000    0.000 
#    0.000    0.000    0.000    0.000    0.000    0.000 
#
# Total GULP energy -173453.714000 kJ/mol
# GULP energy per Si atom -12389.551000 kJ/mol
# Density = 2.471890 g / cm^3
# Si number density = 24.775287 Si / 1000 Ang^3
#
#
#
# Elastic Constant Matrix: (Units=GPa)
#
#
# Indices 1 2 3 4 5 6 
#
# 1 150.4439 39.1892 65.5910 0.0000 0.0000 0.0000
# 2 39.1892 169.9785 70.5059 0.0000 0.0000 0.0000
# 3 65.5910 70.5059 145.5450 0.0000 0.0000 0.0000
# 4 0.0000 0.0000 0.0000 34.3562 0.0000 0.0000
# 5 0.0000 0.0000 0.0000 0.0000 54.8092 0.0000
# 6 0.0000 0.0000 0.0000 0.0000 0.0000 25.7069
#
#
#
# Elastic Compliance Matrix: (Units=1/GPa)
#
#
# Indices 1 2 3 4 5 6 
#
# 1 0.008300 -0.000453 -0.003521 0.000000 0.000000 0.000000
# 2 -0.000453 0.007387 -0.003374 0.000000 0.000000 0.000000
# 3 -0.003521 -0.003374 0.010092 0.000000 0.000000 0.000000
# 4 0.000000 0.000000 0.000000 0.029107 0.000000 0.000000
# 5 0.000000 0.000000 0.000000 0.000000 0.018245 0.000000
# 6 0.000000 0.000000 0.000000 0.000000 0.000000 0.038900
#
#
# Mechanical properties :
#
#
# Convention : Reuss Voigt Hill
#
# Bulk Modulus (GPa) = 90.23255 90.72663 90.47959
# Shear Modulus (GPa) = 38.33688 42.35319 40.34503
#
# Velocity S-wave (km/s) = 3.93795 4.13909 4.03977
# Velocity P-wave (km/s) = 7.56148 7.71635 7.63931
#
# Compressibility (1/GPa) = 0.01108248
#
# Stress axis : x y z
#
# Youngs Moduli (GPa) = 120.47994 135.36864 99.08707
#
# Poissons Ratio (x) = 0.06134 0.34889
# Poissons Ratio (y) = 0.05459 0.33436
# Poissons Ratio (z) = 0.42421 0.45678
#
# Static dielectric constant tensor:
#      x y z
#    x 4.088840 0.000000 0.000000 
#    y 0.000000 4.626700 0.000000 
#    z 0.000000 0.000000 4.849200 
# 
# 
# High freq. dielectric constant tensor:
#      x y z
#    x 1.988350 0.000000 0.000000 
#    y 0.000000 1.983710 0.000000 
#    z 0.000000 0.000000 2.015110 
# 
# From -- ./inp_files/15103.got.cif
#   From: 2010.03.12/outbox.cif.g09.slc.cpg/sg39_8_cif.got.tgz:15103.got - 2010.04.14 02:53:20.
