data_PCOD8182437
_publ_section_title
;
Structure prediction by ZEFSAII (Michael W. Deem and Ramdas Pophale) SiO2 
 PCOD8182437
Probable space group: A M A 2
;
_chemical_formula_sum "Si O2"
_cell_formula_units_Z 64
_cell_length_a 8.932038
_cell_length_b 18.380350
_cell_length_c 26.275722
_cell_angle_alpha 90.000000
_cell_angle_beta 90.000000
_cell_angle_gamma 90.000000
_cell_volume 4313.789980
_symmetry_space_group_name_H-M "A M A 2"
_symmetry_group_IT_number 40
_symmetry_cell_setting 'orthorhombic'
loop_
_space_group_symop_operation_xyz
x,y,z
-x,-y,z
1/2-x,y,z
1/2+x,-y,z
x,1/2+y,1/2+z
-x,1/2-y,1/2+z
1/2-x,1/2+y,1/2+z
1/2+x,1/2-y,1/2+z
loop_
_atom_site_type_symbol
_atom_site_label
_atom_site_fract_x
_atom_site_fract_y
_atom_site_fract_z
Si Si1 0.073913 0.077087 0.105050
Si Si2 0.927442 0.423188 0.111140
Si Si3 0.084653 0.711656 0.052484
Si Si4 0.075163 0.162344 0.006713
Si Si5 0.584579 0.700124 0.656386
Si Si6 0.071748 0.076334 0.907574
Si Si7 0.928668 0.577598 0.302096
Si Si8 0.426681 0.658800 0.212312
O O1 0.250000 0.066690 0.104996
O O2 0.013286 0.108980 0.051136
O O3 0.028735 0.132501 0.150559
O O4 0.000000 0.000000 0.115479
O O5 0.750000 0.429759 0.109990
O O6 0.980863 0.368218 0.066077
O O7 0.978295 0.393257 0.166078
O O8 0.000000 0.500000 0.099661
O O9 0.250000 0.704663 0.028813
O O10 0.091732 0.754412 0.105023
O O11 0.985549 0.755492 0.011900
O O12 0.250000 0.166861 0.013595
O O13 0.029010 0.132926 0.951638
O O14 0.750000 0.669187 0.668810
O O15 0.533890 0.756702 0.700327
O O16 0.250000 0.067873 0.900534
O O17 0.995686 0.104380 0.855847
O O18 0.000000 0.000000 0.923753
O O19 0.750000 0.570371 0.305263
O O20 0.000000 0.500000 0.287208
O O21 0.975836 0.637203 0.260946
O O22 0.250000 0.649685 0.223023
#
# Coordination Sequence:
#
# PCOD8182437 Si02
#       8
#     8   8   8   8   8   8   8   8
#     4  10  18  27  40  60  85 110 139 171 203 241
#     4   9  17  27  40  60  83 109 139 168 200 239
#     4   8  15  27  41  57  79 106 135 166 200 240
#     4   9  18  29  42  60  80 106 139 172 205 242
#     4   8  15  28  43  58  79 107 136 167 203 242
#     4  10  19  31  44  59  81 107 138 173 207 241
#     4  11  21  31  43  60  82 108 140 174 208 242
#     4   9  17  30  45  60  81 109 140 171 206 245
#
# _framework density 14.836142000000001
#
# number of rings (size 3 to 8) (size 9 to 14) (size 15 to 20)
#    0.000    2.750    0.000    4.875    0.000    4.000 
#    0.000    2.500    0.000    0.000    0.000    0.000 
#    0.000    1.000    0.000    7.000    0.000    5.125 
#
# Total GULP energy -396640.712373 kJ/mol
# GULP energy per Si atom -12395.022262 kJ/mol
# Density = 1.480237 g / cm^3
# Si number density = 14.836142 Si / 1000 Ang^3
#
#
#
# Elastic Constant Matrix: (Units=GPa)
#
#
# Indices 1 2 3 4 5 6 
#
# 1 61.6272 42.5812 38.9441 0.0000 0.0000 0.0000
# 2 42.5812 110.7502 54.7898 0.0000 0.0000 0.0000
# 3 38.9441 54.7898 79.2272 0.0000 0.0000 0.0000
# 4 0.0000 0.0000 0.0000 26.1816 0.0000 0.0000
# 5 0.0000 0.0000 0.0000 0.0000 20.1429 0.0000
# 6 0.0000 0.0000 0.0000 0.0000 0.0000 27.4408
#
#
#
# Elastic Compliance Matrix: (Units=1/GPa)
#
#
# Indices 1 2 3 4 5 6 
#
# 1 0.025560 -0.005490 -0.008768 0.000000 0.000000 0.000000
# 2 -0.005490 0.014904 -0.007608 0.000000 0.000000 0.000000
# 3 -0.008768 -0.007608 0.022193 0.000000 0.000000 0.000000
# 4 0.000000 0.000000 0.000000 0.038195 0.000000 0.000000
# 5 0.000000 0.000000 0.000000 0.000000 0.049645 0.000000
# 6 0.000000 0.000000 0.000000 0.000000 0.000000 0.036442
#
#
# Mechanical properties :
#
#
# Convention : Reuss Voigt Hill
#
# Bulk Modulus (GPa) = 52.83787 58.24833 55.54310
# Shear Modulus (GPa) = 21.09878 22.43900 21.76889
#
# Velocity S-wave (km/s) = 3.77519 3.89325 3.83467
# Velocity P-wave (km/s) = 7.39556 7.71727 7.55813
#
# Compressibility (1/GPa) = 0.01892582
#
# Stress axis : x y z
#
# Youngs Moduli (GPa) = 39.12299 67.09558 45.05880
#
# Poissons Ratio (x) = 0.36836 0.39506
# Poissons Ratio (y) = 0.21479 0.34282
# Poissons Ratio (z) = 0.34301 0.51049
#
# Static dielectric constant tensor:
#      x y z
#    x 2.940070 0.000000 0.000000 
#    y 0.000000 3.038300 0.000000 
#    z 0.000000 0.000000 2.750670 
# 
# 
# High freq. dielectric constant tensor:
#      x y z
#    x 1.572510 0.000000 0.000000 
#    y 0.000000 1.557390 0.000000 
#    z 0.000000 0.000000 1.535070 
# 
# From -- ./inp_files/25529.got.cif
#   From: 2010.03.12/outbox.cif.g09.slc.cpg/sg40_13_cif.got.tgz:25529.got - 2010.04.14 01:38:03.
