data_PCOD8182944
_publ_section_title
;
Structure prediction by ZEFSAII (Michael W. Deem and Ramdas Pophale) SiO2 
 PCOD8182944
Probable space group: A M A 2
;
_chemical_formula_sum "Si O2"
_cell_formula_units_Z 64
_cell_length_a 19.543774
_cell_length_b 18.425172
_cell_length_c 10.114049
_cell_angle_alpha 90.000000
_cell_angle_beta 90.000000
_cell_angle_gamma 90.000000
_cell_volume 3642.042723
_symmetry_space_group_name_H-M "A M A 2"
_symmetry_group_IT_number 40
_symmetry_cell_setting 'orthorhombic'
loop_
_space_group_symop_operation_xyz
x,y,z
-x,-y,z
1/2-x,y,z
1/2+x,-y,z
x,1/2+y,1/2+z
-x,1/2-y,1/2+z
1/2-x,1/2+y,1/2+z
1/2+x,1/2-y,1/2+z
loop_
_atom_site_type_symbol
_atom_site_label
_atom_site_fract_x
_atom_site_fract_y
_atom_site_fract_z
Si Si1 0.469862 0.417609 0.295690
Si Si2 0.950973 0.650231 0.573292
Si Si3 0.992726 0.607504 0.844620
Si Si4 0.173215 0.477039 0.310818
Si Si5 0.884027 0.000006 0.365444
Si Si6 0.826902 0.550086 0.603187
Si Si7 0.454891 0.680770 0.077781
Si Si8 0.825767 0.413067 0.089934
O O1 0.500000 0.500000 0.297821
O O2 0.482972 0.376357 0.434750
O O3 0.387749 0.421775 0.268958
O O4 0.503900 0.368104 0.183515
O O5 0.873913 0.621330 0.591713
O O6 0.951021 0.734962 0.606433
O O7 0.999213 0.618953 0.688152
O O8 0.051505 0.551648 0.879702
O O9 0.916357 0.580079 0.884327
O O10 0.007225 0.677192 0.935622
O O11 0.250000 0.444867 0.280249
O O12 0.166659 0.495194 0.466804
O O13 0.162764 0.552602 0.234572
O O14 0.847652 0.996229 0.222446
O O15 0.832456 0.978187 0.482054
O O16 0.750000 0.578239 0.626363
O O17 0.377421 0.652524 0.067680
O O18 0.750000 0.380048 0.077144
#
# Coordination Sequence:
#
# PCOD8182944 Si02
#       8
#     8   8   8   8   8   8   8   8
#     4  11  21  34  59  83 105 138 187 222 260 318
#     4  10  22  34  51  76 108 139 170 216 267 316
#     4   9  19  31  49  72 101 130 166 212 266 310
#     4   9  18  32  50  79 106 131 171 224 266 303
#     4   9  17  29  50  72  96 125 166 217 258 303
#     4   9  18  32  50  72 101 134 171 210 259 314
#     4  11  21  35  51  76 109 140 173 216 268 314
#     4  10  19  31  49  74 103 134 170 213 263 312
#
# _framework density 17.572555999999999
#
# number of rings (size 3 to 8) (size 9 to 14) (size 15 to 20)
#    0.000    2.250    1.250    1.875    7.000    0.500 
#    0.000    0.000    0.000    0.000    0.000    1.750 
#    0.000    1.250    0.000    0.000    0.000    0.000 
#
# Total GULP energy -396483.447440 kJ/mol
# GULP energy per Si atom -12390.107732 kJ/mol
# Density = 1.753256 g / cm^3
# Si number density = 17.572556 Si / 1000 Ang^3
#
#
#
# Elastic Constant Matrix: (Units=GPa)
#
#
# Indices 1 2 3 4 5 6 
#
# 1 77.6175 14.7294 29.5041 0.0000 0.0000 0.0000
# 2 14.7294 68.7533 22.5826 0.0000 0.0000 0.0000
# 3 29.5041 22.5826 84.9947 0.0000 0.0000 0.0000
# 4 0.0000 0.0000 0.0000 20.2908 0.0000 0.0000
# 5 0.0000 0.0000 0.0000 0.0000 25.0329 0.0000
# 6 0.0000 0.0000 0.0000 0.0000 0.0000 11.1216
#
#
#
# Elastic Compliance Matrix: (Units=1/GPa)
#
#
# Indices 1 2 3 4 5 6 
#
# 1 0.015011 -0.001648 -0.004773 0.000000 0.000000 0.000000
# 2 -0.001648 0.016116 -0.003710 0.000000 0.000000 0.000000
# 3 -0.004773 -0.003710 0.014408 0.000000 0.000000 0.000000
# 4 0.000000 0.000000 0.000000 0.049284 0.000000 0.000000
# 5 0.000000 0.000000 0.000000 0.000000 0.039947 0.000000
# 6 0.000000 0.000000 0.000000 0.000000 0.000000 0.089915
#
#
# Mechanical properties :
#
#
# Convention : Reuss Voigt Hill
#
# Bulk Modulus (GPa) = 39.56736 40.55530 40.06133
# Shear Modulus (GPa) = 19.73423 22.25903 20.99663
#
# Velocity S-wave (km/s) = 3.35478 3.56292 3.46042
# Velocity P-wave (km/s) = 6.12956 6.32888 6.23002
#
# Compressibility (1/GPa) = 0.02527335
#
# Stress axis : x y z
#
# Youngs Moduli (GPa) = 66.61926 62.04857 69.40642
#
# Poissons Ratio (x) = 0.10227 0.33126
# Poissons Ratio (y) = 0.10980 0.25749
# Poissons Ratio (z) = 0.31795 0.23019
#
# Static dielectric constant tensor:
#      x y z
#    x 3.504430 0.000000 0.000000 
#    y 0.000000 2.972890 0.000000 
#    z 0.000000 0.000000 3.550660 
# 
# 
# High freq. dielectric constant tensor:
#      x y z
#    x 1.686550 0.000000 0.000000 
#    y 0.000000 1.639490 0.000000 
#    z 0.000000 0.000000 1.697050 
# 
# From -- ./inp_files/8478.got.cif
#   From: 2010.03.12/outbox.cif.g09.slc.cpg/sg40_5_cif.got.tgz:8478.got - 2010.04.14 01:38:03.
