data_PCOD8182969
_publ_section_title
;
Structure prediction by ZEFSAII (Michael W. Deem and Ramdas Pophale) SiO2 
 PCOD8182969
Probable space group: A M A 2
;
_chemical_formula_sum "Si O2"
_cell_formula_units_Z 64
_cell_length_a 18.028782
_cell_length_b 18.341452
_cell_length_c 11.180372
_cell_angle_alpha 90.000000
_cell_angle_beta 90.000000
_cell_angle_gamma 90.000000
_cell_volume 3697.058774
_symmetry_space_group_name_H-M "A M A 2"
_symmetry_group_IT_number 40
_symmetry_cell_setting 'orthorhombic'
loop_
_space_group_symop_operation_xyz
x,y,z
-x,-y,z
1/2-x,y,z
1/2+x,-y,z
x,1/2+y,1/2+z
-x,1/2-y,1/2+z
1/2-x,1/2+y,1/2+z
1/2+x,1/2-y,1/2+z
loop_
_atom_site_type_symbol
_atom_site_label
_atom_site_fract_x
_atom_site_fract_y
_atom_site_fract_z
Si Si1 0.071159 0.045661 0.869440
Si Si2 0.330289 0.602814 0.186123
Si Si3 0.167158 0.247623 0.822308
Si Si4 0.085275 0.308976 0.595417
Si Si5 0.924747 0.314810 0.513511
Si Si6 0.337877 0.607127 0.718222
Si Si7 0.086605 0.480282 0.604987
Si Si8 0.837969 0.311282 0.958534
O O1 0.116912 0.042961 0.745685
O O2 0.047800 0.126542 0.914237
O O3 0.117444 0.008597 0.977290
O O4 0.000000 0.000000 0.836141
O O5 0.250000 0.567712 0.157566
O O6 0.320443 0.663999 0.287523
O O7 0.364932 0.635148 0.064695
O O8 0.250000 0.283391 0.837338
O O9 0.118362 0.284654 0.720912
O O10 0.119120 0.250649 0.945582
O O11 0.100272 0.394828 0.602472
O O12 0.126002 0.268446 0.483648
O O13 0.998079 0.288636 0.584503
O O14 0.866079 0.347868 0.605523
O O15 0.250000 0.601316 0.716989
O O16 0.371049 0.524320 0.711439
O O17 0.364884 0.651026 0.836131
O O18 0.000000 0.500000 0.614868
O O19 0.750000 0.300144 0.963068
#
# Coordination Sequence:
#
# PCOD8182969 Si02
#       8
#     8   8   8   8   8   8   8   8
#     4   9  15  29  47  70 106 131 163 220 263 306
#     4   8  15  30  50  70  95 133 177 217 259 316
#     4   9  19  33  50  77 108 138 181 234 278 334
#     4  11  19  32  57  79 110 142 181 233 285 323
#     4  10  19  31  53  77 103 141 180 226 274 331
#     4  10  20  35  56  77 106 145 181 220 279 341
#     4  10  19  34  50  79 111 140 173 227 279 330
#     4   9  20  36  53  77 106 137 182 231 272 329
#
# _framework density 17.311057999999999
#
# number of rings (size 3 to 8) (size 9 to 14) (size 15 to 20)
#    0.000    2.500    3.750    1.500    1.750    4.000 
#    0.000    0.625    0.000    1.500    0.000    3.500 
#    0.000    0.000    0.000    0.000    0.000    0.000 
#
# Total GULP energy -396437.895583 kJ/mol
# GULP energy per Si atom -12388.684237 kJ/mol
# Density = 1.727166 g / cm^3
# Si number density = 17.311058 Si / 1000 Ang^3
#
#
#
# Elastic Constant Matrix: (Units=GPa)
#
#
# Indices 1 2 3 4 5 6 
#
# 1 94.6389 48.4301 49.3489 0.0000 0.0000 0.0000
# 2 48.4301 87.6003 56.5834 0.0000 0.0000 0.0000
# 3 49.3489 56.5834 89.7353 0.0000 0.0000 0.0000
# 4 0.0000 0.0000 0.0000 25.8787 0.0000 0.0000
# 5 0.0000 0.0000 0.0000 0.0000 17.1199 0.0000
# 6 0.0000 0.0000 0.0000 0.0000 0.0000 26.5748
#
#
#
# Elastic Compliance Matrix: (Units=1/GPa)
#
#
# Indices 1 2 3 4 5 6 
#
# 1 0.016200 -0.005402 -0.005503 0.000000 0.000000 0.000000
# 2 -0.005402 0.021061 -0.010310 0.000000 0.000000 0.000000
# 3 -0.005503 -0.010310 0.020671 0.000000 0.000000 0.000000
# 4 0.000000 0.000000 0.000000 0.038642 0.000000 0.000000
# 5 0.000000 0.000000 0.000000 0.000000 0.058412 0.000000
# 6 0.000000 0.000000 0.000000 0.000000 0.000000 0.037630
#
#
# Mechanical properties :
#
#
# Convention : Reuss Voigt Hill
#
# Bulk Modulus (GPa) = 64.50128 64.52214 64.51171
# Shear Modulus (GPa) = 20.81490 21.75547 21.28518
#
# Velocity S-wave (km/s) = 3.47133 3.54890 3.51033
# Velocity P-wave (km/s) = 7.30807 7.35840 7.33328
#
# Compressibility (1/GPa) = 0.01550357
#
# Stress axis : x y z
#
# Youngs Moduli (GPa) = 61.72721 47.48067 48.37690
#
# Poissons Ratio (x) = 0.25648 0.26622
# Poissons Ratio (y) = 0.33344 0.49875
# Poissons Ratio (z) = 0.33968 0.48951
#
# Static dielectric constant tensor:
#      x y z
#    x 3.385650 0.000000 0.000000 
#    y 0.000000 3.123640 0.000000 
#    z 0.000000 0.000000 3.301060 
# 
# 
# High freq. dielectric constant tensor:
#      x y z
#    x 1.671580 0.000000 0.000000 
#    y 0.000000 1.638490 0.000000 
#    z 0.000000 0.000000 1.661650 
# 
# From -- ./inp_files/13250.got.cif
#   From: 2010.03.12/outbox.cif.g09.slc.cpg/sg40_7_cif.got.tgz:13250.got - 2010.04.14 01:38:03.
