data_PCOD8182004
_publ_section_title
;
Structure prediction by ZEFSAII (Michael W. Deem and Ramdas Pophale) SiO2 
 PCOD8182004
Probable space group: A B M 2
;
_chemical_formula_sum "Si O2"
_cell_formula_units_Z 64
_cell_length_a 11.053658
_cell_length_b 18.207025
_cell_length_c 14.899610
_cell_angle_alpha 90.000000
_cell_angle_beta 90.000000
_cell_angle_gamma 90.000000
_cell_volume 2998.609501
_symmetry_space_group_name_H-M "A B M 2"
_symmetry_group_IT_number 39
_symmetry_cell_setting 'orthorhombic'
loop_
_space_group_symop_operation_xyz
x,y,z
-x,-y,z
-x,1/2+y,z
x,1/2-y,z
x,1/2+y,1/2+z
-x,1/2-y,1/2+z
-x,y,1/2+z
x,-y,1/2+z
loop_
_atom_site_type_symbol
_atom_site_label
_atom_site_fract_x
_atom_site_fract_y
_atom_site_fract_z
Si Si1 0.563796 0.421307 0.738340
Si Si2 0.993748 0.663696 0.588766
Si Si3 0.743164 0.667511 0.835366
Si Si4 0.148830 0.578579 0.723195
Si Si5 0.017584 0.664751 0.883433
Si Si6 0.432832 0.571787 0.065707
Si Si7 0.793885 0.574600 0.677621
Si Si8 0.498832 0.832831 0.908227
O O1 0.500000 0.500000 0.758695
O O2 0.707443 0.427163 0.732031
O O3 0.512145 0.391273 0.644268
O O4 0.537765 0.360802 0.811384
O O5 0.018349 0.750000 0.594934
O O6 0.962584 0.640027 0.486597
O O7 0.878234 0.641974 0.647630
O O8 0.109619 0.623625 0.634091
O O9 0.730370 0.750000 0.796224
O O10 0.714030 0.607235 0.759166
O O11 0.644924 0.657436 0.915713
O O12 0.875589 0.653192 0.872404
O O13 0.090617 0.612927 0.814052
O O14 0.116959 0.491973 0.708045
O O15 0.055425 0.750000 0.867440
O O16 0.500000 0.500000 0.028840
O O17 0.298531 0.550350 0.099453
O O18 0.422359 0.626915 0.983858
O O19 0.456127 0.750000 0.916177
#
# Coordination Sequence:
#
# PCOD8182004 Si02
#       8
#     8   8   8   8   8   8   8   8
#     4  11  23  47  68  96 137 183 226 289 352 401
#     4  11  26  46  68 101 141 179 228 287 350 414
#     4  10  21  42  67  93 134 182 224 278 344 405
#     4  12  24  44  71 100 134 179 237 279 341 422
#     4  10  24  45  68  96 135 184 227 280 349 405
#     4  11  24  45  69  95 138 184 224 283 349 411
#     4  12  23  44  70  97 136 179 231 283 348 412
#     4  11  25  41  67 105 134 177 238 284 341 418
#
# _framework density 21.343226000000001
#
# number of rings (size 3 to 8) (size 9 to 14) (size 15 to 20)
#    0.000    1.000    5.000    1.500    3.500    2.500 
#    4.500    0.000    0.000    0.000    0.000    0.000 
#    0.000    0.000    0.000    0.000    0.000    0.000 
#
# Total GULP energy -396666.098481 kJ/mol
# GULP energy per Si atom -12395.815578 kJ/mol
# Density = 2.129465 g / cm^3
# Si number density = 21.343226 Si / 1000 Ang^3
#
#
#
# Elastic Constant Matrix: (Units=GPa)
#
#
# Indices 1 2 3 4 5 6 
#
# 1 85.9121 25.8682 17.1867 0.0000 0.0000 0.0000
# 2 25.8682 118.6046 64.3119 0.0000 0.0000 0.0000
# 3 17.1867 64.3119 119.8878 0.0000 0.0000 0.0000
# 4 0.0000 0.0000 0.0000 197.3316 0.0000 0.0000
# 5 0.0000 0.0000 0.0000 0.0000 12.9456 0.0000
# 6 0.0000 0.0000 0.0000 0.0000 0.0000 30.6837
#
#
#
# Elastic Compliance Matrix: (Units=1/GPa)
#
#
# Indices 1 2 3 4 5 6 
#
# 1 0.012476 -0.002470 -0.000464 0.000000 0.000000 0.000000
# 2 -0.002470 0.012379 -0.006286 0.000000 0.000000 0.000000
# 3 -0.000464 -0.006286 0.011780 0.000000 0.000000 0.000000
# 4 0.000000 0.000000 0.000000 0.005068 0.000000 0.000000
# 5 0.000000 0.000000 0.000000 0.000000 0.077246 0.000000
# 6 0.000000 0.000000 0.000000 0.000000 0.000000 0.032591
#
#
# Mechanical properties :
#
#
# Convention : Reuss Voigt Hill
#
# Bulk Modulus (GPa) = 54.95929 59.90422 57.43176
# Shear Modulus (GPa) = 28.40206 62.66137 45.53171
#
# Velocity S-wave (km/s) = 3.65187 5.42426 4.62379
# Velocity P-wave (km/s) = 6.60210 8.20720 7.44802
#
# Compressibility (1/GPa) = 0.01819528
#
# Stress axis : x y z
#
# Youngs Moduli (GPa) = 80.15266 80.78387 84.89101
#
# Poissons Ratio (x) = 0.19951 0.03937
# Poissons Ratio (y) = 0.19795 0.53365
# Poissons Ratio (z) = 0.03717 0.50783
#
# Static dielectric constant tensor:
#      x y z
#    x 4.075210 0.000000 0.000000 
#    y 0.000000 4.015100 0.000000 
#    z 0.000000 0.000000 3.947710 
# 
# 
# High freq. dielectric constant tensor:
#      x y z
#    x 1.849530 0.000000 0.000000 
#    y 0.000000 1.838800 0.000000 
#    z 0.000000 0.000000 1.832510 
# 
# From -- ./inp_files/9453.got.cif
#   From: 2010.03.12/outbox.cif.g09.slc.cpg/sg39_5_cif.got.tgz:9453.got - 2010.04.14 02:53:20.
