data_PCOD8182213
_publ_section_title
;
Structure prediction by ZEFSAII (Michael W. Deem and Ramdas Pophale) SiO2 
 PCOD8182213
Probable space group: A B M 2
;
_chemical_formula_sum "Si O2"
_cell_formula_units_Z 40
_cell_length_a 13.822310
_cell_length_b 15.716112
_cell_length_c 8.727441
_cell_angle_alpha 90.000000
_cell_angle_beta 90.000000
_cell_angle_gamma 90.000000
_cell_volume 1895.887947
_symmetry_space_group_name_H-M "A B M 2"
_symmetry_group_IT_number 39
_symmetry_cell_setting 'orthorhombic'
loop_
_space_group_symop_operation_xyz
x,y,z
-x,-y,z
-x,1/2+y,z
x,1/2-y,z
x,1/2+y,1/2+z
-x,1/2-y,1/2+z
-x,y,1/2+z
x,-y,1/2+z
loop_
_atom_site_type_symbol
_atom_site_label
_atom_site_fract_x
_atom_site_fract_y
_atom_site_fract_z
Si Si1 0.416539 0.250000 0.747781
Si Si2 0.730184 0.580666 0.419358
Si Si3 0.709410 0.908548 0.779963
Si Si4 0.062255 0.415597 0.275673
Si Si5 0.622507 0.750000 0.390013
Si Si6 0.897166 0.845257 0.948296
O O1 0.367285 0.165553 0.818909
O O2 0.406806 0.250000 0.566263
O O3 0.528847 0.250000 0.784520
O O4 0.721258 0.579776 0.600321
O O5 0.673989 0.498079 0.352202
O O6 0.841990 0.576125 0.375875
O O7 0.684382 0.666320 0.348630
O O8 0.812988 0.885532 0.847704
O O9 0.000000 0.500000 0.291873
O O10 0.995444 0.341703 0.347790
O O11 0.089391 0.400261 0.100476
O O12 0.869050 0.750000 0.995535
#
# Coordination Sequence:
#
# PCOD8182213 Si02
#       6
#     4   8   8   8   4   8
#     4  10  24  48  73 100 133 174 227 288 346 410
#     4  11  25  44  67 100 136 182 223 283 338 406
#     4  11  23  45  68  98 137 177 228 279 342 403
#     4  12  25  41  62  94 135 180 229 268 332 396
#     4  10  26  46  73 100 135 174 227 286 346 412
#     4  12  25  40  62  96 131 183 222 277 326 398
#
# _framework density 21.098293000000002
#
# number of rings (size 3 to 8) (size 9 to 14) (size 15 to 20)
#    0.000    0.800    3.000    3.600    2.800    4.000 
#    0.000    4.000    0.000    0.000    0.000    0.000 
#    0.000    0.000    0.000    0.000    0.000    0.000 
#
# Total GULP energy -248089.517137 kJ/mol
# GULP energy per Si atom -12404.475857 kJ/mol
# Density = 2.105027 g / cm^3
# Si number density = 21.098293 Si / 1000 Ang^3
#
#
#
# Elastic Constant Matrix: (Units=GPa)
#
#
# Indices 1 2 3 4 5 6 
#
# 1 106.1718 77.6332 34.6679 0.0000 0.0000 0.0000
# 2 77.6332 185.4629 42.3360 0.0000 0.0000 0.0000
# 3 34.6679 42.3360 82.4327 0.0000 0.0000 0.0000
# 4 0.0000 0.0000 0.0000 33.8295 0.0000 0.0000
# 5 0.0000 0.0000 0.0000 0.0000 36.2031 0.0000
# 6 0.0000 0.0000 0.0000 0.0000 0.0000 23.7769
#
#
#
# Elastic Compliance Matrix: (Units=1/GPa)
#
#
# Indices 1 2 3 4 5 6 
#
# 1 0.014341 -0.005241 -0.003340 0.000000 0.000000 0.000000
# 2 -0.005241 0.008023 -0.001916 0.000000 0.000000 0.000000
# 3 -0.003340 -0.001916 0.014520 0.000000 0.000000 0.000000
# 4 0.000000 0.000000 0.000000 0.029560 0.000000 0.000000
# 5 0.000000 0.000000 0.000000 0.000000 0.027622 0.000000
# 6 0.000000 0.000000 0.000000 0.000000 0.000000 0.042058
#
#
# Mechanical properties :
#
#
# Convention : Reuss Voigt Hill
#
# Bulk Modulus (GPa) = 62.93153 75.92686 69.42920
# Shear Modulus (GPa) = 30.78536 33.39059 32.08797
#
# Velocity S-wave (km/s) = 3.82401 3.98253 3.90408
# Velocity P-wave (km/s) = 7.02780 7.56391 7.30078
#
# Compressibility (1/GPa) = 0.01589028
#
# Stress axis : x y z
#
# Youngs Moduli (GPa) = 69.72874 124.63961 68.87065
#
# Poissons Ratio (x) = 0.65321 0.23001
# Poissons Ratio (y) = 0.36543 0.13199
# Poissons Ratio (z) = 0.23288 0.23887
#
# Static dielectric constant tensor:
#      x y z
#    x 3.830320 0.000000 0.000000 
#    y 0.000000 4.457630 0.000000 
#    z 0.000000 0.000000 3.755090 
# 
# 
# High freq. dielectric constant tensor:
#      x y z
#    x 1.817690 0.000000 0.000000 
#    y 0.000000 1.849590 0.000000 
#    z 0.000000 0.000000 1.833780 
# 
# From -- ./inp_files/2547.got.cif
#   From: 2010.03.12/outbox.cif.g09.slc.cpg/sg39_2_cif.got.tgz:2547.got - 2010.04.14 02:53:20.
