data_PCOD8182719
_publ_section_title
;
Structure prediction by ZEFSAII (Michael W. Deem and Ramdas Pophale) SiO2 
 PCOD8182719
Probable space group: A M A 2
;
_chemical_formula_sum "Si O2"
_cell_formula_units_Z 64
_cell_length_a 16.118392
_cell_length_b 16.515507
_cell_length_c 12.148611
_cell_angle_alpha 90.000000
_cell_angle_beta 90.000000
_cell_angle_gamma 90.000000
_cell_volume 3234.001747
_symmetry_space_group_name_H-M "A M A 2"
_symmetry_group_IT_number 40
_symmetry_cell_setting 'orthorhombic'
loop_
_space_group_symop_operation_xyz
x,y,z
-x,-y,z
1/2-x,y,z
1/2+x,-y,z
x,1/2+y,1/2+z
-x,1/2-y,1/2+z
1/2-x,1/2+y,1/2+z
1/2+x,1/2-y,1/2+z
loop_
_atom_site_type_symbol
_atom_site_label
_atom_site_fract_x
_atom_site_fract_y
_atom_site_fract_z
Si Si1 0.092494 0.820091 0.612600
Si Si2 0.154328 0.733173 0.818476
Si Si3 0.348382 0.756500 0.387033
Si Si4 0.344268 0.794142 0.040778
Si Si5 0.345621 0.057199 0.335903
Si Si6 0.095381 0.002114 0.565514
Si Si7 0.906060 0.840128 0.689378
Si Si8 0.651496 0.099229 0.227249
O O1 0.148828 0.782946 0.707732
O O2 0.106628 0.764683 0.504929
O O3 0.998392 0.815273 0.652779
O O4 0.124765 0.911998 0.597051
O O5 0.250000 0.718815 0.849866
O O6 0.111810 0.643963 0.809760
O O7 0.111932 0.780788 0.921930
O O8 0.250000 0.743203 0.402591
O O9 0.387251 0.681029 0.317488
O O10 0.370626 0.838883 0.324368
O O11 0.250000 0.819463 0.020515
O O12 0.344833 0.711718 0.112481
O O13 0.386698 0.866906 0.111912
O O14 0.250000 0.060557 0.303140
O O15 0.352050 0.034719 0.463758
O O16 0.387734 0.987720 0.259355
O O17 0.108310 0.063857 0.668470
O O18 0.000000 0.000000 0.528611
O O19 0.750000 0.094238 0.217069
#
# Coordination Sequence:
#
# PCOD8182719 Si02
#       8
#     8   8   8   8   8   8   8   8
#     4  11  23  36  57  83 120 147 186 239 296 342
#     4  10  21  35  54  81 114 148 181 230 289 342
#     4  10  20  36  57  84 116 152 193 237 288 350
#     4   9  17  33  55  79 108 140 186 229 271 335
#     4  10  18  32  56  81 109 142 183 234 283 330
#     4  10  21  36  53  82 112 147 189 239 282 337
#     4  10  21  35  58  81 112 151 195 232 283 345
#     4   8  15  29  52  80 104 136 179 226 272 324
#
# _framework density 19.789722999999999
#
# number of rings (size 3 to 8) (size 9 to 14) (size 15 to 20)
#    0.000    2.250    2.500    1.500    1.750    1.000 
#    0.000    1.250    0.000    1.500    0.000    0.000 
#    0.000    0.000    0.000    0.000    0.000    0.000 
#
# Total GULP energy -396567.151510 kJ/mol
# GULP energy per Si atom -12392.723485 kJ/mol
# Density = 1.974468 g / cm^3
# Si number density = 19.789723 Si / 1000 Ang^3
#
#
#
# Elastic Constant Matrix: (Units=GPa)
#
#
# Indices 1 2 3 4 5 6 
#
# 1 29.3935 13.0652 13.9284 0.0000 0.0000 0.0000
# 2 13.0652 130.3465 78.1974 0.0000 0.0000 0.0000
# 3 13.9284 78.1974 149.5206 0.0000 0.0000 0.0000
# 4 0.0000 0.0000 0.0000 36.7597 0.0000 0.0000
# 5 0.0000 0.0000 0.0000 0.0000 22.8558 0.0000
# 6 0.0000 0.0000 0.0000 0.0000 0.0000 15.8958
#
#
#
# Elastic Compliance Matrix: (Units=1/GPa)
#
#
# Indices 1 2 3 4 5 6 
#
# 1 0.036072 -0.002331 -0.002141 0.000000 0.000000 0.000000
# 2 -0.002331 0.011330 -0.005708 0.000000 0.000000 0.000000
# 3 -0.002141 -0.005708 0.009873 0.000000 0.000000 0.000000
# 4 0.000000 0.000000 0.000000 0.027204 0.000000 0.000000
# 5 0.000000 0.000000 0.000000 0.000000 0.043753 0.000000
# 6 0.000000 0.000000 0.000000 0.000000 0.000000 0.062910
#
#
# Mechanical properties :
#
#
# Convention : Reuss Voigt Hill
#
# Bulk Modulus (GPa) = 27.09024 57.73809 42.41417
# Shear Modulus (GPa) = 22.34072 28.70690 25.52381
#
# Velocity S-wave (km/s) = 3.36356 3.81280 3.59521
# Velocity P-wave (km/s) = 5.36689 6.97298 6.22197
#
# Compressibility (1/GPa) = 0.03691367
#
# Stress axis : x y z
#
# Youngs Moduli (GPa) = 27.72244 88.26082 101.28770
#
# Poissons Ratio (x) = 0.20575 0.21686
# Poissons Ratio (y) = 0.06463 0.57818
# Poissons Ratio (z) = 0.05935 0.50382
#
# Static dielectric constant tensor:
#      x y z
#    x 3.282660 0.000000 0.000000 
#    y 0.000000 3.948200 0.000000 
#    z 0.000000 0.000000 3.679540 
# 
# 
# High freq. dielectric constant tensor:
#      x y z
#    x 1.745310 0.000000 0.000000 
#    y 0.000000 1.766400 0.000000 
#    z 0.000000 0.000000 1.763880 
# 
# From -- ./inp_files/13236.got.cif
#   From: 2010.03.12/outbox.cif.g09.slc.cpg/sg40_7_cif.got.tgz:13236.got - 2010.04.14 01:38:03.
