data_PCOD8182694
_publ_section_title
;
Structure prediction by ZEFSAII (Michael W. Deem and Ramdas Pophale) SiO2 
 PCOD8182694
Probable space group: A M A 2
;
_chemical_formula_sum "Si O2"
_cell_formula_units_Z 64
_cell_length_a 18.088242
_cell_length_b 20.492623
_cell_length_c 9.660189
_cell_angle_alpha 90.000000
_cell_angle_beta 90.000000
_cell_angle_gamma 90.000000
_cell_volume 3580.795620
_symmetry_space_group_name_H-M "A M A 2"
_symmetry_group_IT_number 40
_symmetry_cell_setting 'orthorhombic'
loop_
_space_group_symop_operation_xyz
x,y,z
-x,-y,z
1/2-x,y,z
1/2+x,-y,z
x,1/2+y,1/2+z
-x,1/2-y,1/2+z
1/2-x,1/2+y,1/2+z
1/2+x,1/2-y,1/2+z
loop_
_atom_site_type_symbol
_atom_site_label
_atom_site_fract_x
_atom_site_fract_y
_atom_site_fract_z
Si Si1 0.838010 0.598226 0.480290
Si Si2 0.836229 0.454336 0.471440
Si Si3 0.945064 0.728924 0.769207
Si Si4 0.334903 0.657781 0.280181
Si Si5 0.578736 0.223325 0.947847
Si Si6 0.071004 0.911638 0.250265
Si Si7 0.666019 0.851167 0.464434
Si Si8 0.908984 0.447084 0.759464
O O1 0.750000 0.610355 0.476389
O O2 0.860331 0.526879 0.419979
O O3 0.882129 0.655515 0.401442
O O4 0.866184 0.600320 0.637005
O O5 0.750000 0.448196 0.450278
O O6 0.872309 0.397794 0.377099
O O7 0.853121 0.443251 0.632002
O O8 0.875467 0.773804 0.804491
O O9 0.956016 0.720792 0.602894
O O10 0.931575 0.656483 0.836873
O O11 0.016928 0.761801 0.834460
O O12 0.250000 0.671726 0.317627
O O13 0.343372 0.631285 0.124992
O O14 0.642725 0.276972 0.939028
O O15 0.987816 0.925404 0.194851
O O16 0.091912 0.979560 0.327661
O O17 0.750000 0.860000 0.414540
O O18 0.613255 0.899051 0.381059
#
# Coordination Sequence:
#
# PCOD8182694 Si02
#       8
#     8   8   8   8   8   8   8   8
#     4   9  18  33  54  79 103 132 173 216 257 303
#     4   9  18  33  54  78 104 133 170 215 256 300
#     4  10  20  34  53  74 103 138 171 213 258 301
#     4   9  20  35  52  75 105 138 172 209 254 308
#     4  10  20  34  52  77 104 137 172 215 254 304
#     4   9  19  32  51  75 106 134 163 217 258 299
#     4  10  19  33  53  76 104 138 172 207 253 308
#     4  10  18  32  53  78 105 131 173 213 257 300
#
# _framework density 17.873121999999999
#
# number of rings (size 3 to 8) (size 9 to 14) (size 15 to 20)
#    0.000    2.500    1.250    0.750    3.500    3.500 
#    0.000    1.250    0.000    0.750    0.000    0.000 
#    0.000    0.000    0.000    0.000    0.000    0.000 
#
# Total GULP energy -396469.519399 kJ/mol
# GULP energy per Si atom -12389.672481 kJ/mol
# Density = 1.783244 g / cm^3
# Si number density = 17.873122 Si / 1000 Ang^3
#
#
#
# Elastic Constant Matrix: (Units=GPa)
#
#
# Indices 1 2 3 4 5 6 
#
# 1 56.6926 36.7721 24.0383 0.0000 0.0000 0.0000
# 2 36.7721 162.2348 44.3799 0.0000 0.0000 0.0000
# 3 24.0383 44.3799 44.4895 0.0000 0.0000 0.0000
# 4 0.0000 0.0000 0.0000 26.6671 0.0000 0.0000
# 5 0.0000 0.0000 0.0000 0.0000 23.5147 0.0000
# 6 0.0000 0.0000 0.0000 0.0000 0.0000 30.5972
#
#
#
# Elastic Compliance Matrix: (Units=1/GPa)
#
#
# Indices 1 2 3 4 5 6 
#
# 1 0.023631 -0.002563 -0.010212 0.000000 0.000000 0.000000
# 2 -0.002563 0.008755 -0.007349 0.000000 0.000000 0.000000
# 3 -0.010212 -0.007349 0.035325 0.000000 0.000000 0.000000
# 4 0.000000 0.000000 0.000000 0.037499 0.000000 0.000000
# 5 0.000000 0.000000 0.000000 0.000000 0.042527 0.000000
# 6 0.000000 0.000000 0.000000 0.000000 0.000000 0.032683
#
#
# Mechanical properties :
#
#
# Convention : Reuss Voigt Hill
#
# Bulk Modulus (GPa) = 36.40999 52.64416 44.52707
# Shear Modulus (GPa) = 21.75596 26.70424 24.23010
#
# Velocity S-wave (km/s) = 3.49269 3.86955 3.68594
# Velocity P-wave (km/s) = 6.05646 7.03441 6.56367
#
# Compressibility (1/GPa) = 0.02746499
#
# Stress axis : x y z
#
# Youngs Moduli (GPa) = 42.31702 114.21958 28.30821
#
# Poissons Ratio (x) = 0.29272 0.28908
# Poissons Ratio (y) = 0.10845 0.20803
# Poissons Ratio (z) = 0.43213 0.83938
#
# Static dielectric constant tensor:
#      x y z
#    x 3.339670 0.000000 0.000000 
#    y 0.000000 3.922550 0.000000 
#    z 0.000000 0.000000 2.973450 
# 
# 
# High freq. dielectric constant tensor:
#      x y z
#    x 1.695500 0.000000 0.000000 
#    y 0.000000 1.718870 0.000000 
#    z 0.000000 0.000000 1.643820 
# 
# From -- ./inp_files/7847.got.cif
#   From: 2010.03.12/outbox.cif.g09.slc.cpg/sg40_4_cif.got.tgz:7847.got - 2010.04.14 01:38:03.
