data_PCOD8182182
_publ_section_title
;
Structure prediction by ZEFSAII (Michael W. Deem and Ramdas Pophale) SiO2 
 PCOD8182182
Probable space group: A B M 2
;
_chemical_formula_sum "Si O2"
_cell_formula_units_Z 64
_cell_length_a 20.740075
_cell_length_b 14.945202
_cell_length_c 9.754466
_cell_angle_alpha 90.000000
_cell_angle_beta 90.000000
_cell_angle_gamma 90.000000
_cell_volume 3023.539253
_symmetry_space_group_name_H-M "A B M 2"
_symmetry_group_IT_number 39
_symmetry_cell_setting 'orthorhombic'
loop_
_space_group_symop_operation_xyz
x,y,z
-x,-y,z
-x,1/2+y,z
x,1/2-y,z
x,1/2+y,1/2+z
-x,1/2-y,1/2+z
-x,y,1/2+z
x,-y,1/2+z
loop_
_atom_site_type_symbol
_atom_site_label
_atom_site_fract_x
_atom_site_fract_y
_atom_site_fract_z
Si Si1 0.149891 0.348485 0.410240
Si Si2 0.069224 0.607166 0.665424
Si Si3 0.568072 0.646609 0.076509
Si Si4 0.658432 0.504805 0.682879
Si Si5 0.444110 0.353142 0.758564
Si Si6 0.255092 0.508196 0.935006
Si Si7 0.844743 0.149606 0.416731
Si Si8 0.075565 0.598216 0.168072
O O1 0.171238 0.250000 0.460690
O O2 0.112779 0.335799 0.267533
O O3 0.212076 0.409131 0.387132
O O4 0.101521 0.395684 0.514567
O O5 0.096699 0.619721 0.513614
O O6 0.072728 0.504583 0.712202
O O7 0.995591 0.641721 0.670998
O O8 0.589507 0.750000 0.087119
O O9 0.627427 0.586090 0.124688
O O10 0.510367 0.625686 0.180917
O O11 0.547778 0.623511 0.919850
O O12 0.609069 0.587078 0.683100
O O13 0.682916 0.493478 0.837341
O O14 0.720053 0.527200 0.588438
O O15 0.423926 0.250000 0.738786
O O16 0.216561 0.414963 0.930314
O O17 0.820659 0.250000 0.449897
O O18 0.874444 0.149303 0.264904
#
# Coordination Sequence:
#
# PCOD8182182 Si02
#       8
#     8   8   8   8   8   8   8   8
#     4  12  25  43  65  91 128 167 216 276 328 385
#     4  11  22  41  68  95 127 163 207 273 344 404
#     4  10  23  44  71 105 140 171 211 265 323 379
#     4  12  25  42  70  94 133 180 222 266 310 382
#     4  10  23  44  71 105 140 171 211 265 323 379
#     4  12  26  44  62  92 132 174 228 268 314 374
#     4  12  25  43  67  91 126 173 218 270 332 395
#     4  11  22  41  68  95 127 163 207 273 344 404
#
# _framework density 21.167247
#
# number of rings (size 3 to 8) (size 9 to 14) (size 15 to 20)
#    0.000    0.750    3.750    3.375    1.750    8.000 
#    0.000    0.000    0.000    0.000    0.000    0.000 
#    0.000    0.000    0.000    0.000    0.000    0.000 
#
# Total GULP energy -396982.867735 kJ/mol
# GULP energy per Si atom -12405.714617 kJ/mol
# Density = 2.111907 g / cm^3
# Si number density = 21.167247 Si / 1000 Ang^3
#
#
#
# Elastic Constant Matrix: (Units=GPa)
#
#
# Indices 1 2 3 4 5 6 
#
# 1 94.8300 42.3267 30.0299 0.0000 0.0000 0.0000
# 2 42.3267 106.1647 22.5893 0.0000 0.0000 0.0000
# 3 30.0299 22.5893 89.9567 0.0000 0.0000 0.0000
# 4 0.0000 0.0000 0.0000 24.9707 0.0000 0.0000
# 5 0.0000 0.0000 0.0000 0.0000 49.2245 0.0000
# 6 0.0000 0.0000 0.0000 0.0000 0.0000 0.4500
#
#
#
# Elastic Compliance Matrix: (Units=1/GPa)
#
#
# Indices 1 2 3 4 5 6 
#
# 1 0.013743 -0.004757 -0.003393 0.000000 0.000000 0.000000
# 2 -0.004757 0.011598 -0.001324 0.000000 0.000000 0.000000
# 3 -0.003393 -0.001324 0.012582 0.000000 0.000000 0.000000
# 4 0.000000 0.000000 0.000000 0.040047 0.000000 0.000000
# 5 0.000000 0.000000 0.000000 0.000000 0.020315 0.000000
# 6 0.000000 0.000000 0.000000 0.000000 0.000000 2.222288
#
#
# Mechanical properties :
#
#
# Convention : Reuss Voigt Hill
#
# Bulk Modulus (GPa) = 52.70592 53.42701 53.06647
# Shear Modulus (GPa) = 2.13143 27.99607 15.06375
#
# Velocity S-wave (km/s) = 1.00456 3.64072 2.67058
# Velocity P-wave (km/s) = 5.12829 6.55502 5.88505
#
# Compressibility (1/GPa) = 0.01897320
#
# Stress axis : x y z
#
# Youngs Moduli (GPa) = 72.76399 86.22361 79.48033
#
# Poissons Ratio (x) = 0.41018 0.26969
# Poissons Ratio (y) = 0.34615 0.10525
# Poissons Ratio (z) = 0.24690 0.11418
#
# Static dielectric constant tensor:
#      x y z
#    x 3.694750 0.000000 0.000000 
#    y 0.000000 3.844540 0.000000 
#    z 0.000000 0.000000 3.858230 
# 
# 
# High freq. dielectric constant tensor:
#      x y z
#    x 1.824140 0.000000 0.000000 
#    y 0.000000 1.837920 0.000000 
#    z 0.000000 0.000000 1.842870 
# 
# From -- ./inp_files/4100.got.cif
#   From: 2010.03.12/outbox.cif.g09.slc.cpg/sg39_3_cif.got.tgz:4100.got - 2010.04.14 02:53:20.
