data_PCOD8182465
_publ_section_title
;
Structure prediction by ZEFSAII (Michael W. Deem and Ramdas Pophale) SiO2 
 PCOD8182465
Probable space group: A M A 2
;
_chemical_formula_sum "Si O2"
_cell_formula_units_Z 64
_cell_length_a 9.488226
_cell_length_b 29.720265
_cell_length_c 14.350696
_cell_angle_alpha 90.000000
_cell_angle_beta 90.000000
_cell_angle_gamma 90.000000
_cell_volume 4046.789949
_symmetry_space_group_name_H-M "A M A 2"
_symmetry_group_IT_number 40
_symmetry_cell_setting 'orthorhombic'
loop_
_space_group_symop_operation_xyz
x,y,z
-x,-y,z
1/2-x,y,z
1/2+x,-y,z
x,1/2+y,1/2+z
-x,1/2-y,1/2+z
1/2-x,1/2+y,1/2+z
1/2+x,1/2-y,1/2+z
loop_
_atom_site_type_symbol
_atom_site_label
_atom_site_fract_x
_atom_site_fract_y
_atom_site_fract_z
Si Si1 0.582897 0.455447 0.276600
Si Si2 0.088137 0.221200 0.173629
Si Si3 0.590087 0.125387 0.853546
Si Si4 0.912873 0.862461 0.512411
Si Si5 0.414806 0.301485 0.500819
Si Si6 0.089415 0.041424 0.561051
Si Si7 0.405343 0.825291 0.667889
Si Si8 0.082471 0.215988 0.382341
O O1 0.500000 0.500000 0.309213
O O2 0.750000 0.460198 0.295656
O O3 0.521057 0.414450 0.337298
O O4 0.549764 0.446531 0.167752
O O5 0.250000 0.204754 0.167917
O O6 0.074047 0.273159 0.148872
O O7 0.023914 0.213897 0.277082
O O8 0.996189 0.194218 0.098581
O O9 0.750000 0.105916 0.853121
O O10 0.574214 0.164269 0.776363
O O11 0.557135 0.151053 0.949725
O O12 0.750000 0.852001 0.526328
O O13 0.938847 0.915565 0.493872
O O14 0.971921 0.830216 0.431154
O O15 0.981338 0.852735 0.611101
O O16 0.250000 0.294182 0.520907
O O17 0.473580 0.259346 0.439555
O O18 0.250000 0.025888 0.556169
O O19 0.000000 0.000000 0.521820
O O20 0.250000 0.840585 0.635027
O O21 0.250000 0.219182 0.376746
#
# Coordination Sequence:
#
# PCOD8182465 Si02
#       8
#     8   8   8   8   8   8   8   8
#     4  10  19  31  47  69  97 125 157 195 236 282
#     4  10  19  32  46  66  94 125 160 198 234 274
#     4  10  19  31  47  68  95 129 163 191 233 286
#     4  10  18  30  47  67  90 123 163 192 223 277
#     4  10  19  32  49  68  92 127 162 194 236 281
#     4   9  18  29  43  66  92 120 153 189 229 276
#     4  10  18  27  43  66  94 124 155 192 231 273
#     4   9  17  30  48  66  91 125 158 192 234 281
#
# _framework density 15.815004
#
# number of rings (size 3 to 8) (size 9 to 14) (size 15 to 20)
#    0.000    2.250    3.750    0.375    0.000    1.500 
#    0.000    1.250    0.000    0.000    0.000    0.875 
#    0.000    4.000    0.000    0.000    0.000    0.000 
#
# Total GULP energy -396690.645693 kJ/mol
# GULP energy per Si atom -12396.582678 kJ/mol
# Density = 1.577901 g / cm^3
# Si number density = 15.815004 Si / 1000 Ang^3
#
#
#
# Elastic Constant Matrix: (Units=GPa)
#
#
# Indices 1 2 3 4 5 6 
#
# 1 53.6275 39.8566 29.1765 0.0000 0.0000 0.0000
# 2 39.8566 83.4441 28.2731 0.0000 0.0000 0.0000
# 3 29.1765 28.2731 68.6020 0.0000 0.0000 0.0000
# 4 0.0000 0.0000 0.0000 21.3105 0.0000 0.0000
# 5 0.0000 0.0000 0.0000 0.0000 20.5101 0.0000
# 6 0.0000 0.0000 0.0000 0.0000 0.0000 25.7803
#
#
#
# Elastic Compliance Matrix: (Units=1/GPa)
#
#
# Indices 1 2 3 4 5 6 
#
# 1 0.032863 -0.012740 -0.008726 0.000000 0.000000 0.000000
# 2 -0.012740 0.018868 -0.002358 0.000000 0.000000 0.000000
# 3 -0.008726 -0.002358 0.019260 0.000000 0.000000 0.000000
# 4 0.000000 0.000000 0.000000 0.046925 0.000000 0.000000
# 5 0.000000 0.000000 0.000000 0.000000 0.048757 0.000000
# 6 0.000000 0.000000 0.000000 0.000000 0.000000 0.038789
#
#
# Mechanical properties :
#
#
# Convention : Reuss Voigt Hill
#
# Bulk Modulus (GPa) = 42.83936 44.47621 43.65778
# Shear Modulus (GPa) = 19.16501 20.74468 19.95484
#
# Velocity S-wave (km/s) = 3.48490 3.62568 3.55599
# Velocity P-wave (km/s) = 6.58326 6.76101 6.67273
#
# Compressibility (1/GPa) = 0.02334302
#
# Stress axis : x y z
#
# Youngs Moduli (GPa) = 30.42890 52.99893 51.92169
#
# Poissons Ratio (x) = 0.67523 0.45308
# Poissons Ratio (y) = 0.38768 0.12242
# Poissons Ratio (z) = 0.26553 0.12496
#
# Static dielectric constant tensor:
#      x y z
#    x 2.921110 0.000000 0.000000 
#    y 0.000000 3.001480 0.000000 
#    z 0.000000 0.000000 2.870070 
# 
# 
# High freq. dielectric constant tensor:
#      x y z
#    x 1.599020 0.000000 0.000000 
#    y 0.000000 1.600570 0.000000 
#    z 0.000000 0.000000 1.578780 
# 
# From -- ./inp_files/15856.got.cif
#   From: 2010.03.12/outbox.cif.g09.slc.cpg/sg40_8_cif.got.tgz:15856.got - 2010.04.14 01:38:03.
