data_PCOD8182575
_publ_section_title
;
Structure prediction by ZEFSAII (Michael W. Deem and Ramdas Pophale) SiO2 
 PCOD8182575
Probable space group: A M A 2
;
_chemical_formula_sum "Si O2"
_cell_formula_units_Z 64
_cell_length_a 8.786603
_cell_length_b 18.311091
_cell_length_c 20.694252
_cell_angle_alpha 90.000000
_cell_angle_beta 90.000000
_cell_angle_gamma 90.000000
_cell_volume 3329.545534
_symmetry_space_group_name_H-M "A M A 2"
_symmetry_group_IT_number 40
_symmetry_cell_setting 'orthorhombic'
loop_
_space_group_symop_operation_xyz
x,y,z
-x,-y,z
1/2-x,y,z
1/2+x,-y,z
x,1/2+y,1/2+z
-x,1/2-y,1/2+z
1/2-x,1/2+y,1/2+z
1/2+x,1/2-y,1/2+z
loop_
_atom_site_type_symbol
_atom_site_label
_atom_site_fract_x
_atom_site_fract_y
_atom_site_fract_z
Si Si1 0.427346 0.148584 0.325210
Si Si2 0.576364 0.299616 0.325141
Si Si3 0.075078 0.688006 0.185265
Si Si4 0.427905 0.423907 0.562429
Si Si5 0.069079 0.352819 0.693895
Si Si6 0.930674 0.922572 0.580655
Si Si7 0.577627 0.818027 0.964666
Si Si8 0.927134 0.146137 0.457177
O O1 0.250000 0.130645 0.330697
O O2 0.454806 0.235043 0.323440
O O3 0.493855 0.113988 0.258857
O O4 0.514304 0.116981 0.387836
O O5 0.750000 0.266565 0.327028
O O6 0.554637 0.344822 0.258422
O O7 0.552189 0.346686 0.390492
O O8 0.250000 0.693257 0.165811
O O9 0.008063 0.770121 0.181849
O O10 0.998439 0.634465 0.133081
O O11 0.500000 0.500000 0.540591
O O12 0.250000 0.434413 0.563089
O O13 0.486505 0.401221 0.633485
O O14 0.465785 0.360812 0.511404
O O15 0.250000 0.353388 0.702143
O O16 0.750000 0.927754 0.584500
O O17 0.979536 0.898331 0.509805
O O18 0.000000 0.000000 0.598805
O O19 0.750000 0.833043 0.987173
O O20 0.539872 0.732122 0.966304
O O21 0.750000 0.128063 0.464119
#
# Coordination Sequence:
#
# PCOD8182575 Si02
#       8
#     8   8   8   8   8   8   8   8
#     4  10  18  29  51  83 110 132 165 215 265 314
#     4   8  15  31  53  78 107 138 171 213 263 313
#     4   8  15  31  56  79 102 134 173 213 259 313
#     4  11  23  37  54  75 106 144 181 220 264 314
#     4   9  18  35  56  77 101 136 176 215 263 317
#     4  11  22  36  53  76 107 143 181 222 264 312
#     4   9  18  33  56  82 108 137 173 217 266 315
#     4  10  20  36  57  80 107 140 175 217 264 314
#
# _framework density 19.221841000000001
#
# number of rings (size 3 to 8) (size 9 to 14) (size 15 to 20)
#    0.000    2.500    0.000    4.500    0.000    4.500 
#    0.000    7.500    0.000    3.000    0.000    0.000 
#    0.000    0.000    0.000    0.000    0.000    0.000 
#
# Total GULP energy -396639.171389 kJ/mol
# GULP energy per Si atom -12394.974106 kJ/mol
# Density = 1.917809 g / cm^3
# Si number density = 19.221841 Si / 1000 Ang^3
#
#
#
# Elastic Constant Matrix: (Units=GPa)
#
#
# Indices 1 2 3 4 5 6 
#
# 1 61.8323 15.2303 24.5953 0.0000 0.0000 0.0000
# 2 15.2303 36.2523 8.7554 0.0000 0.0000 0.0000
# 3 24.5953 8.7554 97.3153 0.0000 0.0000 0.0000
# 4 0.0000 0.0000 0.0000 4.4183 0.0000 0.0000
# 5 0.0000 0.0000 0.0000 0.0000 29.3076 0.0000
# 6 0.0000 0.0000 0.0000 0.0000 0.0000 21.9758
#
#
#
# Elastic Compliance Matrix: (Units=1/GPa)
#
#
# Indices 1 2 3 4 5 6 
#
# 1 0.019670 -0.007220 -0.004322 0.000000 0.000000 0.000000
# 2 -0.007220 0.030847 -0.000951 0.000000 0.000000 0.000000
# 3 -0.004322 -0.000951 0.011454 0.000000 0.000000 0.000000
# 4 0.000000 0.000000 0.000000 0.226330 0.000000 0.000000
# 5 0.000000 0.000000 0.000000 0.000000 0.034121 0.000000
# 6 0.000000 0.000000 0.000000 0.000000 0.000000 0.045505
#
#
# Mechanical properties :
#
#
# Convention : Reuss Voigt Hill
#
# Bulk Modulus (GPa) = 27.03697 32.50690 29.77194
# Shear Modulus (GPa) = 12.33836 20.92827 16.63332
#
# Velocity S-wave (km/s) = 2.53631 3.30324 2.94485
# Velocity P-wave (km/s) = 4.76166 5.61219 5.20433
#
# Compressibility (1/GPa) = 0.03698639
#
# Stress axis : x y z
#
# Youngs Moduli (GPa) = 50.83797 32.41767 87.30810
#
# Poissons Ratio (x) = 0.23406 0.37733
# Poissons Ratio (y) = 0.36706 0.08299
# Poissons Ratio (z) = 0.21971 0.03081
#
# Static dielectric constant tensor:
#      x y z
#    x 3.290050 0.000000 0.000000 
#    y 0.000000 3.232990 0.000000 
#    z 0.000000 0.000000 3.955440 
# 
# 
# High freq. dielectric constant tensor:
#      x y z
#    x 1.734300 0.000000 0.000000 
#    y 0.000000 1.704660 0.000000 
#    z 0.000000 0.000000 1.771590 
# 
# From -- ./inp_files/22438.got.cif
#   From: 2010.03.12/outbox.cif.g09.slc.cpg/sg40_12_cif.got.tgz:22438.got - 2010.04.14 01:38:03.
