data_PCOD8182598
_publ_section_title
;
Structure prediction by ZEFSAII (Michael W. Deem and Ramdas Pophale) SiO2 
 PCOD8182598
Probable space group: A M A 2
;
_chemical_formula_sum "Si O2"
_cell_formula_units_Z 64
_cell_length_a 8.830918
_cell_length_b 29.959050
_cell_length_c 14.408262
_cell_angle_alpha 90.000000
_cell_angle_beta 90.000000
_cell_angle_gamma 90.000000
_cell_volume 3811.935004
_symmetry_space_group_name_H-M "A M A 2"
_symmetry_group_IT_number 40
_symmetry_cell_setting 'orthorhombic'
loop_
_space_group_symop_operation_xyz
x,y,z
-x,-y,z
1/2-x,y,z
1/2+x,-y,z
x,1/2+y,1/2+z
-x,1/2-y,1/2+z
1/2-x,1/2+y,1/2+z
1/2+x,1/2-y,1/2+z
loop_
_atom_site_type_symbol
_atom_site_label
_atom_site_fract_x
_atom_site_fract_y
_atom_site_fract_z
Si Si1 0.928135 0.302872 0.020220
Si Si2 0.573405 0.225471 0.340534
Si Si3 0.929861 0.545536 0.258140
Si Si4 0.920110 0.685287 0.340420
Si Si5 0.577578 0.630668 0.519747
Si Si6 0.930426 0.716075 0.631311
Si Si7 0.575051 0.133960 0.655829
Si Si8 0.070466 0.046099 0.958534
O O1 0.750000 0.300270 0.014421
O O2 0.993064 0.259428 0.075692
O O3 0.976237 0.348818 0.069961
O O4 0.993072 0.305773 0.916077
O O5 0.750000 0.216170 0.345271
O O6 0.538387 0.276525 0.367015
O O7 0.509647 0.216075 0.237075
O O8 0.750000 0.541664 0.273456
O O9 0.970312 0.583694 0.183560
O O10 0.000000 0.500000 0.217261
O O11 0.005762 0.556382 0.356565
O O12 0.750000 0.705477 0.342625
O O13 0.931872 0.645380 0.413035
O O14 0.962495 0.666295 0.240901
O O15 0.750000 0.619595 0.548257
O O16 0.511234 0.670325 0.584104
O O17 0.477509 0.585879 0.528793
O O18 0.750000 0.717903 0.627821
O O19 0.750000 0.136493 0.627955
O O20 0.250000 0.041986 0.954206
O O21 0.000000 0.000000 0.996820
#
# Coordination Sequence:
#
# PCOD8182598 Si02
#       8
#     8   8   8   8   8   8   8   8
#     4  11  21  35  51  72  99 134 174 209 249 297
#     4  11  21  34  49  72 101 133 173 213 249 292
#     4  10  19  33  50  72 102 134 168 204 251 300
#     4  10  18  30  49  71 101 136 168 204 250 293
#     4  10  18  34  52  69  98 136 171 205 250 298
#     4   9  19  33  50  70  97 132 169 205 247 296
#     4  10  20  33  49  73 102 135 169 207 252 298
#     4  11  21  32  48  73 102 132 168 205 249 299
#
# _framework density 16.789373999999999
#
# number of rings (size 3 to 8) (size 9 to 14) (size 15 to 20)
#    0.000    1.750    3.750    3.000    0.000    1.500 
#    0.000    1.250    0.000    0.000    0.000    0.875 
#    0.000    4.000    0.000    0.000    0.000    0.000 
#
# Total GULP energy -396776.525232 kJ/mol
# GULP energy per Si atom -12399.266414 kJ/mol
# Density = 1.675116 g / cm^3
# Si number density = 16.789374 Si / 1000 Ang^3
#
#
#
# Elastic Constant Matrix: (Units=GPa)
#
#
# Indices 1 2 3 4 5 6 
#
# 1 70.7654 36.9255 24.9596 0.0000 0.0000 0.0000
# 2 36.9255 104.4430 29.5375 0.0000 0.0000 0.0000
# 3 24.9596 29.5375 73.4996 0.0000 0.0000 0.0000
# 4 0.0000 0.0000 0.0000 18.7080 0.0000 0.0000
# 5 0.0000 0.0000 0.0000 0.0000 21.7142 0.0000
# 6 0.0000 0.0000 0.0000 0.0000 0.0000 29.2522
#
#
#
# Elastic Compliance Matrix: (Units=1/GPa)
#
#
# Indices 1 2 3 4 5 6 
#
# 1 0.018357 -0.005333 -0.004090 0.000000 0.000000 0.000000
# 2 -0.005333 0.012352 -0.003153 0.000000 0.000000 0.000000
# 3 -0.004090 -0.003153 0.016262 0.000000 0.000000 0.000000
# 4 0.000000 0.000000 0.000000 0.053453 0.000000 0.000000
# 5 0.000000 0.000000 0.000000 0.000000 0.046053 0.000000
# 6 0.000000 0.000000 0.000000 0.000000 0.000000 0.034186
#
#
# Mechanical properties :
#
#
# Convention : Reuss Voigt Hill
#
# Bulk Modulus (GPa) = 45.83511 47.95036 46.89273
# Shear Modulus (GPa) = 23.46462 24.42057 23.94260
#
# Velocity S-wave (km/s) = 3.74249 3.81796 3.78041
# Velocity P-wave (km/s) = 6.78486 6.93237 6.85901
#
# Compressibility (1/GPa) = 0.02181733
#
# Stress axis : x y z
#
# Youngs Moduli (GPa) = 54.47577 80.96021 61.49454
#
# Poissons Ratio (x) = 0.43177 0.25154
# Poissons Ratio (y) = 0.29053 0.19388
# Poissons Ratio (z) = 0.22283 0.25525
#
# Static dielectric constant tensor:
#      x y z
#    x 3.062950 0.000000 0.000000 
#    y 0.000000 3.204800 0.000000 
#    z 0.000000 0.000000 3.063400 
# 
# 
# High freq. dielectric constant tensor:
#      x y z
#    x 1.642030 0.000000 0.000000 
#    y 0.000000 1.639600 0.000000 
#    z 0.000000 0.000000 1.620590 
# 
# From -- ./inp_files/15895.got.cif
#   From: 2010.03.12/outbox.cif.g09.slc.cpg/sg40_8_cif.got.tgz:15895.got - 2010.04.14 01:38:03.
