data_PCOD8182713
_publ_section_title
;
Structure prediction by ZEFSAII (Michael W. Deem and Ramdas Pophale) SiO2 
 PCOD8182713
Probable space group: A M A 2
;
_chemical_formula_sum "Si O2"
_cell_formula_units_Z 48
_cell_length_a 15.172215
_cell_length_b 5.269608
_cell_length_c 25.689009
_cell_angle_alpha 90.000000
_cell_angle_beta 90.000000
_cell_angle_gamma 90.000000
_cell_volume 2053.878028
_symmetry_space_group_name_H-M "A M A 2"
_symmetry_group_IT_number 40
_symmetry_cell_setting 'orthorhombic'
loop_
_space_group_symop_operation_xyz
x,y,z
-x,-y,z
1/2-x,y,z
1/2+x,-y,z
x,1/2+y,1/2+z
-x,1/2-y,1/2+z
1/2-x,1/2+y,1/2+z
1/2+x,1/2-y,1/2+z
loop_
_atom_site_type_symbol
_atom_site_label
_atom_site_fract_x
_atom_site_fract_y
_atom_site_fract_z
Si Si1 0.097064 0.207595 0.376020
Si Si2 0.399805 0.552299 0.214192
Si Si3 0.353947 0.127992 0.490271
Si Si4 0.900318 0.793976 0.833396
Si Si5 0.853490 0.371334 0.552702
Si Si6 0.401007 0.051276 0.168109
O O1 0.092658 0.138125 0.436570
O O2 0.145881 0.477806 0.366505
O O3 0.000760 0.250533 0.351439
O O4 0.146613 0.975733 0.345723
O O5 0.500000 0.500000 0.196542
O O6 0.391868 0.629175 0.273851
O O7 0.354028 0.280999 0.200576
O O8 0.354226 0.779533 0.180372
O O9 0.250000 0.122163 0.478357
O O10 0.381258 0.376220 0.522268
O O11 0.384515 0.876928 0.521082
O O12 0.750000 0.362570 0.563276
O O13 0.902062 0.376698 0.607702
O O14 0.500000 0.000000 0.188856
#
# Coordination Sequence:
#
# PCOD8182713 Si02
#       6
#     8   8   8   8   8   8
#     4  10  19  32  53  81 106 138 188 216 264 325
#     4  10  18  32  55  79 109 140 180 212 278 335
#     4  10  21  38  59  78 107 151 187 224 272 328
#     4  10  19  32  53  83 106 145 169 223 276 322
#     4  10  21  40  59  78 110 152 186 223 283 337
#     4  10  21  34  55  85 107 142 179 234 271 321
#
# _framework density 23.370422999999999
#
# number of rings (size 3 to 8) (size 9 to 14) (size 15 to 20)
#    0.000    2.000    1.667    3.000    4.667    0.000 
#    9.000    0.000    0.000    6.000    0.000    0.000 
#    0.000    0.000    0.000    0.000    0.000    0.000 
#
# Total GULP energy -297384.912518 kJ/mol
# GULP energy per Si atom -12391.038022 kJ/mol
# Density = 2.331723 g / cm^3
# Si number density = 23.370423 Si / 1000 Ang^3
#
#
#
# Elastic Constant Matrix: (Units=GPa)
#
#
# Indices 1 2 3 4 5 6 
#
# 1 11.2580 5.8743 6.5715 0.0000 0.0000 0.0000
# 2 5.8743 299.4357 107.0630 0.0000 0.0000 0.0000
# 3 6.5715 107.0630 187.8258 0.0000 0.0000 0.0000
# 4 0.0000 0.0000 0.0000 53.7302 0.0000 0.0000
# 5 0.0000 0.0000 0.0000 0.0000 -9.6782 0.0000
# 6 0.0000 0.0000 0.0000 0.0000 0.0000 2.4799
#
#
#
# Elastic Compliance Matrix: (Units=1/GPa)
#
#
# Indices 1 2 3 4 5 6 
#
# 1 0.090834 -0.000811 -0.002716 0.000000 0.000000 0.000000
# 2 -0.000811 0.004202 -0.002367 0.000000 0.000000 0.000000
# 3 -0.002716 -0.002367 0.006768 0.000000 0.000000 0.000000
# 4 0.000000 0.000000 0.000000 0.018612 0.000000 0.000000
# 5 0.000000 0.000000 0.000000 0.000000 -0.103325 0.000000
# 6 0.000000 0.000000 0.000000 0.000000 0.000000 0.403239
#
#
# Mechanical properties :
#
#
# Convention : Reuss Voigt Hill
#
# Bulk Modulus (GPa) = 11.10900 81.94857 46.52878
# Shear Modulus (GPa) = 10.81966 34.57375 22.69670
#
# Velocity S-wave (km/s) = 2.15399 3.85044 3.11974
# Velocity P-wave (km/s) = 3.30908 7.41007 5.73843
#
# Compressibility (1/GPa) = 0.09001712
#
# Stress axis : x y z
#
# Youngs Moduli (GPa) = 11.00908 237.99765 147.75138
#
# Poissons Ratio (x) = 0.19300 0.40126
# Poissons Ratio (y) = 0.00893 0.34968
# Poissons Ratio (z) = 0.02990 0.56326
#
# Static dielectric constant tensor:
#      x y z
#    x 3.501810 0.000000 0.000000 
#    y 0.000000 12.651200 0.000000 
#    z 0.000000 0.000000 3.960590 
# 
# 
# High freq. dielectric constant tensor:
#      x y z
#    x 1.861830 0.000000 0.000000 
#    y 0.000000 1.972180 0.000000 
#    z 0.000000 0.000000 1.924500 
# 
# From -- ./inp_files/23493.got.cif
#   From: 2010.03.12/outbox.cif.g09.slc.cpg/sg40_12_cif.got.tgz:23493.got - 2010.04.14 01:38:03.
