data_PCOD8182895
_publ_section_title
;
Structure prediction by ZEFSAII (Michael W. Deem and Ramdas Pophale) SiO2 
 PCOD8182895
Probable space group: A M A 2
;
_chemical_formula_sum "Si O2"
_cell_formula_units_Z 56
_cell_length_a 9.173488
_cell_length_b 20.743086
_cell_length_c 14.096535
_cell_angle_alpha 90.000000
_cell_angle_beta 90.000000
_cell_angle_gamma 90.000000
_cell_volume 2682.379610
_symmetry_space_group_name_H-M "A M A 2"
_symmetry_group_IT_number 40
_symmetry_cell_setting 'orthorhombic'
loop_
_space_group_symop_operation_xyz
x,y,z
-x,-y,z
1/2-x,y,z
1/2+x,-y,z
x,1/2+y,1/2+z
-x,1/2-y,1/2+z
1/2-x,1/2+y,1/2+z
1/2+x,1/2-y,1/2+z
loop_
_atom_site_type_symbol
_atom_site_label
_atom_site_fract_x
_atom_site_fract_y
_atom_site_fract_z
Si Si1 0.918412 0.435024 0.234950
Si Si2 0.919725 0.432899 0.627215
Si Si3 0.583652 0.372993 0.044541
Si Si4 0.406096 0.446709 0.905158
Si Si5 0.412885 0.835783 0.259081
Si Si6 0.082393 0.627993 0.427714
Si Si7 0.577827 0.257894 0.908913
O O1 0.750000 0.453292 0.242774
O O2 0.943307 0.377483 0.157683
O O3 0.976641 0.408991 0.335219
O O4 0.000000 0.500000 0.205486
O O5 0.750000 0.437912 0.658851
O O6 0.933329 0.420677 0.515372
O O7 0.000000 0.500000 0.652382
O O8 0.994648 0.371070 0.677351
O O9 0.750000 0.386847 0.018379
O O10 0.489858 0.430858 0.001574
O O11 0.538362 0.304939 0.997439
O O12 0.500000 0.500000 0.847936
O O13 0.250000 0.476229 0.931828
O O14 0.386882 0.384738 0.842963
O O15 0.250000 0.813731 0.222527
O O16 0.502137 0.777341 0.308192
O O17 0.250000 0.650398 0.414770
O O18 0.981789 0.689788 0.443885
O O19 0.750000 0.254893 0.890600
#
# Coordination Sequence:
#
# PCOD8182895 Si02
#       7
#     8   8   8   8   8   8   8
#     4  10  21  38  59  84 114 149 189 234 285 338
#     4  11  23  39  60  87 118 154 199 248 298 352
#     4   9  19  35  55  80 111 145 182 228 279 334
#     4  10  19  30  48  76 109 145 182 224 278 338
#     4  10  21  37  58  83 114 152 191 237 294 351
#     4  10  23  41  59  82 117 157 196 242 291 341
#     4  10  21  38  60  88 119 152 194 237 284 348
#
# _framework density 20.876985000000001
#
# number of rings (size 3 to 8) (size 9 to 14) (size 15 to 20)
#    0.000    2.000    0.000    3.000    0.000    8.000 
#    0.000    1.429    0.000    0.000    0.000    0.000 
#    0.000    0.000    0.000    0.000    0.000    0.000 
#
# Total GULP energy -347071.955230 kJ/mol
# GULP energy per Si atom -12395.426973 kJ/mol
# Density = 2.082947 g / cm^3
# Si number density = 20.876985 Si / 1000 Ang^3
#
#
#
# Elastic Constant Matrix: (Units=GPa)
#
#
# Indices 1 2 3 4 5 6 
#
# 1 118.4010 36.0836 29.7948 0.0000 0.0000 0.0000
# 2 36.0836 74.6283 14.2179 0.0000 0.0000 0.0000
# 3 29.7948 14.2179 96.3245 0.0000 0.0000 0.0000
# 4 0.0000 0.0000 0.0000 21.2709 0.0000 0.0000
# 5 0.0000 0.0000 0.0000 0.0000 39.7024 0.0000
# 6 0.0000 0.0000 0.0000 0.0000 0.0000 33.7949
#
#
#
# Elastic Compliance Matrix: (Units=1/GPa)
#
#
# Indices 1 2 3 4 5 6 
#
# 1 0.010488 -0.004582 -0.002568 0.000000 0.000000 0.000000
# 2 -0.004582 0.015789 -0.000913 0.000000 0.000000 0.000000
# 3 -0.002568 -0.000913 0.011311 0.000000 0.000000 0.000000
# 4 0.000000 0.000000 0.000000 0.047013 0.000000 0.000000
# 5 0.000000 0.000000 0.000000 0.000000 0.025187 0.000000
# 6 0.000000 0.000000 0.000000 0.000000 0.000000 0.029590
#
#
# Mechanical properties :
#
#
# Convention : Reuss Voigt Hill
#
# Bulk Modulus (GPa) = 46.59420 49.94959 48.27190
# Shear Modulus (GPa) = 30.73915 32.90415 31.82165
#
# Velocity S-wave (km/s) = 3.84134 3.97432 3.90839
# Velocity P-wave (km/s) = 6.48394 6.71102 6.59846
#
# Compressibility (1/GPa) = 0.02146190
#
# Stress axis : x y z
#
# Youngs Moduli (GPa) = 95.34256 63.33442 88.41203
#
# Poissons Ratio (x) = 0.29020 0.22704
# Poissons Ratio (y) = 0.43687 0.08074
# Poissons Ratio (z) = 0.24483 0.05784
#
# Static dielectric constant tensor:
#      x y z
#    x 4.162810 0.000000 0.000000 
#    y 0.000000 3.692650 0.000000 
#    z 0.000000 0.000000 3.796020 
# 
# 
# High freq. dielectric constant tensor:
#      x y z
#    x 1.824920 0.000000 0.000000 
#    y 0.000000 1.805970 0.000000 
#    z 0.000000 0.000000 1.815650 
# 
# From -- ./inp_files/15300.got.cif
#   From: 2010.03.12/outbox.cif.g09.slc.cpg/sg40_8_cif.got.tgz:15300.got - 2010.04.14 01:38:03.
