data_PCOD8182645
_publ_section_title
;
Structure prediction by ZEFSAII (Michael W. Deem and Ramdas Pophale) SiO2 
 PCOD8182645
Probable space group: A M A 2
;
_chemical_formula_sum "Si O2"
_cell_formula_units_Z 48
_cell_length_a 8.595541
_cell_length_b 17.425645
_cell_length_c 17.995745
_cell_angle_alpha 90.000000
_cell_angle_beta 90.000000
_cell_angle_gamma 90.000000
_cell_volume 2695.453903
_symmetry_space_group_name_H-M "A M A 2"
_symmetry_group_IT_number 40
_symmetry_cell_setting 'orthorhombic'
loop_
_space_group_symop_operation_xyz
x,y,z
-x,-y,z
1/2-x,y,z
1/2+x,-y,z
x,1/2+y,1/2+z
-x,1/2-y,1/2+z
1/2-x,1/2+y,1/2+z
1/2+x,1/2-y,1/2+z
loop_
_atom_site_type_symbol
_atom_site_label
_atom_site_fract_x
_atom_site_fract_y
_atom_site_fract_z
Si Si1 0.569830 0.209556 0.946720
Si Si2 0.569672 0.683971 0.055653
Si Si3 0.930106 0.190044 0.157337
Si Si4 0.931491 0.419140 0.171235
Si Si5 0.433414 0.081843 0.051279
Si Si6 0.572525 0.788469 0.789733
O O1 0.750000 0.195565 0.962715
O O2 0.473972 0.141525 0.985926
O O3 0.541693 0.209400 0.858982
O O4 0.517018 0.292543 0.979079
O O5 0.750000 0.673457 0.038278
O O6 0.541234 0.752468 0.113142
O O7 0.504469 0.605896 0.091984
O O8 0.750000 0.204536 0.134948
O O9 0.950807 0.207678 0.245046
O O10 0.986200 0.106014 0.130472
O O11 0.750000 0.426404 0.158941
O O12 0.971840 0.358323 0.235379
O O13 0.000000 0.500000 0.196952
O O14 0.250000 0.077149 0.061906
O O15 0.500000 0.000000 0.027106
O O16 0.750000 0.796116 0.817440
#
# Coordination Sequence:
#
# PCOD8182645 Si02
#       6
#     8   8   8   8   8   8
#     4  11  21  33  51  75 103 133 168 207 249 296
#     4  10  18  31  51  72  97 130 169 207 245 291
#     4   9  17  32  52  73  98 128 166 207 245 290
#     4  10  20  34  52  75 103 133 167 206 249 297
#     4  11  21  34  52  74 102 133 168 206 249 298
#     4   9  19  34  51  73 103 135 166 203 247 296
#
# _framework density 17.807762
#
# number of rings (size 3 to 8) (size 9 to 14) (size 15 to 20)
#    0.000    2.000    0.000    8.500    0.000    4.667 
#    0.000    1.667    0.000    1.000    0.000    2.333 
#    0.000    0.000    0.000    0.000    0.000    0.000 
#
# Total GULP energy -297512.532309 kJ/mol
# GULP energy per Si atom -12396.355513 kJ/mol
# Density = 1.776723 g / cm^3
# Si number density = 17.807762 Si / 1000 Ang^3
#
#
#
# Elastic Constant Matrix: (Units=GPa)
#
#
# Indices 1 2 3 4 5 6 
#
# 1 103.3747 24.8293 42.2746 0.0000 0.0000 0.0000
# 2 24.8293 36.2304 50.4704 0.0000 0.0000 0.0000
# 3 42.2746 50.4704 95.8809 0.0000 0.0000 0.0000
# 4 0.0000 0.0000 0.0000 20.1545 0.0000 0.0000
# 5 0.0000 0.0000 0.0000 0.0000 29.0320 0.0000
# 6 0.0000 0.0000 0.0000 0.0000 0.0000 29.7472
#
#
#
# Elastic Compliance Matrix: (Units=1/GPa)
#
#
# Indices 1 2 3 4 5 6 
#
# 1 0.011898 -0.003172 -0.003576 0.000000 0.000000 0.000000
# 2 -0.003172 0.104328 -0.053518 0.000000 0.000000 0.000000
# 3 -0.003576 -0.053518 0.040178 0.000000 0.000000 0.000000
# 4 0.000000 0.000000 0.000000 0.049617 0.000000 0.000000
# 5 0.000000 0.000000 0.000000 0.000000 0.034445 0.000000
# 6 0.000000 0.000000 0.000000 0.000000 0.000000 0.033617
#
#
# Mechanical properties :
#
#
# Convention : Reuss Voigt Hill
#
# Bulk Modulus (GPa) = 27.87796 52.29273 40.08535
# Shear Modulus (GPa) = 12.29794 23.64753 17.97273
#
# Velocity S-wave (km/s) = 2.63077 3.64804 3.18034
# Velocity P-wave (km/s) = 4.99168 6.86827 6.00375
#
# Compressibility (1/GPa) = 0.03587063
#
# Stress axis : x y z
#
# Youngs Moduli (GPa) = 84.04859 9.58512 24.88947
#
# Poissons Ratio (x) = 0.03041 0.08901
# Poissons Ratio (y) = 0.26662 1.33204
# Poissons Ratio (z) = 0.30056 0.51298
#
# Static dielectric constant tensor:
#      x y z
#    x 3.326030 0.000000 0.000000 
#    y 0.000000 3.273310 0.000000 
#    z 0.000000 0.000000 3.304600 
# 
# 
# High freq. dielectric constant tensor:
#      x y z
#    x 1.705090 0.000000 0.000000 
#    y 0.000000 1.666730 0.000000 
#    z 0.000000 0.000000 1.673440 
# 
# From -- ./inp_files/21997.got.cif
#   From: 2010.03.12/outbox.cif.g09.slc.cpg/sg40_11_cif.got.tgz:21997.got - 2010.04.14 01:38:03.
