data_PCOD8182080
_publ_section_title
;
Structure prediction by ZEFSAII (Michael W. Deem and Ramdas Pophale) SiO2 
 PCOD8182080
Probable space group: A B M 2
;
_chemical_formula_sum "Si O2"
_cell_formula_units_Z 60
_cell_length_a 18.324710
_cell_length_b 9.261037
_cell_length_c 16.870744
_cell_angle_alpha 90.000000
_cell_angle_beta 90.000000
_cell_angle_gamma 90.000000
_cell_volume 2863.063399
_symmetry_space_group_name_H-M "A B M 2"
_symmetry_group_IT_number 39
_symmetry_cell_setting 'orthorhombic'
loop_
_space_group_symop_operation_xyz
x,y,z
-x,-y,z
-x,1/2+y,z
x,1/2-y,z
x,1/2+y,1/2+z
-x,1/2-y,1/2+z
-x,y,1/2+z
x,-y,1/2+z
loop_
_atom_site_type_symbol
_atom_site_label
_atom_site_fract_x
_atom_site_fract_y
_atom_site_fract_z
Si Si1 0.064464 0.410210 0.464260
Si Si2 0.137029 0.412927 0.713141
Si Si3 0.171423 0.077962 0.060802
Si Si4 0.000000 0.500000 0.311418
Si Si5 0.723183 0.080855 0.319610
Si Si6 0.572837 0.419783 0.234834
Si Si7 0.715749 0.084505 0.980157
Si Si8 0.565555 0.088942 0.056015
O O1 0.071403 0.250000 0.500867
O O2 0.135550 0.506004 0.481941
O O3 0.046686 0.395169 0.370106
O O4 0.000000 0.500000 0.508097
O O5 0.147166 0.250000 0.681383
O O6 0.131848 0.524548 0.640325
O O7 0.207641 0.456149 0.764398
O O8 0.060024 0.417524 0.759259
O O9 0.170159 0.250000 0.055843
O O10 0.252208 0.010628 0.053521
O O11 0.722829 0.250000 0.341718
O O12 0.646606 0.033351 0.280182
O O13 0.735284 0.986076 0.396965
O O14 0.500000 0.500000 0.267911
O O15 0.560062 0.250000 0.244734
O O16 0.586662 0.467246 0.143755
O O17 0.744744 0.250000 0.982735
O O18 0.629872 0.078953 0.993162
O O19 0.536721 0.250000 0.065426
O O20 0.500000 0.000000 0.017797
#
# Coordination Sequence:
#
# PCOD8182080 Si02
#       8
#     8   8   8   4   8   8   8   8
#     4  10  22  41  65  92 123 158 197 244 299 359
#     4  11  24  44  66  89 122 162 205 256 309 364
#     4  12  26  42  64  92 122 160 207 253 305 365
#     4  10  24  38  68  94 126 158 206 246 310 366
#     4  10  22  40  63  89 122 162 205 254 309 367
#     4   9  18  35  59  87 119 158 202 249 304 364
#     4  11  23  40  62  88 122 163 206 254 308 364
#     4   9  19  36  59  87 119 159 204 250 303 362
#
# _framework density 20.956575000000001
#
# number of rings (size 3 to 8) (size 9 to 14) (size 15 to 20)
#    0.400    1.333    0.000    4.000    0.933    6.933 
#    0.000    5.333    0.000    0.000    0.000    0.000 
#    0.000    0.000    0.000    0.000    0.000    0.000 
#
# Total GULP energy -371820.363725 kJ/mol
# GULP energy per Si atom -12394.012124 kJ/mol
# Density = 2.090888 g / cm^3
# Si number density = 20.956575 Si / 1000 Ang^3
#
#
#
# Elastic Constant Matrix: (Units=GPa)
#
#
# Indices 1 2 3 4 5 6 
#
# 1 115.5065 52.2470 44.7502 0.0000 0.0000 0.0000
# 2 52.2470 142.5496 50.9458 0.0000 0.0000 0.0000
# 3 44.7502 50.9458 92.1202 0.0000 0.0000 0.0000
# 4 0.0000 0.0000 0.0000 28.6630 0.0000 0.0000
# 5 0.0000 0.0000 0.0000 0.0000 32.5540 0.0000
# 6 0.0000 0.0000 0.0000 0.0000 0.0000 35.9868
#
#
#
# Elastic Compliance Matrix: (Units=1/GPa)
#
#
# Indices 1 2 3 4 5 6 
#
# 1 0.011474 -0.002759 -0.004048 0.000000 0.000000 0.000000
# 2 -0.002759 0.009406 -0.003862 0.000000 0.000000 0.000000
# 3 -0.004048 -0.003862 0.014958 0.000000 0.000000 0.000000
# 4 0.000000 0.000000 0.000000 0.034888 0.000000 0.000000
# 5 0.000000 0.000000 0.000000 0.000000 0.030718 0.000000
# 6 0.000000 0.000000 0.000000 0.000000 0.000000 0.027788
#
#
# Mechanical properties :
#
#
# Convention : Reuss Voigt Hill
#
# Bulk Modulus (GPa) = 68.96358 71.78470 70.37414
# Shear Modulus (GPa) = 32.17444 32.92299 32.54871
#
# Velocity S-wave (km/s) = 3.92253 3.96790 3.94528
# Velocity P-wave (km/s) = 7.31398 7.43779 7.37614
#
# Compressibility (1/GPa) = 0.01450041
#
# Stress axis : x y z
#
# Youngs Moduli (GPa) = 87.15641 106.31043 66.85510
#
# Poissons Ratio (x) = 0.29326 0.27064
# Poissons Ratio (y) = 0.24042 0.25820
# Poissons Ratio (z) = 0.35282 0.41058
#
# Static dielectric constant tensor:
#      x y z
#    x 4.003370 0.000000 0.000000 
#    y 0.000000 3.708580 0.000000 
#    z 0.000000 0.000000 3.555700 
# 
# 
# High freq. dielectric constant tensor:
#      x y z
#    x 1.834170 0.000000 0.000000 
#    y 0.000000 1.816460 0.000000 
#    z 0.000000 0.000000 1.807470 
# 
# From -- ./inp_files/12984.got.cif
#   From: 2010.03.12/outbox.cif.g09.slc.cpg/sg39_7_cif.got.tgz:12984.got - 2010.04.14 02:53:20.
