data_PCOD8182927
_publ_section_title
;
Structure prediction by ZEFSAII (Michael W. Deem and Ramdas Pophale) SiO2 
 PCOD8182927
Probable space group: A M A 2
;
_chemical_formula_sum "Si O2"
_cell_formula_units_Z 64
_cell_length_a 8.794830
_cell_length_b 14.613459
_cell_length_c 27.612515
_cell_angle_alpha 90.000000
_cell_angle_beta 90.000000
_cell_angle_gamma 90.000000
_cell_volume 3548.840162
_symmetry_space_group_name_H-M "A M A 2"
_symmetry_group_IT_number 40
_symmetry_cell_setting 'orthorhombic'
loop_
_space_group_symop_operation_xyz
x,y,z
-x,-y,z
1/2-x,y,z
1/2+x,-y,z
x,1/2+y,1/2+z
-x,1/2-y,1/2+z
1/2-x,1/2+y,1/2+z
1/2+x,1/2-y,1/2+z
loop_
_atom_site_type_symbol
_atom_site_label
_atom_site_fract_x
_atom_site_fract_y
_atom_site_fract_z
Si Si1 0.928194 0.095054 0.541100
Si Si2 0.069062 0.218265 0.731685
Si Si3 0.930169 0.597305 0.151731
Si Si4 0.080829 0.351840 0.324526
Si Si5 0.071259 0.784013 0.454811
Si Si6 0.429989 0.590684 0.418508
Si Si7 0.916201 0.850093 0.364774
Si Si8 0.931367 0.907039 0.262546
O O1 0.750000 0.083722 0.534891
O O2 0.971841 0.119195 0.596011
O O3 0.989228 0.175793 0.505753
O O4 0.000000 0.000000 0.524290
O O5 0.250000 0.221280 0.733482
O O6 0.010146 0.177841 0.681241
O O7 0.007978 0.151075 0.773728
O O8 0.004753 0.320849 0.735484
O O9 0.750000 0.596049 0.160882
O O10 0.000000 0.500000 0.167216
O O11 0.250000 0.394257 0.317031
O O12 0.097874 0.251204 0.344728
O O13 0.984898 0.410619 0.362771
O O14 0.250000 0.778231 0.454281
O O15 0.007071 0.681107 0.446427
O O16 0.024784 0.852908 0.411371
O O17 0.500000 0.500000 0.443909
O O18 0.250000 0.585785 0.420289
O O19 0.750000 0.885598 0.380980
O O20 0.979201 0.908591 0.319538
O O21 0.750000 0.902310 0.256292
O O22 0.000000 0.000000 0.239481
#
# Coordination Sequence:
#
# PCOD8182927 Si02
#       8
#     8   8   8   8   8   8   8   8
#     4   9  19  35  54  76 100 127 160 202 252 304
#     4  11  21  34  53  77 104 134 170 210 255 305
#     4  10  20  36  56  77 101 128 162 206 258 311
#     4   9  17  31  48  68  96 129 167 205 243 288
#     4   9  18  32  50  72  99 132 168 204 247 299
#     4  10  19  31  48  71 101 136 172 208 247 291
#     4   8  16  29  45  67  96 129 164 202 241 283
#     4  10  20  34  51  74 105 141 178 213 251 295
#
# _framework density 18.034061000000001
#
# number of rings (size 3 to 8) (size 9 to 14) (size 15 to 20)
#    0.000    2.500    0.000    3.375    0.000    6.000 
#    0.000    5.000    0.000    0.750    0.000    1.750 
#    0.000    0.000    0.000    0.000    0.000    0.000 
#
# Total GULP energy -396656.110530 kJ/mol
# GULP energy per Si atom -12395.503454 kJ/mol
# Density = 1.799301 g / cm^3
# Si number density = 18.034061 Si / 1000 Ang^3
#
#
#
# Elastic Constant Matrix: (Units=GPa)
#
#
# Indices 1 2 3 4 5 6 
#
# 1 85.4368 44.1936 39.2656 0.0000 0.0000 0.0000
# 2 44.1936 112.7426 62.6449 0.0000 0.0000 0.0000
# 3 39.2656 62.6449 98.7026 0.0000 0.0000 0.0000
# 4 0.0000 0.0000 0.0000 25.5441 0.0000 0.0000
# 5 0.0000 0.0000 0.0000 0.0000 22.9345 0.0000
# 6 0.0000 0.0000 0.0000 0.0000 0.0000 26.6956
#
#
#
# Elastic Compliance Matrix: (Units=1/GPa)
#
#
# Indices 1 2 3 4 5 6 
#
# 1 0.015449 -0.004080 -0.003557 0.000000 0.000000 0.000000
# 2 -0.004080 0.014779 -0.007757 0.000000 0.000000 0.000000
# 3 -0.003557 -0.007757 0.016470 0.000000 0.000000 0.000000
# 4 0.000000 0.000000 0.000000 0.039148 0.000000 0.000000
# 5 0.000000 0.000000 0.000000 0.000000 0.043602 0.000000
# 6 0.000000 0.000000 0.000000 0.000000 0.000000 0.037459
#
#
# Mechanical properties :
#
#
# Convention : Reuss Voigt Hill
#
# Bulk Modulus (GPa) = 62.84879 65.45447 64.15163
# Shear Modulus (GPa) = 24.63066 25.08670 24.85868
#
# Velocity S-wave (km/s) = 3.69966 3.73376 3.71675
# Velocity P-wave (km/s) = 7.29217 7.41361 7.35314
#
# Compressibility (1/GPa) = 0.01591120
#
# Stress axis : x y z
#
# Youngs Moduli (GPa) = 64.72713 67.66288 60.71758
#
# Poissons Ratio (x) = 0.27604 0.21596
# Poissons Ratio (y) = 0.26407 0.47099
# Poissons Ratio (z) = 0.23022 0.52487
#
# Static dielectric constant tensor:
#      x y z
#    x 3.395100 0.000000 0.000000 
#    y 0.000000 3.523060 0.000000 
#    z 0.000000 0.000000 3.381730 
# 
# 
# High freq. dielectric constant tensor:
#      x y z
#    x 1.705340 0.000000 0.000000 
#    y 0.000000 1.693910 0.000000 
#    z 0.000000 0.000000 1.674170 
# 
# From -- ./inp_files/24338.got.cif
#   From: 2010.03.12/outbox.cif.g09.slc.cpg/sg40_13_cif.got.tgz:24338.got - 2010.04.14 01:38:03.
