data_PCOD8182774
_publ_section_title
;
Structure prediction by ZEFSAII (Michael W. Deem and Ramdas Pophale) SiO2 
 PCOD8182774
Probable space group: A M A 2
;
_chemical_formula_sum "Si O2"
_cell_formula_units_Z 52
_cell_length_a 14.483664
_cell_length_b 17.376393
_cell_length_c 11.048298
_cell_angle_alpha 90.000000
_cell_angle_beta 90.000000
_cell_angle_gamma 90.000000
_cell_volume 2780.567558
_symmetry_space_group_name_H-M "A M A 2"
_symmetry_group_IT_number 40
_symmetry_cell_setting 'orthorhombic'
loop_
_space_group_symop_operation_xyz
x,y,z
-x,-y,z
1/2-x,y,z
1/2+x,-y,z
x,1/2+y,1/2+z
-x,1/2-y,1/2+z
1/2-x,1/2+y,1/2+z
1/2+x,1/2-y,1/2+z
loop_
_atom_site_type_symbol
_atom_site_label
_atom_site_fract_x
_atom_site_fract_y
_atom_site_fract_z
Si Si1 0.000000 0.000000 0.460150
Si Si2 0.145072 0.558840 0.786348
Si Si3 0.988105 0.157435 0.864300
Si Si4 0.851884 0.291578 0.929211
Si Si5 0.073967 0.113891 0.636616
Si Si6 0.850856 0.020568 0.804325
Si Si7 0.146981 0.590370 0.518859
O O1 0.911416 0.999532 0.371843
O O2 0.002194 0.923379 0.544787
O O3 0.250000 0.532100 0.801982
O O4 0.130241 0.647351 0.823682
O O5 0.113273 0.556340 0.647180
O O6 0.925946 0.224568 0.916238
O O7 0.930197 0.082561 0.824397
O O8 0.034472 0.175157 0.734231
O O9 0.067648 0.145803 0.965099
O O10 0.750000 0.254946 0.917952
O O11 0.856263 0.335040 0.057912
O O12 0.124360 0.042356 0.702142
O O13 0.750000 0.056338 0.770257
O O14 0.841917 0.981996 0.933668
O O15 0.250000 0.630382 0.530966
#
# Coordination Sequence:
#
# PCOD8182774 Si02
#       7
#     4   8   8   8   8   8   8
#     4  10  18  34  58  80 108 140 194 228 268 324
#     4   9  20  36  56  80 109 147 182 219 278 339
#     4  11  21  34  59  84 112 144 190 233 282 328
#     4  10  22  37  55  80 112 148 183 225 283 342
#     4  10  19  37  54  83 111 151 189 231 277 336
#     4  10  19  34  59  87 113 143 184 237 281 327
#     4   9  19  35  55  81 109 142 182 227 278 335
#
# _framework density 18.701218999999998
#
# number of rings (size 3 to 8) (size 9 to 14) (size 15 to 20)
#    0.000    2.154    1.538    2.308    4.308    1.231 
#    0.000    0.000    0.000    3.692    0.000    0.000 
#    0.000    0.000    0.000    0.000    0.000    0.000 
#
# Total GULP energy -322116.279728 kJ/mol
# GULP energy per Si atom -12389.087682 kJ/mol
# Density = 1.865865 g / cm^3
# Si number density = 18.701219 Si / 1000 Ang^3
#
#
#
# Elastic Constant Matrix: (Units=GPa)
#
#
# Indices 1 2 3 4 5 6 
#
# 1 96.6488 24.4618 41.1938 0.0000 0.0000 0.0000
# 2 24.4618 44.8588 24.4550 0.0000 0.0000 0.0000
# 3 41.1938 24.4550 131.9057 0.0000 0.0000 0.0000
# 4 0.0000 0.0000 0.0000 20.1390 0.0000 0.0000
# 5 0.0000 0.0000 0.0000 0.0000 18.5758 0.0000
# 6 0.0000 0.0000 0.0000 0.0000 0.0000 28.5135
#
#
#
# Elastic Compliance Matrix: (Units=1/GPa)
#
#
# Indices 1 2 3 4 5 6 
#
# 1 0.013027 -0.005435 -0.003061 0.000000 0.000000 0.000000
# 2 -0.005435 0.027066 -0.003321 0.000000 0.000000 0.000000
# 3 -0.003061 -0.003321 0.009153 0.000000 0.000000 0.000000
# 4 0.000000 0.000000 0.000000 0.049655 0.000000 0.000000
# 5 0.000000 0.000000 0.000000 0.000000 0.053834 0.000000
# 6 0.000000 0.000000 0.000000 0.000000 0.000000 0.035071
#
#
# Mechanical properties :
#
#
# Convention : Reuss Voigt Hill
#
# Bulk Modulus (GPa) = 39.04264 50.40382 44.72323
# Shear Modulus (GPa) = 22.72977 25.66583 24.19780
#
# Velocity S-wave (km/s) = 3.49006 3.70863 3.60101
# Velocity P-wave (km/s) = 6.09616 6.73419 6.42310
#
# Compressibility (1/GPa) = 0.02561302
#
# Stress axis : x y z
#
# Youngs Moduli (GPa) = 76.76449 36.94636 109.25826
#
# Poissons Ratio (x) = 0.20081 0.33440
# Poissons Ratio (y) = 0.41722 0.36281
# Poissons Ratio (z) = 0.23494 0.12269
#
# Static dielectric constant tensor:
#      x y z
#    x 3.836010 0.000000 0.000000 
#    y 0.000000 3.039330 0.000000 
#    z 0.000000 0.000000 3.717720 
# 
# 
# High freq. dielectric constant tensor:
#      x y z
#    x 1.736640 0.000000 0.000000 
#    y 0.000000 1.680820 0.000000 
#    z 0.000000 0.000000 1.746810 
# 
# From -- ./inp_files/12317.got.cif
#   From: 2010.03.12/outbox.cif.g09.slc.cpg/sg40_7_cif.got.tgz:12317.got - 2010.04.14 01:38:03.
