data_PCOD8182483
_publ_section_title
;
Structure prediction by ZEFSAII (Michael W. Deem and Ramdas Pophale) SiO2 
 PCOD8182483
Probable space group: A M A 2
;
_chemical_formula_sum "Si O2"
_cell_formula_units_Z 56
_cell_length_a 8.836805
_cell_length_b 13.544267
_cell_length_c 29.200744
_cell_angle_alpha 90.000000
_cell_angle_beta 90.000000
_cell_angle_gamma 90.000000
_cell_volume 3494.980001
_symmetry_space_group_name_H-M "A M A 2"
_symmetry_group_IT_number 40
_symmetry_cell_setting 'orthorhombic'
loop_
_space_group_symop_operation_xyz
x,y,z
-x,-y,z
1/2-x,y,z
1/2+x,-y,z
x,1/2+y,1/2+z
-x,1/2-y,1/2+z
1/2-x,1/2+y,1/2+z
1/2+x,1/2-y,1/2+z
loop_
_atom_site_type_symbol
_atom_site_label
_atom_site_fract_x
_atom_site_fract_y
_atom_site_fract_z
Si Si1 0.930407 0.608947 0.752180
Si Si2 0.573100 0.600257 0.021041
Si Si3 0.427766 0.606318 0.842917
Si Si4 0.925538 0.301312 0.938317
Si Si5 0.572234 0.893682 0.161443
Si Si6 0.925538 0.801312 0.066043
Si Si7 0.426900 0.899743 0.983318
O O1 0.750000 0.608844 0.752180
O O2 0.000000 0.500000 0.752180
O O3 0.994388 0.658887 0.798649
O O4 0.994388 0.658887 0.705711
O O5 0.500000 0.500000 0.040011
O O6 0.750000 0.584485 0.019658
O O7 0.525267 0.689069 0.054992
O O8 0.517814 0.622690 0.969623
O O9 0.500000 0.500000 0.853083
O O10 0.250000 0.592472 0.834037
O O11 0.461604 0.677884 0.885444
O O12 0.750000 0.317734 0.949764
O O13 0.974732 0.189069 0.949368
O O14 0.750000 0.907528 0.170323
O O15 0.538396 0.822116 0.118916
O O16 0.500000 0.000000 0.151277
O O17 0.750000 0.817734 0.054596
O O18 0.017814 0.877310 0.034737
O O19 0.250000 0.915515 0.984702
O O20 0.500000 0.000000 0.964349
#
# Coordination Sequence:
#
# PCOD8182483 Si02
#       7
#     8   8   8   8   8   8   8
#     4  10  18  28  42  62  87 114 143 174 213 258
#     4  10  19  31  46  65  90 118 148 182 219 257
#     4  10  18  29  44  63  88 116 145 177 214 255
#     4   9  19  32  46  65  88 117 151 182 215 258
#     4  10  18  29  44  63  88 116 145 177 214 255
#     4   9  19  32  46  65  88 117 151 182 215 258
#     4  10  19  31  46  65  90 118 148 182 219 257
#
# _framework density 16.022981999999999
#
# number of rings (size 3 to 8) (size 9 to 14) (size 15 to 20)
#    0.000    2.286    0.000    5.571    0.000    5.714 
#    0.000    0.000    0.000    0.000    0.000    1.000 
#    0.000    0.000    0.000    0.000    0.000    0.000 
#
# Total GULP energy -347165.542920 kJ/mol
# GULP energy per Si atom -12398.769390 kJ/mol
# Density = 1.598651 g / cm^3
# Si number density = 16.022982 Si / 1000 Ang^3
#
#
#
# Elastic Constant Matrix: (Units=GPa)
#
#
# Indices 1 2 3 4 5 6 
#
# 1 90.1201 35.5509 53.0171 0.0000 0.0000 0.0000
# 2 35.5509 81.5318 45.4344 0.0000 0.0000 0.0000
# 3 53.0171 45.4344 129.0396 0.0000 0.0000 0.0000
# 4 0.0000 0.0000 0.0000 19.4149 0.0000 0.0000
# 5 0.0000 0.0000 0.0000 0.0000 26.6870 0.0000
# 6 0.0000 0.0000 0.0000 0.0000 0.0000 23.3989
#
#
#
# Elastic Compliance Matrix: (Units=1/GPa)
#
#
# Indices 1 2 3 4 5 6 
#
# 1 0.015628 -0.004026 -0.005003 0.000000 0.000000 0.000000
# 2 -0.004026 0.016296 -0.004084 0.000000 0.000000 0.000000
# 3 -0.005003 -0.004084 0.011243 0.000000 0.000000 0.000000
# 4 0.000000 0.000000 0.000000 0.051507 0.000000 0.000000
# 5 0.000000 0.000000 0.000000 0.000000 0.037471 0.000000
# 6 0.000000 0.000000 0.000000 0.000000 0.000000 0.042737
#
#
# Mechanical properties :
#
#
# Convention : Reuss Voigt Hill
#
# Bulk Modulus (GPa) = 59.02832 63.18849 61.10841
# Shear Modulus (GPa) = 24.18307 25.01277 24.59792
#
# Velocity S-wave (km/s) = 3.88915 3.95531 3.92237
# Velocity P-wave (km/s) = 7.55560 7.77052 7.66382
#
# Compressibility (1/GPa) = 0.01694102
#
# Stress axis : x y z
#
# Youngs Moduli (GPa) = 63.98771 61.36314 88.94384
#
# Poissons Ratio (x) = 0.24707 0.44501
# Poissons Ratio (y) = 0.25763 0.36322
# Poissons Ratio (z) = 0.32015 0.25059
#
# Static dielectric constant tensor:
#      x y z
#    x 3.154740 0.000000 0.000000 
#    y 0.000000 2.914830 0.000000 
#    z 0.000000 0.000000 3.432950 
# 
# 
# High freq. dielectric constant tensor:
#      x y z
#    x 1.632620 0.000000 0.000000 
#    y 0.000000 1.580700 0.000000 
#    z 0.000000 0.000000 1.615730 
# 
# From -- ./inp_files/26395.got.cif
#   From: 2010.03.12/outbox.cif.g09.slc.cpg/sg40_14_cif.got.tgz:26395.got - 2010.04.14 01:38:03.
