data_PCOD8182047
_publ_section_title
;
Structure prediction by ZEFSAII (Michael W. Deem and Ramdas Pophale) SiO2 
 PCOD8182047
Probable space group: A B M 2
;
_chemical_formula_sum "Si O2"
_cell_formula_units_Z 56
_cell_length_a 20.136712
_cell_length_b 9.363227
_cell_length_c 15.022790
_cell_angle_alpha 90.000000
_cell_angle_beta 90.000000
_cell_angle_gamma 90.000000
_cell_volume 2832.466014
_symmetry_space_group_name_H-M "A B M 2"
_symmetry_group_IT_number 39
_symmetry_cell_setting 'orthorhombic'
loop_
_space_group_symop_operation_xyz
x,y,z
-x,-y,z
-x,1/2+y,z
x,1/2-y,z
x,1/2+y,1/2+z
-x,1/2-y,1/2+z
-x,y,1/2+z
x,-y,1/2+z
loop_
_atom_site_type_symbol
_atom_site_label
_atom_site_fract_x
_atom_site_fract_y
_atom_site_fract_z
Si Si1 0.156207 0.586605 0.023520
Si Si2 0.931490 0.580909 0.360877
Si Si3 0.165354 0.415286 0.203781
Si Si4 0.562994 0.086652 0.208236
Si Si5 0.558757 0.406475 0.995248
Si Si6 0.697683 0.086700 0.025990
Si Si7 0.687332 0.584254 0.200801
O O1 0.140667 0.750000 0.046989
O O2 0.149439 0.501083 0.114542
O O3 0.230356 0.574129 0.979517
O O4 0.104058 0.528871 0.951431
O O5 0.943201 0.750000 0.361806
O O6 0.885938 0.534404 0.278417
O O7 0.000000 0.500000 0.351141
O O8 0.156539 0.250000 0.179501
O O9 0.239743 0.441464 0.243383
O O10 0.559865 0.250000 0.241168
O O11 0.563303 0.076093 0.101596
O O12 0.500000 0.000000 0.246522
O O13 0.629713 0.010934 0.246756
O O14 0.500000 0.500000 0.952936
O O15 0.536992 0.250000 0.966741
O O16 0.634133 0.440901 0.959942
O O17 0.689259 0.250000 0.065244
O O18 0.695482 0.964386 0.099412
O O19 0.665938 0.750000 0.204596
#
# Coordination Sequence:
#
# PCOD8182047 Si02
#       7
#     8   8   8   8   8   8   8
#     4   9  18  34  56  78 102 135 176 216 256 305
#     4  10  22  39  57  80 108 137 170 211 259 317
#     4   9  19  35  54  77 107 139 173 214 261 311
#     4   9  15  22  33  54  87 125 164 208 253 297
#     4   8  13  19  29  49  80 115 150 190 236 280
#     4   8  14  25  40  60  87 121 162 205 245 292
#     4   9  15  24  40  62  89 124 164 206 250 298
#
# _framework density 19.770758000000001
#
# number of rings (size 3 to 8) (size 9 to 14) (size 15 to 20)
#    0.000    3.143    0.000    1.714    0.000    5.714 
#    0.000    2.857    0.000    0.000    0.000    1.000 
#    0.000    2.286    0.000    0.857    0.000    4.000 
#
# Total GULP energy -346882.571225 kJ/mol
# GULP energy per Si atom -12388.663258 kJ/mol
# Density = 1.972576 g / cm^3
# Si number density = 19.770758 Si / 1000 Ang^3
#
#
#
# Elastic Constant Matrix: (Units=GPa)
#
#
# Indices 1 2 3 4 5 6 
#
# 1 186.9330 78.7986 50.7471 0.0000 0.0000 0.0000
# 2 78.7986 101.0436 34.7996 0.0000 0.0000 0.0000
# 3 50.7471 34.7996 57.0895 0.0000 0.0000 0.0000
# 4 0.0000 0.0000 0.0000 14.3657 0.0000 0.0000
# 5 0.0000 0.0000 0.0000 0.0000 -10.4455 0.0000
# 6 0.0000 0.0000 0.0000 0.0000 0.0000 38.4217
#
#
#
# Elastic Compliance Matrix: (Units=1/GPa)
#
#
# Indices 1 2 3 4 5 6 
#
# 1 0.008840 -0.005300 -0.004627 0.000000 0.000000 0.000000
# 2 -0.005300 0.015704 -0.004861 0.000000 0.000000 0.000000
# 3 -0.004627 -0.004861 0.024593 0.000000 0.000000 0.000000
# 4 0.000000 0.000000 0.000000 0.069610 0.000000 0.000000
# 5 0.000000 0.000000 0.000000 0.000000 -0.095735 0.000000
# 6 0.000000 0.000000 0.000000 0.000000 0.000000 0.026027
#
#
# Mechanical properties :
#
#
# Convention : Reuss Voigt Hill
#
# Bulk Modulus (GPa) = 51.12567 74.86188 62.99377
# Shear Modulus (GPa) = 58.72957 20.51644 39.62300
#
# Velocity S-wave (km/s) = 5.45617 3.22485 4.48160
# Velocity P-wave (km/s) = 8.09990 7.19815 7.66230
#
# Compressibility (1/GPa) = 0.01955965
#
# Stress axis : x y z
#
# Youngs Moduli (GPa) = 113.12476 63.67672 40.66258
#
# Poissons Ratio (x) = 0.33750 0.18814
# Poissons Ratio (y) = 0.59958 0.19768
# Poissons Ratio (z) = 0.52342 0.30956
#
# Static dielectric constant tensor:
#      x y z
#    x 4.090450 0.000000 0.000000 
#    y 0.000000 3.580030 0.000000 
#    z 0.000000 0.000000 3.007210 
# 
# 
# High freq. dielectric constant tensor:
#      x y z
#    x 1.791420 0.000000 0.000000 
#    y 0.000000 1.768600 0.000000 
#    z 0.000000 0.000000 1.716050 
# 
# From -- ./inp_files/10358.got.cif
#   From: 2010.03.12/outbox.cif.g09.slc.cpg/sg39_6_cif.got.tgz:10358.got - 2010.04.14 02:53:20.
