data_PCOD8182671
_publ_section_title
;
Structure prediction by ZEFSAII (Michael W. Deem and Ramdas Pophale) SiO2 
 PCOD8182671
Probable space group: A M A 2
;
_chemical_formula_sum "Si O2"
_cell_formula_units_Z 64
_cell_length_a 19.728238
_cell_length_b 9.213835
_cell_length_c 19.236789
_cell_angle_alpha 90.000000
_cell_angle_beta 90.000000
_cell_angle_gamma 90.000000
_cell_volume 3496.723649
_symmetry_space_group_name_H-M "A M A 2"
_symmetry_group_IT_number 40
_symmetry_cell_setting 'orthorhombic'
loop_
_space_group_symop_operation_xyz
x,y,z
-x,-y,z
1/2-x,y,z
1/2+x,-y,z
x,1/2+y,1/2+z
-x,1/2-y,1/2+z
1/2-x,1/2+y,1/2+z
1/2+x,1/2-y,1/2+z
loop_
_atom_site_type_symbol
_atom_site_label
_atom_site_fract_x
_atom_site_fract_y
_atom_site_fract_z
Si Si1 0.020667 0.712091 0.535440
Si Si2 0.828584 0.078025 0.872786
Si Si3 0.326677 0.695900 0.075724
Si Si4 0.890989 0.546323 0.516036
Si Si5 0.560034 0.889759 0.813291
Si Si6 0.826587 0.394254 0.916774
Si Si7 0.056930 0.889269 0.409557
Si Si8 0.453307 0.638101 0.157337
O O1 0.085273 0.607864 0.546532
O O2 0.043023 0.853203 0.491066
O O3 0.958241 0.637535 0.494014
O O4 0.993024 0.742068 0.612804
O O5 0.750000 0.052498 0.856206
O O6 0.846102 0.250569 0.872240
O O7 0.871521 0.986613 0.816826
O O8 0.845500 0.014876 0.948773
O O9 0.250000 0.675819 0.102984
O O10 0.346696 0.867225 0.073818
O O11 0.378069 0.609568 0.125969
O O12 0.336015 0.639037 0.997832
O O13 0.557962 0.761484 0.868812
O O14 0.554499 0.816088 0.737525
O O15 0.500000 0.000000 0.830427
O O16 0.750000 0.439806 0.900142
O O17 0.871844 0.531561 0.897044
O O18 0.000000 0.000000 0.382058
O O19 0.500000 0.500000 0.152165
#
# Coordination Sequence:
#
# PCOD8182671 Si02
#       8
#     8   8   8   8   8   8   8   8
#     4  10  18  31  55  80 109 144 185 237 284 324
#     4  10  19  35  58  81 112 150 183 226 283 337
#     4   9  17  33  56  80 110 147 184 229 285 337
#     4   9  16  30  52  82 108 139 187 230 270 337
#     4  11  23  38  54  80 113 149 194 233 274 342
#     4   9  19  34  55  84 112 139 179 231 285 333
#     4  12  21  33  56  82 111 142 180 234 289 323
#     4  10  21  36  54  79 108 147 193 235 278 341
#
# _framework density 18.302847
#
# number of rings (size 3 to 8) (size 9 to 14) (size 15 to 20)
#    0.000    2.000    1.250    6.000    0.000    1.000 
#    4.500    0.000    0.000    0.750    0.000    0.000 
#    0.000    0.000    0.000    0.000    0.000    0.000 
#
# Total GULP energy -396656.419534 kJ/mol
# GULP energy per Si atom -12395.513110 kJ/mol
# Density = 1.826119 g / cm^3
# Si number density = 18.302847 Si / 1000 Ang^3
#
#
#
# Elastic Constant Matrix: (Units=GPa)
#
#
# Indices 1 2 3 4 5 6 
#
# 1 116.4007 55.0789 35.9676 0.0000 0.0000 0.0000
# 2 55.0789 87.2672 37.5621 0.0000 0.0000 0.0000
# 3 35.9676 37.5621 79.4833 0.0000 0.0000 0.0000
# 4 0.0000 0.0000 0.0000 17.7189 0.0000 0.0000
# 5 0.0000 0.0000 0.0000 0.0000 18.5012 0.0000
# 6 0.0000 0.0000 0.0000 0.0000 0.0000 35.0810
#
#
#
# Elastic Compliance Matrix: (Units=1/GPa)
#
#
# Indices 1 2 3 4 5 6 
#
# 1 0.012616 -0.006911 -0.002443 0.000000 0.000000 0.000000
# 2 -0.006911 0.018171 -0.005460 0.000000 0.000000 0.000000
# 3 -0.002443 -0.005460 0.016267 0.000000 0.000000 0.000000
# 4 0.000000 0.000000 0.000000 0.056437 0.000000 0.000000
# 5 0.000000 0.000000 0.000000 0.000000 0.054051 0.000000
# 6 0.000000 0.000000 0.000000 0.000000 0.000000 0.028505
#
#
# Mechanical properties :
#
#
# Convention : Reuss Voigt Hill
#
# Bulk Modulus (GPa) = 57.38473 60.04093 58.71283
# Shear Modulus (GPa) = 22.57501 24.56306 23.56904
#
# Velocity S-wave (km/s) = 3.51581 3.66735 3.59238
# Velocity P-wave (km/s) = 6.92114 7.12797 7.02532
#
# Compressibility (1/GPa) = 0.01742624
#
# Stress axis : x y z
#
# Youngs Moduli (GPa) = 79.26341 55.03225 61.47438
#
# Poissons Ratio (x) = 0.38034 0.15018
# Poissons Ratio (y) = 0.54781 0.33564
# Poissons Ratio (z) = 0.19364 0.30047
#
# Static dielectric constant tensor:
#      x y z
#    x 3.562930 0.000000 0.000000 
#    y 0.000000 3.366070 0.000000 
#    z 0.000000 0.000000 3.277610 
# 
# 
# High freq. dielectric constant tensor:
#      x y z
#    x 1.719700 0.000000 0.000000 
#    y 0.000000 1.703450 0.000000 
#    z 0.000000 0.000000 1.674470 
# 
# From -- ./inp_files/23590.got.cif
#   From: 2010.03.12/outbox.cif.g09.slc.cpg/sg40_12_cif.got.tgz:23590.got - 2010.04.14 01:38:03.
