data_PCOD8182590
_publ_section_title
;
Structure prediction by ZEFSAII (Michael W. Deem and Ramdas Pophale) SiO2 
 PCOD8182590
Probable space group: A M A 2
;
_chemical_formula_sum "Si O2"
_cell_formula_units_Z 64
_cell_length_a 8.907627
_cell_length_b 19.761000
_cell_length_c 20.820024
_cell_angle_alpha 90.000000
_cell_angle_beta 90.000000
_cell_angle_gamma 90.000000
_cell_volume 3664.815934
_symmetry_space_group_name_H-M "A M A 2"
_symmetry_group_IT_number 40
_symmetry_cell_setting 'orthorhombic'
loop_
_space_group_symop_operation_xyz
x,y,z
-x,-y,z
1/2-x,y,z
1/2+x,-y,z
x,1/2+y,1/2+z
-x,1/2-y,1/2+z
1/2-x,1/2+y,1/2+z
1/2+x,1/2-y,1/2+z
loop_
_atom_site_type_symbol
_atom_site_label
_atom_site_fract_x
_atom_site_fract_y
_atom_site_fract_z
Si Si1 0.074439 0.433347 0.171160
Si Si2 0.928282 0.432135 0.308988
Si Si3 0.074147 0.932542 0.203632
Si Si4 0.428524 0.788849 0.246252
Si Si5 0.073335 0.931663 0.055941
Si Si6 0.926734 0.798330 0.008092
Si Si7 0.076268 0.287395 0.129146
Si Si8 0.073362 0.707489 0.365976
O O1 0.250000 0.446572 0.183034
O O2 0.047741 0.368098 0.126073
O O3 0.000000 0.500000 0.138402
O O4 0.993708 0.419497 0.238444
O O5 0.750000 0.439715 0.304675
O O6 0.979107 0.369440 0.353130
O O7 0.000000 0.500000 0.339334
O O8 0.250000 0.941775 0.210136
O O9 0.016202 0.866569 0.241911
O O10 0.025232 0.922470 0.129939
O O11 0.000000 0.000000 0.233140
O O12 0.250000 0.786120 0.243759
O O13 0.483370 0.745737 0.186054
O O14 0.495737 0.758042 0.312401
O O15 0.250000 0.936250 0.047194
O O16 0.011513 0.868495 0.017015
O O17 0.000000 0.000000 0.027984
O O18 0.750000 0.812880 0.011069
O O19 0.976591 0.743372 0.061002
O O20 0.974241 0.770194 0.937728
O O21 0.250000 0.271290 0.142017
O O22 0.250000 0.711201 0.357658
#
# Coordination Sequence:
#
# PCOD8182590 Si02
#       8
#     8   8   8   8   8   8   8   8
#     4  10  19  31  48  74 100 127 162 201 248 293
#     4  10  18  30  48  70  97 131 164 200 240 286
#     4   9  18  30  49  74 100 127 161 203 247 293
#     4  10  18  33  54  75  98 129 169 206 246 297
#     4  10  19  32  49  73 102 136 171 206 245 293
#     4  10  20  35  51  72 102 135 168 206 252 303
#     4  10  20  32  51  76 101 128 163 208 253 293
#     4   9  19  33  51  72  98 133 169 203 246 297
#
# _framework density 17.463359000000001
#
# number of rings (size 3 to 8) (size 9 to 14) (size 15 to 20)
#    0.000    2.250    2.500    1.875    0.000    2.000 
#    0.000    3.125    0.000    0.750    0.000    0.000 
#    0.000    0.000    0.000    0.000    0.000    0.000 
#
# Total GULP energy -396720.137138 kJ/mol
# GULP energy per Si atom -12397.504286 kJ/mol
# Density = 1.742361 g / cm^3
# Si number density = 17.463359 Si / 1000 Ang^3
#
#
#
# Elastic Constant Matrix: (Units=GPa)
#
#
# Indices 1 2 3 4 5 6 
#
# 1 47.7642 33.4852 24.8601 0.0000 0.0000 0.0000
# 2 33.4852 137.1561 69.0443 0.0000 0.0000 0.0000
# 3 24.8601 69.0443 106.7862 0.0000 0.0000 0.0000
# 4 0.0000 0.0000 0.0000 24.5493 0.0000 0.0000
# 5 0.0000 0.0000 0.0000 0.0000 15.2312 0.0000
# 6 0.0000 0.0000 0.0000 0.0000 0.0000 26.7064
#
#
#
# Elastic Compliance Matrix: (Units=1/GPa)
#
#
# Indices 1 2 3 4 5 6 
#
# 1 0.025840 -0.004863 -0.002871 0.000000 0.000000 0.000000
# 2 -0.004863 0.011724 -0.006448 0.000000 0.000000 0.000000
# 3 -0.002871 -0.006448 0.014202 0.000000 0.000000 0.000000
# 4 0.000000 0.000000 0.000000 0.040734 0.000000 0.000000
# 5 0.000000 0.000000 0.000000 0.000000 0.065655 0.000000
# 6 0.000000 0.000000 0.000000 0.000000 0.000000 0.037444
#
#
# Mechanical properties :
#
#
# Convention : Reuss Voigt Hill
#
# Bulk Modulus (GPa) = 42.73335 60.72060 51.72697
# Shear Modulus (GPa) = 21.57352 24.25186 22.91269
#
# Velocity S-wave (km/s) = 3.51858 3.73061 3.62614
# Velocity P-wave (km/s) = 6.40552 7.30769 6.87142
#
# Compressibility (1/GPa) = 0.02340093
#
# Stress axis : x y z
#
# Youngs Moduli (GPa) = 38.69980 85.29236 70.41126
#
# Poissons Ratio (x) = 0.41479 0.20217
# Poissons Ratio (y) = 0.18820 0.45404
# Poissons Ratio (z) = 0.11112 0.55000
#
# Static dielectric constant tensor:
#      x y z
#    x 3.152210 0.000000 0.000000 
#    y 0.000000 3.616340 0.000000 
#    z 0.000000 0.000000 3.218210 
# 
# 
# High freq. dielectric constant tensor:
#      x y z
#    x 1.666480 0.000000 0.000000 
#    y 0.000000 1.683400 0.000000 
#    z 0.000000 0.000000 1.647600 
# 
# From -- ./inp_files/22531.got.cif
#   From: 2010.03.12/outbox.cif.g09.slc.cpg/sg40_12_cif.got.tgz:22531.got - 2010.04.14 01:38:03.
