data_PCOD8182712
_publ_section_title
;
Structure prediction by ZEFSAII (Michael W. Deem and Ramdas Pophale) SiO2 
 PCOD8182712
Probable space group: A M A 2
;
_chemical_formula_sum "Si O2"
_cell_formula_units_Z 64
_cell_length_a 17.854848
_cell_length_b 14.127043
_cell_length_c 13.792648
_cell_angle_alpha 90.000000
_cell_angle_beta 90.000000
_cell_angle_gamma 90.000000
_cell_volume 3479.005195
_symmetry_space_group_name_H-M "A M A 2"
_symmetry_group_IT_number 40
_symmetry_cell_setting 'orthorhombic'
loop_
_space_group_symop_operation_xyz
x,y,z
-x,-y,z
1/2-x,y,z
1/2+x,-y,z
x,1/2+y,1/2+z
-x,1/2-y,1/2+z
1/2-x,1/2+y,1/2+z
1/2+x,1/2-y,1/2+z
loop_
_atom_site_type_symbol
_atom_site_label
_atom_site_fract_x
_atom_site_fract_y
_atom_site_fract_z
Si Si1 0.838295 0.510162 0.517320
Si Si2 0.928505 0.855986 0.672818
Si Si3 0.579935 0.503806 0.002305
Si Si4 0.338621 0.147517 0.165394
Si Si5 0.838636 0.491752 0.296372
Si Si6 0.338847 0.776674 0.046093
Si Si7 0.162629 0.134482 0.380810
Si Si8 0.598410 0.650053 0.156501
O O1 0.750000 0.502738 0.521885
O O2 0.872758 0.430556 0.590174
O O3 0.864728 0.498857 0.407188
O O4 0.864085 0.614813 0.547481
O O5 0.882241 0.765241 0.637961
O O6 0.014508 0.830177 0.696571
O O7 0.929930 0.936126 0.593108
O O8 0.884600 0.899646 0.763522
O O9 0.500000 0.500000 0.946128
O O10 0.643757 0.466118 0.930606
O O11 0.600661 0.604686 0.048350
O O12 0.250000 0.135654 0.166762
O O13 0.373199 0.134406 0.273579
O O14 0.359460 0.252833 0.134119
O O15 0.750000 0.474482 0.284773
O O16 0.858734 0.586975 0.236748
O O17 0.250000 0.763081 0.059722
O O18 0.365358 0.722967 0.946987
O O19 0.250000 0.142915 0.369390
#
# Coordination Sequence:
#
# PCOD8182712 Si02
#       8
#     8   8   8   8   8   8   8   8
#     4   9  19  34  52  74 102 133 171 213 250 291
#     4   9  18  32  50  77 106 129 161 210 253 292
#     4   8  16  31  50  71  99 128 158 200 247 289
#     4  10  20  35  51  71 100 131 163 206 250 294
#     4  10  18  32  55  79 100 131 171 210 251 297
#     4   9  16  31  54  76  97 130 171 208 245 292
#     4   9  17  30  52  76  96 123 165 207 243 286
#     4  10  19  33  52  76 103 133 164 200 249 303
#
# _framework density 18.396063000000002
#
# number of rings (size 3 to 8) (size 9 to 14) (size 15 to 20)
#    0.000    2.750    0.000    2.625    0.000    5.500 
#    0.000    9.375    0.000    4.500    0.000    0.000 
#    0.000    0.000    0.000    0.000    0.000    0.000 
#
# Total GULP energy -396556.730561 kJ/mol
# GULP energy per Si atom -12392.397830 kJ/mol
# Density = 1.835419 g / cm^3
# Si number density = 18.396063 Si / 1000 Ang^3
#
#
#
# Elastic Constant Matrix: (Units=GPa)
#
#
# Indices 1 2 3 4 5 6 
#
# 1 23.1243 11.7029 13.5329 0.0000 0.0000 0.0000
# 2 11.7029 122.8947 70.0832 0.0000 0.0000 0.0000
# 3 13.5329 70.0832 80.6477 0.0000 0.0000 0.0000
# 4 0.0000 0.0000 0.0000 15.8631 0.0000 0.0000
# 5 0.0000 0.0000 0.0000 0.0000 5.6580 0.0000
# 6 0.0000 0.0000 0.0000 0.0000 0.0000 16.9781
#
#
#
# Elastic Compliance Matrix: (Units=1/GPa)
#
#
# Indices 1 2 3 4 5 6 
#
# 1 0.047954 0.000044 -0.008085 0.000000 0.000000 0.000000
# 2 0.000044 0.016131 -0.014025 0.000000 0.000000 0.000000
# 3 -0.008085 -0.014025 0.025945 0.000000 0.000000 0.000000
# 4 0.000000 0.000000 0.000000 0.063039 0.000000 0.000000
# 5 0.000000 0.000000 0.000000 0.000000 0.176740 0.000000
# 6 0.000000 0.000000 0.000000 0.000000 0.000000 0.058899
#
#
# Mechanical properties :
#
#
# Convention : Reuss Voigt Hill
#
# Bulk Modulus (GPa) = 21.78808 46.36718 34.07763
# Shear Modulus (GPa) = 11.15723 16.45637 13.80680
#
# Velocity S-wave (km/s) = 2.46540 2.99416 2.74255
# Velocity P-wave (km/s) = 4.46921 6.10025 5.34728
#
# Compressibility (1/GPa) = 0.04589666
#
# Stress axis : x y z
#
# Youngs Moduli (GPa) = 20.85335 61.99188 38.54373
#
# Poissons Ratio (x) = -0.00275 0.31164
# Poissons Ratio (y) = -0.00092 0.54059
# Poissons Ratio (z) = 0.16861 0.86947
#
# Static dielectric constant tensor:
#      x y z
#    x 3.419020 0.000000 0.000000 
#    y 0.000000 3.579470 0.000000 
#    z 0.000000 0.000000 3.532280 
# 
# 
# High freq. dielectric constant tensor:
#      x y z
#    x 1.698340 0.000000 0.000000 
#    y 0.000000 1.708980 0.000000 
#    z 0.000000 0.000000 1.701690 
# 
# From -- ./inp_files/13168.got.cif
#   From: 2010.03.12/outbox.cif.g09.slc.cpg/sg40_7_cif.got.tgz:13168.got - 2010.04.14 01:38:03.
