data_PCOD8182638
_publ_section_title
;
Structure prediction by ZEFSAII (Michael W. Deem and Ramdas Pophale) SiO2 
 PCOD8182638
Probable space group: A M A 2
;
_chemical_formula_sum "Si O2"
_cell_formula_units_Z 64
_cell_length_a 8.783879
_cell_length_b 22.483104
_cell_length_c 15.493488
_cell_angle_alpha 90.000000
_cell_angle_beta 90.000000
_cell_angle_gamma 90.000000
_cell_volume 3059.791361
_symmetry_space_group_name_H-M "A M A 2"
_symmetry_group_IT_number 40
_symmetry_cell_setting 'orthorhombic'
loop_
_space_group_symop_operation_xyz
x,y,z
-x,-y,z
1/2-x,y,z
1/2+x,-y,z
x,1/2+y,1/2+z
-x,1/2-y,1/2+z
1/2-x,1/2+y,1/2+z
1/2+x,1/2-y,1/2+z
loop_
_atom_site_type_symbol
_atom_site_label
_atom_site_fract_x
_atom_site_fract_y
_atom_site_fract_z
Si Si1 0.572682 0.063875 0.296070
Si Si2 0.576160 0.061719 0.635127
Si Si3 0.427126 0.270462 0.570966
Si Si4 0.074500 0.061699 0.955075
Si Si5 0.073507 0.818592 0.890674
Si Si6 0.569584 0.434616 0.963079
Si Si7 0.575921 0.185850 0.700603
Si Si8 0.076125 0.614130 0.635881
O O1 0.750000 0.056835 0.313684
O O2 0.494515 0.098141 0.377594
O O3 0.542494 0.101860 0.211418
O O4 0.500000 0.000000 0.279589
O O5 0.750000 0.046347 0.612032
O O6 0.494415 0.091539 0.551838
O O7 0.562006 0.113690 0.705671
O O8 0.500000 0.000000 0.666772
O O9 0.250000 0.285254 0.587882
O O10 0.456824 0.269367 0.466548
O O11 0.470762 0.210774 0.622965
O O12 0.540611 0.319576 0.606897
O O13 0.250000 0.058124 0.930899
O O14 0.048302 0.068442 0.057704
O O15 0.000000 0.000000 0.923581
O O16 0.009400 0.119187 0.907240
O O17 0.250000 0.834942 0.886650
O O18 0.023847 0.792159 0.796592
O O19 0.500000 0.500000 0.956281
O O20 0.750000 0.433430 0.963314
O O21 0.750000 0.204332 0.680981
O O22 0.250000 0.610240 0.668784
#
# Coordination Sequence:
#
# PCOD8182638 Si02
#       8
#     8   8   8   8   8   8   8   8
#     4  11  20  31  49  76 111 150 196 244 294 351
#     4  10  20  36  58  84 115 151 188 236 293 351
#     4  10  21  39  62  86 114 151 196 247 296 347
#     4  10  20  33  54  84 118 156 195 238 291 351
#     4   9  20  40  62  85 117 155 196 245 297 348
#     4  10  18  31  50  73 106 147 186 231 285 340
#     4  10  22  41  64  88 118 156 194 241 299 353
#     4  10  20  35  54  78 111 152 196 244 297 349
#
# _framework density 20.916457999999999
#
# number of rings (size 3 to 8) (size 9 to 14) (size 15 to 20)
#    0.000    2.000    0.000    5.625    0.000    5.000 
#    2.250    1.250    0.000    0.000    0.000    0.000 
#    0.000    0.000    0.000    0.000    0.000    0.000 
#
# Total GULP energy -396581.694214 kJ/mol
# GULP energy per Si atom -12393.177944 kJ/mol
# Density = 2.086885 g / cm^3
# Si number density = 20.916458 Si / 1000 Ang^3
#
#
#
# Elastic Constant Matrix: (Units=GPa)
#
#
# Indices 1 2 3 4 5 6 
#
# 1 124.5875 25.0328 44.2383 0.0000 0.0000 0.0000
# 2 25.0328 68.2259 34.7641 0.0000 0.0000 0.0000
# 3 44.2383 34.7641 121.4566 0.0000 0.0000 0.0000
# 4 0.0000 0.0000 0.0000 23.9172 0.0000 0.0000
# 5 0.0000 0.0000 0.0000 0.0000 26.4513 0.0000
# 6 0.0000 0.0000 0.0000 0.0000 0.0000 30.4292
#
#
#
# Elastic Compliance Matrix: (Units=1/GPa)
#
#
# Indices 1 2 3 4 5 6 
#
# 1 0.009447 -0.002005 -0.002867 0.000000 0.000000 0.000000
# 2 -0.002005 0.017586 -0.004303 0.000000 0.000000 0.000000
# 3 -0.002867 -0.004303 0.010509 0.000000 0.000000 0.000000
# 4 0.000000 0.000000 0.000000 0.041811 0.000000 0.000000
# 5 0.000000 0.000000 0.000000 0.000000 0.037805 0.000000
# 6 0.000000 0.000000 0.000000 0.000000 0.000000 0.032863
#
#
# Mechanical properties :
#
#
# Convention : Reuss Voigt Hill
#
# Bulk Modulus (GPa) = 52.10699 58.03784 55.07241
# Shear Modulus (GPa) = 28.60903 30.17518 29.39210
#
# Velocity S-wave (km/s) = 3.70236 3.80235 3.75269
# Velocity P-wave (km/s) = 6.57591 6.86184 6.72040
#
# Compressibility (1/GPa) = 0.01919128
#
# Stress axis : x y z
#
# Youngs Moduli (GPa) = 105.84851 56.86477 95.15387
#
# Poissons Ratio (x) = 0.11404 0.27281
# Poissons Ratio (y) = 0.21228 0.40945
# Poissons Ratio (z) = 0.30347 0.24469
#
# Static dielectric constant tensor:
#      x y z
#    x 3.779280 0.000000 0.000000 
#    y 0.000000 3.424950 0.000000 
#    z 0.000000 0.000000 4.479760 
# 
# 
# High freq. dielectric constant tensor:
#      x y z
#    x 1.825910 0.000000 0.000000 
#    y 0.000000 1.788560 0.000000 
#    z 0.000000 0.000000 1.828360 
# 
# From -- ./inp_files/15568.got.cif
#   From: 2010.03.12/outbox.cif.g09.slc.cpg/sg40_8_cif.got.tgz:15568.got - 2010.04.14 01:38:03.
