data_PCOD8182401
_publ_section_title
;
Structure prediction by ZEFSAII (Michael W. Deem and Ramdas Pophale) SiO2 
 PCOD8182401
Probable space group: A M A 2
;
_chemical_formula_sum "Si O2"
_cell_formula_units_Z 64
_cell_length_a 17.612623
_cell_length_b 20.262563
_cell_length_c 9.235532
_cell_angle_alpha 90.000000
_cell_angle_beta 90.000000
_cell_angle_gamma 90.000000
_cell_volume 3295.947874
_symmetry_space_group_name_H-M "A M A 2"
_symmetry_group_IT_number 40
_symmetry_cell_setting 'orthorhombic'
loop_
_space_group_symop_operation_xyz
x,y,z
-x,-y,z
1/2-x,y,z
1/2+x,-y,z
x,1/2+y,1/2+z
-x,1/2-y,1/2+z
1/2-x,1/2+y,1/2+z
1/2+x,1/2-y,1/2+z
loop_
_atom_site_type_symbol
_atom_site_label
_atom_site_fract_x
_atom_site_fract_y
_atom_site_fract_z
Si Si1 0.586284 0.487040 0.428330
Si Si2 0.121101 0.889006 0.260327
Si Si3 0.047648 0.140758 0.227150
Si Si4 0.079628 0.286873 0.250617
Si Si5 0.337289 0.386989 0.428159
Si Si6 0.835776 0.226315 0.457606
Si Si7 0.837197 0.469560 0.729816
Si Si8 0.932790 0.845867 0.886124
O O1 0.500000 0.500000 0.480938
O O2 0.616017 0.553259 0.347974
O O3 0.642892 0.481169 0.563049
O O4 0.592960 0.419578 0.333767
O O5 0.167467 0.833959 0.346639
O O6 0.032152 0.881705 0.291881
O O7 0.147255 0.961664 0.313968
O O8 0.138654 0.878019 0.092981
O O9 0.070341 0.210830 0.294926
O O10 0.110445 0.089817 0.286764
O O11 0.040642 0.144624 0.052739
O O12 0.145008 0.318590 0.348397
O O13 0.999903 0.323278 0.279892
O O14 0.105415 0.292330 0.084280
O O15 0.250000 0.404104 0.413564
O O16 0.750000 0.239111 0.514975
O O17 0.864448 0.293205 0.378115
O O18 0.750000 0.448219 0.747008
#
# Coordination Sequence:
#
# PCOD8182401 Si02
#       8
#     8   8   8   8   8   8   8   8
#     4  10  17  31  55  80 111 141 187 235 278 328
#     4  11  19  37  59  83 113 149 189 233 285 346
#     4  10  20  34  60  80 112 146 195 235 277 337
#     4  11  21  37  57  84 115 155 187 232 279 345
#     4  11  21  34  59  88 112 144 189 236 290 336
#     4  11  24  37  57  87 120 152 187 236 294 342
#     4  10  19  31  53  86 115 141 184 241 293 324
#     4  10  19  36  58  82 111 151 190 235 281 336
#
# _framework density 19.417783
#
# number of rings (size 3 to 8) (size 9 to 14) (size 15 to 20)
#    0.000    1.500    3.750    5.250    0.000    5.500 
#    0.000    0.000    5.500    0.000    0.000    0.000 
#    0.000    0.000    0.000    0.000    0.000    0.000 
#
# Total GULP energy -396677.925856 kJ/mol
# GULP energy per Si atom -12396.185183 kJ/mol
# Density = 1.937359 g / cm^3
# Si number density = 19.417783 Si / 1000 Ang^3
#
#
#
# Elastic Constant Matrix: (Units=GPa)
#
#
# Indices 1 2 3 4 5 6 
#
# 1 146.2577 64.0911 22.4692 0.0000 0.0000 0.0000
# 2 64.0911 128.3900 44.4171 0.0000 0.0000 0.0000
# 3 22.4692 44.4171 32.4053 0.0000 0.0000 0.0000
# 4 0.0000 0.0000 0.0000 24.3869 0.0000 0.0000
# 5 0.0000 0.0000 0.0000 0.0000 18.5048 0.0000
# 6 0.0000 0.0000 0.0000 0.0000 0.0000 33.5318
#
#
#
# Elastic Compliance Matrix: (Units=1/GPa)
#
#
# Indices 1 2 3 4 5 6 
#
# 1 0.008752 -0.004316 -0.000152 0.000000 0.000000 0.000000
# 2 -0.004316 0.016941 -0.020228 0.000000 0.000000 0.000000
# 3 -0.000152 -0.020228 0.058691 0.000000 0.000000 0.000000
# 4 0.000000 0.000000 0.000000 0.041006 0.000000 0.000000
# 5 0.000000 0.000000 0.000000 0.000000 0.054040 0.000000
# 6 0.000000 0.000000 0.000000 0.000000 0.000000 0.029822
#
#
# Mechanical properties :
#
#
# Convention : Reuss Voigt Hill
#
# Bulk Modulus (GPa) = 28.57897 63.22309 45.90103
# Shear Modulus (GPa) = 18.49724 27.02308 22.76016
#
# Velocity S-wave (km/s) = 3.08976 3.73455 3.42735
# Velocity P-wave (km/s) = 5.24201 7.15723 6.27314
#
# Compressibility (1/GPa) = 0.03499077
#
# Stress axis : x y z
#
# Youngs Moduli (GPa) = 114.25894 59.02667 17.03830
#
# Poissons Ratio (x) = 0.25477 0.00260
# Poissons Ratio (y) = 0.49317 0.34466
# Poissons Ratio (z) = 0.01741 1.19402
#
# Static dielectric constant tensor:
#      x y z
#    x 3.579530 0.000000 0.000000 
#    y 0.000000 4.276830 0.000000 
#    z 0.000000 0.000000 3.058510 
# 
# 
# High freq. dielectric constant tensor:
#      x y z
#    x 1.767110 0.000000 0.000000 
#    y 0.000000 1.783190 0.000000 
#    z 0.000000 0.000000 1.690300 
# 
# From -- ./inp_files/7778.got.cif
#   From: 2010.03.12/outbox.cif.g09.slc.cpg/sg40_4_cif.got.tgz:7778.got - 2010.04.14 01:38:03.
