data_PCOD8182667
_publ_section_title
;
Structure prediction by ZEFSAII (Michael W. Deem and Ramdas Pophale) SiO2 
 PCOD8182667
Probable space group: A M A 2
;
_chemical_formula_sum "Si O2"
_cell_formula_units_Z 64
_cell_length_a 9.089913
_cell_length_b 28.736620
_cell_length_c 12.605495
_cell_angle_alpha 90.000000
_cell_angle_beta 90.000000
_cell_angle_gamma 90.000000
_cell_volume 3292.723901
_symmetry_space_group_name_H-M "A M A 2"
_symmetry_group_IT_number 40
_symmetry_cell_setting 'orthorhombic'
loop_
_space_group_symop_operation_xyz
x,y,z
-x,-y,z
1/2-x,y,z
1/2+x,-y,z
x,1/2+y,1/2+z
-x,1/2-y,1/2+z
1/2-x,1/2+y,1/2+z
1/2+x,1/2-y,1/2+z
loop_
_atom_site_type_symbol
_atom_site_label
_atom_site_fract_x
_atom_site_fract_y
_atom_site_fract_z
Si Si1 0.414377 0.916641 0.727060
Si Si2 0.424543 0.549779 0.797513
Si Si3 0.423690 0.302318 0.071985
Si Si4 0.077808 0.110535 0.094843
Si Si5 0.581027 0.096033 0.493670
Si Si6 0.076734 0.204228 0.999923
Si Si7 0.916269 0.044431 0.945142
Si Si8 0.422313 0.172159 0.775131
O O1 0.250000 0.893337 0.731601
O O2 0.438874 0.932594 0.604863
O O3 0.422675 0.956787 0.815990
O O4 0.542847 0.881699 0.758057
O O5 0.500000 0.500000 0.776259
O O6 0.250000 0.542442 0.802845
O O7 0.469979 0.586089 0.704732
O O8 0.477824 0.571799 0.907787
O O9 0.250000 0.300664 0.083532
O O10 0.493194 0.298356 0.187595
O O11 0.468847 0.349962 0.010836
O O12 0.488177 0.255853 0.017227
O O13 0.250000 0.102856 0.074018
O O14 0.038318 0.165971 0.092181
O O15 0.992005 0.089536 0.994631
O O16 0.750000 0.093615 0.454689
O O17 0.250000 0.208413 0.991262
O O18 0.012997 0.187096 0.888309
O O19 0.750000 0.042107 0.986173
O O20 0.000000 0.000000 0.991071
O O21 0.250000 0.180776 0.764365
#
# Coordination Sequence:
#
# PCOD8182667 Si02
#       8
#     8   8   8   8   8   8   8   8
#     4   9  19  36  56  80 109 144 180 223 283 343
#     4  11  24  40  60  83 113 153 199 246 296 350
#     4   9  19  36  56  81 116 157 191 232 292 348
#     4  10  21  39  59  82 113 151 193 237 289 346
#     4   9  19  37  59  81 113 151 191 234 285 344
#     4   9  18  34  57  82 112 152 192 231 287 346
#     4  11  22  35  55  83 113 143 182 228 281 341
#     4  10  18  31  54  80 108 143 185 233 280 334
#
# _framework density 19.436793999999999
#
# number of rings (size 3 to 8) (size 9 to 14) (size 15 to 20)
#    0.000    2.250    1.250    2.250    0.000    6.000 
#    0.000    3.125    0.000    0.000    0.000    0.000 
#    0.000    0.000    0.000    0.000    0.000    0.000 
#
# Total GULP energy -396535.430254 kJ/mol
# GULP energy per Si atom -12391.732195 kJ/mol
# Density = 1.939255 g / cm^3
# Si number density = 19.436794 Si / 1000 Ang^3
#
#
#
# Elastic Constant Matrix: (Units=GPa)
#
#
# Indices 1 2 3 4 5 6 
#
# 1 51.6168 26.3017 30.1467 0.0000 0.0000 0.0000
# 2 26.3017 78.6357 26.9603 0.0000 0.0000 0.0000
# 3 30.1467 26.9603 99.8598 0.0000 0.0000 0.0000
# 4 0.0000 0.0000 0.0000 25.9657 0.0000 0.0000
# 5 0.0000 0.0000 0.0000 0.0000 29.7326 0.0000
# 6 0.0000 0.0000 0.0000 0.0000 0.0000 21.2424
#
#
#
# Elastic Compliance Matrix: (Units=1/GPa)
#
#
# Indices 1 2 3 4 5 6 
#
# 1 0.026390 -0.006717 -0.006153 0.000000 0.000000 0.000000
# 2 -0.006717 0.015724 -0.002217 0.000000 0.000000 0.000000
# 3 -0.006153 -0.002217 0.012470 0.000000 0.000000 0.000000
# 4 0.000000 0.000000 0.000000 0.038512 0.000000 0.000000
# 5 0.000000 0.000000 0.000000 0.000000 0.033633 0.000000
# 6 0.000000 0.000000 0.000000 0.000000 0.000000 0.047076
#
#
# Mechanical properties :
#
#
# Convention : Reuss Voigt Hill
#
# Bulk Modulus (GPa) = 40.96923 44.10330 42.53627
# Shear Modulus (GPa) = 23.57184 25.16836 24.37010
#
# Velocity S-wave (km/s) = 3.48622 3.60235 3.54476
# Velocity P-wave (km/s) = 6.10974 6.32791 6.21978
#
# Compressibility (1/GPa) = 0.02440856
#
# Stress axis : x y z
#
# Youngs Moduli (GPa) = 37.89286 63.59785 80.19036
#
# Poissons Ratio (x) = 0.42720 0.49345
# Poissons Ratio (y) = 0.25453 0.17781
# Poissons Ratio (z) = 0.23317 0.14102
#
# Static dielectric constant tensor:
#      x y z
#    x 3.394990 0.000000 0.000000 
#    y 0.000000 3.735870 0.000000 
#    z 0.000000 0.000000 3.689670 
# 
# 
# High freq. dielectric constant tensor:
#      x y z
#    x 1.745080 0.000000 0.000000 
#    y 0.000000 1.749700 0.000000 
#    z 0.000000 0.000000 1.759360 
# 
# From -- ./inp_files/10547.got.cif
#   From: 2010.03.12/outbox.cif.g09.slc.cpg/sg40_6_cif.got.tgz:10547.got - 2010.04.14 01:38:03.
