data_PCOD8182494
_publ_section_title
;
Structure prediction by ZEFSAII (Michael W. Deem and Ramdas Pophale) SiO2 
 PCOD8182494
Probable space group: A M A 2
;
_chemical_formula_sum "Si O2"
_cell_formula_units_Z 56
_cell_length_a 8.982020
_cell_length_b 18.513255
_cell_length_c 20.854715
_cell_angle_alpha 90.000000
_cell_angle_beta 90.000000
_cell_angle_gamma 90.000000
_cell_volume 3467.856037
_symmetry_space_group_name_H-M "A M A 2"
_symmetry_group_IT_number 40
_symmetry_cell_setting 'orthorhombic'
loop_
_space_group_symop_operation_xyz
x,y,z
-x,-y,z
1/2-x,y,z
1/2+x,-y,z
x,1/2+y,1/2+z
-x,1/2-y,1/2+z
1/2-x,1/2+y,1/2+z
1/2+x,1/2-y,1/2+z
loop_
_atom_site_type_symbol
_atom_site_label
_atom_site_fract_x
_atom_site_fract_y
_atom_site_fract_z
Si Si1 0.428532 0.353384 0.745220
Si Si2 0.576878 0.075516 0.374866
Si Si3 0.577333 0.151887 0.506244
Si Si4 0.087574 0.211712 0.690663
Si Si5 0.586531 0.716803 0.552790
Si Si6 0.074076 0.425724 0.615528
Si Si7 0.929008 0.424197 0.122838
O O1 0.250000 0.347895 0.744258
O O2 0.489896 0.386930 0.811089
O O3 0.493465 0.270523 0.737058
O O4 0.484102 0.403211 0.686437
O O5 0.750000 0.060247 0.365193
O O6 0.545703 0.128427 0.433801
O O7 0.500000 0.000000 0.388388
O O8 0.750000 0.144624 0.524669
O O9 0.527995 0.235653 0.511235
O O10 0.483253 0.099760 0.552542
O O11 0.250000 0.194916 0.719683
O O12 0.104705 0.250263 0.622744
O O13 0.010784 0.133896 0.676415
O O14 0.750000 0.717524 0.519514
O O15 0.528439 0.634658 0.562439
O O16 0.250000 0.435339 0.616878
O O17 0.000000 0.500000 0.593929
O O18 0.750000 0.428239 0.121648
O O19 0.000000 0.500000 0.142261
#
# Coordination Sequence:
#
# PCOD8182494 Si02
#       7
#     8   8   8   8   8   8   8
#     4   8  14  27  43  59  82 111 140 169 199 240
#     4  10  20  30  42  61  85 112 142 170 198 235
#     4  10  19  29  41  60  84 112 144 175 203 238
#     4   7  12  24  42  59  76 102 136 168 202 243
#     4   8  15  28  43  59  80 109 140 170 208 252
#     4   9  16  26  43  65  87 110 137 169 209 250
#     4  10  18  28  43  63  85 110 137 169 210 252
#
# _framework density 16.148306000000002
#
# number of rings (size 3 to 8) (size 9 to 14) (size 15 to 20)
#    0.000    3.143    0.000    4.286    0.000    2.857 
#    0.000    0.000    0.000    4.286    0.000    1.000 
#    0.000    4.571    0.000    0.000    0.000    0.286 
#
# Total GULP energy -346873.533457 kJ/mol
# GULP energy per Si atom -12388.340481 kJ/mol
# Density = 1.611155 g / cm^3
# Si number density = 16.148306 Si / 1000 Ang^3
#
#
#
# Elastic Constant Matrix: (Units=GPa)
#
#
# Indices 1 2 3 4 5 6 
#
# 1 43.4938 40.6155 24.6754 0.0000 0.0000 0.0000
# 2 40.6155 151.8014 44.8238 0.0000 0.0000 0.0000
# 3 24.6754 44.8238 53.2477 0.0000 0.0000 0.0000
# 4 0.0000 0.0000 0.0000 23.9250 0.0000 0.0000
# 5 0.0000 0.0000 0.0000 0.0000 10.3753 0.0000
# 6 0.0000 0.0000 0.0000 0.0000 0.0000 25.9047
#
#
#
# Elastic Compliance Matrix: (Units=1/GPa)
#
#
# Indices 1 2 3 4 5 6 
#
# 1 0.034957 -0.006081 -0.011080 0.000000 0.000000 0.000000
# 2 -0.006081 0.009825 -0.005452 0.000000 0.000000 0.000000
# 3 -0.011080 -0.005452 0.028504 0.000000 0.000000 0.000000
# 4 0.000000 0.000000 0.000000 0.041797 0.000000 0.000000
# 5 0.000000 0.000000 0.000000 0.000000 0.096382 0.000000
# 6 0.000000 0.000000 0.000000 0.000000 0.000000 0.038603
#
#
# Mechanical properties :
#
#
# Convention : Reuss Voigt Hill
#
# Bulk Modulus (GPa) = 35.63961 52.08579 43.86270
# Shear Modulus (GPa) = 16.41239 21.26956 18.84097
#
# Velocity S-wave (km/s) = 3.19149 3.63318 3.41947
# Velocity P-wave (km/s) = 5.97486 7.06574 6.54307
#
# Compressibility (1/GPa) = 0.02805867
#
# Stress axis : x y z
#
# Youngs Moduli (GPa) = 28.60696 101.78597 35.08228
#
# Poissons Ratio (x) = 0.61898 0.38871
# Poissons Ratio (y) = 0.17396 0.19128
# Poissons Ratio (z) = 0.31697 0.55496
#
# Static dielectric constant tensor:
#      x y z
#    x 2.881870 0.000000 0.000000 
#    y 0.000000 3.516270 0.000000 
#    z 0.000000 0.000000 2.891490 
# 
# 
# High freq. dielectric constant tensor:
#      x y z
#    x 1.597180 0.000000 0.000000 
#    y 0.000000 1.633060 0.000000 
#    z 0.000000 0.000000 1.578410 
# 
# From -- ./inp_files/22321.got.cif
#   From: 2010.03.12/outbox.cif.g09.slc.cpg/sg40_12_cif.got.tgz:22321.got - 2010.04.14 01:38:03.
