data_PCOD8182415
_publ_section_title
;
Structure prediction by ZEFSAII (Michael W. Deem and Ramdas Pophale) SiO2 
 PCOD8182415
Probable space group: A M A 2
;
_chemical_formula_sum "Si O2"
_cell_formula_units_Z 48
_cell_length_a 17.334265
_cell_length_b 8.958932
_cell_length_c 15.609652
_cell_angle_alpha 90.000000
_cell_angle_beta 90.000000
_cell_angle_gamma 90.000000
_cell_volume 2424.124344
_symmetry_space_group_name_H-M "A M A 2"
_symmetry_group_IT_number 40
_symmetry_cell_setting 'orthorhombic'
loop_
_space_group_symop_operation_xyz
x,y,z
-x,-y,z
1/2-x,y,z
1/2+x,-y,z
x,1/2+y,1/2+z
-x,1/2-y,1/2+z
1/2-x,1/2+y,1/2+z
1/2+x,1/2-y,1/2+z
loop_
_atom_site_type_symbol
_atom_site_label
_atom_site_fract_x
_atom_site_fract_y
_atom_site_fract_z
Si Si1 0.837714 0.258452 0.295260
Si Si2 0.434349 0.207696 0.478656
Si Si3 0.575585 0.594323 0.647867
Si Si4 0.911955 0.015460 0.882511
Si Si5 0.107823 0.884978 0.465855
Si Si6 0.162379 0.619948 0.543892
O O1 0.750000 0.251107 0.261605
O O2 0.897309 0.194128 0.226586
O O3 0.858526 0.434538 0.311591
O O4 0.844789 0.160635 0.381203
O O5 0.438123 0.295638 0.568130
O O6 0.396011 0.309568 0.402915
O O7 0.519265 0.159064 0.450770
O O8 0.381841 0.060077 0.486184
O O9 0.500000 0.500000 0.672472
O O10 0.642043 0.470610 0.629543
O O11 0.898511 0.929921 0.971601
O O12 0.000000 0.000000 0.853715
O O13 0.145805 0.798241 0.548108
O O14 0.250000 0.585082 0.517412
#
# Coordination Sequence:
#
# PCOD8182415 Si02
#       6
#     8   8   8   8   8   8
#     4  11  24  40  60  90 128 166 205 259 329 376
#     4  10  19  36  61  92 114 153 209 262 294 365
#     4  11  22  40  61  89 121 162 210 256 313 380
#     4  10  17  35  59  86 115 155 207 245 294 369
#     4  10  19  36  61  90 121 150 207 256 308 362
#     4  10  18  35  60  85 119 160 201 248 306 368
#
# _framework density 19.800965999999999
#
# number of rings (size 3 to 8) (size 9 to 14) (size 15 to 20)
#    0.000    1.667    5.000    3.500    2.333    0.000 
#    3.000   11.667    0.000    0.000    0.000    0.000 
#    0.000    0.000    0.000    0.000    0.000    0.000 
#
# Total GULP energy -297370.286750 kJ/mol
# GULP energy per Si atom -12390.428615 kJ/mol
# Density = 1.975590 g / cm^3
# Si number density = 19.800966 Si / 1000 Ang^3
#
#
#
# Elastic Constant Matrix: (Units=GPa)
#
#
# Indices 1 2 3 4 5 6 
#
# 1 93.7853 43.7732 22.0055 0.0000 0.0000 0.0000
# 2 43.7732 161.2485 46.8866 0.0000 0.0000 0.0000
# 3 22.0055 46.8866 62.1630 0.0000 0.0000 0.0000
# 4 0.0000 0.0000 0.0000 30.1891 0.0000 0.0000
# 5 0.0000 0.0000 0.0000 0.0000 19.8376 0.0000
# 6 0.0000 0.0000 0.0000 0.0000 0.0000 24.1831
#
#
#
# Elastic Compliance Matrix: (Units=1/GPa)
#
#
# Indices 1 2 3 4 5 6 
#
# 1 0.012480 -0.002694 -0.002386 0.000000 0.000000 0.000000
# 2 -0.002694 0.008525 -0.005477 0.000000 0.000000 0.000000
# 3 -0.002386 -0.005477 0.021062 0.000000 0.000000 0.000000
# 4 0.000000 0.000000 0.000000 0.033125 0.000000 0.000000
# 5 0.000000 0.000000 0.000000 0.000000 0.050409 0.000000
# 6 0.000000 0.000000 0.000000 0.000000 0.000000 0.041351
#
#
# Mechanical properties :
#
#
# Convention : Reuss Voigt Hill
#
# Bulk Modulus (GPa) = 47.72287 60.28081 54.00184
# Shear Modulus (GPa) = 25.63442 28.47739 27.05590
#
# Velocity S-wave (km/s) = 3.60196 3.79645 3.70049
# Velocity P-wave (km/s) = 6.43836 7.05173 6.75201
#
# Compressibility (1/GPa) = 0.02095432
#
# Stress axis : x y z
#
# Youngs Moduli (GPa) = 80.12881 117.29639 47.47875
#
# Poissons Ratio (x) = 0.31601 0.11327
# Poissons Ratio (y) = 0.21588 0.26002
# Poissons Ratio (z) = 0.19117 0.64239
#
# Static dielectric constant tensor:
#      x y z
#    x 3.452560 0.000000 0.000000 
#    y 0.000000 4.322640 0.000000 
#    z 0.000000 0.000000 3.294440 
# 
# 
# High freq. dielectric constant tensor:
#      x y z
#    x 1.767120 0.000000 0.000000 
#    y 0.000000 1.787330 0.000000 
#    z 0.000000 0.000000 1.730150 
# 
# From -- ./inp_files/17630.got.cif
#   From: 2010.03.12/outbox.cif.g09.slc.cpg/sg40_9_cif.got.tgz:17630.got - 2010.04.14 01:38:03.
