data_PCOD8182558
_publ_section_title
;
Structure prediction by ZEFSAII (Michael W. Deem and Ramdas Pophale) SiO2 
 PCOD8182558
Probable space group: A M A 2
;
_chemical_formula_sum "Si O2"
_cell_formula_units_Z 56
_cell_length_a 8.789436
_cell_length_b 19.010934
_cell_length_c 18.065648
_cell_angle_alpha 90.000000
_cell_angle_beta 90.000000
_cell_angle_gamma 90.000000
_cell_volume 3018.686456
_symmetry_space_group_name_H-M "A M A 2"
_symmetry_group_IT_number 40
_symmetry_cell_setting 'orthorhombic'
loop_
_space_group_symop_operation_xyz
x,y,z
-x,-y,z
1/2-x,y,z
1/2+x,-y,z
x,1/2+y,1/2+z
-x,1/2-y,1/2+z
1/2-x,1/2+y,1/2+z
1/2+x,1/2-y,1/2+z
loop_
_atom_site_type_symbol
_atom_site_label
_atom_site_fract_x
_atom_site_fract_y
_atom_site_fract_z
Si Si1 0.428121 0.931153 0.617410
Si Si2 0.430441 0.577459 0.751203
Si Si3 0.923415 0.826666 0.385709
Si Si4 0.076138 0.564491 0.274226
Si Si5 0.076276 0.802863 0.151750
Si Si6 0.428944 0.293543 0.038716
Si Si7 0.419056 0.720145 0.294483
O O1 0.250000 0.934517 0.605523
O O2 0.470867 0.930497 0.702700
O O3 0.494507 0.860739 0.581823
O O4 0.500000 0.000000 0.577763
O O5 0.500000 0.500000 0.742327
O O6 0.250000 0.573763 0.741727
O O7 0.472378 0.607066 0.833688
O O8 0.494035 0.628817 0.686907
O O9 0.750000 0.833823 0.412232
O O10 0.032046 0.811377 0.454291
O O11 0.942886 0.758096 0.335020
O O12 0.250000 0.547378 0.252861
O O13 0.065304 0.638326 0.315932
O O14 0.000000 0.500000 0.321674
O O15 0.250000 0.824405 0.136722
O O16 0.063685 0.736061 0.207115
O O17 0.003963 0.777198 0.073504
O O18 0.250000 0.283556 0.046716
O O19 0.250000 0.746458 0.319616
#
# Coordination Sequence:
#
# PCOD8182558 Si02
#       7
#     8   8   8   8   8   8   8
#     4  10  20  31  46  70 102 138 172 209 250 299
#     4  10  21  38  59  85 113 145 188 234 283 337
#     4  10  22  36  54  78 106 141 181 224 272 329
#     4  10  18  29  47  73 101 132 167 207 252 300
#     4  10  19  34  57  81 107 141 182 228 276 327
#     4  11  22  35  52  77 110 146 183 224 273 329
#     4   9  18  33  52  74 102 135 173 218 265 316
#
# _framework density 18.551114999999999
#
# number of rings (size 3 to 8) (size 9 to 14) (size 15 to 20)
#    0.000    2.000    1.429    3.429    0.000    5.714 
#    0.000    2.857    0.000    0.857    0.000    4.000 
#    0.000    0.000    0.000    0.000    0.000    0.000 
#
# Total GULP energy -346940.853280 kJ/mol
# GULP energy per Si atom -12390.744760 kJ/mol
# Density = 1.850889 g / cm^3
# Si number density = 18.551115 Si / 1000 Ang^3
#
#
#
# Elastic Constant Matrix: (Units=GPa)
#
#
# Indices 1 2 3 4 5 6 
#
# 1 79.6461 50.0339 29.8157 0.0000 0.0000 0.0000
# 2 50.0339 129.0233 35.9442 0.0000 0.0000 0.0000
# 3 29.8157 35.9442 58.1099 0.0000 0.0000 0.0000
# 4 0.0000 0.0000 0.0000 16.2713 0.0000 0.0000
# 5 0.0000 0.0000 0.0000 0.0000 25.7957 0.0000
# 6 0.0000 0.0000 0.0000 0.0000 0.0000 31.1888
#
#
#
# Elastic Compliance Matrix: (Units=1/GPa)
#
#
# Indices 1 2 3 4 5 6 
#
# 1 0.018181 -0.005378 -0.006002 0.000000 0.000000 0.000000
# 2 -0.005378 0.010955 -0.004017 0.000000 0.000000 0.000000
# 3 -0.006002 -0.004017 0.022773 0.000000 0.000000 0.000000
# 4 0.000000 0.000000 0.000000 0.061458 0.000000 0.000000
# 5 0.000000 0.000000 0.000000 0.000000 0.038766 0.000000
# 6 0.000000 0.000000 0.000000 0.000000 0.000000 0.032063
#
#
# Mechanical properties :
#
#
# Convention : Reuss Voigt Hill
#
# Bulk Modulus (GPa) = 47.35908 55.37407 51.36658
# Shear Modulus (GPa) = 22.51967 24.71686 23.61826
#
# Velocity S-wave (km/s) = 3.48792 3.65412 3.57199
# Velocity P-wave (km/s) = 6.46569 6.90780 6.69040
#
# Compressibility (1/GPa) = 0.02111527
#
# Stress axis : x y z
#
# Youngs Moduli (GPa) = 55.00240 91.28031 43.91203
#
# Poissons Ratio (x) = 0.49094 0.26355
# Poissons Ratio (y) = 0.29583 0.17639
# Poissons Ratio (z) = 0.33011 0.36666
#
# Static dielectric constant tensor:
#      x y z
#    x 3.488220 0.000000 0.000000 
#    y 0.000000 3.906950 0.000000 
#    z 0.000000 0.000000 3.112930 
# 
# 
# High freq. dielectric constant tensor:
#      x y z
#    x 1.733620 0.000000 0.000000 
#    y 0.000000 1.724860 0.000000 
#    z 0.000000 0.000000 1.678700 
# 
# From -- ./inp_files/22477.got.cif
#   From: 2010.03.12/outbox.cif.g09.slc.cpg/sg40_12_cif.got.tgz:22477.got - 2010.04.14 01:38:03.
