data_PCOD8182078
_publ_section_title
;
Structure prediction by ZEFSAII (Michael W. Deem and Ramdas Pophale) SiO2 
 PCOD8182078
Probable space group: A B M 2
;
_chemical_formula_sum "Si O2"
_cell_formula_units_Z 64
_cell_length_a 10.634343
_cell_length_b 18.382782
_cell_length_c 16.141648
_cell_angle_alpha 90.000000
_cell_angle_beta 90.000000
_cell_angle_gamma 90.000000
_cell_volume 3155.511544
_symmetry_space_group_name_H-M "A B M 2"
_symmetry_group_IT_number 39
_symmetry_cell_setting 'orthorhombic'
loop_
_space_group_symop_operation_xyz
x,y,z
-x,-y,z
-x,1/2+y,z
x,1/2-y,z
x,1/2+y,1/2+z
-x,1/2-y,1/2+z
-x,y,1/2+z
x,-y,1/2+z
loop_
_atom_site_type_symbol
_atom_site_label
_atom_site_fract_x
_atom_site_fract_y
_atom_site_fract_z
Si Si1 0.104065 0.671666 0.653010
Si Si2 0.857936 0.331441 0.249146
Si Si3 0.463244 0.080293 0.139915
Si Si4 0.833522 0.165813 0.920002
Si Si5 0.210472 0.049393 0.054020
Si Si6 0.730217 0.112344 0.089130
Si Si7 0.333774 0.330122 0.270303
Si Si8 0.926864 0.570880 0.888666
O O1 0.077939 0.750000 0.606695
O O2 0.102835 0.601972 0.592626
O O3 0.236570 0.677417 0.696266
O O4 0.002834 0.660044 0.724301
O O5 0.829420 0.250000 0.282200
O O6 0.770409 0.346343 0.171349
O O7 0.837769 0.391520 0.320188
O O8 0.347366 0.082814 0.074588
O O9 0.579158 0.113562 0.088736
O O10 0.441124 0.119671 0.228982
O O11 0.500000 0.000000 0.167871
O O12 0.857260 0.250000 0.898969
O O13 0.734225 0.134708 0.851248
O O14 0.968330 0.127261 0.919865
O O15 0.773622 0.157601 0.010103
O O16 0.206846 0.967828 0.089792
O O17 0.174443 0.046221 0.957710
O O18 0.389184 0.250000 0.292306
O O19 0.000000 0.500000 0.854322
#
# Coordination Sequence:
#
# PCOD8182078 Si02
#       8
#     8   8   8   8   8   8   8   8
#     4   9  18  34  59  86 117 161 201 250 318 378
#     4  11  24  39  60  90 131 168 203 260 320 374
#     4   9  21  42  64  86 123 166 209 261 309 369
#     4  11  22  40  64  90 127 164 205 261 324 381
#     4  10  22  40  61  91 124 160 210 259 310 374
#     4  11  23  41  62  91 125 167 216 259 311 371
#     4   9  18  36  62  89 117 158 210 254 305 380
#     4  12  24  38  61  96 129 164 206 263 315 383
#
# _framework density 20.281972
#
# number of rings (size 3 to 8) (size 9 to 14) (size 15 to 20)
#    0.000    1.750    2.500    1.500    1.750    4.000 
#    2.250    0.625    0.000    0.000    0.000    0.000 
#    0.000    0.000    0.000    0.000    0.000    0.000 
#
# Total GULP energy -396627.616569 kJ/mol
# GULP energy per Si atom -12394.613018 kJ/mol
# Density = 2.023581 g / cm^3
# Si number density = 20.281972 Si / 1000 Ang^3
#
#
#
# Elastic Constant Matrix: (Units=GPa)
#
#
# Indices 1 2 3 4 5 6 
#
# 1 60.8420 26.8014 26.7854 0.0000 0.0000 0.0000
# 2 26.8014 91.6642 30.9136 0.0000 0.0000 0.0000
# 3 26.7854 30.9136 94.1297 0.0000 0.0000 0.0000
# 4 0.0000 0.0000 0.0000 37.2615 0.0000 0.0000
# 5 0.0000 0.0000 0.0000 0.0000 27.0691 0.0000
# 6 0.0000 0.0000 0.0000 0.0000 0.0000 23.2004
#
#
#
# Elastic Compliance Matrix: (Units=1/GPa)
#
#
# Indices 1 2 3 4 5 6 
#
# 1 0.020307 -0.004486 -0.004306 0.000000 0.000000 0.000000
# 2 -0.004486 0.013259 -0.003078 0.000000 0.000000 0.000000
# 3 -0.004306 -0.003078 0.012860 0.000000 0.000000 0.000000
# 4 0.000000 0.000000 0.000000 0.026837 0.000000 0.000000
# 5 0.000000 0.000000 0.000000 0.000000 0.036942 0.000000
# 6 0.000000 0.000000 0.000000 0.000000 0.000000 0.043103
#
#
# Mechanical properties :
#
#
# Convention : Reuss Voigt Hill
#
# Bulk Modulus (GPa) = 44.07654 46.18186 45.12920
# Shear Modulus (GPa) = 27.08420 28.31524 27.69972
#
# Velocity S-wave (km/s) = 3.65825 3.74047 3.69959
# Velocity P-wave (km/s) = 6.29467 6.44004 6.36777
#
# Compressibility (1/GPa) = 0.02268780
#
# Stress axis : x y z
#
# Youngs Moduli (GPa) = 49.24303 75.42055 77.76245
#
# Poissons Ratio (x) = 0.33831 0.33481
# Poissons Ratio (y) = 0.22089 0.23936
# Poissons Ratio (z) = 0.21202 0.23215
#
# Static dielectric constant tensor:
#      x y z
#    x 3.656120 0.000000 0.000000 
#    y 0.000000 4.095990 0.000000 
#    z 0.000000 0.000000 3.584890 
# 
# 
# High freq. dielectric constant tensor:
#      x y z
#    x 1.777460 0.000000 0.000000 
#    y 0.000000 1.805080 0.000000 
#    z 0.000000 0.000000 1.778910 
# 
# From -- ./inp_files/9449.got.cif
#   From: 2010.03.12/outbox.cif.g09.slc.cpg/sg39_5_cif.got.tgz:9449.got - 2010.04.14 02:53:20.
