data_PCOD8182402
_publ_section_title
;
Structure prediction by ZEFSAII (Michael W. Deem and Ramdas Pophale) SiO2 
 PCOD8182402
Probable space group: A M A 2
;
_chemical_formula_sum "Si O2"
_cell_formula_units_Z 64
_cell_length_a 18.151818
_cell_length_b 11.984575
_cell_length_c 15.774046
_cell_angle_alpha 90.000000
_cell_angle_beta 90.000000
_cell_angle_gamma 90.000000
_cell_volume 3431.514742
_symmetry_space_group_name_H-M "A M A 2"
_symmetry_group_IT_number 40
_symmetry_cell_setting 'orthorhombic'
loop_
_space_group_symop_operation_xyz
x,y,z
-x,-y,z
1/2-x,y,z
1/2+x,-y,z
x,1/2+y,1/2+z
-x,1/2-y,1/2+z
1/2-x,1/2+y,1/2+z
1/2+x,1/2-y,1/2+z
loop_
_atom_site_type_symbol
_atom_site_label
_atom_site_fract_x
_atom_site_fract_y
_atom_site_fract_z
Si Si1 0.168341 0.684238 0.721320
Si Si2 0.662319 0.212316 0.372305
Si Si3 0.453572 0.808572 0.119188
Si Si4 0.076524 0.970114 0.274124
Si Si5 0.384158 0.189768 0.044397
Si Si6 0.083883 0.460075 0.479031
Si Si7 0.578720 0.366896 0.247645
Si Si8 0.085860 0.391676 0.292693
O O1 0.250000 0.659450 0.755262
O O2 0.116950 0.580482 0.742775
O O3 0.172636 0.707269 0.620772
O O4 0.139994 0.795887 0.764799
O O5 0.750000 0.206108 0.372028
O O6 0.631844 0.225407 0.467740
O O7 0.637346 0.314134 0.312303
O O8 0.629832 0.097089 0.336363
O O9 0.535563 0.788357 0.084788
O O10 0.419936 0.692918 0.155538
O O11 0.450885 0.899349 0.193501
O O12 0.404131 0.854963 0.041923
O O13 0.000000 0.000000 0.322773
O O14 0.369064 0.065103 0.010073
O O15 0.109663 0.423282 0.387187
O O16 0.000000 0.500000 0.478484
O O17 0.498337 0.349509 0.290049
O O18 0.595877 0.497780 0.234302
#
# Coordination Sequence:
#
# PCOD8182402 Si02
#       8
#     8   8   8   8   8   8   8   8
#     4  12  24  38  59  87 124 162 195 242 308 371
#     4  11  23  37  58  90 125 158 194 248 310 364
#     4  10  18  33  64  93 113 144 203 262 294 337
#     4  11  20  40  64  89 117 154 205 256 297 351
#     4  11  19  37  58  89 119 153 194 244 301 355
#     4  10  17  31  59  89 112 144 196 257 290 333
#     4  10  19  36  60  84 117 157 201 249 293 352
#     4  11  20  37  57  86 119 156 202 247 298 350
#
# _framework density 18.650656000000001
#
# number of rings (size 3 to 8) (size 9 to 14) (size 15 to 20)
#    0.000    1.250    6.250    2.625    0.000    0.500 
#    0.000    2.500    0.000    0.000    0.000    0.000 
#    0.000    0.000    0.000    0.000    0.000    0.000 
#
# Total GULP energy -396741.600991 kJ/mol
# GULP energy per Si atom -12398.175031 kJ/mol
# Density = 1.860821 g / cm^3
# Si number density = 18.650656 Si / 1000 Ang^3
#
#
#
# Elastic Constant Matrix: (Units=GPa)
#
#
# Indices 1 2 3 4 5 6 
#
# 1 99.8790 38.6830 39.7918 0.0000 0.0000 0.0000
# 2 38.6830 101.4252 62.4395 0.0000 0.0000 0.0000
# 3 39.7918 62.4395 116.8725 0.0000 0.0000 0.0000
# 4 0.0000 0.0000 0.0000 34.3854 0.0000 0.0000
# 5 0.0000 0.0000 0.0000 0.0000 16.3538 0.0000
# 6 0.0000 0.0000 0.0000 0.0000 0.0000 18.5004
#
#
#
# Elastic Compliance Matrix: (Units=1/GPa)
#
#
# Indices 1 2 3 4 5 6 
#
# 1 0.012214 -0.003127 -0.002488 0.000000 0.000000 0.000000
# 2 -0.003127 0.015492 -0.007212 0.000000 0.000000 0.000000
# 3 -0.002488 -0.007212 0.013257 0.000000 0.000000 0.000000
# 4 0.000000 0.000000 0.000000 0.029082 0.000000 0.000000
# 5 0.000000 0.000000 0.000000 0.000000 0.061148 0.000000
# 6 0.000000 0.000000 0.000000 0.000000 0.000000 0.054053
#
#
# Mechanical properties :
#
#
# Convention : Reuss Voigt Hill
#
# Bulk Modulus (GPa) = 65.32136 66.66726 65.99431
# Shear Modulus (GPa) = 23.14790 25.66543 24.40666
#
# Velocity S-wave (km/s) = 3.52679 3.71363 3.62141
# Velocity P-wave (km/s) = 7.18916 7.36280 7.27650
#
# Compressibility (1/GPa) = 0.01530893
#
# Stress axis : x y z
#
# Youngs Moduli (GPa) = 81.87076 64.54995 75.43443
#
# Poissons Ratio (x) = 0.20183 0.18770
# Poissons Ratio (y) = 0.25599 0.54404
# Poissons Ratio (z) = 0.20371 0.46554
#
# Static dielectric constant tensor:
#      x y z
#    x 3.267940 0.000000 0.000000 
#    y 0.000000 3.613840 0.000000 
#    z 0.000000 0.000000 3.596330 
# 
# 
# High freq. dielectric constant tensor:
#      x y z
#    x 1.703180 0.000000 0.000000 
#    y 0.000000 1.725750 0.000000 
#    z 0.000000 0.000000 1.720240 
# 
# From -- ./inp_files/21228.got.cif
#   From: 2010.03.12/outbox.cif.g09.slc.cpg/sg40_11_cif.got.tgz:21228.got - 2010.04.14 01:38:03.
