data_PCOD8182315
_publ_section_title
;
Structure prediction by ZEFSAII (Michael W. Deem and Ramdas Pophale) SiO2 
 PCOD8182315
Probable space group: A B M 2
;
_chemical_formula_sum "Si O2"
_cell_formula_units_Z 36
_cell_length_a 6.639240
_cell_length_b 23.868089
_cell_length_c 10.064799
_cell_angle_alpha 90.000000
_cell_angle_beta 90.000000
_cell_angle_gamma 90.000000
_cell_volume 1594.928149
_symmetry_space_group_name_H-M "A B M 2"
_symmetry_group_IT_number 39
_symmetry_cell_setting 'orthorhombic'
loop_
_space_group_symop_operation_xyz
x,y,z
-x,-y,z
-x,1/2+y,z
x,1/2-y,z
x,1/2+y,1/2+z
-x,1/2-y,1/2+z
-x,y,1/2+z
x,-y,1/2+z
loop_
_atom_site_type_symbol
_atom_site_label
_atom_site_fract_x
_atom_site_fract_y
_atom_site_fract_z
Si Si1 0.500000 0.500000 0.817520
Si Si2 0.217660 0.685801 0.120277
Si Si3 0.059026 0.357151 0.350129
Si Si4 0.594147 0.389716 0.674142
Si Si5 0.853753 0.544314 0.973130
O O1 0.489018 0.445152 0.728066
O O2 0.695240 0.501866 0.908863
O O3 0.284504 0.750000 0.113235
O O4 0.421464 0.649387 0.113886
O O5 0.095477 0.676407 0.256604
O O6 0.075864 0.671488 0.994667
O O7 0.282966 0.356950 0.287517
O O8 0.979377 0.421004 0.362963
O O9 0.754361 0.408285 0.563531
O O10 0.000000 0.500000 0.050137
#
# Coordination Sequence:
#
# PCOD8182315 Si02
#       5
#     4   8   8   8   8
#     4  12  24  42  72 110 150 196 242 308 376 452
#     4  12  29  52  78 107 150 203 257 318 375 442
#     4  12  26  51  75 111 148 196 257 315 375 452
#     4  12  27  45  74 111 151 193 255 308 378 446
#     4  12  26  43  71 109 153 198 240 302 378 453
#
# _framework density 22.571550999999999
#
# number of rings (size 3 to 8) (size 9 to 14) (size 15 to 20)
#    0.000    0.000    6.667    2.667    6.222    1.778 
#    0.000    0.000    0.000    0.000    0.000    0.000 
#    0.000    0.000    0.000    0.000    0.000    0.000 
#
# Total GULP energy -223237.323816 kJ/mol
# GULP energy per Si atom -12402.073545 kJ/mol
# Density = 2.252018 g / cm^3
# Si number density = 22.571551 Si / 1000 Ang^3
#
#
#
# Elastic Constant Matrix: (Units=GPa)
#
#
# Indices 1 2 3 4 5 6 
#
# 1 127.2614 68.6218 55.1417 0.0000 0.0000 0.0000
# 2 68.6218 150.7687 45.0903 0.0000 0.0000 0.0000
# 3 55.1417 45.0903 112.3113 0.0000 0.0000 0.0000
# 4 0.0000 0.0000 0.0000 27.2544 0.0000 0.0000
# 5 0.0000 0.0000 0.0000 0.0000 28.5889 0.0000
# 6 0.0000 0.0000 0.0000 0.0000 0.0000 40.5562
#
#
#
# Elastic Compliance Matrix: (Units=1/GPa)
#
#
# Indices 1 2 3 4 5 6 
#
# 1 0.011919 -0.004176 -0.004175 0.000000 0.000000 0.000000
# 2 -0.004176 0.009001 -0.001563 0.000000 0.000000 0.000000
# 3 -0.004175 -0.001563 0.011581 0.000000 0.000000 0.000000
# 4 0.000000 0.000000 0.000000 0.036691 0.000000 0.000000
# 5 0.000000 0.000000 0.000000 0.000000 0.034979 0.000000
# 6 0.000000 0.000000 0.000000 0.000000 0.000000 0.024657
#
#
# Mechanical properties :
#
#
# Convention : Reuss Voigt Hill
#
# Bulk Modulus (GPa) = 78.91492 80.89434 79.90463
# Shear Modulus (GPa) = 32.70512 34.04574 33.37543
#
# Velocity S-wave (km/s) = 3.81064 3.88796 3.84949
# Velocity P-wave (km/s) = 7.37559 7.48811 7.43206
#
# Compressibility (1/GPa) = 0.01267187
#
# Stress axis : x y z
#
# Youngs Moduli (GPa) = 83.90133 111.09926 86.34575
#
# Poissons Ratio (x) = 0.46396 0.36051
# Poissons Ratio (y) = 0.35038 0.13499
# Poissons Ratio (z) = 0.35030 0.17368
#
# Static dielectric constant tensor:
#      x y z
#    x 4.348600 0.000000 0.000000 
#    y 0.000000 3.924990 0.000000 
#    z 0.000000 0.000000 4.128120 
# 
# 
# High freq. dielectric constant tensor:
#      x y z
#    x 1.906260 0.000000 0.000000 
#    y 0.000000 1.885700 0.000000 
#    z 0.000000 0.000000 1.889330 
# 
# From -- ./inp_files/4474.got.cif
#   From: 2010.03.12/outbox.cif.g09.slc.cpg/sg39_3_cif.got.tgz:4474.got - 2010.04.14 02:53:20.
