data_PCOD8182707
_publ_section_title
;
Structure prediction by ZEFSAII (Michael W. Deem and Ramdas Pophale) SiO2 
 PCOD8182707
Probable space group: A M A 2
;
_chemical_formula_sum "Si O2"
_cell_formula_units_Z 64
_cell_length_a 15.437688
_cell_length_b 8.461851
_cell_length_c 23.917227
_cell_angle_alpha 90.000000
_cell_angle_beta 90.000000
_cell_angle_gamma 90.000000
_cell_volume 3124.341221
_symmetry_space_group_name_H-M "A M A 2"
_symmetry_group_IT_number 40
_symmetry_cell_setting 'orthorhombic'
loop_
_space_group_symop_operation_xyz
x,y,z
-x,-y,z
1/2-x,y,z
1/2+x,-y,z
x,1/2+y,1/2+z
-x,1/2-y,1/2+z
1/2-x,1/2+y,1/2+z
1/2+x,1/2-y,1/2+z
loop_
_atom_site_type_symbol
_atom_site_label
_atom_site_fract_x
_atom_site_fract_y
_atom_site_fract_z
Si Si1 0.002117 0.185265 0.751130
Si Si2 0.084779 0.398954 0.666317
Si Si3 0.151982 0.340420 0.959231
Si Si4 0.092649 0.412853 0.076286
Si Si5 0.152870 0.716997 0.682052
Si Si6 0.653951 0.788908 0.440050
Si Si7 0.509251 0.187966 0.372511
Si Si8 0.155254 0.242247 0.564277
O O1 0.905886 0.248376 0.736294
O O2 0.078598 0.259886 0.712466
O O3 0.026846 0.230242 0.813797
O O4 0.000000 0.000000 0.741557
O O5 0.161605 0.526119 0.675215
O O6 0.086568 0.322915 0.605025
O O7 0.000000 0.500000 0.672137
O O8 0.250000 0.268818 0.956485
O O9 0.155343 0.524358 0.946578
O O10 0.089293 0.262919 0.912646
O O11 0.108620 0.309800 0.020061
O O12 0.105330 0.298315 0.129089
O O13 0.161865 0.554478 0.076036
O O14 0.000000 0.500000 0.075772
O O15 0.250000 0.784180 0.690067
O O16 0.750000 0.730898 0.420677
O O17 0.580300 0.738123 0.396428
O O18 0.629592 0.717027 0.500636
O O19 0.500000 0.000000 0.365463
O O20 0.250000 0.311363 0.577690
#
# Coordination Sequence:
#
# PCOD8182707 Si02
#       8
#     8   8   8   8   8   8   8   8
#     4  11  24  42  59  78 109 150 198 245 294 357
#     4  10  21  37  56  79 110 145 185 232 291 352
#     4   9  17  31  53  85 117 149 190 237 286 347
#     4  11  19  32  57  87 122 159 194 233 285 347
#     4  11  22  37  58  87 117 150 192 244 300 357
#     4   8  16  30  53  82 111 143 184 227 277 343
#     4  10  19  35  57  79 107 146 192 241 290 339
#     4  10  18  32  54  83 113 144 182 225 271 332
#
# _framework density 20.484318999999999
#
# number of rings (size 3 to 8) (size 9 to 14) (size 15 to 20)
#    0.000    2.000    0.000    7.875    0.000    0.500 
#    0.000    6.875    0.000    1.500    0.000    0.000 
#    0.000    0.000    0.000    0.000    0.000    0.000 
#
# Total GULP energy -396609.813201 kJ/mol
# GULP energy per Si atom -12394.056663 kJ/mol
# Density = 2.043770 g / cm^3
# Si number density = 20.484319 Si / 1000 Ang^3
#
#
#
# Elastic Constant Matrix: (Units=GPa)
#
#
# Indices 1 2 3 4 5 6 
#
# 1 121.2927 14.1006 50.2643 0.0000 0.0000 0.0000
# 2 14.1006 68.6118 30.0269 0.0000 0.0000 0.0000
# 3 50.2643 30.0269 120.0282 0.0000 0.0000 0.0000
# 4 0.0000 0.0000 0.0000 31.5027 0.0000 0.0000
# 5 0.0000 0.0000 0.0000 0.0000 24.8666 0.0000
# 6 0.0000 0.0000 0.0000 0.0000 0.0000 11.8562
#
#
#
# Elastic Compliance Matrix: (Units=1/GPa)
#
#
# Indices 1 2 3 4 5 6 
#
# 1 0.009980 -0.000249 -0.004117 0.000000 0.000000 0.000000
# 2 -0.000249 0.016373 -0.003992 0.000000 0.000000 0.000000
# 3 -0.004117 -0.003992 0.011054 0.000000 0.000000 0.000000
# 4 0.000000 0.000000 0.000000 0.031743 0.000000 0.000000
# 5 0.000000 0.000000 0.000000 0.000000 0.040215 0.000000
# 6 0.000000 0.000000 0.000000 0.000000 0.000000 0.084344
#
#
# Mechanical properties :
#
#
# Convention : Reuss Voigt Hill
#
# Bulk Modulus (GPa) = 48.32998 55.41294 51.87146
# Shear Modulus (GPa) = 23.00752 28.01449 25.51101
#
# Velocity S-wave (km/s) = 3.35502 3.70213 3.53284
# Velocity P-wave (km/s) = 6.21716 6.73680 6.48219
#
# Compressibility (1/GPa) = 0.02069109
#
# Stress axis : x y z
#
# Youngs Moduli (GPa) = 100.20541 61.07680 90.46583
#
# Poissons Ratio (x) = 0.01522 0.37243
# Poissons Ratio (y) = 0.02498 0.36110
# Poissons Ratio (z) = 0.41252 0.24379
#
# Static dielectric constant tensor:
#      x y z
#    x 4.107410 0.000000 0.000000 
#    y 0.000000 3.724610 0.000000 
#    z 0.000000 0.000000 3.689810 
# 
# 
# High freq. dielectric constant tensor:
#      x y z
#    x 1.806150 0.000000 0.000000 
#    y 0.000000 1.770660 0.000000 
#    z 0.000000 0.000000 1.795450 
# 
# From -- ./inp_files/23391.got.cif
#   From: 2010.03.12/outbox.cif.g09.slc.cpg/sg40_12_cif.got.tgz:23391.got - 2010.04.14 01:38:03.
