data_PCOD8182493
_publ_section_title
;
Structure prediction by ZEFSAII (Michael W. Deem and Ramdas Pophale) SiO2 
 PCOD8182493
Probable space group: A M A 2
;
_chemical_formula_sum "Si O2"
_cell_formula_units_Z 56
_cell_length_a 8.927616
_cell_length_b 13.596534
_cell_length_c 29.421408
_cell_angle_alpha 90.000000
_cell_angle_beta 90.000000
_cell_angle_gamma 90.000000
_cell_volume 3571.306856
_symmetry_space_group_name_H-M "A M A 2"
_symmetry_group_IT_number 40
_symmetry_cell_setting 'orthorhombic'
loop_
_space_group_symop_operation_xyz
x,y,z
-x,-y,z
1/2-x,y,z
1/2+x,-y,z
x,1/2+y,1/2+z
-x,1/2-y,1/2+z
1/2-x,1/2+y,1/2+z
1/2+x,1/2-y,1/2+z
loop_
_atom_site_type_symbol
_atom_site_label
_atom_site_fract_x
_atom_site_fract_y
_atom_site_fract_z
Si Si1 0.073837 0.779824 0.203530
Si Si2 0.922682 0.100910 0.290850
Si Si3 0.424431 0.395197 0.616565
Si Si4 0.925506 0.605867 0.516754
Si Si5 0.927648 0.602478 0.251341
Si Si6 0.424872 0.700235 0.334918
Si Si7 0.925850 0.394015 0.429292
O O1 0.250000 0.754612 0.205196
O O2 0.034222 0.864307 0.240099
O O3 0.019942 0.818007 0.154298
O O4 0.981113 0.682318 0.214534
O O5 0.750000 0.078076 0.294494
O O6 0.969917 0.186368 0.326280
O O7 0.000000 0.000000 0.304448
O O8 0.500000 0.500000 0.623479
O O9 0.250000 0.415533 0.622911
O O10 0.457226 0.347477 0.566599
O O11 0.750000 0.597845 0.507021
O O12 0.000000 0.500000 0.517506
O O13 0.004739 0.660719 0.474135
O O14 0.750000 0.594163 0.250736
O O15 0.000000 0.500000 0.236468
O O16 0.981196 0.629770 0.302001
O O17 0.250000 0.683504 0.323425
O O18 0.463470 0.675147 0.386711
O O19 0.750000 0.408375 0.435906
O O20 0.000000 0.500000 0.421195
#
# Coordination Sequence:
#
# PCOD8182493 Si02
#       7
#     8   8   8   8   8   8   8
#     4   9  18  32  46  63  89 118 147 178 213 253
#     4   9  17  29  44  62  86 113 141 176 213 250
#     4   9  17  28  44  65  91 121 148 179 217 257
#     4   9  16  26  40  61  88 116 145 176 214 257
#     4  11  21  32  47  66  88 115 146 180 218 259
#     4   9  19  33  46  63  88 117 148 181 218 258
#     4  10  18  28  43  62  86 116 146 178 217 258
#
# _framework density 15.680534
#
# number of rings (size 3 to 8) (size 9 to 14) (size 15 to 20)
#    0.000    2.571    0.000    4.714    0.000    5.714 
#    0.000    0.000    0.000    0.000    0.000    1.000 
#    0.000    4.571    0.000    0.000    0.000    0.000 
#
# Total GULP energy -347055.440406 kJ/mol
# GULP energy per Si atom -12394.837157 kJ/mol
# Density = 1.564484 g / cm^3
# Si number density = 15.680534 Si / 1000 Ang^3
#
#
#
# Elastic Constant Matrix: (Units=GPa)
#
#
# Indices 1 2 3 4 5 6 
#
# 1 79.4573 42.5396 51.3455 0.0000 0.0000 0.0000
# 2 42.5396 85.5479 54.0562 0.0000 0.0000 0.0000
# 3 51.3455 54.0562 148.9007 0.0000 0.0000 0.0000
# 4 0.0000 0.0000 0.0000 21.0702 0.0000 0.0000
# 5 0.0000 0.0000 0.0000 0.0000 79.7622 0.0000
# 6 0.0000 0.0000 0.0000 0.0000 0.0000 22.8846
#
#
#
# Elastic Compliance Matrix: (Units=1/GPa)
#
#
# Indices 1 2 3 4 5 6 
#
# 1 0.018837 -0.006829 -0.004016 0.000000 0.000000 0.000000
# 2 -0.006829 0.017645 -0.004051 0.000000 0.000000 0.000000
# 3 -0.004016 -0.004051 0.009571 0.000000 0.000000 0.000000
# 4 0.000000 0.000000 0.000000 0.047460 0.000000 0.000000
# 5 0.000000 0.000000 0.000000 0.000000 0.012537 0.000000
# 6 0.000000 0.000000 0.000000 0.000000 0.000000 0.043697
#
#
# Mechanical properties :
#
#
# Convention : Reuss Voigt Hill
#
# Bulk Modulus (GPa) = 61.49781 67.75428 64.62604
# Shear Modulus (GPa) = 27.03277 35.80772 31.42025
#
# Velocity S-wave (km/s) = 4.15658 4.78386 4.48121
# Velocity P-wave (km/s) = 7.89560 8.59167 8.25098
#
# Compressibility (1/GPa) = 0.01626074
#
# Stress axis : x y z
#
# Youngs Moduli (GPa) = 53.08746 56.67397 104.47744
#
# Poissons Ratio (x) = 0.38702 0.41962
# Poissons Ratio (y) = 0.36253 0.42322
# Poissons Ratio (z) = 0.21322 0.22958
#
# Static dielectric constant tensor:
#      x y z
#    x 2.813030 0.000000 0.000000 
#    y 0.000000 2.785510 0.000000 
#    z 0.000000 0.000000 3.559630 
# 
# 
# High freq. dielectric constant tensor:
#      x y z
#    x 1.609380 0.000000 0.000000 
#    y 0.000000 1.566740 0.000000 
#    z 0.000000 0.000000 1.606290 
# 
# From -- ./inp_files/26404.got.cif
#   From: 2010.03.12/outbox.cif.g09.slc.cpg/sg40_14_cif.got.tgz:26404.got - 2010.04.14 01:38:03.
