data_PCOD8182900
_publ_section_title
;
Structure prediction by ZEFSAII (Michael W. Deem and Ramdas Pophale) SiO2 
 PCOD8182900
Probable space group: A M A 2
;
_chemical_formula_sum "Si O2"
_cell_formula_units_Z 64
_cell_length_a 18.787147
_cell_length_b 10.894412
_cell_length_c 16.983299
_cell_angle_alpha 90.000000
_cell_angle_beta 90.000000
_cell_angle_gamma 90.000000
_cell_volume 3476.055359
_symmetry_space_group_name_H-M "A M A 2"
_symmetry_group_IT_number 40
_symmetry_cell_setting 'orthorhombic'
loop_
_space_group_symop_operation_xyz
x,y,z
-x,-y,z
1/2-x,y,z
1/2+x,-y,z
x,1/2+y,1/2+z
-x,1/2-y,1/2+z
1/2-x,1/2+y,1/2+z
1/2+x,1/2-y,1/2+z
loop_
_atom_site_type_symbol
_atom_site_label
_atom_site_fract_x
_atom_site_fract_y
_atom_site_fract_z
Si Si1 0.927496 0.568616 0.356720
Si Si2 0.033164 0.679960 0.916025
Si Si3 0.827517 0.653345 0.797242
Si Si4 0.667661 0.362908 0.424460
Si Si5 0.453553 0.876681 0.689819
Si Si6 0.524208 0.631720 0.742691
Si Si7 0.672128 0.971449 0.432026
Si Si8 0.600253 0.673076 0.023761
O O1 0.949361 0.676901 0.414996
O O2 0.866111 0.491320 0.398113
O O3 0.904293 0.612116 0.268578
O O4 0.000000 0.500000 0.338782
O O5 0.108566 0.623496 0.939452
O O6 0.001489 0.633180 0.833461
O O7 0.976344 0.646952 0.983366
O O8 0.750000 0.673357 0.756567
O O9 0.844986 0.767287 0.854165
O O10 0.890218 0.641695 0.734153
O O11 0.826506 0.526362 0.844577
O O12 0.750000 0.384957 0.443760
O O13 0.627023 0.310898 0.501888
O O14 0.498746 0.750928 0.695668
O O15 0.402524 0.851244 0.616372
O O16 0.500000 0.000000 0.674909
O O17 0.500000 0.500000 0.705795
O O18 0.750000 0.911236 0.449560
O O19 0.660748 0.081596 0.493039
#
# Coordination Sequence:
#
# PCOD8182900 Si02
#       8
#     8   8   8   8   8   8   8   8
#     4  10  19  36  54  83 116 154 187 243 293 358
#     4  11  18  31  59  79 110 143 195 245 287 341
#     4   9  16  28  52  79 106 140 185 234 285 349
#     4  10  19  34  57  84 111 146 194 240 296 368
#     4  10  22  34  56  84 122 150 194 249 305 353
#     4  11  18  34  55  86 114 150 194 249 292 353
#     4  10  19  30  51  82 110 138 183 240 297 343
#     4  11  19  36  57  83 106 152 195 247 285 352
#
# _framework density 18.411674999999999
#
# number of rings (size 3 to 8) (size 9 to 14) (size 15 to 20)
#    0.000    1.750    5.000    3.750    0.000    0.500 
#    2.250    1.250    0.000    8.250    0.000    0.000 
#    0.000    0.000    0.000    0.000    0.000    0.000 
#
# Total GULP energy -396582.295435 kJ/mol
# GULP energy per Si atom -12393.196732 kJ/mol
# Density = 1.836977 g / cm^3
# Si number density = 18.411675 Si / 1000 Ang^3
#
#
#
# Elastic Constant Matrix: (Units=GPa)
#
#
# Indices 1 2 3 4 5 6 
#
# 1 115.1529 30.8529 14.5212 0.0000 0.0000 0.0000
# 2 30.8529 98.7775 15.9757 0.0000 0.0000 0.0000
# 3 14.5212 15.9757 48.0939 0.0000 0.0000 0.0000
# 4 0.0000 0.0000 0.0000 15.9199 0.0000 0.0000
# 5 0.0000 0.0000 0.0000 0.0000 10.7748 0.0000
# 6 0.0000 0.0000 0.0000 0.0000 0.0000 31.3304
#
#
#
# Elastic Compliance Matrix: (Units=1/GPa)
#
#
# Indices 1 2 3 4 5 6 
#
# 1 0.009660 -0.002690 -0.002023 0.000000 0.000000 0.000000
# 2 -0.002690 0.011448 -0.002990 0.000000 0.000000 0.000000
# 3 -0.002023 -0.002990 0.022397 0.000000 0.000000 0.000000
# 4 0.000000 0.000000 0.000000 0.062814 0.000000 0.000000
# 5 0.000000 0.000000 0.000000 0.000000 0.092809 0.000000
# 6 0.000000 0.000000 0.000000 0.000000 0.000000 0.031918
#
#
# Mechanical properties :
#
#
# Convention : Reuss Voigt Hill
#
# Bulk Modulus (GPa) = 35.59060 42.74709 39.16884
# Shear Modulus (GPa) = 19.54507 24.98332 22.26419
#
# Velocity S-wave (km/s) = 3.26169 3.68765 3.48119
# Velocity P-wave (km/s) = 5.79286 6.43424 6.12196
#
# Compressibility (1/GPa) = 0.02809731
#
# Stress axis : x y z
#
# Youngs Moduli (GPa) = 103.51987 87.35415 44.64912
#
# Poissons Ratio (x) = 0.23499 0.09033
# Poissons Ratio (y) = 0.27848 0.13352
# Poissons Ratio (z) = 0.20943 0.26123
#
# Static dielectric constant tensor:
#      x y z
#    x 3.494220 0.000000 0.000000 
#    y 0.000000 3.612770 0.000000 
#    z 0.000000 0.000000 3.068800 
# 
# 
# High freq. dielectric constant tensor:
#      x y z
#    x 1.713430 0.000000 0.000000 
#    y 0.000000 1.717490 0.000000 
#    z 0.000000 0.000000 1.668670 
# 
# From -- ./inp_files/21221.got.cif
#   From: 2010.03.12/outbox.cif.g09.slc.cpg/sg40_11_cif.got.tgz:21221.got - 2010.04.14 01:38:03.
