data_PCOD8182033
_publ_section_title
;
Structure prediction by ZEFSAII (Michael W. Deem and Ramdas Pophale) SiO2 
 PCOD8182033
Probable space group: A B M 2
;
_chemical_formula_sum "Si O2"
_cell_formula_units_Z 64
_cell_length_a 24.233131
_cell_length_b 9.261180
_cell_length_c 14.840077
_cell_angle_alpha 90.000000
_cell_angle_beta 90.000000
_cell_angle_gamma 90.000000
_cell_volume 3330.519721
_symmetry_space_group_name_H-M "A B M 2"
_symmetry_group_IT_number 39
_symmetry_cell_setting 'orthorhombic'
loop_
_space_group_symop_operation_xyz
x,y,z
-x,-y,z
-x,1/2+y,z
x,1/2-y,z
x,1/2+y,1/2+z
-x,1/2-y,1/2+z
-x,y,1/2+z
x,-y,1/2+z
loop_
_atom_site_type_symbol
_atom_site_label
_atom_site_fract_x
_atom_site_fract_y
_atom_site_fract_z
Si Si1 0.622606 0.086251 0.452450
Si Si2 0.868433 0.582799 0.298790
Si Si3 0.057009 0.579742 0.636085
Si Si4 0.252183 0.916423 0.772440
Si Si5 0.861773 0.415820 0.483035
Si Si6 0.556841 0.421094 0.095497
Si Si7 0.257229 0.912535 0.449457
Si Si8 0.644353 0.917531 0.744831
O O1 0.600316 0.250000 0.463062
O O2 0.683598 0.071979 0.499099
O O3 0.626273 0.043894 0.346878
O O4 0.581179 0.976726 0.500685
O O5 0.870182 0.750000 0.326331
O O6 0.918796 0.540430 0.233893
O O7 0.811256 0.552271 0.243634
O O8 0.874561 0.492671 0.389284
O O9 0.047983 0.750000 0.626742
O O10 0.099900 0.520544 0.561421
O O11 0.000000 0.500000 0.621007
O O12 0.267705 0.750000 0.762396
O O13 0.254889 0.962790 0.876099
O O14 0.298330 0.004283 0.716904
O O15 0.876665 0.250000 0.467682
O O16 0.796855 0.432503 0.512546
O O17 0.500000 0.500000 0.116080
O O18 0.547990 0.250000 0.089532
O O19 0.596739 0.467521 0.176990
O O20 0.255457 0.750000 0.405623
O O21 0.656158 0.750000 0.734158
#
# Coordination Sequence:
#
# PCOD8182033 Si02
#       8
#     8   8   8   8   8   8   8   8
#     4   9  18  35  58  82 108 138 171 210 259 313
#     4   9  19  35  54  78 108 138 170 214 264 312
#     4  10  22  38  53  73 103 139 181 223 262 309
#     4   9  16  28  52  83 109 134 169 212 258 311
#     4   9  18  34  56  79 104 137 174 213 260 313
#     4  11  24  40  56  77 106 140 181 223 260 304
#     4   8  15  30  53  79 108 139 169 205 257 319
#     4   9  20  38  57  79 110 143 172 210 262 315
#
# _framework density 19.216218999999999
#
# number of rings (size 3 to 8) (size 9 to 14) (size 15 to 20)
#    0.000    2.750    0.000    1.500    0.000    6.500 
#    0.000    6.250    0.000    0.000    0.000    0.000 
#    0.000    0.000    0.000    0.000    0.000    0.000 
#
# Total GULP energy -396576.125145 kJ/mol
# GULP energy per Si atom -12393.003911 kJ/mol
# Density = 1.917248 g / cm^3
# Si number density = 19.216219 Si / 1000 Ang^3
#
#
#
# Elastic Constant Matrix: (Units=GPa)
#
#
# Indices 1 2 3 4 5 6 
#
# 1 86.8636 29.8827 12.0409 0.0000 0.0000 0.0000
# 2 29.8827 50.9193 16.9252 0.0000 0.0000 0.0000
# 3 12.0409 16.9252 43.4267 0.0000 0.0000 0.0000
# 4 0.0000 0.0000 0.0000 21.8750 0.0000 0.0000
# 5 0.0000 0.0000 0.0000 0.0000 32.6672 0.0000
# 6 0.0000 0.0000 0.0000 0.0000 0.0000 35.4880
#
#
#
# Elastic Compliance Matrix: (Units=1/GPa)
#
#
# Indices 1 2 3 4 5 6 
#
# 1 0.014449 -0.008212 -0.000806 0.000000 0.000000 0.000000
# 2 -0.008212 0.027229 -0.008335 0.000000 0.000000 0.000000
# 3 -0.000806 -0.008335 0.026499 0.000000 0.000000 0.000000
# 4 0.000000 0.000000 0.000000 0.045714 0.000000 0.000000
# 5 0.000000 0.000000 0.000000 0.000000 0.030612 0.000000
# 6 0.000000 0.000000 0.000000 0.000000 0.000000 0.028179
#
#
# Mechanical properties :
#
#
# Convention : Reuss Voigt Hill
#
# Bulk Modulus (GPa) = 29.87627 33.21188 31.54408
# Shear Modulus (GPa) = 22.87865 26.16342 24.52104
#
# Velocity S-wave (km/s) = 3.45424 3.69389 3.57607
# Velocity P-wave (km/s) = 5.61161 5.95935 5.78809
#
# Compressibility (1/GPa) = 0.03347138
#
# Stress axis : x y z
#
# Youngs Moduli (GPa) = 69.20901 36.72605 37.73678
#
# Poissons Ratio (x) = 0.30158 0.03041
# Poissons Ratio (y) = 0.56833 0.31455
# Poissons Ratio (z) = 0.05577 0.30612
#
# Static dielectric constant tensor:
#      x y z
#    x 3.783100 0.000000 0.000000 
#    y 0.000000 3.438690 0.000000 
#    z 0.000000 0.000000 3.259010 
# 
# 
# High freq. dielectric constant tensor:
#      x y z
#    x 1.757110 0.000000 0.000000 
#    y 0.000000 1.743070 0.000000 
#    z 0.000000 0.000000 1.724480 
# 
# From -- ./inp_files/10655.got.cif
#   From: 2010.03.12/outbox.cif.g09.slc.cpg/sg39_6_cif.got.tgz:10655.got - 2010.04.14 02:53:20.
