data_PCOD8182397
_publ_section_title
;
Structure prediction by ZEFSAII (Michael W. Deem and Ramdas Pophale) SiO2 
 PCOD8182397
Probable space group: A M A 2
;
_chemical_formula_sum "Si O2"
_cell_formula_units_Z 64
_cell_length_a 19.007193
_cell_length_b 20.203323
_cell_length_c 9.147578
_cell_angle_alpha 90.000000
_cell_angle_beta 90.000000
_cell_angle_gamma 90.000000
_cell_volume 3512.747336
_symmetry_space_group_name_H-M "A M A 2"
_symmetry_group_IT_number 40
_symmetry_cell_setting 'orthorhombic'
loop_
_space_group_symop_operation_xyz
x,y,z
-x,-y,z
1/2-x,y,z
1/2+x,-y,z
x,1/2+y,1/2+z
-x,1/2-y,1/2+z
1/2-x,1/2+y,1/2+z
1/2+x,1/2-y,1/2+z
loop_
_atom_site_type_symbol
_atom_site_label
_atom_site_fract_x
_atom_site_fract_y
_atom_site_fract_z
Si Si1 0.576994 0.526951 0.807390
Si Si2 0.829041 0.915810 0.343233
Si Si3 0.566732 0.310902 0.323800
Si Si4 0.399916 0.692145 0.992993
Si Si5 0.927537 0.662090 0.483445
Si Si6 0.535936 0.164998 0.315636
Si Si7 0.831994 0.545324 0.521909
Si Si8 0.829755 0.399078 0.507396
O O1 0.500000 0.500000 0.757762
O O2 0.616366 0.471482 0.906081
O O3 0.569585 0.598471 0.888047
O O4 0.631880 0.538008 0.677687
O O5 0.750000 0.944018 0.346753
O O6 0.832368 0.851228 0.447606
O O7 0.850731 0.896790 0.177760
O O8 0.574959 0.327478 0.154094
O O9 0.488600 0.334746 0.363549
O O10 0.577836 0.232255 0.355207
O O11 0.623535 0.348496 0.418494
O O12 0.382635 0.769976 0.983812
O O13 0.457407 0.672228 0.872642
O O14 0.964682 0.652231 0.640911
O O15 0.874251 0.603269 0.437577
O O16 0.750000 0.565108 0.539205
O O17 0.839117 0.473855 0.443049
O O18 0.750000 0.375349 0.486905
#
# Coordination Sequence:
#
# PCOD8182397 Si02
#       8
#     8   8   8   8   8   8   8   8
#     4  10  17  30  56  78 101 133 177 221 261 300
#     4  10  20  34  54  78 104 138 176 215 261 317
#     4  10  20  32  52  79 107 136 177 212 263 313
#     4  10  19  33  50  78 108 136 174 217 262 310
#     4   9  19  33  55  76 103 142 171 220 262 307
#     4   9  18  34  52  77 103 132 175 222 257 297
#     4   9  19  33  52  81 106 129 174 226 264 303
#     4   9  19  35  53  73 102 138 174 216 261 311
#
# _framework density 18.219356999999999
#
# number of rings (size 3 to 8) (size 9 to 14) (size 15 to 20)
#    0.000    2.500    1.250    1.875    5.250    2.000 
#    0.000    8.125    0.000    0.000    0.000    3.500 
#    0.000    0.000    0.000    0.000    0.000    0.000 
#
# Total GULP energy -396511.454582 kJ/mol
# GULP energy per Si atom -12390.982956 kJ/mol
# Density = 1.817789 g / cm^3
# Si number density = 18.219357 Si / 1000 Ang^3
#
#
#
# Elastic Constant Matrix: (Units=GPa)
#
#
# Indices 1 2 3 4 5 6 
#
# 1 97.8516 62.8745 32.1126 0.0000 0.0000 0.0000
# 2 62.8745 136.3354 40.5114 0.0000 0.0000 0.0000
# 3 32.1126 40.5114 47.8642 0.0000 0.0000 0.0000
# 4 0.0000 0.0000 0.0000 24.7050 0.0000 0.0000
# 5 0.0000 0.0000 0.0000 0.0000 17.9475 0.0000
# 6 0.0000 0.0000 0.0000 0.0000 0.0000 30.5621
#
#
#
# Elastic Compliance Matrix: (Units=1/GPa)
#
#
# Indices 1 2 3 4 5 6 
#
# 1 0.015669 -0.005481 -0.005874 0.000000 0.000000 0.000000
# 2 -0.005481 0.011716 -0.006240 0.000000 0.000000 0.000000
# 3 -0.005874 -0.006240 0.030114 0.000000 0.000000 0.000000
# 4 0.000000 0.000000 0.000000 0.040478 0.000000 0.000000
# 5 0.000000 0.000000 0.000000 0.000000 0.055718 0.000000
# 6 0.000000 0.000000 0.000000 0.000000 0.000000 0.032720
#
#
# Mechanical properties :
#
#
# Convention : Reuss Voigt Hill
#
# Bulk Modulus (GPa) = 44.81949 61.44978 53.13464
# Shear Modulus (GPa) = 21.83023 24.41309 23.12166
#
# Velocity S-wave (km/s) = 3.46524 3.66451 3.56627
# Velocity P-wave (km/s) = 6.37682 7.19067 6.79594
#
# Compressibility (1/GPa) = 0.02231172
#
# Stress axis : x y z
#
# Youngs Moduli (GPa) = 63.82119 85.34985 33.20702
#
# Poissons Ratio (x) = 0.46778 0.19504
# Poissons Ratio (y) = 0.34979 0.20720
# Poissons Ratio (z) = 0.37486 0.53254
#
# Static dielectric constant tensor:
#      x y z
#    x 3.322700 0.000000 0.000000 
#    y 0.000000 4.033380 0.000000 
#    z 0.000000 0.000000 3.045970 
# 
# 
# High freq. dielectric constant tensor:
#      x y z
#    x 1.701100 0.000000 0.000000 
#    y 0.000000 1.727030 0.000000 
#    z 0.000000 0.000000 1.663250 
# 
# From -- ./inp_files/7836.got.cif
#   From: 2010.03.12/outbox.cif.g09.slc.cpg/sg40_4_cif.got.tgz:7836.got - 2010.04.14 01:38:03.
