data_PCOD8182781
_publ_section_title
;
Structure prediction by ZEFSAII (Michael W. Deem and Ramdas Pophale) SiO2 
 PCOD8182781
Probable space group: A M A 2
;
_chemical_formula_sum "Si O2"
_cell_formula_units_Z 64
_cell_length_a 16.812262
_cell_length_b 16.392280
_cell_length_c 12.228225
_cell_angle_alpha 90.000000
_cell_angle_beta 90.000000
_cell_angle_gamma 90.000000
_cell_volume 3369.992499
_symmetry_space_group_name_H-M "A M A 2"
_symmetry_group_IT_number 40
_symmetry_cell_setting 'orthorhombic'
loop_
_space_group_symop_operation_xyz
x,y,z
-x,-y,z
1/2-x,y,z
1/2+x,-y,z
x,1/2+y,1/2+z
-x,1/2-y,1/2+z
1/2-x,1/2+y,1/2+z
1/2+x,1/2-y,1/2+z
loop_
_atom_site_type_symbol
_atom_site_label
_atom_site_fract_x
_atom_site_fract_y
_atom_site_fract_z
Si Si1 0.656509 0.193504 0.354560
Si Si2 0.089626 0.527581 0.638801
Si Si3 0.342136 0.895558 0.990811
Si Si4 0.157426 0.066498 0.586236
Si Si5 0.410404 0.483284 0.881741
Si Si6 0.655185 0.254770 0.117601
Si Si7 0.657684 0.352398 0.480789
Si Si8 0.843577 0.990867 0.811523
O O1 0.750000 0.171691 0.353359
O O2 0.628502 0.230945 0.239446
O O3 0.637191 0.258842 0.450356
O O4 0.605145 0.112905 0.375055
O O5 0.149640 0.462843 0.585883
O O6 0.106990 0.529614 0.768050
O O7 0.106217 0.616742 0.585357
O O8 0.000000 0.500000 0.614452
O O9 0.250000 0.880030 0.971069
O O10 0.381149 0.931868 0.878606
O O11 0.381348 0.810666 0.030770
O O12 0.250000 0.076818 0.610640
O O13 0.146416 0.020871 0.472934
O O14 0.119741 0.157229 0.584713
O O15 0.120632 0.015400 0.688857
O O16 0.500000 0.500000 0.919633
O O17 0.750000 0.253503 0.111695
O O18 0.750000 0.360615 0.512100
O O19 0.637297 0.407268 0.375152
O O20 0.750000 0.005168 0.807232
#
# Coordination Sequence:
#
# PCOD8182781 Si02
#       8
#     8   8   8   8   8   8   8   8
#     4  10  18  34  60  84 104 138 190 231 268 327
#     4  10  20  34  51  77 114 145 180 222 280 330
#     4   9  16  29  53  81 105 132 174 223 265 315
#     4  10  19  34  55  77 103 138 179 225 275 323
#     4  11  24  39  50  75 113 154 188 222 272 334
#     4   9  16  29  54  84 103 129 178 220 256 317
#     4   9  17  32  58  87 108 131 179 240 276 314
#     4   8  14  27  50  79 106 127 160 221 277 308
#
# _framework density 18.991139
#
# number of rings (size 3 to 8) (size 9 to 14) (size 15 to 20)
#    0.000    2.500    2.500    1.500    0.000    1.500 
#    2.250    3.750    0.000    3.000    0.000    0.000 
#    0.000    0.000    0.000    0.000    0.000    0.000 
#
# Total GULP energy -396580.913401 kJ/mol
# GULP energy per Si atom -12393.153544 kJ/mol
# Density = 1.894791 g / cm^3
# Si number density = 18.991139 Si / 1000 Ang^3
#
#
#
# Elastic Constant Matrix: (Units=GPa)
#
#
# Indices 1 2 3 4 5 6 
#
# 1 28.3925 23.0074 21.3609 0.0000 0.0000 0.0000
# 2 23.0074 122.6692 75.2081 0.0000 0.0000 0.0000
# 3 21.3609 75.2081 127.9673 0.0000 0.0000 0.0000
# 4 0.0000 0.0000 0.0000 31.6494 0.0000 0.0000
# 5 0.0000 0.0000 0.0000 0.0000 12.5001 0.0000
# 6 0.0000 0.0000 0.0000 0.0000 0.0000 18.0268
#
#
#
# Elastic Compliance Matrix: (Units=1/GPa)
#
#
# Indices 1 2 3 4 5 6 
#
# 1 0.042673 -0.005685 -0.003782 0.000000 0.000000 0.000000
# 2 -0.005685 0.013501 -0.006986 0.000000 0.000000 0.000000
# 3 -0.003782 -0.006986 0.012552 0.000000 0.000000 0.000000
# 4 0.000000 0.000000 0.000000 0.031596 0.000000 0.000000
# 5 0.000000 0.000000 0.000000 0.000000 0.080000 0.000000
# 6 0.000000 0.000000 0.000000 0.000000 0.000000 0.055473
#
#
# Mechanical properties :
#
#
# Convention : Reuss Voigt Hill
#
# Bulk Modulus (GPa) = 27.91754 57.57576 42.74665
# Shear Modulus (GPa) = 17.81644 23.06541 20.44093
#
# Velocity S-wave (km/s) = 3.06624 3.48880 3.28432
# Velocity P-wave (km/s) = 5.22187 6.82729 6.07783
#
# Compressibility (1/GPa) = 0.03581977
#
# Stress axis : x y z
#
# Youngs Moduli (GPa) = 23.43429 74.06700 79.67123
#
# Poissons Ratio (x) = 0.42105 0.30133
# Poissons Ratio (y) = 0.13322 0.55658
# Poissons Ratio (z) = 0.08863 0.51743
#
# Static dielectric constant tensor:
#      x y z
#    x 3.052190 0.000000 0.000000 
#    y 0.000000 3.734530 0.000000 
#    z 0.000000 0.000000 3.637180 
# 
# 
# High freq. dielectric constant tensor:
#      x y z
#    x 1.694180 0.000000 0.000000 
#    y 0.000000 1.735770 0.000000 
#    z 0.000000 0.000000 1.736340 
# 
# From -- ./inp_files/12428.got.cif
#   From: 2010.03.12/outbox.cif.g09.slc.cpg/sg40_7_cif.got.tgz:12428.got - 2010.04.14 01:38:03.
