data_PCOD8182362
_publ_section_title
;
Structure prediction by ZEFSAII (Michael W. Deem and Ramdas Pophale) SiO2 
 PCOD8182362
Probable space group: A M A 2
;
_chemical_formula_sum "Si O2"
_cell_formula_units_Z 64
_cell_length_a 8.715095
_cell_length_b 24.774321
_cell_length_c 20.240009
_cell_angle_alpha 90.000000
_cell_angle_beta 90.000000
_cell_angle_gamma 90.000000
_cell_volume 4370.031699
_symmetry_space_group_name_H-M "A M A 2"
_symmetry_group_IT_number 40
_symmetry_cell_setting 'orthorhombic'
loop_
_space_group_symop_operation_xyz
x,y,z
-x,-y,z
1/2-x,y,z
1/2+x,-y,z
x,1/2+y,1/2+z
-x,1/2-y,1/2+z
1/2-x,1/2+y,1/2+z
1/2+x,1/2-y,1/2+z
loop_
_atom_site_type_symbol
_atom_site_label
_atom_site_fract_x
_atom_site_fract_y
_atom_site_fract_z
Si Si1 0.568290 0.944258 0.319550
Si Si2 0.928176 0.756906 0.259424
Si Si3 0.573898 0.161001 0.344172
Si Si4 0.424476 0.917111 0.179722
Si Si5 0.576326 0.773921 0.885250
Si Si6 0.569428 0.163328 0.001767
Si Si7 0.431304 0.554535 0.543161
Si Si8 0.078360 0.295210 0.638866
O O1 0.750000 0.945308 0.323959
O O2 0.501524 0.895716 0.365967
O O3 0.512244 0.935620 0.245009
O O4 0.500000 0.000000 0.347708
O O5 0.750000 0.744901 0.265613
O O6 0.972822 0.817797 0.282005
O O7 0.017888 0.715985 0.309473
O O8 0.979468 0.752646 0.182579
O O9 0.750000 0.151402 0.321293
O O10 0.567892 0.208712 0.399765
O O11 0.250000 0.939098 0.181962
O O12 0.511193 0.943072 0.118157
O O13 0.424957 0.853112 0.173278
O O14 0.750000 0.795206 0.892289
O O15 0.466683 0.804887 0.935124
O O16 0.750000 0.153358 0.009272
O O17 0.488213 0.105412 0.000315
O O18 0.510833 0.198822 0.064508
O O19 0.500000 0.500000 0.510680
O O20 0.250000 0.552862 0.540937
O O21 0.250000 0.271881 0.636272
#
# Coordination Sequence:
#
# PCOD8182362 Si02
#       8
#     8   8   8   8   8   8   8   8
#     4  12  22  29  40  57  79 108 143 180 216 251
#     4  10  17  26  44  63  81 108 143 175 212 257
#     4   9  18  31  44  58  80 106 138 175 214 254
#     4  10  18  29  41  54  77 107 142 178 213 247
#     4   9  18  31  47  63  83 109 140 177 218 259
#     4  10  20  32  47  65  86 110 145 182 217 258
#     4  11  21  32  43  56  79 108 142 176 214 253
#     4   9  17  28  42  60  85 112 139 179 220 251
#
# _framework density 14.645203
#
# number of rings (size 3 to 8) (size 9 to 14) (size 15 to 20)
#    0.750    1.250    1.250    5.625    0.000    2.500 
#    0.000    0.000    0.000    0.000    0.000    0.000 
#    0.000    0.000    0.000    1.125    0.000   17.500 
#
# Total GULP energy -396476.877192 kJ/mol
# GULP energy per Si atom -12389.902412 kJ/mol
# Density = 1.461187 g / cm^3
# Si number density = 14.645203 Si / 1000 Ang^3
#
#
#
# Elastic Constant Matrix: (Units=GPa)
#
#
# Indices 1 2 3 4 5 6 
#
# 1 96.2300 25.3189 19.6841 0.0000 0.0000 0.0000
# 2 25.3189 54.1292 29.0389 0.0000 0.0000 0.0000
# 3 19.6841 29.0389 55.6402 0.0000 0.0000 0.0000
# 4 0.0000 0.0000 0.0000 4.8650 0.0000 0.0000
# 5 0.0000 0.0000 0.0000 0.0000 18.7319 0.0000
# 6 0.0000 0.0000 0.0000 0.0000 0.0000 21.8727
#
#
#
# Elastic Compliance Matrix: (Units=1/GPa)
#
#
# Indices 1 2 3 4 5 6 
#
# 1 0.011982 -0.004626 -0.001825 0.000000 0.000000 0.000000
# 2 -0.004626 0.027444 -0.012687 0.000000 0.000000 0.000000
# 3 -0.001825 -0.012687 0.025239 0.000000 0.000000 0.000000
# 4 0.000000 0.000000 0.000000 0.205551 0.000000 0.000000
# 5 0.000000 0.000000 0.000000 0.000000 0.053385 0.000000
# 6 0.000000 0.000000 0.000000 0.000000 0.000000 0.045719
#
#
# Mechanical properties :
#
#
# Convention : Reuss Voigt Hill
#
# Bulk Modulus (GPa) = 37.89142 39.34258 38.61700
# Shear Modulus (GPa) = 12.00793 17.89110 14.94951
#
# Velocity S-wave (km/s) = 2.86654 3.49898 3.19843
# Velocity P-wave (km/s) = 6.07331 6.57617 6.32973
#
# Compressibility (1/GPa) = 0.02639120
#
# Stress axis : x y z
#
# Youngs Moduli (GPa) = 83.45789 36.43773 39.62052
#
# Poissons Ratio (x) = 0.16855 0.07230
# Poissons Ratio (y) = 0.38605 0.50266
# Poissons Ratio (z) = 0.15229 0.46228
#
# Static dielectric constant tensor:
#      x y z
#    x 2.911600 0.000000 0.000000 
#    y 0.000000 2.777800 0.000000 
#    z 0.000000 0.000000 2.572110 
# 
# 
# High freq. dielectric constant tensor:
#      x y z
#    x 1.578900 0.000000 0.000000 
#    y 0.000000 1.530370 0.000000 
#    z 0.000000 0.000000 1.517220 
# 
# From -- ./inp_files/22587.got.cif
#   From: 2010.03.12/outbox.cif.g09.slc.cpg/sg40_12_cif.got.tgz:22587.got - 2010.04.14 01:38:03.
