data_PCOD8182538
_publ_section_title
;
Structure prediction by ZEFSAII (Michael W. Deem and Ramdas Pophale) SiO2 
 PCOD8182538
Probable space group: A M A 2
;
_chemical_formula_sum "Si O2"
_cell_formula_units_Z 64
_cell_length_a 8.902028
_cell_length_b 30.398878
_cell_length_c 14.462656
_cell_angle_alpha 90.000000
_cell_angle_beta 90.000000
_cell_angle_gamma 90.000000
_cell_volume 3913.763393
_symmetry_space_group_name_H-M "A M A 2"
_symmetry_group_IT_number 40
_symmetry_cell_setting 'orthorhombic'
loop_
_space_group_symop_operation_xyz
x,y,z
-x,-y,z
1/2-x,y,z
1/2+x,-y,z
x,1/2+y,1/2+z
-x,1/2-y,1/2+z
1/2-x,1/2+y,1/2+z
1/2+x,1/2-y,1/2+z
loop_
_atom_site_type_symbol
_atom_site_label
_atom_site_fract_x
_atom_site_fract_y
_atom_site_fract_z
Si Si1 0.579041 0.363769 0.023190
Si Si2 0.569619 0.544825 0.747975
Si Si3 0.080276 0.365528 0.679113
Si Si4 0.577065 0.299002 0.179629
Si Si5 0.926335 0.226574 0.857288
Si Si6 0.573989 0.456338 0.947422
Si Si7 0.429823 0.285421 0.564411
Si Si8 0.080988 0.315403 0.863800
O O1 0.750000 0.354222 0.990588
O O2 0.554671 0.345380 0.126573
O O3 0.545229 0.415847 0.017782
O O4 0.467509 0.336841 0.959194
O O5 0.500000 0.500000 0.706660
O O6 0.750000 0.542351 0.753741
O O7 0.515678 0.584538 0.679371
O O8 0.504725 0.553480 0.849935
O O9 0.250000 0.367541 0.643939
O O10 0.000403 0.329408 0.613038
O O11 0.070439 0.351926 0.785566
O O12 0.750000 0.289607 0.201595
O O13 0.492808 0.304491 0.277281
O O14 0.512723 0.258287 0.118009
O O15 0.750000 0.221568 0.855710
O O16 0.972547 0.276147 0.833850
O O17 0.989267 0.214314 0.959075
O O18 0.500000 0.500000 0.992397
O O19 0.750000 0.464267 0.930283
O O20 0.250000 0.285114 0.567692
O O21 0.250000 0.297214 0.873742
#
# Coordination Sequence:
#
# PCOD8182538 Si02
#       8
#     8   8   8   8   8   8   8   8
#     4  10  20  33  48  69  97 131 163 196 240 284
#     4  10  18  29  45  67  94 122 156 192 232 282
#     4   9  17  29  46  67  89 125 163 188 223 279
#     4  10  19  34  51  67  94 130 161 193 240 287
#     4  11  21  33  48  70  97 125 163 204 238 275
#     4  10  19  30  46  68  96 126 157 192 236 284
#     4   9  17  31  49  66  91 126 158 191 233 280
#     4  11  19  29  48  70  96 129 165 196 232 281
#
# _framework density 16.352547000000001
#
# number of rings (size 3 to 8) (size 9 to 14) (size 15 to 20)
#    0.000    2.000    3.750    2.250    0.000    1.000 
#    0.000    0.000    0.000    0.000    0.000    0.875 
#    0.000    6.000    0.000    0.000    0.000    0.000 
#
# Total GULP energy -396601.062631 kJ/mol
# GULP energy per Si atom -12393.783207 kJ/mol
# Density = 1.631533 g / cm^3
# Si number density = 16.352547 Si / 1000 Ang^3
#
#
#
# Elastic Constant Matrix: (Units=GPa)
#
#
# Indices 1 2 3 4 5 6 
#
# 1 48.8956 26.0493 28.2243 0.0000 0.0000 0.0000
# 2 26.0493 117.7956 36.7119 0.0000 0.0000 0.0000
# 3 28.2243 36.7119 79.3843 0.0000 0.0000 0.0000
# 4 0.0000 0.0000 0.0000 25.1464 0.0000 0.0000
# 5 0.0000 0.0000 0.0000 0.0000 20.3639 0.0000
# 6 0.0000 0.0000 0.0000 0.0000 0.0000 16.5576
#
#
#
# Elastic Compliance Matrix: (Units=1/GPa)
#
#
# Indices 1 2 3 4 5 6 
#
# 1 0.026892 -0.003467 -0.007958 0.000000 0.000000 0.000000
# 2 -0.003467 0.010366 -0.003561 0.000000 0.000000 0.000000
# 3 -0.007958 -0.003561 0.017073 0.000000 0.000000 0.000000
# 4 0.000000 0.000000 0.000000 0.039767 0.000000 0.000000
# 5 0.000000 0.000000 0.000000 0.000000 0.049107 0.000000
# 6 0.000000 0.000000 0.000000 0.000000 0.000000 0.060395
#
#
# Mechanical properties :
#
#
# Convention : Reuss Voigt Hill
#
# Bulk Modulus (GPa) = 41.05196 47.56071 44.30633
# Shear Modulus (GPa) = 20.68747 22.75290 21.72018
#
# Velocity S-wave (km/s) = 3.56067 3.73419 3.64846
# Velocity P-wave (km/s) = 6.48562 6.90941 6.70087
#
# Compressibility (1/GPa) = 0.02435938
#
# Stress axis : x y z
#
# Youngs Moduli (GPa) = 37.18530 96.47118 58.57119
#
# Poissons Ratio (x) = 0.33444 0.46611
# Poissons Ratio (y) = 0.12891 0.20858
# Poissons Ratio (z) = 0.29592 0.34355
#
# Static dielectric constant tensor:
#      x y z
#    x 3.006140 0.000000 0.000000 
#    y 0.000000 3.348510 0.000000 
#    z 0.000000 0.000000 3.006170 
# 
# 
# High freq. dielectric constant tensor:
#      x y z
#    x 1.617270 0.000000 0.000000 
#    y 0.000000 1.626830 0.000000 
#    z 0.000000 0.000000 1.599590 
# 
# From -- ./inp_files/15890.got.cif
#   From: 2010.03.12/outbox.cif.g09.slc.cpg/sg40_8_cif.got.tgz:15890.got - 2010.04.14 01:38:03.
