data_PCOD8182868
_publ_section_title
;
Structure prediction by ZEFSAII (Michael W. Deem and Ramdas Pophale) SiO2 
 PCOD8182868
Probable space group: A M A 2
;
_chemical_formula_sum "Si O2"
_cell_formula_units_Z 56
_cell_length_a 9.872226
_cell_length_b 21.895549
_cell_length_c 17.602710
_cell_angle_alpha 90.000000
_cell_angle_beta 90.000000
_cell_angle_gamma 90.000000
_cell_volume 3804.963211
_symmetry_space_group_name_H-M "A M A 2"
_symmetry_group_IT_number 40
_symmetry_cell_setting 'orthorhombic'
loop_
_space_group_symop_operation_xyz
x,y,z
-x,-y,z
1/2-x,y,z
1/2+x,-y,z
x,1/2+y,1/2+z
-x,1/2-y,1/2+z
1/2-x,1/2+y,1/2+z
1/2+x,1/2-y,1/2+z
loop_
_atom_site_type_symbol
_atom_site_label
_atom_site_fract_x
_atom_site_fract_y
_atom_site_fract_z
Si Si1 0.901412 0.318749 0.364900
Si Si2 0.401415 0.821665 0.413410
Si Si3 0.589298 0.277727 0.206817
Si Si4 0.905715 0.792180 0.540329
Si Si5 0.910310 0.147339 0.251312
Si Si6 0.403123 0.345975 0.491181
Si Si7 0.908465 0.558393 0.622841
O O1 0.750000 0.345872 0.373390
O O2 0.901716 0.248285 0.388112
O O3 0.951878 0.322214 0.276907
O O4 0.000893 0.357377 0.418501
O O5 0.250000 0.840879 0.439058
O O6 0.503980 0.832493 0.483032
O O7 0.449816 0.861474 0.340261
O O8 0.750000 0.270147 0.205857
O O9 0.542934 0.306043 0.126178
O O10 0.524897 0.210174 0.218617
O O11 0.750000 0.811371 0.528112
O O12 0.926451 0.720393 0.526925
O O13 0.750000 0.153225 0.243979
O O14 0.958642 0.089815 0.201387
O O15 0.250000 0.353027 0.462107
O O16 0.437914 0.395290 0.554626
O O17 0.750000 0.540350 0.626237
O O18 0.000000 0.500000 0.608419
#
# Coordination Sequence:
#
# PCOD8182868 Si02
#       7
#     8   8   8   8   8   8   8
#     4   8  14  23  37  55  74  97 128 160 187 221
#     4   8  14  23  36  54  74  98 128 158 188 226
#     4   8  12  21  38  57  75 102 134 155 178 226
#     4   9  14  22  38  57  77 102 130 155 183 227
#     4   8  13  25  41  52  70 104 137 158 185 230
#     4   9  16  26  39  53  74 103 131 158 193 232
#     4  10  19  30  43  58  75 102 139 172 197 226
#
# _framework density 14.717618999999999
#
# number of rings (size 3 to 8) (size 9 to 14) (size 15 to 20)
#    0.000    3.429    1.429    1.714    0.000    0.571 
#    0.000    1.429    0.000    1.714    0.000    0.000 
#    0.000    1.143    0.000    5.143    0.000    4.571 
#
# Total GULP energy -346942.814362 kJ/mol
# GULP energy per Si atom -12390.814799 kJ/mol
# Density = 1.468412 g / cm^3
# Si number density = 14.717619 Si / 1000 Ang^3
#
#
#
# Elastic Constant Matrix: (Units=GPa)
#
#
# Indices 1 2 3 4 5 6 
#
# 1 60.0107 22.2398 60.6335 0.0000 0.0000 0.0000
# 2 22.2398 30.6980 27.0344 0.0000 0.0000 0.0000
# 3 60.6335 27.0344 138.2237 0.0000 0.0000 0.0000
# 4 0.0000 0.0000 0.0000 13.2616 0.0000 0.0000
# 5 0.0000 0.0000 0.0000 0.0000 25.5505 0.0000
# 6 0.0000 0.0000 0.0000 0.0000 0.0000 9.7349
#
#
#
# Elastic Compliance Matrix: (Units=1/GPa)
#
#
# Indices 1 2 3 4 5 6 
#
# 1 0.034279 -0.014004 -0.012298 0.000000 0.000000 0.000000
# 2 -0.014004 0.045075 -0.002673 0.000000 0.000000 0.000000
# 3 -0.012298 -0.002673 0.013152 0.000000 0.000000 0.000000
# 4 0.000000 0.000000 0.000000 0.075406 0.000000 0.000000
# 5 0.000000 0.000000 0.000000 0.000000 0.039138 0.000000
# 6 0.000000 0.000000 0.000000 0.000000 0.000000 0.102723
#
#
# Mechanical properties :
#
#
# Convention : Reuss Voigt Hill
#
# Bulk Modulus (GPa) = 28.93826 49.86084 39.39955
# Shear Modulus (GPa) = 13.18421 17.64438 15.41429
#
# Velocity S-wave (km/s) = 2.99626 3.46621 3.23977
# Velocity P-wave (km/s) = 5.62806 7.06905 6.38931
#
# Compressibility (1/GPa) = 0.03455632
#
# Stress axis : x y z
#
# Youngs Moduli (GPa) = 29.17224 22.18538 76.03340
#
# Poissons Ratio (x) = 0.31068 0.93506
# Poissons Ratio (y) = 0.40852 0.20323
# Poissons Ratio (z) = 0.35876 0.05930
#
# Static dielectric constant tensor:
#      x y z
#    x 2.749720 0.000000 0.000000 
#    y 0.000000 2.416690 0.000000 
#    z 0.000000 0.000000 3.317850 
# 
# 
# High freq. dielectric constant tensor:
#      x y z
#    x 1.540360 0.000000 0.000000 
#    y 0.000000 1.498670 0.000000 
#    z 0.000000 0.000000 1.577720 
# 
# From -- ./inp_files/11311.got.cif
#   From: 2010.03.12/outbox.cif.g09.slc.cpg/sg40_6_cif.got.tgz:11311.got - 2010.04.14 01:38:03.
