data_PCOD8182107
_publ_section_title
;
Structure prediction by ZEFSAII (Michael W. Deem and Ramdas Pophale) SiO2 
 PCOD8182107
Probable space group: A B M 2
;
_chemical_formula_sum "Si O2"
_cell_formula_units_Z 48
_cell_length_a 9.017382
_cell_length_b 24.761220
_cell_length_c 9.464449
_cell_angle_alpha 90.000000
_cell_angle_beta 90.000000
_cell_angle_gamma 90.000000
_cell_volume 2113.235229
_symmetry_space_group_name_H-M "A B M 2"
_symmetry_group_IT_number 39
_symmetry_cell_setting 'orthorhombic'
loop_
_space_group_symop_operation_xyz
x,y,z
-x,-y,z
-x,1/2+y,z
x,1/2-y,z
x,1/2+y,1/2+z
-x,1/2-y,1/2+z
-x,y,1/2+z
x,-y,1/2+z
loop_
_atom_site_type_symbol
_atom_site_label
_atom_site_fract_x
_atom_site_fract_y
_atom_site_fract_z
Si Si1 0.651438 0.528651 0.074570
Si Si2 0.164388 0.020677 0.814540
Si Si3 0.053122 0.812173 0.621750
Si Si4 0.156332 0.645388 0.341304
Si Si5 0.648184 0.811324 0.272604
Si Si6 0.442785 0.851944 0.494939
O O1 0.500000 0.500000 0.035296
O O2 0.711132 0.512238 0.227744
O O3 0.611360 0.591057 0.056650
O O4 0.786706 0.510356 0.974832
O O5 0.169356 0.084423 0.784175
O O6 0.000000 0.000000 0.785090
O O7 0.070167 0.750000 0.575486
O O8 0.050390 0.848684 0.479948
O O9 0.187911 0.830167 0.724934
O O10 0.902628 0.820244 0.709179
O O11 0.315782 0.669301 0.387025
O O12 0.648080 0.750000 0.328475
O O13 0.593667 0.849725 0.402444
O O14 0.542360 0.814817 0.133820
#
# Coordination Sequence:
#
# PCOD8182107 Si02
#       6
#     8   8   8   8   8   8
#     4  11  26  44  69 100 136 181 230 285 347 415
#     4  11  26  43  69 102 137 179 230 287 344 414
#     4  10  22  42  67  97 135 177 225 277 340 413
#     4  10  24  41  65  97 131 179 218 274 343 400
#     4  10  22  41  65  94 132 173 219 276 339 409
#     4  10  24  41  65  97 130 176 221 277 341 403
#
# _framework density 22.713989000000002
#
# number of rings (size 3 to 8) (size 9 to 14) (size 15 to 20)
#    0.000    1.667    0.000    2.000   16.333    3.333 
#    0.000    0.000    0.000    0.000    0.000    0.000 
#    0.000    0.000    0.000    0.000    0.000    0.000 
#
# Total GULP energy -297509.665082 kJ/mol
# GULP energy per Si atom -12396.236045 kJ/mol
# Density = 2.266229 g / cm^3
# Si number density = 22.713989 Si / 1000 Ang^3
#
#
#
# Elastic Constant Matrix: (Units=GPa)
#
#
# Indices 1 2 3 4 5 6 
#
# 1 50.9177 27.3501 4.7701 0.0000 0.0000 0.0000
# 2 27.3501 83.9003 36.8219 0.0000 0.0000 0.0000
# 3 4.7701 36.8219 54.1919 0.0000 0.0000 0.0000
# 4 0.0000 0.0000 0.0000 29.0287 0.0000 0.0000
# 5 0.0000 0.0000 0.0000 0.0000 42.9445 0.0000
# 6 0.0000 0.0000 0.0000 0.0000 0.0000 32.9758
#
#
#
# Elastic Compliance Matrix: (Units=1/GPa)
#
#
# Indices 1 2 3 4 5 6 
#
# 1 0.024615 -0.010079 0.004681 0.000000 0.000000 0.000000
# 2 -0.010079 0.021110 -0.013457 0.000000 0.000000 0.000000
# 3 0.004681 -0.013457 0.027184 0.000000 0.000000 0.000000
# 4 0.000000 0.000000 0.000000 0.034449 0.000000 0.000000
# 5 0.000000 0.000000 0.000000 0.000000 0.023286 0.000000
# 6 0.000000 0.000000 0.000000 0.000000 0.000000 0.030325
#
#
# Mechanical properties :
#
#
# Convention : Reuss Voigt Hill
#
# Bulk Modulus (GPa) = 28.40776 36.32155 32.36466
# Shear Modulus (GPa) = 23.76309 28.99431 26.37870
#
# Velocity S-wave (km/s) = 3.23799 3.57668 3.41154
# Velocity P-wave (km/s) = 5.14911 5.75173 5.45874
#
# Compressibility (1/GPa) = 0.03520165
#
# Stress axis : x y z
#
# Youngs Moduli (GPa) = 40.62623 47.37050 36.78593
#
# Poissons Ratio (x) = 0.47743 -0.17221
# Poissons Ratio (y) = 0.40945 0.49502
# Poissons Ratio (z) = -0.19019 0.63745
#
# Static dielectric constant tensor:
#      x y z
#    x 4.128240 0.000000 0.000000 
#    y 0.000000 3.997760 0.000000 
#    z 0.000000 0.000000 4.069580 
# 
# 
# High freq. dielectric constant tensor:
#      x y z
#    x 1.890490 0.000000 0.000000 
#    y 0.000000 1.888350 0.000000 
#    z 0.000000 0.000000 1.900160 
# 
# From -- ./inp_files/2312.got.cif
#   From: 2010.03.12/outbox.cif.g09.slc.cpg/sg39_2_cif.got.tgz:2312.got - 2010.04.14 02:53:20.
