data_PCOD8182991
_publ_section_title
;
Structure prediction by ZEFSAII (Michael W. Deem and Ramdas Pophale) SiO2 
 PCOD8182991
Probable space group: A M A 2
;
_chemical_formula_sum "Si O2"
_cell_formula_units_Z 40
_cell_length_a 9.055432
_cell_length_b 25.595288
_cell_length_c 9.584376
_cell_angle_alpha 90.000000
_cell_angle_beta 90.000000
_cell_angle_gamma 90.000000
_cell_volume 2221.432070
_symmetry_space_group_name_H-M "A M A 2"
_symmetry_group_IT_number 40
_symmetry_cell_setting 'orthorhombic'
loop_
_space_group_symop_operation_xyz
x,y,z
-x,-y,z
1/2-x,y,z
1/2+x,-y,z
x,1/2+y,1/2+z
-x,1/2-y,1/2+z
1/2-x,1/2+y,1/2+z
1/2+x,1/2-y,1/2+z
loop_
_atom_site_type_symbol
_atom_site_label
_atom_site_fract_x
_atom_site_fract_y
_atom_site_fract_z
Si Si1 0.422021 0.164943 0.589670
Si Si2 0.922692 0.215984 0.094068
Si Si3 0.075421 0.368704 0.816401
Si Si4 0.075825 0.554899 0.614219
Si Si5 0.580448 0.357770 0.397035
O O1 0.250000 0.162293 0.547283
O O2 0.474951 0.224591 0.610794
O O3 0.520245 0.137021 0.473806
O O4 0.453676 0.134396 0.733675
O O5 0.750000 0.212295 0.074222
O O6 0.971419 0.183176 0.230655
O O7 0.992608 0.191797 0.955284
O O8 0.250000 0.378227 0.814335
O O9 0.994857 0.418809 0.750780
O O10 0.250000 0.548131 0.637301
O O11 0.038177 0.589421 0.477979
O O12 0.000000 0.500000 0.586793
O O13 0.750000 0.343192 0.420264
#
# Coordination Sequence:
#
# PCOD8182991 Si02
#       5
#     8   8   8   8   8
#     4  10  19  32  49  74 108 141 169 206 254 301
#     4   9  18  31  49  73 104 140 176 209 246 297
#     4  10  20  34  52  77 105 136 174 213 252 301
#     4  10  20  37  59  78  97 128 168 213 261 310
#     4   9  19  34  52  74 102 135 172 211 255 303
#
# _framework density 18.006402999999999
#
# number of rings (size 3 to 8) (size 9 to 14) (size 15 to 20)
#    0.000    2.400    0.000    2.400    0.000    4.800 
#    0.000    1.000    0.000    2.400    0.000    0.000 
#    0.000    0.000    0.000    0.000    0.000    0.000 
#
# Total GULP energy -248048.969652 kJ/mol
# GULP energy per Si atom -12402.448483 kJ/mol
# Density = 1.796542 g / cm^3
# Si number density = 18.006403 Si / 1000 Ang^3
#
#
#
# Elastic Constant Matrix: (Units=GPa)
#
#
# Indices 1 2 3 4 5 6 
#
# 1 59.6180 44.8316 41.4708 0.0000 0.0000 0.0000
# 2 44.8316 106.8388 51.2817 0.0000 0.0000 0.0000
# 3 41.4708 51.2817 118.0933 0.0000 0.0000 0.0000
# 4 0.0000 0.0000 0.0000 12.8209 0.0000 0.0000
# 5 0.0000 0.0000 0.0000 0.0000 32.1307 0.0000
# 6 0.0000 0.0000 0.0000 0.0000 0.0000 28.5891
#
#
#
# Elastic Compliance Matrix: (Units=1/GPa)
#
#
# Indices 1 2 3 4 5 6 
#
# 1 0.027362 -0.008678 -0.005840 0.000000 0.000000 0.000000
# 2 -0.008678 0.014577 -0.003282 0.000000 0.000000 0.000000
# 3 -0.005840 -0.003282 0.011944 0.000000 0.000000 0.000000
# 4 0.000000 0.000000 0.000000 0.077998 0.000000 0.000000
# 5 0.000000 0.000000 0.000000 0.000000 0.031123 0.000000
# 6 0.000000 0.000000 0.000000 0.000000 0.000000 0.034978
#
#
# Mechanical properties :
#
#
# Convention : Reuss Voigt Hill
#
# Bulk Modulus (GPa) = 54.70101 62.19093 58.44597
# Shear Modulus (GPa) = 20.86135 24.50588 22.68361
#
# Velocity S-wave (km/s) = 3.40744 3.69311 3.55315
# Velocity P-wave (km/s) = 6.77683 7.26627 7.02581
#
# Compressibility (1/GPa) = 0.01828120
#
# Stress axis : x y z
#
# Youngs Moduli (GPa) = 36.54729 68.60093 83.72303
#
# Poissons Ratio (x) = 0.59534 0.48895
# Poissons Ratio (y) = 0.31717 0.27482
# Poissons Ratio (z) = 0.21344 0.22518
#
# Static dielectric constant tensor:
#      x y z
#    x 3.318440 0.000000 0.000000 
#    y 0.000000 3.293650 0.000000 
#    z 0.000000 0.000000 3.378010 
# 
# 
# High freq. dielectric constant tensor:
#      x y z
#    x 1.700350 0.000000 0.000000 
#    y 0.000000 1.683290 0.000000 
#    z 0.000000 0.000000 1.698760 
# 
# From -- ./inp_files/4216.got.cif
#   From: 2010.03.12/outbox.cif.g09.slc.cpg/sg40_3_cif.got.tgz:4216.got - 2010.04.14 01:38:03.
