data_PCOD8182812
_publ_section_title
;
Structure prediction by ZEFSAII (Michael W. Deem and Ramdas Pophale) SiO2 
 PCOD8182812
Probable space group: A M A 2
;
_chemical_formula_sum "Si O2"
_cell_formula_units_Z 60
_cell_length_a 24.517741
_cell_length_b 11.823814
_cell_length_c 9.222596
_cell_angle_alpha 90.000000
_cell_angle_beta 90.000000
_cell_angle_gamma 90.000000
_cell_volume 2673.567952
_symmetry_space_group_name_H-M "A M A 2"
_symmetry_group_IT_number 40
_symmetry_cell_setting 'orthorhombic'
loop_
_space_group_symop_operation_xyz
x,y,z
-x,-y,z
1/2-x,y,z
1/2+x,-y,z
x,1/2+y,1/2+z
-x,1/2-y,1/2+z
1/2-x,1/2+y,1/2+z
1/2+x,1/2-y,1/2+z
loop_
_atom_site_type_symbol
_atom_site_label
_atom_site_fract_x
_atom_site_fract_y
_atom_site_fract_z
Si Si1 0.586185 0.226112 0.106530
Si Si2 0.855583 0.867491 0.819827
Si Si3 0.557297 0.040734 0.912149
Si Si4 0.612962 0.418753 0.878801
Si Si5 0.143484 0.219628 0.119387
Si Si6 0.000000 0.500000 0.913797
Si Si7 0.028768 0.309508 0.139801
Si Si8 0.188211 0.961131 0.599466
O O1 0.629191 0.250925 0.235136
O O2 0.524243 0.232086 0.166031
O O3 0.593671 0.100747 0.038204
O O4 0.596917 0.318274 0.984318
O O5 0.911401 0.936827 0.840581
O O6 0.814772 0.946047 0.727928
O O7 0.829105 0.832013 0.973429
O O8 0.545421 0.132857 0.789463
O O9 0.500000 0.000000 0.978055
O O10 0.650286 0.370932 0.748745
O O11 0.555008 0.471442 0.821365
O O12 0.648283 0.511147 0.965775
O O13 0.078947 0.231625 0.089016
O O14 0.171543 0.338278 0.162203
O O15 0.983150 0.602100 0.015763
O O16 0.250000 0.958276 0.542675
#
# Coordination Sequence:
#
# PCOD8182812 Si02
#       8
#     8   8   8   8   8   4   8   8
#     4  10  21  35  60  90 133 180 215 260 313 386
#     4  11  24  42  64  93 129 166 217 271 323 391
#     4  12  19  37  58  89 134 177 216 261 316 383
#     4  10  21  41  66  99 133 172 223 267 330 402
#     4  12  24  41  68  98 131 170 218 270 326 401
#     4  10  18  36  64  92 142 180 208 270 326 394
#     4  11  18  34  57  91 130 175 218 253 313 382
#     4  11  25  48  72  92 126 172 220 283 341 388
#
# _framework density 22.441922000000002
#
# number of rings (size 3 to 8) (size 9 to 14) (size 15 to 20)
#    0.000    1.067    6.000    1.600    0.000    2.133 
#    3.600    0.000    0.000    0.000    0.000    0.000 
#    0.000    0.000    0.000    0.000    0.000    0.000 
#
# Total GULP energy -371953.070882 kJ/mol
# GULP energy per Si atom -12398.435696 kJ/mol
# Density = 2.239084 g / cm^3
# Si number density = 22.441922 Si / 1000 Ang^3
#
#
#
# Elastic Constant Matrix: (Units=GPa)
#
#
# Indices 1 2 3 4 5 6 
#
# 1 92.0645 22.8010 18.7098 0.0000 0.0000 0.0000
# 2 22.8010 61.4143 39.9277 0.0000 0.0000 0.0000
# 3 18.7098 39.9277 99.9425 0.0000 0.0000 0.0000
# 4 0.0000 0.0000 0.0000 32.7269 0.0000 0.0000
# 5 0.0000 0.0000 0.0000 0.0000 12.1843 0.0000
# 6 0.0000 0.0000 0.0000 0.0000 0.0000 15.8761
#
#
#
# Elastic Compliance Matrix: (Units=1/GPa)
#
#
# Indices 1 2 3 4 5 6 
#
# 1 0.011991 -0.004042 -0.000630 0.000000 0.000000 0.000000
# 2 -0.004042 0.023359 -0.008575 0.000000 0.000000 0.000000
# 3 -0.000630 -0.008575 0.013550 0.000000 0.000000 0.000000
# 4 0.000000 0.000000 0.000000 0.030556 0.000000 0.000000
# 5 0.000000 0.000000 0.000000 0.000000 0.082073 0.000000
# 6 0.000000 0.000000 0.000000 0.000000 0.000000 0.062988
#
#
# Mechanical properties :
#
#
# Convention : Reuss Voigt Hill
#
# Bulk Modulus (GPa) = 44.63398 46.25535 45.44466
# Shear Modulus (GPa) = 19.34396 23.62300 21.48348
#
# Velocity S-wave (km/s) = 2.93909 3.24794 3.09737
# Velocity P-wave (km/s) = 5.60799 5.89249 5.75200
#
# Compressibility (1/GPa) = 0.02240446
#
# Stress axis : x y z
#
# Youngs Moduli (GPa) = 83.39523 42.81057 73.80340
#
# Poissons Ratio (x) = 0.17306 0.04648
# Poissons Ratio (y) = 0.33712 0.63288
# Poissons Ratio (z) = 0.05253 0.36711
#
# Static dielectric constant tensor:
#      x y z
#    x 3.746670 0.000000 0.000000 
#    y 0.000000 4.155590 0.000000 
#    z 0.000000 0.000000 4.081390 
# 
# 
# High freq. dielectric constant tensor:
#      x y z
#    x 1.839850 0.000000 0.000000 
#    y 0.000000 1.891400 0.000000 
#    z 0.000000 0.000000 1.881500 
# 
# From -- ./inp_files/9158.got.cif
#   From: 2010.03.12/outbox.cif.g09.slc.cpg/sg40_5_cif.got.tgz:9158.got - 2010.04.14 01:38:03.
