data_PCOD8182281
_publ_section_title
;
Structure prediction by ZEFSAII (Michael W. Deem and Ramdas Pophale) SiO2 
 PCOD8182281
Probable space group: A B M 2
;
_chemical_formula_sum "Si O2"
_cell_formula_units_Z 48
_cell_length_a 18.586826
_cell_length_b 8.352373
_cell_length_c 14.706929
_cell_angle_alpha 90.000000
_cell_angle_beta 90.000000
_cell_angle_gamma 90.000000
_cell_volume 2283.164010
_symmetry_space_group_name_H-M "A B M 2"
_symmetry_group_IT_number 39
_symmetry_cell_setting 'orthorhombic'
loop_
_space_group_symop_operation_xyz
x,y,z
-x,-y,z
-x,1/2+y,z
x,1/2-y,z
x,1/2+y,1/2+z
-x,1/2-y,1/2+z
-x,y,1/2+z
x,-y,1/2+z
loop_
_atom_site_type_symbol
_atom_site_label
_atom_site_fract_x
_atom_site_fract_y
_atom_site_fract_z
Si Si1 0.319247 0.934426 0.200660
Si Si2 0.332857 0.934110 0.505788
Si Si3 0.814624 0.436369 0.940421
Si Si4 0.577153 0.064654 0.848450
Si Si5 0.921251 0.436410 0.585647
Si Si6 0.157689 0.562137 0.249528
O O1 0.330739 0.750000 0.227444
O O2 0.236871 0.986480 0.215021
O O3 0.340018 0.959321 0.095825
O O4 0.368749 0.041266 0.264802
O O5 0.334413 0.750000 0.535263
O O6 0.259947 0.970418 0.451510
O O7 0.398708 0.970782 0.438785
O O8 0.797199 0.250000 0.929739
O O9 0.854528 0.505321 0.852280
O O10 0.865081 0.463091 0.026526
O O11 0.573245 0.250000 0.872791
O O12 0.500000 0.000000 0.817386
O O13 0.915955 0.250000 0.561854
O O14 0.901386 0.468179 0.690429
O O15 0.000000 0.500000 0.563467
O O16 0.143517 0.750000 0.240796
#
# Coordination Sequence:
#
# PCOD8182281 Si02
#       6
#     8   8   8   8   8   8
#     4  11  23  41  68  99 132 171 220 270 322 386
#     4  12  24  41  67  99 132 172 221 270 324 387
#     4  12  24  41  67  99 132 172 221 270 324 387
#     4  12  26  45  68  97 135 174 217 271 331 389
#     4  12  26  45  68  97 135 174 217 271 331 389
#     4  11  23  41  68  99 132 171 220 270 322 386
#
# _framework density 21.023457000000001
#
# number of rings (size 3 to 8) (size 9 to 14) (size 15 to 20)
#    0.000    0.333    3.333    7.000    0.000    2.667 
#    0.000    6.667    0.000    0.000    0.000    0.000 
#    0.000    0.000    0.000    0.000    0.000    0.000 
#
# Total GULP energy -297857.450558 kJ/mol
# GULP energy per Si atom -12410.727107 kJ/mol
# Density = 2.097561 g / cm^3
# Si number density = 21.023457 Si / 1000 Ang^3
#
#
#
# Elastic Constant Matrix: (Units=GPa)
#
#
# Indices 1 2 3 4 5 6 
#
# 1 73.9762 31.9174 1.2985 0.0000 0.0000 0.0000
# 2 31.9174 99.9821 5.4224 0.0000 0.0000 0.0000
# 3 1.2985 5.4224 89.8502 0.0000 0.0000 0.0000
# 4 0.0000 0.0000 0.0000 38.7910 0.0000 0.0000
# 5 0.0000 0.0000 0.0000 0.0000 19.7556 0.0000
# 6 0.0000 0.0000 0.0000 0.0000 0.0000 32.9945
#
#
#
# Elastic Compliance Matrix: (Units=1/GPa)
#
#
# Indices 1 2 3 4 5 6 
#
# 1 0.015678 -0.005009 0.000076 0.000000 0.000000 0.000000
# 2 -0.005009 0.011635 -0.000630 0.000000 0.000000 0.000000
# 3 0.000076 -0.000630 0.011167 0.000000 0.000000 0.000000
# 4 0.000000 0.000000 0.000000 0.025779 0.000000 0.000000
# 5 0.000000 0.000000 0.000000 0.000000 0.050619 0.000000
# 6 0.000000 0.000000 0.000000 0.000000 0.000000 0.030308
#
#
# Mechanical properties :
#
#
# Convention : Reuss Voigt Hill
#
# Bulk Modulus (GPa) = 36.55875 37.89832 37.22854
# Shear Modulus (GPa) = 30.22450 33.31956 31.77203
#
# Velocity S-wave (km/s) = 3.79576 3.98537 3.89172
# Velocity P-wave (km/s) = 6.05290 6.26445 6.15959
#
# Compressibility (1/GPa) = 0.02735324
#
# Stress axis : x y z
#
# Youngs Moduli (GPa) = 63.78509 85.94800 89.55314
#
# Poissons Ratio (x) = 0.43050 -0.00678
# Poissons Ratio (y) = 0.31949 0.05640
# Poissons Ratio (z) = -0.00483 0.05413
#
# Static dielectric constant tensor:
#      x y z
#    x 3.829550 0.000000 0.000000 
#    y 0.000000 3.823440 0.000000 
#    z 0.000000 0.000000 3.835850 
# 
# 
# High freq. dielectric constant tensor:
#      x y z
#    x 1.816760 0.000000 0.000000 
#    y 0.000000 1.838180 0.000000 
#    z 0.000000 0.000000 1.835560 
# 
# From -- ./inp_files/10049.got.cif
#   From: 2010.03.12/outbox.cif.g09.slc.cpg/sg39_6_cif.got.tgz:10049.got - 2010.04.14 02:53:20.
