data_PCOD8182509
_publ_section_title
;
Structure prediction by ZEFSAII (Michael W. Deem and Ramdas Pophale) SiO2 
 PCOD8182509
Probable space group: A M A 2
;
_chemical_formula_sum "Si O2"
_cell_formula_units_Z 48
_cell_length_a 21.934571
_cell_length_b 23.492115
_cell_length_c 5.034340
_cell_angle_alpha 90.000000
_cell_angle_beta 90.000000
_cell_angle_gamma 90.000000
_cell_volume 2594.142362
_symmetry_space_group_name_H-M "A M A 2"
_symmetry_group_IT_number 40
_symmetry_cell_setting 'orthorhombic'
loop_
_space_group_symop_operation_xyz
x,y,z
-x,-y,z
1/2-x,y,z
1/2+x,-y,z
x,1/2+y,1/2+z
-x,1/2-y,1/2+z
1/2-x,1/2+y,1/2+z
1/2+x,1/2-y,1/2+z
loop_
_atom_site_type_symbol
_atom_site_label
_atom_site_fract_x
_atom_site_fract_y
_atom_site_fract_z
Si Si1 0.496403 0.617116 0.849630
Si Si2 0.904772 0.970913 0.160649
Si Si3 0.320428 0.132013 0.078966
Si Si4 0.467698 0.273017 0.564863
Si Si5 0.880075 0.318860 0.068730
Si Si6 0.563260 0.531155 0.153332
O O1 0.468175 0.565957 0.667935
O O2 0.529703 0.661559 0.654099
O O3 0.440320 0.644135 0.009014
O O4 0.548230 0.595777 0.059297
O O5 0.847433 0.931352 0.093125
O O6 0.891445 0.000815 0.442282
O O7 0.908973 0.022345 0.945591
O O8 0.250000 0.127211 0.005258
O O9 0.328352 0.165979 0.354679
O O10 0.356271 0.167817 0.859938
O O11 0.495810 0.267222 0.272090
O O12 0.398525 0.248087 0.557065
O O13 0.500000 0.500000 0.131398
#
# Coordination Sequence:
#
# PCOD8182509 Si02
#       6
#     8   8   8   8   8   8
#     4   9  19  31  50  74 106 137 156 190 251 308
#     4  10  19  30  44  69  99 124 161 199 231 287
#     4  11  21  35  52  70  94 130 169 214 257 283
#     4  10  19  31  49  74 105 137 161 194 246 308
#     4  10  20  33  49  75 103 126 164 206 242 302
#     4  10  18  28  44  68  99 130 155 187 234 292
#
# _framework density 18.503225
#
# number of rings (size 3 to 8) (size 9 to 14) (size 15 to 20)
#    0.000    2.000    0.000    8.000    0.000    6.667 
#    0.000    0.000    0.000    0.000    0.000    7.000 
#    0.000    0.000    0.000    0.000    0.000    0.000 
#
# Total GULP energy -297465.170700 kJ/mol
# GULP energy per Si atom -12394.382112 kJ/mol
# Density = 1.846111 g / cm^3
# Si number density = 18.503225 Si / 1000 Ang^3
#
#
#
# Elastic Constant Matrix: (Units=GPa)
#
#
# Indices 1 2 3 4 5 6 
#
# 1 60.3176 16.7534 5.2822 0.0000 0.0000 0.0000
# 2 16.7534 55.7324 6.7416 0.0000 0.0000 0.0000
# 3 5.2822 6.7416 74.5863 0.0000 0.0000 0.0000
# 4 0.0000 0.0000 0.0000 31.3192 0.0000 0.0000
# 5 0.0000 0.0000 0.0000 0.0000 19.2809 0.0000
# 6 0.0000 0.0000 0.0000 0.0000 0.0000 14.2579
#
#
#
# Elastic Compliance Matrix: (Units=1/GPa)
#
#
# Indices 1 2 3 4 5 6 
#
# 1 0.018136 -0.005355 -0.000800 0.000000 0.000000 0.000000
# 2 -0.005355 0.019722 -0.001403 0.000000 0.000000 0.000000
# 3 -0.000800 -0.001403 0.013591 0.000000 0.000000 0.000000
# 4 0.000000 0.000000 0.000000 0.031929 0.000000 0.000000
# 5 0.000000 0.000000 0.000000 0.000000 0.051865 0.000000
# 6 0.000000 0.000000 0.000000 0.000000 0.000000 0.070136
#
#
# Mechanical properties :
#
#
# Convention : Reuss Voigt Hill
#
# Bulk Modulus (GPa) = 27.52400 27.57673 27.55036
# Shear Modulus (GPa) = 21.49535 23.76221 22.62878
#
# Velocity S-wave (km/s) = 3.41208 3.58749 3.50088
# Velocity P-wave (km/s) = 5.51639 5.66535 5.59137
#
# Compressibility (1/GPa) = 0.03633193
#
# Stress axis : x y z
#
# Youngs Moduli (GPa) = 55.13772 50.70378 73.57904
#
# Poissons Ratio (x) = 0.27152 0.05889
# Poissons Ratio (y) = 0.29527 0.10326
# Poissons Ratio (z) = 0.04413 0.07116
#
# Static dielectric constant tensor:
#      x y z
#    x 3.027030 0.000000 0.000000 
#    y 0.000000 3.823250 0.000000 
#    z 0.000000 0.000000 3.707770 
# 
# 
# High freq. dielectric constant tensor:
#      x y z
#    x 1.655070 0.000000 0.000000 
#    y 0.000000 1.707640 0.000000 
#    z 0.000000 0.000000 1.743270 
# 
# From -- ./inp_files/2378.got.cif
#   From: 2010.03.12/outbox.cif.g09.slc.cpg/sg40_2_cif.got.tgz:2378.got - 2010.04.14 01:38:03.
