data_PCOD8182541
_publ_section_title
;
Structure prediction by ZEFSAII (Michael W. Deem and Ramdas Pophale) SiO2 
 PCOD8182541
Probable space group: A M A 2
;
_chemical_formula_sum "Si O2"
_cell_formula_units_Z 64
_cell_length_a 8.826247
_cell_length_b 30.558992
_cell_length_c 14.391951
_cell_angle_alpha 90.000000
_cell_angle_beta 90.000000
_cell_angle_gamma 90.000000
_cell_volume 3881.814459
_symmetry_space_group_name_H-M "A M A 2"
_symmetry_group_IT_number 40
_symmetry_cell_setting 'orthorhombic'
loop_
_space_group_symop_operation_xyz
x,y,z
-x,-y,z
1/2-x,y,z
1/2+x,-y,z
x,1/2+y,1/2+z
-x,1/2-y,1/2+z
1/2-x,1/2+y,1/2+z
1/2+x,1/2-y,1/2+z
loop_
_atom_site_type_symbol
_atom_site_label
_atom_site_fract_x
_atom_site_fract_y
_atom_site_fract_z
Si Si1 0.571790 0.727625 0.500000
Si Si2 0.078634 0.175820 0.491489
Si Si3 0.429706 0.454721 0.091748
Si Si4 0.928470 0.544187 0.879048
Si Si5 0.068677 0.784976 0.204932
Si Si6 0.927252 0.135630 0.325990
Si Si7 0.429412 0.300695 0.300902
Si Si8 0.077631 0.128117 0.681889
O O1 0.750000 0.732485 0.509414
O O2 0.506437 0.776072 0.484322
O O3 0.511838 0.708946 0.598401
O O4 0.526893 0.698796 0.410700
O O5 0.250000 0.173588 0.452015
O O6 0.073607 0.161645 0.597294
O O7 0.970455 0.145276 0.431827
O O8 0.500000 0.500000 0.128979
O O9 0.250000 0.456181 0.100513
O O10 0.492462 0.416497 0.157306
O O11 0.483686 0.447518 0.985131
O O12 0.750000 0.538476 0.878570
O O13 0.979397 0.584911 0.812591
O O14 0.000000 0.500000 0.837698
O O15 0.250000 0.781730 0.212535
O O16 0.001686 0.828425 0.256269
O O17 0.001465 0.741245 0.250229
O O18 0.750000 0.138327 0.314292
O O19 0.250000 0.298469 0.285820
O O20 0.493478 0.346793 0.265130
O O21 0.250000 0.117264 0.710610
#
# Coordination Sequence:
#
# PCOD8182541 Si02
#       8
#     8   8   8   8   8   8   8   8
#     4   9  18  33  47  65  94 128 162 199 238 286
#     4  10  18  29  46  66  95 130 162 194 235 286
#     4  10  19  32  49  71 101 129 161 199 241 291
#     4   9  18  30  44  68  97 126 158 194 235 284
#     4  10  19  33  50  68  94 127 162 200 243 290
#     4  10  19  30  47  71  96 124 162 202 238 281
#     4  11  21  32  48  69  95 126 164 203 239 285
#     4  11  21  33  49  70  97 132 168 199 242 288
#
# _framework density 16.487136
#
# number of rings (size 3 to 8) (size 9 to 14) (size 15 to 20)
#    0.000    2.000    3.750    1.125    0.000    1.500 
#    0.000    1.250    0.000    0.000    0.000    0.875 
#    0.000    2.000    0.000    0.000    0.000    0.000 
#
# Total GULP energy -396607.797134 kJ/mol
# GULP energy per Si atom -12393.993660 kJ/mol
# Density = 1.644961 g / cm^3
# Si number density = 16.487136 Si / 1000 Ang^3
#
#
#
# Elastic Constant Matrix: (Units=GPa)
#
#
# Indices 1 2 3 4 5 6 
#
# 1 36.1339 36.5846 23.4215 0.0000 0.0000 0.0000
# 2 36.5846 125.0641 37.5397 0.0000 0.0000 0.0000
# 3 23.4215 37.5397 73.9924 0.0000 0.0000 0.0000
# 4 0.0000 0.0000 0.0000 25.4975 0.0000 0.0000
# 5 0.0000 0.0000 0.0000 0.0000 14.9682 0.0000
# 6 0.0000 0.0000 0.0000 0.0000 0.0000 27.0350
#
#
#
# Elastic Compliance Matrix: (Units=1/GPa)
#
#
# Indices 1 2 3 4 5 6 
#
# 1 0.043545 -0.010146 -0.008636 0.000000 0.000000 0.000000
# 2 -0.010146 0.011796 -0.002773 0.000000 0.000000 0.000000
# 3 -0.008636 -0.002773 0.017656 0.000000 0.000000 0.000000
# 4 0.000000 0.000000 0.000000 0.039220 0.000000 0.000000
# 5 0.000000 0.000000 0.000000 0.000000 0.066808 0.000000
# 6 0.000000 0.000000 0.000000 0.000000 0.000000 0.036989
#
#
# Mechanical properties :
#
#
# Convention : Reuss Voigt Hill
#
# Bulk Modulus (GPa) = 33.46017 47.80911 40.63464
# Shear Modulus (GPa) = 18.58137 22.67644 20.62891
#
# Velocity S-wave (km/s) = 3.36076 3.71266 3.54109
# Velocity P-wave (km/s) = 5.94965 6.88762 6.43575
#
# Compressibility (1/GPa) = 0.02988628
#
# Stress axis : x y z
#
# Youngs Moduli (GPa) = 22.96471 84.77281 56.63918
#
# Poissons Ratio (x) = 0.86009 0.48915
# Poissons Ratio (y) = 0.23299 0.15707
# Poissons Ratio (z) = 0.19833 0.23509
#
# Static dielectric constant tensor:
#      x y z
#    x 3.031610 0.000000 0.000000 
#    y 0.000000 3.254130 0.000000 
#    z 0.000000 0.000000 3.108070 
# 
# 
# High freq. dielectric constant tensor:
#      x y z
#    x 1.627920 0.000000 0.000000 
#    y 0.000000 1.635160 0.000000 
#    z 0.000000 0.000000 1.604970 
# 
# From -- ./inp_files/15864.got.cif
#   From: 2010.03.12/outbox.cif.g09.slc.cpg/sg40_8_cif.got.tgz:15864.got - 2010.04.14 01:38:03.
