data_PCOD8182860
_publ_section_title
;
Structure prediction by ZEFSAII (Michael W. Deem and Ramdas Pophale) SiO2 
 PCOD8182860
Probable space group: A M A 2
;
_chemical_formula_sum "Si O2"
_cell_formula_units_Z 56
_cell_length_a 8.692484
_cell_length_b 18.255465
_cell_length_c 20.777723
_cell_angle_alpha 90.000000
_cell_angle_beta 90.000000
_cell_angle_gamma 90.000000
_cell_volume 3297.119985
_symmetry_space_group_name_H-M "A M A 2"
_symmetry_group_IT_number 40
_symmetry_cell_setting 'orthorhombic'
loop_
_space_group_symop_operation_xyz
x,y,z
-x,-y,z
1/2-x,y,z
1/2+x,-y,z
x,1/2+y,1/2+z
-x,1/2-y,1/2+z
1/2-x,1/2+y,1/2+z
1/2+x,1/2-y,1/2+z
loop_
_atom_site_type_symbol
_atom_site_label
_atom_site_fract_x
_atom_site_fract_y
_atom_site_fract_z
Si Si1 0.419580 0.706321 0.439330
Si Si2 0.067208 0.352844 0.996506
Si Si3 0.568302 0.419913 0.124122
Si Si4 0.932516 0.421786 0.870203
Si Si5 0.922639 0.710814 0.805155
Si Si6 0.931463 0.655345 0.246130
Si Si7 0.928468 0.077864 0.877520
O O1 0.250000 0.677960 0.458145
O O2 0.479185 0.766485 0.490966
O O3 0.413929 0.748718 0.372600
O O4 0.528242 0.635482 0.433904
O O5 0.250000 0.362234 0.989058
O O6 0.011041 0.380147 0.064788
O O7 0.987384 0.400708 0.941545
O O8 0.500000 0.500000 0.132465
O O9 0.750000 0.424372 0.113516
O O10 0.530183 0.374285 0.187398
O O11 0.750000 0.423309 0.869230
O O12 0.000000 0.500000 0.851353
O O13 0.992789 0.366338 0.815475
O O14 0.750000 0.698441 0.778026
O O15 0.022418 0.759845 0.756003
O O16 0.750000 0.649126 0.232541
O O17 0.982528 0.607828 0.308196
O O18 0.750000 0.066710 0.878200
O O19 0.000000 0.000000 0.893073
#
# Coordination Sequence:
#
# PCOD8182860 Si02
#       7
#     8   8   8   8   8   8   8
#     4   8  16  30  48  67  91 121 154 192 237 284
#     4  10  20  35  51  69  95 128 163 201 242 289
#     4  12  24  36  50  70  97 131 167 203 238 281
#     4  11  20  31  48  72 100 129 161 200 244 290
#     4   9  17  31  49  70  95 125 159 197 241 289
#     4  10  20  34  50  70  96 129 165 201 239 284
#     4  10  19  29  46  70  97 125 156 194 237 281
#
# _framework density 16.98452
#
# number of rings (size 3 to 8) (size 9 to 14) (size 15 to 20)
#    0.000    2.000    0.000    6.000    0.000    6.857 
#    0.000    0.000    0.000    0.000    0.000    1.000 
#    0.000    4.571    0.000    0.000    0.000    0.000 
#
# Total GULP energy -347173.017493 kJ/mol
# GULP energy per Si atom -12399.036339 kJ/mol
# Density = 1.694586 g / cm^3
# Si number density = 16.984520 Si / 1000 Ang^3
#
#
#
# Elastic Constant Matrix: (Units=GPa)
#
#
# Indices 1 2 3 4 5 6 
#
# 1 80.1164 42.1896 9.8574 0.0000 0.0000 0.0000
# 2 42.1896 139.4412 42.6718 0.0000 0.0000 0.0000
# 3 9.8574 42.6718 45.3895 0.0000 0.0000 0.0000
# 4 0.0000 0.0000 0.0000 25.7474 0.0000 0.0000
# 5 0.0000 0.0000 0.0000 0.0000 21.1815 0.0000
# 6 0.0000 0.0000 0.0000 0.0000 0.0000 32.3423
#
#
#
# Elastic Compliance Matrix: (Units=1/GPa)
#
#
# Indices 1 2 3 4 5 6 
#
# 1 0.014911 -0.004943 0.001408 0.000000 0.000000 0.000000
# 2 -0.004943 0.011706 -0.009932 0.000000 0.000000 0.000000
# 3 0.001408 -0.009932 0.031063 0.000000 0.000000 0.000000
# 4 0.000000 0.000000 0.000000 0.038839 0.000000 0.000000
# 5 0.000000 0.000000 0.000000 0.000000 0.047211 0.000000
# 6 0.000000 0.000000 0.000000 0.000000 0.000000 0.030919
#
#
# Mechanical properties :
#
#
# Convention : Reuss Voigt Hill
#
# Bulk Modulus (GPa) = 32.52235 50.48719 41.50477
# Shear Modulus (GPa) = 23.60365 27.20280 25.40322
#
# Velocity S-wave (km/s) = 3.73193 4.00637 3.87158
# Velocity P-wave (km/s) = 6.14488 7.15481 6.66899
#
# Compressibility (1/GPa) = 0.03074809
#
# Stress axis : x y z
#
# Youngs Moduli (GPa) = 67.06301 85.42407 32.19262
#
# Poissons Ratio (x) = 0.42221 -0.04534
# Poissons Ratio (y) = 0.33146 0.31974
# Poissons Ratio (z) = -0.09444 0.84843
#
# Static dielectric constant tensor:
#      x y z
#    x 3.351360 0.000000 0.000000 
#    y 0.000000 3.216080 0.000000 
#    z 0.000000 0.000000 2.966840 
# 
# 
# High freq. dielectric constant tensor:
#      x y z
#    x 1.672760 0.000000 0.000000 
#    y 0.000000 1.661550 0.000000 
#    z 0.000000 0.000000 1.612540 
# 
# From -- ./inp_files/22293.got.cif
#   From: 2010.03.12/outbox.cif.g09.slc.cpg/sg40_12_cif.got.tgz:22293.got - 2010.04.14 01:38:03.
