data_PCOD8182336
_publ_section_title
;
Structure prediction by ZEFSAII (Michael W. Deem and Ramdas Pophale) SiO2 
 PCOD8182336
Probable space group: A M A 2
;
_chemical_formula_sum "Si O2"
_cell_formula_units_Z 52
_cell_length_a 20.853515
_cell_length_b 11.222469
_cell_length_c 9.797856
_cell_angle_alpha 90.000000
_cell_angle_beta 90.000000
_cell_angle_gamma 90.000000
_cell_volume 2292.971915
_symmetry_space_group_name_H-M "A M A 2"
_symmetry_group_IT_number 40
_symmetry_cell_setting 'orthorhombic'
loop_
_space_group_symop_operation_xyz
x,y,z
-x,-y,z
1/2-x,y,z
1/2+x,-y,z
x,1/2+y,1/2+z
-x,1/2-y,1/2+z
1/2-x,1/2+y,1/2+z
1/2+x,1/2-y,1/2+z
loop_
_atom_site_type_symbol
_atom_site_label
_atom_site_fract_x
_atom_site_fract_y
_atom_site_fract_z
Si Si1 0.562370 0.082787 0.713830
Si Si2 0.250000 0.619750 0.093550
Si Si3 0.250000 0.542953 0.381344
Si Si4 0.544964 0.760173 0.707690
Si Si5 0.889559 0.513877 0.706454
Si Si6 0.385647 0.071846 0.498876
Si Si7 0.250000 0.892244 0.134882
Si Si8 0.112437 0.584383 0.423770
O O1 0.532877 0.216929 0.712721
O O2 0.500000 0.000000 0.715208
O O3 0.602636 0.054369 0.576794
O O4 0.603994 0.045080 0.846766
O O5 0.250000 0.523226 0.217559
O O6 0.310935 0.602268 0.998667
O O7 0.250000 0.751567 0.158792
O O8 0.250000 0.421402 0.471790
O O9 0.187303 0.619727 0.419440
O O10 0.560407 0.622302 0.700255
O O11 0.575321 0.823636 0.574282
O O12 0.573728 0.812031 0.848941
O O13 0.814817 0.554256 0.702706
O O14 0.908546 0.428989 0.580238
O O15 0.905791 0.439701 0.842107
#
# Coordination Sequence:
#
# PCOD8182336 Si02
#       8
#     8   4   4   8   8   8   4   8
#     4   8  17  35  55  79 109 144 184 222 265 321
#     4  12  17  37  61  74 110 152 171 221 287 316
#     4  10  16  30  58  80 100 140 186 214 264 334
#     4  10  20  39  57  76 114 149 179 225 269 320
#     4  11  21  35  56  83 110 139 184 225 273 327
#     4  10  20  34  58  84 107 143 184 224 271 326
#     4  10  21  33  53  84 106 140 181 223 275 328
#     4   9  18  34  55  80 107 143 179 223 271 319
#
# _framework density 22.677993000000001
#
# number of rings (size 3 to 8) (size 9 to 14) (size 15 to 20)
#    0.000    2.462    4.615    0.462    0.000    1.231 
#    0.000   11.538    0.000    1.846    0.000    0.000 
#    0.000    0.000    0.000    0.000    0.000    0.000 
#
# Total GULP energy -322177.230712 kJ/mol
# GULP energy per Si atom -12391.431950 kJ/mol
# Density = 2.262638 g / cm^3
# Si number density = 22.677993 Si / 1000 Ang^3
#
#
#
# Elastic Constant Matrix: (Units=GPa)
#
#
# Indices 1 2 3 4 5 6 
#
# 1 33.6892 3.3954 0.7357 0.0000 0.0000 0.0000
# 2 3.3954 46.5880 35.3098 0.0000 0.0000 0.0000
# 3 0.7357 35.3098 181.5036 0.0000 0.0000 0.0000
# 4 0.0000 0.0000 0.0000 19.5218 0.0000 0.0000
# 5 0.0000 0.0000 0.0000 0.0000 4.0282 0.0000
# 6 0.0000 0.0000 0.0000 0.0000 0.0000 9.2618
#
#
#
# Elastic Compliance Matrix: (Units=1/GPa)
#
#
# Indices 1 2 3 4 5 6 
#
# 1 0.029922 -0.002450 0.000355 0.000000 0.000000 0.000000
# 2 -0.002450 0.025378 -0.004927 0.000000 0.000000 0.000000
# 3 0.000355 -0.004927 0.006467 0.000000 0.000000 0.000000
# 4 0.000000 0.000000 0.000000 0.051225 0.000000 0.000000
# 5 0.000000 0.000000 0.000000 0.000000 0.248249 0.000000
# 6 0.000000 0.000000 0.000000 0.000000 0.000000 0.107971
#
#
# Mechanical properties :
#
#
# Convention : Reuss Voigt Hill
#
# Bulk Modulus (GPa) = 20.95431 37.85139 29.40285
# Shear Modulus (GPa) = 10.01678 21.38501 15.70090
#
# Velocity S-wave (km/s) = 2.10394 3.07414 2.63409
# Velocity P-wave (km/s) = 3.89385 5.41548 4.71644
#
# Compressibility (1/GPa) = 0.04772287
#
# Stress axis : x y z
#
# Youngs Moduli (GPa) = 33.41996 39.40479 154.64071
#
# Poissons Ratio (x) = 0.09655 -0.05495
# Poissons Ratio (y) = 0.08188 0.76192
# Poissons Ratio (z) = -0.01188 0.19415
#
# Static dielectric constant tensor:
#      x y z
#    x 4.590600 0.000000 0.000000 
#    y 0.000000 3.816040 0.000000 
#    z 0.000000 0.000000 4.029330 
# 
# 
# High freq. dielectric constant tensor:
#      x y z
#    x 1.906070 0.000000 0.000000 
#    y 0.000000 1.851030 0.000000 
#    z 0.000000 0.000000 1.894010 
# 
# From -- ./inp_files/8850.got.cif
#   From: 2010.03.12/outbox.cif.g09.slc.cpg/sg40_5_cif.got.tgz:8850.got - 2010.04.14 01:38:03.
