data_PCOD8182417
_publ_section_title
;
Structure prediction by ZEFSAII (Michael W. Deem and Ramdas Pophale) SiO2 
 PCOD8182417
Probable space group: A M A 2
;
_chemical_formula_sum "Si O2"
_cell_formula_units_Z 56
_cell_length_a 16.628224
_cell_length_b 22.121021
_cell_length_c 8.241419
_cell_angle_alpha 90.000000
_cell_angle_beta 90.000000
_cell_angle_gamma 90.000000
_cell_volume 3031.468284
_symmetry_space_group_name_H-M "A M A 2"
_symmetry_group_IT_number 40
_symmetry_cell_setting 'orthorhombic'
loop_
_space_group_symop_operation_xyz
x,y,z
-x,-y,z
1/2-x,y,z
1/2+x,-y,z
x,1/2+y,1/2+z
-x,1/2-y,1/2+z
1/2-x,1/2+y,1/2+z
1/2+x,1/2-y,1/2+z
loop_
_atom_site_type_symbol
_atom_site_label
_atom_site_fract_x
_atom_site_fract_y
_atom_site_fract_z
Si Si1 0.951812 0.167089 0.035850
Si Si2 0.988674 0.065975 0.614484
Si Si3 0.156779 0.719916 0.034612
Si Si4 0.095027 0.145808 0.819706
Si Si5 0.081310 0.461529 0.431732
Si Si6 0.047979 0.634718 0.826874
Si Si7 0.339773 0.568668 0.593596
O O1 0.998330 0.176962 0.204959
O O2 0.878731 0.213045 0.020208
O O3 0.919371 0.098329 0.041470
O O4 0.013781 0.177314 0.887418
O O5 0.067862 0.087110 0.715433
O O6 0.982860 0.110797 0.460470
O O7 0.912935 0.061637 0.741799
O O8 0.000000 0.000000 0.538710
O O9 0.250000 0.723980 0.992517
O O10 0.115681 0.676130 0.906047
O O11 0.143959 0.694345 0.215530
O O12 0.151278 0.123141 0.964952
O O13 0.151317 0.504409 0.500055
O O14 0.000000 0.500000 0.449085
O O15 0.094438 0.579212 0.736077
O O16 0.250000 0.570649 0.666807
#
# Coordination Sequence:
#
# PCOD8182417 Si02
#       7
#     8   8   8   8   8   8   8
#     4  10  20  35  59  77 107 145 194 224 272 333
#     4   9  16  30  56  79 103 138 181 226 268 314
#     4  11  22  36  52  80 116 144 180 233 285 325
#     4   9  18  35  55  76 104 146 187 218 267 337
#     4  10  17  36  56  81 106 147 183 221 272 336
#     4  10  21  33  56  84 107 145 192 231 270 329
#     4  11  20  33  55  85 115 142 181 233 283 329
#
# _framework density 18.472895999999999
#
# number of rings (size 3 to 8) (size 9 to 14) (size 15 to 20)
#    0.000    2.000    5.714    1.714    2.000    0.571 
#    0.000    0.000    0.000    0.857    0.000    0.000 
#    0.000    0.000    0.000    0.000    0.000    0.000 
#
# Total GULP energy -346952.786334 kJ/mol
# GULP energy per Si atom -12391.170941 kJ/mol
# Density = 1.843085 g / cm^3
# Si number density = 18.472896 Si / 1000 Ang^3
#
#
#
# Elastic Constant Matrix: (Units=GPa)
#
#
# Indices 1 2 3 4 5 6 
#
# 1 64.5160 44.2104 28.5915 0.0000 0.0000 0.0000
# 2 44.2104 101.0540 39.9454 0.0000 0.0000 0.0000
# 3 28.5915 39.9454 91.9668 0.0000 0.0000 0.0000
# 4 0.0000 0.0000 0.0000 20.0826 0.0000 0.0000
# 5 0.0000 0.0000 0.0000 0.0000 16.5702 0.0000
# 6 0.0000 0.0000 0.0000 0.0000 0.0000 24.2164
#
#
#
# Elastic Compliance Matrix: (Units=1/GPa)
#
#
# Indices 1 2 3 4 5 6 
#
# 1 0.022961 -0.008721 -0.003350 0.000000 0.000000 0.000000
# 2 -0.008721 0.015259 -0.003917 0.000000 0.000000 0.000000
# 3 -0.003350 -0.003917 0.013616 0.000000 0.000000 0.000000
# 4 0.000000 0.000000 0.000000 0.049794 0.000000 0.000000
# 5 0.000000 0.000000 0.000000 0.000000 0.060349 0.000000
# 6 0.000000 0.000000 0.000000 0.000000 0.000000 0.041294
#
#
# Mechanical properties :
#
#
# Convention : Reuss Voigt Hill
#
# Bulk Modulus (GPa) = 50.35080 53.67017 52.01049
# Shear Modulus (GPa) = 20.67222 21.82645 21.24934
#
# Velocity S-wave (km/s) = 3.34886 3.44108 3.39528
# Velocity P-wave (km/s) = 6.50145 6.70109 6.60203
#
# Compressibility (1/GPa) = 0.01986066
#
# Stress axis : x y z
#
# Youngs Moduli (GPa) = 43.55225 65.53438 73.44168
#
# Poissons Ratio (x) = 0.57152 0.24606
# Poissons Ratio (y) = 0.37981 0.28764
# Poissons Ratio (z) = 0.14592 0.25667
#
# Static dielectric constant tensor:
#      x y z
#    x 3.041980 0.000000 0.000000 
#    y 0.000000 3.399830 0.000000 
#    z 0.000000 0.000000 3.623930 
# 
# 
# High freq. dielectric constant tensor:
#      x y z
#    x 1.673410 0.000000 0.000000 
#    y 0.000000 1.714850 0.000000 
#    z 0.000000 0.000000 1.723140 
# 
# From -- ./inp_files/7741.got.cif
#   From: 2010.03.12/outbox.cif.g09.slc.cpg/sg40_4_cif.got.tgz:7741.got - 2010.04.14 01:38:03.
