data_PCOD8182520
_publ_section_title
;
Structure prediction by ZEFSAII (Michael W. Deem and Ramdas Pophale) SiO2 
 PCOD8182520
Probable space group: A M A 2
;
_chemical_formula_sum "Si O2"
_cell_formula_units_Z 64
_cell_length_a 9.037793
_cell_length_b 18.287783
_cell_length_c 20.542664
_cell_angle_alpha 90.000000
_cell_angle_beta 90.000000
_cell_angle_gamma 90.000000
_cell_volume 3395.316099
_symmetry_space_group_name_H-M "A M A 2"
_symmetry_group_IT_number 40
_symmetry_cell_setting 'orthorhombic'
loop_
_space_group_symop_operation_xyz
x,y,z
-x,-y,z
1/2-x,y,z
1/2+x,-y,z
x,1/2+y,1/2+z
-x,1/2-y,1/2+z
1/2-x,1/2+y,1/2+z
1/2+x,1/2-y,1/2+z
loop_
_atom_site_type_symbol
_atom_site_label
_atom_site_fract_x
_atom_site_fract_y
_atom_site_fract_z
Si Si1 0.924074 0.424651 0.028820
Si Si2 0.923483 0.187570 0.771674
Si Si3 0.924074 0.424651 0.514528
Si Si4 0.418048 0.352547 0.912864
Si Si5 0.417448 0.836184 0.271674
Si Si6 0.422564 0.182873 0.642598
Si Si7 0.577436 0.317128 0.400751
Si Si8 0.081952 0.852547 0.130485
O O1 0.750000 0.436337 0.027874
O O2 0.974409 0.363867 0.080696
O O3 0.000000 0.500000 0.048791
O O4 0.973807 0.399292 0.957406
O O5 0.750000 0.174082 0.771674
O O6 0.961047 0.273092 0.771674
O O7 0.991915 0.152476 0.706110
O O8 0.991914 0.152476 0.837238
O O9 0.750000 0.436337 0.515475
O O10 0.974408 0.363867 0.462653
O O11 0.000000 0.500000 0.494557
O O12 0.973808 0.399292 0.585942
O O13 0.250000 0.363570 0.937288
O O14 0.436562 0.382393 0.838279
O O15 0.462356 0.267161 0.915238
O O16 0.250000 0.801381 0.271674
O O17 0.436561 0.882393 0.205070
O O18 0.250000 0.173331 0.656316
O O19 0.462357 0.267161 0.628111
O O20 0.750000 0.326670 0.387032
O O21 0.250000 0.863569 0.106061
#
# Coordination Sequence:
#
# PCOD8182520 Si02
#       8
#     8   8   8   8   8   8   8   8
#     4  11  23  37  53  75 105 141 178 216 260 309
#     4  10  18  28  51  84 109 130 166 216 260 304
#     4  11  23  37  53  75 105 141 178 216 260 309
#     4   9  17  33  57  81 105 134 170 213 260 310
#     4   8  16  32  53  78 109 140 168 206 260 312
#     4   9  19  36  56  77 105 140 173 210 260 313
#     4   9  19  36  56  77 105 140 173 210 260 313
#     4   9  17  33  57  81 105 134 170 213 260 310
#
# _framework density 18.849498000000001
#
# number of rings (size 3 to 8) (size 9 to 14) (size 15 to 20)
#    0.000    2.500    0.000    4.125    0.000    6.000 
#    0.000    1.250    0.000    0.000    0.000    0.000 
#    0.000    0.000    0.000    0.000    0.000    0.000 
#
# Total GULP energy -396714.618590 kJ/mol
# GULP energy per Si atom -12397.331831 kJ/mol
# Density = 1.880660 g / cm^3
# Si number density = 18.849498 Si / 1000 Ang^3
#
#
#
# Elastic Constant Matrix: (Units=GPa)
#
#
# Indices 1 2 3 4 5 6 
#
# 1 70.4909 18.9356 34.6012 0.0000 0.0000 0.0000
# 2 18.9356 38.8703 12.6037 0.0000 0.0000 0.0000
# 3 34.6012 12.6037 102.5043 0.0000 0.0000 0.0000
# 4 0.0000 0.0000 0.0000 5.4055 0.0000 0.0000
# 5 0.0000 0.0000 0.0000 0.0000 31.6410 0.0000
# 6 0.0000 0.0000 0.0000 0.0000 0.0000 24.5144
#
#
#
# Elastic Compliance Matrix: (Units=1/GPa)
#
#
# Indices 1 2 3 4 5 6 
#
# 1 0.018855 -0.007417 -0.005453 0.000000 0.000000 0.000000
# 2 -0.007417 0.029713 -0.001150 0.000000 0.000000 0.000000
# 3 -0.005453 -0.001150 0.011738 0.000000 0.000000 0.000000
# 4 0.000000 0.000000 0.000000 0.184997 0.000000 0.000000
# 5 0.000000 0.000000 0.000000 0.000000 0.031605 0.000000
# 6 0.000000 0.000000 0.000000 0.000000 0.000000 0.040792
#
#
# Mechanical properties :
#
#
# Convention : Reuss Voigt Hill
#
# Bulk Modulus (GPa) = 30.99210 38.23849 34.61530
# Shear Modulus (GPa) = 14.02550 22.02719 18.02634
#
# Velocity S-wave (km/s) = 2.73074 3.42216 3.09581
# Velocity P-wave (km/s) = 5.14005 5.99543 5.58414
#
# Compressibility (1/GPa) = 0.03226629
#
# Stress axis : x y z
#
# Youngs Moduli (GPa) = 53.03567 33.65569 85.19583
#
# Poissons Ratio (x) = 0.24963 0.46455
# Poissons Ratio (y) = 0.39338 0.09794
# Poissons Ratio (z) = 0.28919 0.03869
#
# Static dielectric constant tensor:
#      x y z
#    x 3.318980 0.000000 0.000000 
#    y 0.000000 3.151570 0.000000 
#    z 0.000000 0.000000 3.844450 
# 
# 
# High freq. dielectric constant tensor:
#      x y z
#    x 1.728460 0.000000 0.000000 
#    y 0.000000 1.689100 0.000000 
#    z 0.000000 0.000000 1.752860 
# 
# From -- ./inp_files/22399.got.cif
#   From: 2010.03.12/outbox.cif.g09.slc.cpg/sg40_12_cif.got.tgz:22399.got - 2010.04.14 01:38:03.
