data_PCOD8182796
_publ_section_title
;
Structure prediction by ZEFSAII (Michael W. Deem and Ramdas Pophale) SiO2 
 PCOD8182796
Probable space group: A M A 2
;
_chemical_formula_sum "Si O2"
_cell_formula_units_Z 64
_cell_length_a 17.269624
_cell_length_b 15.308309
_cell_length_c 12.165644
_cell_angle_alpha 90.000000
_cell_angle_beta 90.000000
_cell_angle_gamma 90.000000
_cell_volume 3216.215982
_symmetry_space_group_name_H-M "A M A 2"
_symmetry_group_IT_number 40
_symmetry_cell_setting 'orthorhombic'
loop_
_space_group_symop_operation_xyz
x,y,z
-x,-y,z
1/2-x,y,z
1/2+x,-y,z
x,1/2+y,1/2+z
-x,1/2-y,1/2+z
1/2-x,1/2+y,1/2+z
1/2+x,1/2-y,1/2+z
loop_
_atom_site_type_symbol
_atom_site_label
_atom_site_fract_x
_atom_site_fract_y
_atom_site_fract_z
Si Si1 0.658037 0.356722 0.264340
Si Si2 0.409848 0.503547 0.420372
Si Si3 0.157482 0.818567 0.885430
Si Si4 0.342225 0.648080 0.014427
Si Si5 0.342698 0.798768 0.418987
Si Si6 0.663133 0.239505 0.655927
Si Si7 0.662761 0.938788 0.137240
Si Si8 0.342123 0.990663 0.363980
O O1 0.750000 0.357061 0.266312
O O2 0.629659 0.446145 0.319583
O O3 0.626657 0.353929 0.139587
O O4 0.625934 0.272254 0.331141
O O5 0.500000 0.500000 0.397167
O O6 0.375798 0.406984 0.435097
O O7 0.393501 0.553705 0.533773
O O8 0.250000 0.820594 0.885763
O O9 0.124555 0.808566 0.760572
O O10 0.127667 0.737414 0.958668
O O11 0.250000 0.645763 0.013259
O O12 0.375233 0.563830 0.947981
O O13 0.250000 0.793754 0.419260
O O14 0.378527 0.777780 0.539390
O O15 0.374038 0.895026 0.392584
O O16 0.750000 0.202937 0.644573
O O17 0.663854 0.341256 0.683191
O O18 0.750000 0.967033 0.102074
O O19 0.630520 0.994991 0.238740
O O20 0.250000 0.994070 0.369073
#
# Coordination Sequence:
#
# PCOD8182796 Si02
#       8
#     8   8   8   8   8   8   8   8
#     4  10  20  36  58  84 115 148 184 232 284 337
#     4  12  26  40  54  79 115 157 199 239 279 331
#     4  10  20  36  60  88 113 146 187 233 286 341
#     4   9  18  32  55  90 121 140 174 231 289 340
#     4   9  17  28  49  84 116 140 171 219 279 333
#     4   9  16  30  55  86 114 141 180 226 275 333
#     4  10  18  35  61  84 111 144 183 237 287 332
#     4   9  17  29  52  89 121 138 169 229 290 339
#
# _framework density 19.899160999999999
#
# number of rings (size 3 to 8) (size 9 to 14) (size 15 to 20)
#    0.000    2.250    2.500    1.125    3.500    0.000 
#    0.000    1.250    0.000    0.750    0.000    0.000 
#    0.000    0.000    0.000    0.000    0.000    0.000 
#
# Total GULP energy -396709.391384 kJ/mol
# GULP energy per Si atom -12397.168481 kJ/mol
# Density = 1.985387 g / cm^3
# Si number density = 19.899161 Si / 1000 Ang^3
#
#
#
# Elastic Constant Matrix: (Units=GPa)
#
#
# Indices 1 2 3 4 5 6 
#
# 1 15.3704 12.6058 17.8890 0.0000 0.0000 0.0000
# 2 12.6058 115.4801 44.0528 0.0000 0.0000 0.0000
# 3 17.8890 44.0528 139.8086 0.0000 0.0000 0.0000
# 4 0.0000 0.0000 0.0000 35.2196 0.0000 0.0000
# 5 0.0000 0.0000 0.0000 0.0000 5.1505 0.0000
# 6 0.0000 0.0000 0.0000 0.0000 0.0000 4.5973
#
#
#
# Elastic Compliance Matrix: (Units=1/GPa)
#
#
# Indices 1 2 3 4 5 6 
#
# 1 0.079344 -0.005442 -0.008437 0.000000 0.000000 0.000000
# 2 -0.005442 0.010216 -0.002523 0.000000 0.000000 0.000000
# 3 -0.008437 -0.002523 0.009027 0.000000 0.000000 0.000000
# 4 0.000000 0.000000 0.000000 0.028393 0.000000 0.000000
# 5 0.000000 0.000000 0.000000 0.000000 0.194157 0.000000
# 6 0.000000 0.000000 0.000000 0.000000 0.000000 0.217518
#
#
# Mechanical properties :
#
#
# Convention : Reuss Voigt Hill
#
# Bulk Modulus (GPa) = 15.20178 46.63936 30.92057
# Shear Modulus (GPa) = 8.42619 22.06758 15.24688
#
# Velocity S-wave (km/s) = 2.06001 3.33373 2.77105
# Velocity P-wave (km/s) = 3.64886 6.18927 5.08042
#
# Compressibility (1/GPa) = 0.06578177
#
# Stress axis : x y z
#
# Youngs Moduli (GPa) = 12.60339 97.88658 110.77779
#
# Poissons Ratio (x) = 0.53275 0.93468
# Poissons Ratio (y) = 0.06859 0.27945
# Poissons Ratio (z) = 0.10634 0.24693
#
# Static dielectric constant tensor:
#      x y z
#    x 2.902190 0.000000 0.000000 
#    y 0.000000 3.782530 0.000000 
#    z 0.000000 0.000000 3.873150 
# 
# 
# High freq. dielectric constant tensor:
#      x y z
#    x 1.698650 0.000000 0.000000 
#    y 0.000000 1.786300 0.000000 
#    z 0.000000 0.000000 1.795320 
# 
# From -- ./inp_files/13102.got.cif
#   From: 2010.03.12/outbox.cif.g09.slc.cpg/sg40_7_cif.got.tgz:13102.got - 2010.04.14 01:38:03.
