data_PCOD8182309
_publ_section_title
;
Structure prediction by ZEFSAII (Michael W. Deem and Ramdas Pophale) SiO2 
 PCOD8182309
Probable space group: A B M 2
;
_chemical_formula_sum "Si O2"
_cell_formula_units_Z 40
_cell_length_a 7.753605
_cell_length_b 18.952853
_cell_length_c 11.191118
_cell_angle_alpha 90.000000
_cell_angle_beta 90.000000
_cell_angle_gamma 90.000000
_cell_volume 1644.567645
_symmetry_space_group_name_H-M "A B M 2"
_symmetry_group_IT_number 39
_symmetry_cell_setting 'orthorhombic'
loop_
_space_group_symop_operation_xyz
x,y,z
-x,-y,z
-x,1/2+y,z
x,1/2-y,z
x,1/2+y,1/2+z
-x,1/2-y,1/2+z
-x,y,1/2+z
x,-y,1/2+z
loop_
_atom_site_type_symbol
_atom_site_label
_atom_site_fract_x
_atom_site_fract_y
_atom_site_fract_z
Si Si1 0.971901 0.828995 0.547340
Si Si2 0.675687 0.129845 0.433650
Si Si3 0.353464 0.449875 0.161634
Si Si4 0.885204 0.557334 0.734997
Si Si5 0.316956 0.171373 0.354368
O O1 0.932848 0.750000 0.593317
O O2 0.979820 0.879734 0.663112
O O3 0.820574 0.852308 0.455917
O O4 0.157973 0.828713 0.483353
O O5 0.594778 0.078157 0.532257
O O6 0.734810 0.088198 0.316511
O O7 0.513527 0.179024 0.401721
O O8 0.500000 0.500000 0.217556
O O9 0.192523 0.501947 0.138930
O O10 0.306902 0.385266 0.249196
O O11 0.000000 0.500000 0.811306
O O12 0.265837 0.250000 0.307511
#
# Coordination Sequence:
#
# PCOD8182309 Si02
#       5
#     8   8   8   8   8
#     4  11  27  49  74 108 149 193 246 303 362 439
#     4  12  27  48  78 104 149 192 246 296 379 428
#     4  12  26  46  74 105 144 191 243 305 361 431
#     4  12  26  46  74 105 144 191 243 305 361 431
#     4  11  27  49  74 108 149 193 246 303 362 439
#
# _framework density 24.322502
#
# number of rings (size 3 to 8) (size 9 to 14) (size 15 to 20)
#    0.000    0.400    4.000    3.000    8.400    3.200 
#    0.000    0.000    0.000    0.000    0.000    0.000 
#    0.000    0.000    0.000    0.000    0.000    0.000 
#
# Total GULP energy -247791.475608 kJ/mol
# GULP energy per Si atom -12389.573780 kJ/mol
# Density = 2.426714 g / cm^3
# Si number density = 24.322502 Si / 1000 Ang^3
#
#
#
# Elastic Constant Matrix: (Units=GPa)
#
#
# Indices 1 2 3 4 5 6 
#
# 1 131.2128 25.9431 16.2541 0.0000 0.0000 0.0000
# 2 25.9431 154.7229 51.6062 0.0000 0.0000 0.0000
# 3 16.2541 51.6062 94.2011 0.0000 0.0000 0.0000
# 4 0.0000 0.0000 0.0000 7.3995 0.0000 0.0000
# 5 0.0000 0.0000 0.0000 0.0000 39.9140 0.0000
# 6 0.0000 0.0000 0.0000 0.0000 0.0000 29.9071
#
#
#
# Elastic Compliance Matrix: (Units=1/GPa)
#
#
# Indices 1 2 3 4 5 6 
#
# 1 0.007929 -0.001068 -0.000783 0.000000 0.000000 0.000000
# 2 -0.001068 0.008052 -0.004227 0.000000 0.000000 0.000000
# 3 -0.000783 -0.004227 0.013066 0.000000 0.000000 0.000000
# 4 0.000000 0.000000 0.000000 0.135144 0.000000 0.000000
# 5 0.000000 0.000000 0.000000 0.000000 0.025054 0.000000
# 6 0.000000 0.000000 0.000000 0.000000 0.000000 0.033437
#
#
# Mechanical properties :
#
#
# Convention : Reuss Voigt Hill
#
# Bulk Modulus (GPa) = 59.20134 63.08263 61.14198
# Shear Modulus (GPa) = 20.79266 34.53302 27.66284
#
# Velocity S-wave (km/s) = 2.92699 3.77211 3.37610
# Velocity P-wave (km/s) = 5.98465 6.70552 6.35531
#
# Compressibility (1/GPa) = 0.01689151
#
# Stress axis : x y z
#
# Youngs Moduli (GPa) = 126.11231 124.19050 76.53294
#
# Poissons Ratio (x) = 0.13269 0.05992
# Poissons Ratio (y) = 0.13474 0.32349
# Poissons Ratio (z) = 0.09873 0.52494
#
# Static dielectric constant tensor:
#      x y z
#    x 4.916660 0.000000 0.000000 
#    y 0.000000 4.344800 0.000000 
#    z 0.000000 0.000000 4.016810 
# 
# 
# High freq. dielectric constant tensor:
#      x y z
#    x 1.993310 0.000000 0.000000 
#    y 0.000000 1.980840 0.000000 
#    z 0.000000 0.000000 1.940180 
# 
# From -- ./inp_files/4929.got.cif
#   From: 2010.03.12/outbox.cif.g09.slc.cpg/sg39_3_cif.got.tgz:4929.got - 2010.04.14 02:53:20.
