data_PCOD8182801
_publ_section_title
;
Structure prediction by ZEFSAII (Michael W. Deem and Ramdas Pophale) SiO2 
 PCOD8182801
Probable space group: A M A 2
;
_chemical_formula_sum "Si O2"
_cell_formula_units_Z 64
_cell_length_a 18.636934
_cell_length_b 11.860898
_cell_length_c 16.070797
_cell_angle_alpha 90.000000
_cell_angle_beta 90.000000
_cell_angle_gamma 90.000000
_cell_volume 3552.462103
_symmetry_space_group_name_H-M "A M A 2"
_symmetry_group_IT_number 40
_symmetry_cell_setting 'orthorhombic'
loop_
_space_group_symop_operation_xyz
x,y,z
-x,-y,z
1/2-x,y,z
1/2+x,-y,z
x,1/2+y,1/2+z
-x,1/2-y,1/2+z
1/2-x,1/2+y,1/2+z
1/2+x,1/2-y,1/2+z
loop_
_atom_site_type_symbol
_atom_site_label
_atom_site_fract_x
_atom_site_fract_y
_atom_site_fract_z
Si Si1 0.581997 0.502726 0.551830
Si Si2 0.166310 0.156712 0.505726
Si Si3 0.665629 0.810420 0.807992
Si Si4 0.074632 0.320565 0.410167
Si Si5 0.420093 0.952699 0.569041
Si Si6 0.582188 0.532351 0.258278
Si Si7 0.915289 0.775025 0.968559
Si Si8 0.167258 0.330189 0.652284
O O1 0.500000 0.500000 0.580040
O O2 0.596086 0.576674 0.469973
O O3 0.606977 0.376885 0.529824
O O4 0.625390 0.555356 0.629229
O O5 0.250000 0.149135 0.483359
O O6 0.123580 0.211619 0.428600
O O7 0.151098 0.231378 0.586864
O O8 0.135926 0.032873 0.522242
O O9 0.750000 0.829342 0.801352
O O10 0.644938 0.762153 0.897983
O O11 0.640312 0.717261 0.740651
O O12 0.629485 0.930068 0.791635
O O13 0.092766 0.357780 0.316162
O O14 0.990965 0.294030 0.422674
O O15 0.395590 0.937015 0.664467
O O16 0.417848 0.833537 0.525257
O O17 0.500000 0.000000 0.563401
O O18 0.500000 0.500000 0.264385
O O19 0.250000 0.363249 0.653890
#
# Coordination Sequence:
#
# PCOD8182801 Si02
#       8
#     8   8   8   8   8   8   8   8
#     4   9  18  32  57  82 115 148 188 238 286 339
#     4  10  20  36  59  85 118 159 195 236 294 354
#     4  11  22  37  59  87 119 155 197 242 294 355
#     4  10  18  36  58  85 120 148 195 247 292 343
#     4  11  23  37  61  89 121 158 198 244 299 361
#     4  11  20  35  61  92 118 151 196 255 297 339
#     4  11  21  38  57  86 121 152 194 244 294 353
#     4   9  19  36  57  85 117 148 188 238 288 352
#
# _framework density 18.015674000000001
#
# number of rings (size 3 to 8) (size 9 to 14) (size 15 to 20)
#    0.000    1.750    5.000    0.375    0.000    1.500 
#    0.000    1.875    0.000    0.000    0.000    0.000 
#    0.000    0.000    0.000    0.000    0.000    0.000 
#
# Total GULP energy -396860.209398 kJ/mol
# GULP energy per Si atom -12401.881544 kJ/mol
# Density = 1.797467 g / cm^3
# Si number density = 18.015674 Si / 1000 Ang^3
#
#
#
# Elastic Constant Matrix: (Units=GPa)
#
#
# Indices 1 2 3 4 5 6 
#
# 1 59.5983 30.8996 26.2745 0.0000 0.0000 0.0000
# 2 30.8996 115.4666 61.0946 0.0000 0.0000 0.0000
# 3 26.2745 61.0946 101.2055 0.0000 0.0000 0.0000
# 4 0.0000 0.0000 0.0000 27.7429 0.0000 0.0000
# 5 0.0000 0.0000 0.0000 0.0000 33.0270 0.0000
# 6 0.0000 0.0000 0.0000 0.0000 0.0000 31.0427
#
#
#
# Elastic Compliance Matrix: (Units=1/GPa)
#
#
# Indices 1 2 3 4 5 6 
#
# 1 0.020040 -0.003835 -0.002888 0.000000 0.000000 0.000000
# 2 -0.003835 0.013459 -0.007129 0.000000 0.000000 0.000000
# 3 -0.002888 -0.007129 0.014934 0.000000 0.000000 0.000000
# 4 0.000000 0.000000 0.000000 0.036045 0.000000 0.000000
# 5 0.000000 0.000000 0.000000 0.000000 0.030278 0.000000
# 6 0.000000 0.000000 0.000000 0.000000 0.000000 0.032214
#
#
# Mechanical properties :
#
#
# Convention : Reuss Voigt Hill
#
# Bulk Modulus (GPa) = 48.23964 56.97865 52.60915
# Shear Modulus (GPa) = 27.53544 28.89597 28.21571
#
# Velocity S-wave (km/s) = 3.91374 4.00926 3.96179
# Velocity P-wave (km/s) = 6.87443 7.28891 7.08470
#
# Compressibility (1/GPa) = 0.02072984
#
# Stress axis : x y z
#
# Youngs Moduli (GPa) = 49.89913 74.30057 66.96057
#
# Poissons Ratio (x) = 0.28495 0.19336
# Poissons Ratio (y) = 0.19136 0.47737
# Poissons Ratio (z) = 0.14409 0.52969
#
# Static dielectric constant tensor:
#      x y z
#    x 3.020960 0.000000 0.000000 
#    y 0.000000 3.289320 0.000000 
#    z 0.000000 0.000000 3.413750 
# 
# 
# High freq. dielectric constant tensor:
#      x y z
#    x 1.696110 0.000000 0.000000 
#    y 0.000000 1.690580 0.000000 
#    z 0.000000 0.000000 1.689990 
# 
# From -- ./inp_files/17877.got.cif
#   From: 2010.03.12/outbox.cif.g09.slc.cpg/sg40_9_cif.got.tgz:17877.got - 2010.04.14 01:38:03.
