data_PCOD8182591
_publ_section_title
;
Structure prediction by ZEFSAII (Michael W. Deem and Ramdas Pophale) SiO2 
 PCOD8182591
Probable space group: A M A 2
;
_chemical_formula_sum "Si O2"
_cell_formula_units_Z 64
_cell_length_a 8.602304
_cell_length_b 30.424595
_cell_length_c 14.428168
_cell_angle_alpha 90.000000
_cell_angle_beta 90.000000
_cell_angle_gamma 90.000000
_cell_volume 3776.163434
_symmetry_space_group_name_H-M "A M A 2"
_symmetry_group_IT_number 40
_symmetry_cell_setting 'orthorhombic'
loop_
_space_group_symop_operation_xyz
x,y,z
-x,-y,z
1/2-x,y,z
1/2+x,-y,z
x,1/2+y,1/2+z
-x,1/2-y,1/2+z
1/2-x,1/2+y,1/2+z
1/2+x,1/2-y,1/2+z
loop_
_atom_site_type_symbol
_atom_site_label
_atom_site_fract_x
_atom_site_fract_y
_atom_site_fract_z
Si Si1 0.433247 0.454197 0.293210
Si Si2 0.070174 0.226057 0.191150
Si Si3 0.432226 0.129225 0.877380
Si Si4 0.924166 0.865846 0.513996
Si Si5 0.432399 0.301859 0.506173
Si Si6 0.935680 0.953752 0.589803
Si Si7 0.575755 0.815891 0.700954
Si Si8 0.064670 0.214510 0.400799
O O1 0.500000 0.500000 0.331961
O O2 0.250000 0.457638 0.282861
O O3 0.478669 0.416815 0.367087
O O4 0.504637 0.443822 0.192860
O O5 0.250000 0.214498 0.177456
O O6 0.011795 0.213365 0.294124
O O7 0.970152 0.200143 0.115247
O O8 0.044953 0.277761 0.177071
O O9 0.250000 0.119606 0.878449
O O10 0.482379 0.160600 0.793309
O O11 0.484323 0.154124 0.970167
O O12 0.750000 0.869919 0.475479
O O13 0.996325 0.915220 0.519079
O O14 0.925387 0.850876 0.619799
O O15 0.008718 0.829484 0.448939
O O16 0.250000 0.306429 0.490556
O O17 0.497844 0.258362 0.452813
O O18 0.750000 0.954455 0.593136
O O19 0.000000 0.000000 0.551872
O O20 0.750000 0.796247 0.713024
O O21 0.250000 0.214681 0.411796
#
# Coordination Sequence:
#
# PCOD8182591 Si02
#       8
#     8   8   8   8   8   8   8   8
#     4  11  21  33  50  73 103 136 170 207 253 303
#     4  11  21  33  48  72 100 129 170 215 253 292
#     4  11  21  34  51  75 104 135 172 211 252 302
#     4   9  16  30  49  69  93 133 172 202 243 299
#     4  11  21  35  52  72  99 135 171 207 254 304
#     4  10  18  30  48  71 100 132 168 207 255 305
#     4  10  18  30  49  70  99 134 169 203 246 297
#     4   9  18  31  49  70  95 128 170 209 245 297
#
# _framework density 16.948419000000001
#
# number of rings (size 3 to 8) (size 9 to 14) (size 15 to 20)
#    0.000    1.750    3.750    3.375    0.000    0.500 
#    0.000    0.000    0.000    0.000    0.000    0.875 
#    0.000    4.000    0.000    0.000    0.000    0.000 
#
# Total GULP energy -396692.093373 kJ/mol
# GULP energy per Si atom -12396.627918 kJ/mol
# Density = 1.690984 g / cm^3
# Si number density = 16.948419 Si / 1000 Ang^3
#
#
#
# Elastic Constant Matrix: (Units=GPa)
#
#
# Indices 1 2 3 4 5 6 
#
# 1 55.8246 27.4545 14.3547 0.0000 0.0000 0.0000
# 2 27.4545 126.7546 38.5247 0.0000 0.0000 0.0000
# 3 14.3547 38.5247 74.4293 0.0000 0.0000 0.0000
# 4 0.0000 0.0000 0.0000 26.5971 0.0000 0.0000
# 5 0.0000 0.0000 0.0000 0.0000 19.1681 0.0000
# 6 0.0000 0.0000 0.0000 0.0000 0.0000 23.2335
#
#
#
# Elastic Compliance Matrix: (Units=1/GPa)
#
#
# Indices 1 2 3 4 5 6 
#
# 1 0.020283 -0.003802 -0.001944 0.000000 0.000000 0.000000
# 2 -0.003802 0.010075 -0.004481 0.000000 0.000000 0.000000
# 3 -0.001944 -0.004481 0.016130 0.000000 0.000000 0.000000
# 4 0.000000 0.000000 0.000000 0.037598 0.000000 0.000000
# 5 0.000000 0.000000 0.000000 0.000000 0.052170 0.000000
# 6 0.000000 0.000000 0.000000 0.000000 0.000000 0.043041
#
#
# Mechanical properties :
#
#
# Convention : Reuss Voigt Hill
#
# Bulk Modulus (GPa) = 38.41307 46.40849 42.41078
# Shear Modulus (GPa) = 23.98886 25.57807 24.78346
#
# Velocity S-wave (km/s) = 3.76627 3.88902 3.82814
# Velocity P-wave (km/s) = 6.45189 6.89983 6.67962
#
# Compressibility (1/GPa) = 0.02603281
#
# Stress axis : x y z
#
# Youngs Moduli (GPa) = 49.30214 99.25660 61.99621
#
# Poissons Ratio (x) = 0.37742 0.12050
# Poissons Ratio (y) = 0.18747 0.27783
# Poissons Ratio (z) = 0.09583 0.44481
#
# Static dielectric constant tensor:
#      x y z
#    x 3.055620 0.000000 0.000000 
#    y 0.000000 3.353030 0.000000 
#    z 0.000000 0.000000 3.052980 
# 
# 
# High freq. dielectric constant tensor:
#      x y z
#    x 1.642610 0.000000 0.000000 
#    y 0.000000 1.651330 0.000000 
#    z 0.000000 0.000000 1.624690 
# 
# From -- ./inp_files/15902.got.cif
#   From: 2010.03.12/outbox.cif.g09.slc.cpg/sg40_8_cif.got.tgz:15902.got - 2010.04.14 01:38:03.
