data_PCOD8182221
_publ_section_title
;
Structure prediction by ZEFSAII (Michael W. Deem and Ramdas Pophale) SiO2 
 PCOD8182221
Probable space group: A B M 2
;
_chemical_formula_sum "Si O2"
_cell_formula_units_Z 40
_cell_length_a 5.070832
_cell_length_b 30.179631
_cell_length_c 10.619165
_cell_angle_alpha 90.000000
_cell_angle_beta 90.000000
_cell_angle_gamma 90.000000
_cell_volume 1625.112821
_symmetry_space_group_name_H-M "A B M 2"
_symmetry_group_IT_number 39
_symmetry_cell_setting 'orthorhombic'
loop_
_space_group_symop_operation_xyz
x,y,z
-x,-y,z
-x,1/2+y,z
x,1/2-y,z
x,1/2+y,1/2+z
-x,1/2-y,1/2+z
-x,y,1/2+z
x,-y,1/2+z
loop_
_atom_site_type_symbol
_atom_site_label
_atom_site_fract_x
_atom_site_fract_y
_atom_site_fract_z
Si Si1 0.212977 0.250000 0.283610
Si Si2 0.751151 0.972261 0.861147
Si Si3 0.845322 0.323498 0.358816
Si Si4 0.586567 0.250000 0.513150
Si Si5 0.372669 0.891188 0.194299
Si Si6 0.122807 0.898589 0.535755
O O1 0.321730 0.250000 0.427948
O O2 0.037263 0.294431 0.269912
O O3 0.430836 0.250000 0.168262
O O4 0.603333 0.936581 0.771909
O O5 0.500000 0.000000 0.908088
O O6 0.880235 0.948279 0.981876
O O7 0.000000 0.000000 0.801159
O O8 0.739131 0.293834 0.472577
O O9 0.609296 0.345201 0.274706
O O10 0.980572 0.365632 0.425846
O O11 0.581478 0.887737 0.082545
O O12 0.071471 0.893501 0.150324
#
# Coordination Sequence:
#
# PCOD8182221 Si02
#       6
#     4   8   8   4   8   8
#     4  11  26  48  71 114 144 200 248 316 382 457
#     4  11  24  43  66 101 141 180 241 300 367 443
#     4  10  26  45  69 101 148 187 251 305 376 449
#     4  11  26  44  77 104 150 194 252 314 378 453
#     4  11  25  43  70 101 139 190 239 300 369 439
#     4  11  25  43  71 100 140 189 241 299 369 439
#
# _framework density 24.613676999999999
#
# number of rings (size 3 to 8) (size 9 to 14) (size 15 to 20)
#    0.000    1.200    0.000    3.600    8.400   11.200 
#    0.000    0.000    0.000    0.000    0.000    0.000 
#    0.000    0.000    0.000    0.000    0.000    0.000 
#
# Total GULP energy -247803.229113 kJ/mol
# GULP energy per Si atom -12390.161456 kJ/mol
# Density = 2.455766 g / cm^3
# Si number density = 24.613677 Si / 1000 Ang^3
#
#
#
# Elastic Constant Matrix: (Units=GPa)
#
#
# Indices 1 2 3 4 5 6 
#
# 1 95.5689 39.9988 23.8848 0.0000 0.0000 0.0000
# 2 39.9988 143.0421 43.7794 0.0000 0.0000 0.0000
# 3 23.8848 43.7794 101.5719 0.0000 0.0000 0.0000
# 4 0.0000 0.0000 0.0000 19.4384 0.0000 0.0000
# 5 0.0000 0.0000 0.0000 0.0000 44.4511 0.0000
# 6 0.0000 0.0000 0.0000 0.0000 0.0000 10.4634
#
#
#
# Elastic Compliance Matrix: (Units=1/GPa)
#
#
# Indices 1 2 3 4 5 6 
#
# 1 0.012070 -0.002887 -0.001594 0.000000 0.000000 0.000000
# 2 -0.002887 0.008744 -0.003090 0.000000 0.000000 0.000000
# 3 -0.001594 -0.003090 0.011552 0.000000 0.000000 0.000000
# 4 0.000000 0.000000 0.000000 0.051444 0.000000 0.000000
# 5 0.000000 0.000000 0.000000 0.000000 0.022497 0.000000
# 6 0.000000 0.000000 0.000000 0.000000 0.000000 0.095571
#
#
# Mechanical properties :
#
#
# Convention : Reuss Voigt Hill
#
# Bulk Modulus (GPa) = 58.05839 61.72322 59.89081
# Shear Modulus (GPa) = 22.44546 30.37191 26.40868
#
# Velocity S-wave (km/s) = 3.02306 3.51657 3.27911
# Velocity P-wave (km/s) = 5.98534 6.45132 6.22269
#
# Compressibility (1/GPa) = 0.01722404
#
# Stress axis : x y z
#
# Youngs Moduli (GPa) = 82.84665 114.36351 86.56634
#
# Poissons Ratio (x) = 0.33022 0.13797
# Poissons Ratio (y) = 0.23922 0.26748
# Poissons Ratio (z) = 0.13205 0.35337
#
# Static dielectric constant tensor:
#      x y z
#    x 4.102050 0.000000 0.000000 
#    y 0.000000 4.746430 0.000000 
#    z 0.000000 0.000000 4.271360 
# 
# 
# High freq. dielectric constant tensor:
#      x y z
#    x 1.962880 0.000000 0.000000 
#    y 0.000000 2.006340 0.000000 
#    z 0.000000 0.000000 1.971080 
# 
# From -- ./inp_files/4563.got.cif
#   From: 2010.03.12/outbox.cif.g09.slc.cpg/sg39_3_cif.got.tgz:4563.got - 2010.04.14 02:53:20.
