data_PCOD8182425
_publ_section_title
;
Structure prediction by ZEFSAII (Michael W. Deem and Ramdas Pophale) SiO2 
 PCOD8182425
Probable space group: A M A 2
;
_chemical_formula_sum "Si O2"
_cell_formula_units_Z 64
_cell_length_a 9.026393
_cell_length_b 18.114588
_cell_length_c 26.585430
_cell_angle_alpha 90.000000
_cell_angle_beta 90.000000
_cell_angle_gamma 90.000000
_cell_volume 4346.967451
_symmetry_space_group_name_H-M "A M A 2"
_symmetry_group_IT_number 40
_symmetry_cell_setting 'orthorhombic'
loop_
_space_group_symop_operation_xyz
x,y,z
-x,-y,z
1/2-x,y,z
1/2+x,-y,z
x,1/2+y,1/2+z
-x,1/2-y,1/2+z
1/2-x,1/2+y,1/2+z
1/2+x,1/2-y,1/2+z
loop_
_atom_site_type_symbol
_atom_site_label
_atom_site_fract_x
_atom_site_fract_y
_atom_site_fract_z
Si Si1 0.923139 0.824084 0.448360
Si Si2 0.075988 0.575662 0.858114
Si Si3 0.423653 0.661161 0.649101
Si Si4 0.583494 0.299259 0.500503
Si Si5 0.922115 0.922085 0.543832
Si Si6 0.077796 0.074486 0.245383
Si Si7 0.572996 0.078983 0.058799
Si Si8 0.913782 0.196980 0.597691
O O1 0.750000 0.805472 0.450230
O O2 0.973043 0.858657 0.395177
O O3 0.964327 0.882924 0.491584
O O4 0.011405 0.747579 0.455058
O O5 0.250000 0.562442 0.862441
O O6 0.026197 0.597719 0.801507
O O7 0.000000 0.500000 0.875351
O O8 0.250000 0.647765 0.636046
O O9 0.461455 0.639623 0.706492
O O10 0.521934 0.611486 0.612270
O O11 0.462369 0.748448 0.643273
O O12 0.750000 0.323572 0.485443
O O13 0.483376 0.370458 0.512553
O O14 0.586634 0.248177 0.549028
O O15 0.750000 0.935708 0.549562
O O16 0.974355 0.871010 0.590625
O O17 0.000000 0.000000 0.546335
O O18 0.250000 0.056788 0.245395
O O19 0.000000 0.000000 0.227131
O O20 0.750000 0.073602 0.057682
O O21 0.500000 0.000000 0.051004
O O22 0.750000 0.164194 0.607286
#
# Coordination Sequence:
#
# PCOD8182425 Si02
#       8
#     8   8   8   8   8   8   8   8
#     4   9  17  28  41  58  80 108 139 168 200 238
#     4   9  17  28  41  58  82 110 141 175 207 239
#     4   9  17  29  43  59  80 108 141 172 205 243
#     4   9  17  29  43  59  79 104 134 167 202 239
#     4  10  18  26  38  56  78 103 132 163 195 234
#     4   9  17  28  41  58  81 109 140 174 207 238
#     4  11  20  29  42  60  83 109 137 168 202 241
#     4   8  15  27  40  54  75 101 129 163 199 236
#
# _framework density 14.722908
#
# number of rings (size 3 to 8) (size 9 to 14) (size 15 to 20)
#    0.000    2.750    0.000    3.375    0.000    5.500 
#    0.000    0.000    0.000    0.000    0.000    0.000 
#    0.000    1.000    0.000    5.500    0.000    2.875 
#
# Total GULP energy -396685.865802 kJ/mol
# GULP energy per Si atom -12396.433306 kJ/mol
# Density = 1.468940 g / cm^3
# Si number density = 14.722908 Si / 1000 Ang^3
#
#
#
# Elastic Constant Matrix: (Units=GPa)
#
#
# Indices 1 2 3 4 5 6 
#
# 1 76.1678 54.0234 32.3062 0.0000 0.0000 0.0000
# 2 54.0234 92.9728 48.2863 0.0000 0.0000 0.0000
# 3 32.3062 48.2863 74.7745 0.0000 0.0000 0.0000
# 4 0.0000 0.0000 0.0000 25.1139 0.0000 0.0000
# 5 0.0000 0.0000 0.0000 0.0000 15.3703 0.0000
# 6 0.0000 0.0000 0.0000 0.0000 0.0000 26.9011
#
#
#
# Elastic Compliance Matrix: (Units=1/GPa)
#
#
# Indices 1 2 3 4 5 6 
#
# 1 0.022516 -0.012083 -0.001925 0.000000 0.000000 0.000000
# 2 -0.012083 0.022668 -0.009418 0.000000 0.000000 0.000000
# 3 -0.001925 -0.009418 0.020287 0.000000 0.000000 0.000000
# 4 0.000000 0.000000 0.000000 0.039819 0.000000 0.000000
# 5 0.000000 0.000000 0.000000 0.000000 0.065061 0.000000
# 6 0.000000 0.000000 0.000000 0.000000 0.000000 0.037173
#
#
# Mechanical properties :
#
#
# Convention : Reuss Voigt Hill
#
# Bulk Modulus (GPa) = 53.70912 57.01632 55.36272
# Shear Modulus (GPa) = 19.18787 20.76367 19.97577
#
# Velocity S-wave (km/s) = 3.61399 3.75947 3.68745
# Velocity P-wave (km/s) = 7.34668 7.59310 7.47091
#
# Compressibility (1/GPa) = 0.01861881
#
# Stress axis : x y z
#
# Youngs Moduli (GPa) = 44.41339 44.11455 49.29342
#
# Poissons Ratio (x) = 0.53306 0.09488
# Poissons Ratio (y) = 0.53667 0.46423
# Poissons Ratio (z) = 0.08549 0.41545
#
# Static dielectric constant tensor:
#      x y z
#    x 2.962670 0.000000 0.000000 
#    y 0.000000 2.914440 0.000000 
#    z 0.000000 0.000000 2.879700 
# 
# 
# High freq. dielectric constant tensor:
#      x y z
#    x 1.571250 0.000000 0.000000 
#    y 0.000000 1.550280 0.000000 
#    z 0.000000 0.000000 1.531340 
# 
# From -- ./inp_files/25543.got.cif
#   From: 2010.03.12/outbox.cif.g09.slc.cpg/sg40_13_cif.got.tgz:25543.got - 2010.04.14 01:38:03.
