data_PCOD8182987
_publ_section_title
;
Structure prediction by ZEFSAII (Michael W. Deem and Ramdas Pophale) SiO2 
 PCOD8182987
Probable space group: A M A 2
;
_chemical_formula_sum "Si O2"
_cell_formula_units_Z 48
_cell_length_a 8.699780
_cell_length_b 23.599421
_cell_length_c 13.822660
_cell_angle_alpha 90.000000
_cell_angle_beta 90.000000
_cell_angle_gamma 90.000000
_cell_volume 2837.927157
_symmetry_space_group_name_H-M "A M A 2"
_symmetry_group_IT_number 40
_symmetry_cell_setting 'orthorhombic'
loop_
_space_group_symop_operation_xyz
x,y,z
-x,-y,z
1/2-x,y,z
1/2+x,-y,z
x,1/2+y,1/2+z
-x,1/2-y,1/2+z
1/2-x,1/2+y,1/2+z
1/2+x,1/2-y,1/2+z
loop_
_atom_site_type_symbol
_atom_site_label
_atom_site_fract_x
_atom_site_fract_y
_atom_site_fract_z
Si Si1 0.930674 0.721923 0.451540
Si Si2 0.931272 0.337952 0.624038
Si Si3 0.932605 0.440152 0.940660
Si Si4 0.571277 0.834372 0.564346
Si Si5 0.068097 0.940026 0.233690
Si Si6 0.931213 0.226522 0.733770
O O1 0.750000 0.708925 0.458758
O O2 0.969311 0.784847 0.488813
O O3 0.993365 0.717651 0.342101
O O4 0.023531 0.675677 0.513547
O O5 0.750000 0.347655 0.633410
O O6 0.991069 0.286342 0.691420
O O7 0.020416 0.394158 0.654486
O O8 0.750000 0.443762 0.930845
O O9 0.000000 0.500000 0.975754
O O10 0.999947 0.422195 0.837258
O O11 0.984409 0.393497 0.018718
O O12 0.750000 0.835786 0.587122
O O13 0.486611 0.825018 0.666322
O O14 0.250000 0.944820 0.241686
O O15 0.000000 0.000000 0.199987
O O16 0.750000 0.227598 0.734553
#
# Coordination Sequence:
#
# PCOD8182987 Si02
#       6
#     8   8   8   8   8   8
#     4   9  17  31  48  69  96 127 158 193 237 285
#     4  10  19  32  49  72  99 127 158 196 238 283
#     4  10  19  32  49  71  98 128 159 197 239 282
#     4   9  18  31  48  69  97 127 157 194 239 286
#     4  11  21  33  50  72  97 127 159 195 236 283
#     4   9  18  31  49  71  98 128 160 197 238 281
#
# _framework density 16.913751999999999
#
# number of rings (size 3 to 8) (size 9 to 14) (size 15 to 20)
#    0.000    2.333    0.000    4.500    0.000    5.333 
#    0.000    3.333    0.000    1.000    0.000    2.333 
#    0.000    0.000    0.000    0.000    0.000    0.000 
#
# Total GULP energy -297642.651200 kJ/mol
# GULP energy per Si atom -12401.777133 kJ/mol
# Density = 1.687526 g / cm^3
# Si number density = 16.913752 Si / 1000 Ang^3
#
#
#
# Elastic Constant Matrix: (Units=GPa)
#
#
# Indices 1 2 3 4 5 6 
#
# 1 63.8750 35.9590 31.9011 0.0000 0.0000 0.0000
# 2 35.9590 107.0552 66.6689 0.0000 0.0000 0.0000
# 3 31.9011 66.6689 132.7175 0.0000 0.0000 0.0000
# 4 0.0000 0.0000 0.0000 27.7467 0.0000 0.0000
# 5 0.0000 0.0000 0.0000 0.0000 29.1169 0.0000
# 6 0.0000 0.0000 0.0000 0.0000 0.0000 25.7751
#
#
#
# Elastic Compliance Matrix: (Units=1/GPa)
#
#
# Indices 1 2 3 4 5 6 
#
# 1 0.019683 -0.005333 -0.002052 0.000000 0.000000 0.000000
# 2 -0.005333 0.015039 -0.006272 0.000000 0.000000 0.000000
# 3 -0.002052 -0.006272 0.011179 0.000000 0.000000 0.000000
# 4 0.000000 0.000000 0.000000 0.036040 0.000000 0.000000
# 5 0.000000 0.000000 0.000000 0.000000 0.034344 0.000000
# 6 0.000000 0.000000 0.000000 0.000000 0.000000 0.038797
#
#
# Mechanical properties :
#
#
# Convention : Reuss Voigt Hill
#
# Bulk Modulus (GPa) = 53.80775 63.63396 58.72085
# Shear Modulus (GPa) = 26.51213 27.80232 27.15723
#
# Velocity S-wave (km/s) = 3.96345 4.05874 4.01138
# Velocity P-wave (km/s) = 7.26824 7.72456 7.49987
#
# Compressibility (1/GPa) = 0.01858468
#
# Stress axis : x y z
#
# Youngs Moduli (GPa) = 50.80553 66.49535 89.45410
#
# Poissons Ratio (x) = 0.35465 0.18356
# Poissons Ratio (y) = 0.27097 0.56110
# Poissons Ratio (z) = 0.10425 0.41709
#
# Static dielectric constant tensor:
#      x y z
#    x 3.137230 0.000000 0.000000 
#    y 0.000000 3.164940 0.000000 
#    z 0.000000 0.000000 3.228840 
# 
# 
# High freq. dielectric constant tensor:
#      x y z
#    x 1.656760 0.000000 0.000000 
#    y 0.000000 1.642220 0.000000 
#    z 0.000000 0.000000 1.644040 
# 
# From -- ./inp_files/10227.got.cif
#   From: 2010.03.12/outbox.cif.g09.slc.cpg/sg40_6_cif.got.tgz:10227.got - 2010.04.14 01:38:03.
