data_PCOD8182215
_publ_section_title
;
Structure prediction by ZEFSAII (Michael W. Deem and Ramdas Pophale) SiO2 
 PCOD8182215
Probable space group: A B M 2
;
_chemical_formula_sum "Si O2"
_cell_formula_units_Z 32
_cell_length_a 13.745704
_cell_length_b 9.333361
_cell_length_c 11.134133
_cell_angle_alpha 90.000000
_cell_angle_beta 90.000000
_cell_angle_gamma 90.000000
_cell_volume 1428.438202
_symmetry_space_group_name_H-M "A B M 2"
_symmetry_group_IT_number 39
_symmetry_cell_setting 'orthorhombic'
loop_
_space_group_symop_operation_xyz
x,y,z
-x,-y,z
-x,1/2+y,z
x,1/2-y,z
x,1/2+y,1/2+z
-x,1/2-y,1/2+z
-x,y,1/2+z
x,-y,1/2+z
loop_
_atom_site_type_symbol
_atom_site_label
_atom_site_fract_x
_atom_site_fract_y
_atom_site_fract_z
Si Si1 0.604618 0.033681 0.958240
Si Si2 0.660965 0.250000 0.151861
Si Si3 0.000000 0.500000 0.660777
Si Si4 0.116951 0.250000 0.045996
Si Si5 0.324554 0.750000 0.526006
Si Si6 0.127600 0.750000 0.268094
Si Si7 0.451331 0.250000 0.257016
O O1 0.588513 0.112725 0.830866
O O2 0.500000 0.000000 0.015092
O O3 0.661099 0.115962 0.062214
O O4 0.664872 0.887345 0.938056
O O5 0.765362 0.250000 0.213959
O O6 0.569324 0.250000 0.245296
O O7 0.937659 0.395496 0.577587
O O8 0.930842 0.603872 0.737905
O O9 0.141567 0.250000 0.907778
O O10 0.224784 0.250000 0.103705
O O11 0.410630 0.750000 0.623260
#
# Coordination Sequence:
#
# PCOD8182215 Si02
#       7
#     8   4   4   4   4   4   4
#     4  11  24  43  63  93 140 186 224 269 322 388
#     4  11  24  45  66 101 136 183 229 270 330 413
#     4  10  24  50  70 102 134 170 226 298 346 418
#     4  11  25  44  75 102 134 175 230 281 351 410
#     4  12  25  44  66 104 136 176 235 275 321 408
#     4  11  24  44  76  98 135 177 223 287 356 398
#     4  11  26  43  65  91 145 193 215 271 332 387
#
# _framework density 22.402087000000002
#
# number of rings (size 3 to 8) (size 9 to 14) (size 15 to 20)
#    0.000    1.000    2.500    3.000    7.000    2.000 
#    0.000   10.000    0.000    0.000    0.000    0.000 
#    0.000    0.000    0.000    0.000    0.000    0.000 
#
# Total GULP energy -198311.894651 kJ/mol
# GULP energy per Si atom -12394.493416 kJ/mol
# Density = 2.235110 g / cm^3
# Si number density = 22.402087 Si / 1000 Ang^3
#
#
#
# Elastic Constant Matrix: (Units=GPa)
#
#
# Indices 1 2 3 4 5 6 
#
# 1 127.9108 42.9613 10.4428 0.0000 0.0000 0.0000
# 2 42.9613 174.8479 24.4765 0.0000 0.0000 0.0000
# 3 10.4428 24.4765 69.3494 0.0000 0.0000 0.0000
# 4 0.0000 0.0000 0.0000 -1.8498 0.0000 0.0000
# 5 0.0000 0.0000 0.0000 0.0000 30.1111 0.0000
# 6 0.0000 0.0000 0.0000 0.0000 0.0000 21.6756
#
#
#
# Elastic Compliance Matrix: (Units=1/GPa)
#
#
# Indices 1 2 3 4 5 6 
#
# 1 0.008543 -0.002019 -0.000574 0.000000 0.000000 0.000000
# 2 -0.002019 0.006494 -0.001988 0.000000 0.000000 0.000000
# 3 -0.000574 -0.001988 0.015208 0.000000 0.000000 0.000000
# 4 0.000000 0.000000 0.000000 -0.540595 0.000000 0.000000
# 5 0.000000 0.000000 0.000000 0.000000 0.033210 0.000000
# 6 0.000000 0.000000 0.000000 0.000000 0.000000 0.046135
#
#
# Mechanical properties :
#
#
# Convention : Reuss Voigt Hill
#
# Bulk Modulus (GPa) = 47.43123 58.65216 53.04169
# Shear Modulus (GPa) = -12.05352 29.60255 8.77452
#
# Velocity S-wave (km/s) = -2.32211 3.63908 1.98125
# Velocity P-wave (km/s) = 3.74553 6.62537 5.38166
#
# Compressibility (1/GPa) = 0.02108315
#
# Stress axis : x y z
#
# Youngs Moduli (GPa) = 117.05741 153.99921 65.75591
#
# Poissons Ratio (x) = 0.31088 0.03774
# Poissons Ratio (y) = 0.23630 0.13072
# Poissons Ratio (z) = 0.06718 0.30613
#
# Static dielectric constant tensor:
#      x y z
#    x 4.182320 0.000000 0.000000 
#    y 0.000000 5.442120 0.000000 
#    z 0.000000 0.000000 3.759450 
# 
# 
# High freq. dielectric constant tensor:
#      x y z
#    x 1.883640 0.000000 0.000000 
#    y 0.000000 1.908300 0.000000 
#    z 0.000000 0.000000 1.879530 
# 
# From -- ./inp_files/6219.got.cif
#   From: 2010.03.12/outbox.cif.g09.slc.cpg/sg39_4_cif.got.tgz:6219.got - 2010.04.14 02:53:20.
