data_PCOD8182318
_publ_section_title
;
Structure prediction by ZEFSAII (Michael W. Deem and Ramdas Pophale) SiO2 
 PCOD8182318
Probable space group: A B M 2
;
_chemical_formula_sum "Si O2"
_cell_formula_units_Z 32
_cell_length_a 4.837088
_cell_length_b 32.503703
_cell_length_c 8.427098
_cell_angle_alpha 90.000000
_cell_angle_beta 90.000000
_cell_angle_gamma 90.000000
_cell_volume 1324.935919
_symmetry_space_group_name_H-M "A B M 2"
_symmetry_group_IT_number 39
_symmetry_cell_setting 'orthorhombic'
loop_
_space_group_symop_operation_xyz
x,y,z
-x,-y,z
-x,1/2+y,z
x,1/2-y,z
x,1/2+y,1/2+z
-x,1/2-y,1/2+z
-x,y,1/2+z
x,-y,1/2+z
loop_
_atom_site_type_symbol
_atom_site_label
_atom_site_fract_x
_atom_site_fract_y
_atom_site_fract_z
Si Si1 0.856883 0.202365 0.577570
Si Si2 0.637345 0.423881 0.190724
Si Si3 0.118426 0.045329 0.013035
Si Si4 0.629916 0.670066 0.753640
O O1 0.885118 0.250000 0.533014
O O2 0.651444 0.195774 0.726452
O O3 0.739153 0.177425 0.429338
O O4 0.154471 0.184606 0.620895
O O5 0.362308 0.447768 0.139635
O O6 0.770601 0.447945 0.337388
O O7 0.558926 0.377724 0.237026
O O8 0.864597 0.423501 0.049395
O O9 0.000000 0.000000 0.034009
#
# Coordination Sequence:
#
# PCOD8182318 Si02
#       4
#     8   8   8   8
#     4  12  25  44  68 102 141 184 231 284 342 406
#     4  12  25  47  72 103 137 180 231 285 344 410
#     4  12  27  47  72 102 138 179 227 286 346 411
#     4  12  25  44  70 101 138 183 231 285 342 407
#
# _framework density 24.152114000000001
#
# number of rings (size 3 to 8) (size 9 to 14) (size 15 to 20)
#    0.000    0.000    0.000   11.250    0.000    2.000 
#    0.000    1.250    0.000    0.000    0.000    0.000 
#    0.000    0.000    0.000    0.000    0.000    0.000 
#
# Total GULP energy -198564.537766 kJ/mol
# GULP energy per Si atom -12410.283610 kJ/mol
# Density = 2.409714 g / cm^3
# Si number density = 24.152114 Si / 1000 Ang^3
#
#
#
# Elastic Constant Matrix: (Units=GPa)
#
#
# Indices 1 2 3 4 5 6 
#
# 1 118.0225 64.4830 8.5485 0.0000 0.0000 0.0000
# 2 64.4830 127.1383 35.3437 0.0000 0.0000 0.0000
# 3 8.5485 35.3437 64.4789 0.0000 0.0000 0.0000
# 4 0.0000 0.0000 0.0000 38.8266 0.0000 0.0000
# 5 0.0000 0.0000 0.0000 0.0000 42.1603 0.0000
# 6 0.0000 0.0000 0.0000 0.0000 0.0000 36.9064
#
#
#
# Elastic Compliance Matrix: (Units=1/GPa)
#
#
# Indices 1 2 3 4 5 6 
#
# 1 0.011946 -0.006629 0.002050 0.000000 0.000000 0.000000
# 2 -0.006629 0.012958 -0.006224 0.000000 0.000000 0.000000
# 3 0.002050 -0.006224 0.018649 0.000000 0.000000 0.000000
# 4 0.000000 0.000000 0.000000 0.025756 0.000000 0.000000
# 5 0.000000 0.000000 0.000000 0.000000 0.023719 0.000000
# 6 0.000000 0.000000 0.000000 0.000000 0.000000 0.027096
#
#
# Mechanical properties :
#
#
# Convention : Reuss Voigt Hill
#
# Bulk Modulus (GPa) = 45.56462 58.48779 52.02620
# Shear Modulus (GPa) = 33.54709 36.99628 35.27169
#
# Velocity S-wave (km/s) = 3.73096 3.91807 3.82566
# Velocity P-wave (km/s) = 6.12101 6.68860 6.41109
#
# Compressibility (1/GPa) = 0.02194685
#
# Stress axis : x y z
#
# Youngs Moduli (GPa) = 83.70852 77.17432 53.62285
#
# Poissons Ratio (x) = 0.51157 -0.10991
# Poissons Ratio (y) = 0.55489 0.33374
# Poissons Ratio (z) = -0.17158 0.48032
#
# Static dielectric constant tensor:
#      x y z
#    x 4.762870 0.000000 0.000000 
#    y 0.000000 4.288310 0.000000 
#    z 0.000000 0.000000 4.462140 
# 
# 
# High freq. dielectric constant tensor:
#      x y z
#    x 1.981830 0.000000 0.000000 
#    y 0.000000 1.964590 0.000000 
#    z 0.000000 0.000000 1.969120 
# 
# From -- ./inp_files/1717.got.cif
#   From: 2010.03.12/outbox.cif.g09.slc.cpg/sg39_1_cif.got.tgz:1717.got - 2010.04.14 02:53:20.
