data_PCOD8182241
_publ_section_title
;
Structure prediction by ZEFSAII (Michael W. Deem and Ramdas Pophale) SiO2 
 PCOD8182241
Probable space group: A B M 2
;
_chemical_formula_sum "Si O2"
_cell_formula_units_Z 40
_cell_length_a 8.554188
_cell_length_b 10.102828
_cell_length_c 22.952585
_cell_angle_alpha 90.000000
_cell_angle_beta 90.000000
_cell_angle_gamma 90.000000
_cell_volume 1983.596596
_symmetry_space_group_name_H-M "A B M 2"
_symmetry_group_IT_number 39
_symmetry_cell_setting 'orthorhombic'
loop_
_space_group_symop_operation_xyz
x,y,z
-x,-y,z
-x,1/2+y,z
x,1/2-y,z
x,1/2+y,1/2+z
-x,1/2-y,1/2+z
-x,y,1/2+z
x,-y,1/2+z
loop_
_atom_site_type_symbol
_atom_site_label
_atom_site_fract_x
_atom_site_fract_y
_atom_site_fract_z
Si Si1 0.183227 0.750000 0.581671
Si Si2 0.185390 0.486160 0.005492
Si Si3 0.813293 0.250000 0.061422
Si Si4 0.852466 0.594689 0.880141
Si Si5 0.316101 0.512521 0.266211
Si Si6 0.197611 0.250000 0.693924
Si Si7 0.829483 0.750000 0.215207
O O1 0.253168 0.880289 0.551361
O O2 0.234020 0.750000 0.649084
O O3 0.999501 0.750000 0.568460
O O4 0.234219 0.443520 0.940389
O O5 0.000000 0.500000 0.008391
O O6 0.254895 0.626762 0.024906
O O7 0.752206 0.250000 0.126880
O O8 0.903446 0.750000 0.881068
O O9 0.731314 0.567631 0.829042
O O10 0.000000 0.500000 0.869998
O O11 0.500000 0.500000 0.266303
O O12 0.272107 0.617431 0.217687
O O13 0.229459 0.376201 0.250997
O O14 0.015795 0.250000 0.710866
#
# Coordination Sequence:
#
# PCOD8182241 Si02
#       7
#     4   8   4   8   8   4   4
#     4   9  16  32  53  90 120 149 194 245 312 357
#     4   9  17  30  54  89 125 151 189 252 313 359
#     4   9  18  30  57  90 124 151 190 255 308 359
#     4  11  23  39  64  93 125 162 209 261 307 370
#     4  12  26  42  61  88 129 168 207 258 319 371
#     4  11  21  42  65  94 126 159 212 257 302 375
#     4  11  23  38  67  94 120 165 206 259 304 369
#
# _framework density 20.165391
#
# number of rings (size 3 to 8) (size 9 to 14) (size 15 to 20)
#    0.000    1.600    2.000    3.600    5.600    3.200 
#    0.000    0.000    0.000    7.200    0.000    0.000 
#    0.000    0.000    0.000    0.000    0.000    0.000 
#
# Total GULP energy -247956.878180 kJ/mol
# GULP energy per Si atom -12397.843909 kJ/mol
# Density = 2.011949 g / cm^3
# Si number density = 20.165391 Si / 1000 Ang^3
#
#
#
# Elastic Constant Matrix: (Units=GPa)
#
#
# Indices 1 2 3 4 5 6 
#
# 1 66.2823 29.9925 31.3885 0.0000 0.0000 0.0000
# 2 29.9925 198.2960 81.5562 0.0000 0.0000 0.0000
# 3 31.3885 81.5562 151.0131 0.0000 0.0000 0.0000
# 4 0.0000 0.0000 0.0000 45.9069 0.0000 0.0000
# 5 0.0000 0.0000 0.0000 0.0000 1.3034 0.0000
# 6 0.0000 0.0000 0.0000 0.0000 0.0000 21.5276
#
#
#
# Elastic Compliance Matrix: (Units=1/GPa)
#
#
# Indices 1 2 3 4 5 6 
#
# 1 0.017049 -0.001441 -0.002765 0.000000 0.000000 0.000000
# 2 -0.001441 0.006605 -0.003267 0.000000 0.000000 0.000000
# 3 -0.002765 -0.003267 0.008961 0.000000 0.000000 0.000000
# 4 0.000000 0.000000 0.000000 0.021783 0.000000 0.000000
# 5 0.000000 0.000000 0.000000 0.000000 0.767195 0.000000
# 6 0.000000 0.000000 0.000000 0.000000 0.000000 0.046452
#
#
# Mechanical properties :
#
#
# Convention : Reuss Voigt Hill
#
# Bulk Modulus (GPa) = 56.60314 77.94067 67.27190
# Shear Modulus (GPa) = 5.62504 31.92454 18.77479
#
# Velocity S-wave (km/s) = 1.67198 3.98318 3.05461
# Velocity P-wave (km/s) = 5.64427 7.73879 6.77298
#
# Compressibility (1/GPa) = 0.01766686
#
# Stress axis : x y z
#
# Youngs Moduli (GPa) = 58.65559 151.40485 111.59101
#
# Poissons Ratio (x) = 0.21823 0.30857
# Poissons Ratio (y) = 0.08454 0.36461
# Poissons Ratio (z) = 0.16219 0.49470
#
# Static dielectric constant tensor:
#      x y z
#    x 3.122030 0.000000 0.000000 
#    y 0.000000 4.067540 0.000000 
#    z 0.000000 0.000000 3.978320 
# 
# 
# High freq. dielectric constant tensor:
#      x y z
#    x 1.732600 0.000000 0.000000 
#    y 0.000000 1.813380 0.000000 
#    z 0.000000 0.000000 1.808750 
# 
# From -- ./inp_files/15485.got.cif
#   From: 2010.03.12/outbox.cif.g09.slc.cpg/sg39_8_cif.got.tgz:15485.got - 2010.04.14 02:53:20.
