data_PCOD8182957
_publ_section_title
;
Structure prediction by ZEFSAII (Michael W. Deem and Ramdas Pophale) SiO2 
 PCOD8182957
Probable space group: A M A 2
;
_chemical_formula_sum "Si O2"
_cell_formula_units_Z 56
_cell_length_a 8.907967
_cell_length_b 20.852691
_cell_length_c 13.971100
_cell_angle_alpha 90.000000
_cell_angle_beta 90.000000
_cell_angle_gamma 90.000000
_cell_volume 2595.202844
_symmetry_space_group_name_H-M "A M A 2"
_symmetry_group_IT_number 40
_symmetry_cell_setting 'orthorhombic'
loop_
_space_group_symop_operation_xyz
x,y,z
-x,-y,z
1/2-x,y,z
1/2+x,-y,z
x,1/2+y,1/2+z
-x,1/2-y,1/2+z
1/2-x,1/2+y,1/2+z
1/2+x,1/2-y,1/2+z
loop_
_atom_site_type_symbol
_atom_site_label
_atom_site_fract_x
_atom_site_fract_y
_atom_site_fract_z
Si Si1 0.586451 0.057084 0.568530
Si Si2 0.925762 0.258224 0.072925
Si Si3 0.427651 0.066481 0.862817
Si Si4 0.076063 0.388652 0.548404
Si Si5 0.074893 0.432867 0.760669
Si Si6 0.073872 0.636457 0.921584
Si Si7 0.415745 0.837052 0.724832
O O1 0.750000 0.035998 0.529934
O O2 0.477859 0.074552 0.481024
O O3 0.607907 0.113630 0.640854
O O4 0.500000 0.000000 0.623263
O O5 0.750000 0.268428 0.089532
O O6 0.969015 0.185837 0.049618
O O7 0.002205 0.276954 0.174608
O O8 0.978692 0.300228 0.980659
O O9 0.250000 0.061998 0.849191
O O10 0.488488 0.129709 0.808389
O O11 0.500000 0.000000 0.824268
O O12 0.470674 0.074626 0.973691
O O13 0.250000 0.397105 0.518754
O O14 0.042011 0.419940 0.650019
O O15 0.250000 0.436558 0.782851
O O16 0.000000 0.500000 0.790869
O O17 0.006864 0.371947 0.819066
O O18 0.250000 0.636910 0.904825
O O19 0.250000 0.816560 0.764559
#
# Coordination Sequence:
#
# PCOD8182957 Si02
#       7
#     8   8   8   8   8   8   8
#     4  10  19  31  50  78 112 149 189 234 287 346
#     4   9  20  40  63  90 123 158 197 241 294 354
#     4  12  25  41  63  90 121 158 202 252 306 363
#     4  10  23  43  64  87 119 158 200 250 301 353
#     4  11  23  39  60  85 116 152 194 243 293 347
#     4  10  20  35  57  83 115 152 190 235 286 345
#     4  10  21  37  59  87 120 157 197 243 294 354
#
# _framework density 21.578275000000001
#
# number of rings (size 3 to 8) (size 9 to 14) (size 15 to 20)
#    0.000    1.714    0.000    4.286    0.000    7.429 
#    0.000    2.857    0.000    0.000    0.000    0.000 
#    0.000    0.000    0.000    0.000    0.000    0.000 
#
# Total GULP energy -347134.944504 kJ/mol
# GULP energy per Si atom -12397.676589 kJ/mol
# Density = 2.152916 g / cm^3
# Si number density = 21.578275 Si / 1000 Ang^3
#
#
#
# Elastic Constant Matrix: (Units=GPa)
#
#
# Indices 1 2 3 4 5 6 
#
# 1 112.7066 27.2781 37.0843 0.0000 0.0000 0.0000
# 2 27.2781 73.5809 10.8886 0.0000 0.0000 0.0000
# 3 37.0843 10.8886 81.5436 0.0000 0.0000 0.0000
# 4 0.0000 0.0000 0.0000 -7.8503 0.0000 0.0000
# 5 0.0000 0.0000 0.0000 0.0000 36.3168 0.0000
# 6 0.0000 0.0000 0.0000 0.0000 0.0000 24.4083
#
#
#
# Elastic Compliance Matrix: (Units=1/GPa)
#
#
# Indices 1 2 3 4 5 6 
#
# 1 0.011245 -0.003481 -0.004649 0.000000 0.000000 0.000000
# 2 -0.003481 0.014942 -0.000412 0.000000 0.000000 0.000000
# 3 -0.004649 -0.000412 0.014433 0.000000 0.000000 0.000000
# 4 0.000000 0.000000 0.000000 -0.127384 0.000000 0.000000
# 5 0.000000 0.000000 0.000000 0.000000 0.027535 0.000000
# 6 0.000000 0.000000 0.000000 0.000000 0.000000 0.040970
#
#
# Mechanical properties :
#
#
# Convention : Reuss Voigt Hill
#
# Bulk Modulus (GPa) = 42.48945 46.48145 44.48545
# Shear Modulus (GPa) = 749.68814 23.41364 386.55089
#
# Velocity S-wave (km/s) = 18.65962 3.29759 13.39880
# Velocity P-wave (km/s) = 21.99945 6.00720 16.12548
#
# Compressibility (1/GPa) = 0.02353526
#
# Stress axis : x y z
#
# Youngs Moduli (GPa) = 88.93058 66.92604 69.28697
#
# Poissons Ratio (x) = 0.23295 0.32212
# Poissons Ratio (y) = 0.30954 0.02856
# Poissons Ratio (z) = 0.41345 0.02759
#
# Static dielectric constant tensor:
#      x y z
#    x 4.090940 0.000000 0.000000 
#    y 0.000000 4.022710 0.000000 
#    z 0.000000 0.000000 3.918570 
# 
# 
# High freq. dielectric constant tensor:
#      x y z
#    x 1.850180 0.000000 0.000000 
#    y 0.000000 1.842980 0.000000 
#    z 0.000000 0.000000 1.848330 
# 
# From -- ./inp_files/15275.got.cif
#   From: 2010.03.12/outbox.cif.g09.slc.cpg/sg40_8_cif.got.tgz:15275.got - 2010.04.14 01:38:03.
