data_PCOD8182681
_publ_section_title
;
Structure prediction by ZEFSAII (Michael W. Deem and Ramdas Pophale) SiO2 
 PCOD8182681
Probable space group: A M A 2
;
_chemical_formula_sum "Si O2"
_cell_formula_units_Z 64
_cell_length_a 8.713034
_cell_length_b 19.691616
_cell_length_c 20.737872
_cell_angle_alpha 90.000000
_cell_angle_beta 90.000000
_cell_angle_gamma 90.000000
_cell_volume 3558.073838
_symmetry_space_group_name_H-M "A M A 2"
_symmetry_group_IT_number 40
_symmetry_cell_setting 'orthorhombic'
loop_
_space_group_symop_operation_xyz
x,y,z
-x,-y,z
1/2-x,y,z
1/2+x,-y,z
x,1/2+y,1/2+z
-x,1/2-y,1/2+z
1/2-x,1/2+y,1/2+z
1/2+x,1/2-y,1/2+z
loop_
_atom_site_type_symbol
_atom_site_label
_atom_site_fract_x
_atom_site_fract_y
_atom_site_fract_z
Si Si1 0.930580 0.295482 0.960150
Si Si2 0.429376 0.068326 0.896486
Si Si3 0.432027 0.429944 0.004507
Si Si4 0.431334 0.569590 0.543038
Si Si5 0.931179 0.787380 0.846073
Si Si6 0.432119 0.569162 0.145241
Si Si7 0.431137 0.707935 0.202197
Si Si8 0.567819 0.206711 0.082414
O O1 0.750000 0.308491 0.964316
O O2 0.017614 0.367336 0.959821
O O3 0.972288 0.259347 0.893510
O O4 0.987305 0.249300 0.020005
O O5 0.250000 0.057964 0.895931
O O6 0.478203 0.134021 0.855806
O O7 0.500000 0.000000 0.865550
O O8 0.489116 0.078315 0.969513
O O9 0.500000 0.500000 0.975434
O O10 0.250000 0.435341 0.007829
O O11 0.500616 0.417091 0.074879
O O12 0.500000 0.500000 0.572128
O O13 0.250000 0.567760 0.548565
O O14 0.495199 0.632356 0.583560
O O15 0.750000 0.777277 0.858798
O O16 0.980336 0.767434 0.773322
O O17 0.500000 0.500000 0.175179
O O18 0.250000 0.563399 0.139366
O O19 0.486290 0.630663 0.190799
O O20 0.250000 0.708549 0.196069
O O21 0.497567 0.757037 0.146821
O O22 0.750000 0.200283 0.082726
#
# Coordination Sequence:
#
# PCOD8182681 Si02
#       8
#     8   8   8   8   8   8   8   8
#     4  11  21  35  56  81 109 140 178 224 272 319
#     4   9  18  30  47  72 103 138 176 213 254 307
#     4  11  21  34  55  82 110 141 178 223 271 320
#     4  10  19  32  51  79 107 135 171 218 266 311
#     4  10  20  36  54  76 106 144 185 222 266 320
#     4  10  18  32  50  76 109 146 185 222 266 315
#     4   9  19  35  54  74 106 147 182 219 268 320
#     4  10  19  34  55  78 104 141 180 219 264 313
#
# _framework density 17.987259000000002
#
# number of rings (size 3 to 8) (size 9 to 14) (size 15 to 20)
#    0.000    2.000    2.500    3.000    0.000    2.000 
#    0.000    1.875    0.000    0.750    0.000    3.500 
#    0.000    0.000    0.000    0.000    0.000    0.000 
#
# Total GULP energy -396807.109002 kJ/mol
# GULP energy per Si atom -12400.222156 kJ/mol
# Density = 1.794632 g / cm^3
# Si number density = 17.987259 Si / 1000 Ang^3
#
#
#
# Elastic Constant Matrix: (Units=GPa)
#
#
# Indices 1 2 3 4 5 6 
#
# 1 65.5452 39.4072 23.8196 0.0000 0.0000 0.0000
# 2 39.4072 134.3730 58.1055 0.0000 0.0000 0.0000
# 3 23.8196 58.1055 97.8735 0.0000 0.0000 0.0000
# 4 0.0000 0.0000 0.0000 25.1080 0.0000 0.0000
# 5 0.0000 0.0000 0.0000 0.0000 19.3262 0.0000
# 6 0.0000 0.0000 0.0000 0.0000 0.0000 33.2922
#
#
#
# Elastic Compliance Matrix: (Units=1/GPa)
#
#
# Indices 1 2 3 4 5 6 
#
# 1 0.018742 -0.004741 -0.001747 0.000000 0.000000 0.000000
# 2 -0.004741 0.011212 -0.005502 0.000000 0.000000 0.000000
# 3 -0.001747 -0.005502 0.013909 0.000000 0.000000 0.000000
# 4 0.000000 0.000000 0.000000 0.039828 0.000000 0.000000
# 5 0.000000 0.000000 0.000000 0.000000 0.051743 0.000000
# 6 0.000000 0.000000 0.000000 0.000000 0.000000 0.030037
#
#
# Mechanical properties :
#
#
# Convention : Reuss Voigt Hill
#
# Bulk Modulus (GPa) = 50.29538 60.05072 55.17305
# Shear Modulus (GPa) = 25.50004 27.30923 26.40463
#
# Velocity S-wave (km/s) = 3.76928 3.90071 3.83556
# Velocity P-wave (km/s) = 6.85315 7.33109 7.09615
#
# Compressibility (1/GPa) = 0.01988254
#
# Stress axis : x y z
#
# Youngs Moduli (GPa) = 53.35668 89.19263 71.89632
#
# Poissons Ratio (x) = 0.42287 0.12557
# Poissons Ratio (y) = 0.25297 0.39560
# Poissons Ratio (z) = 0.09319 0.49076
#
# Static dielectric constant tensor:
#      x y z
#    x 3.195540 0.000000 0.000000 
#    y 0.000000 3.543240 0.000000 
#    z 0.000000 0.000000 3.246440 
# 
# 
# High freq. dielectric constant tensor:
#      x y z
#    x 1.689510 0.000000 0.000000 
#    y 0.000000 1.705400 0.000000 
#    z 0.000000 0.000000 1.668140 
# 
# From -- ./inp_files/19587.got.cif
#   From: 2010.03.12/outbox.cif.g09.slc.cpg/sg40_10_cif.got.tgz:19587.got - 2010.04.14 01:38:03.
