data_PCOD8182112
_publ_section_title
;
Structure prediction by ZEFSAII (Michael W. Deem and Ramdas Pophale) SiO2 
 PCOD8182112
Probable space group: A B M 2
;
_chemical_formula_sum "Si O2"
_cell_formula_units_Z 64
_cell_length_a 11.639676
_cell_length_b 16.489084
_cell_length_c 15.177808
_cell_angle_alpha 90.000000
_cell_angle_beta 90.000000
_cell_angle_gamma 90.000000
_cell_volume 2913.040191
_symmetry_space_group_name_H-M "A B M 2"
_symmetry_group_IT_number 39
_symmetry_cell_setting 'orthorhombic'
loop_
_space_group_symop_operation_xyz
x,y,z
-x,-y,z
-x,1/2+y,z
x,1/2-y,z
x,1/2+y,1/2+z
-x,1/2-y,1/2+z
-x,y,1/2+z
x,-y,1/2+z
loop_
_atom_site_type_symbol
_atom_site_label
_atom_site_fract_x
_atom_site_fract_y
_atom_site_fract_z
Si Si1 0.500475 0.905122 0.695490
Si Si2 0.727416 0.340146 0.755187
Si Si3 0.072196 0.915422 0.328272
Si Si4 0.949391 0.842362 0.174460
Si Si5 0.323339 0.652569 0.340889
Si Si6 0.494270 0.096437 0.993580
Si Si7 0.034069 0.592373 0.000921
Si Si8 0.740493 0.340147 0.953468
O O1 0.388492 0.889488 0.752767
O O2 0.607244 0.867881 0.750456
O O3 0.486612 0.871251 0.595139
O O4 0.500000 0.000000 0.687663
O O5 0.698133 0.250000 0.721556
O O6 0.825520 0.383130 0.695191
O O7 0.779520 0.339746 0.852502
O O8 0.210759 0.906995 0.340738
O O9 0.050855 0.879147 0.232729
O O10 0.017406 0.868795 0.411532
O O11 0.000000 0.000000 0.334084
O O12 0.937270 0.750000 0.202780
O O13 0.978281 0.851092 0.073665
O O14 0.294787 0.750000 0.340840
O O15 0.393278 0.631119 0.430589
O O16 0.612093 0.129499 0.956137
O O17 0.500000 0.000000 0.988387
O O18 0.172404 0.600371 0.004959
O O19 0.000000 0.500000 0.019476
O O20 0.749966 0.250000 0.994161
#
# Coordination Sequence:
#
# PCOD8182112 Si02
#       8
#     8   8   8   8   8   8   8   8
#     4  11  26  44  70 102 141 185 231 286 352 421
#     4  10  22  41  67  95 133 179 229 281 343 415
#     4  11  27  46  70 100 140 186 230 295 357 420
#     4  11  24  43  68  99 136 180 231 289 348 421
#     4  12  27  46  73 107 146 186 238 299 356 426
#     4  11  27  45  71 105 143 186 235 289 355 425
#     4  11  26  43  69 100 139 182 235 289 352 423
#     4  11  23  44  71  99 137 186 237 287 348 423
#
# _framework density 21.970175000000001
#
# number of rings (size 3 to 8) (size 9 to 14) (size 15 to 20)
#    0.000    1.000    2.500    2.250    8.750    4.500 
#    0.000    0.000    0.000    0.000    0.000    0.000 
#    0.000    0.000    0.000    0.000    0.000    0.000 
#
# Total GULP energy -396486.886502 kJ/mol
# GULP energy per Si atom -12390.215203 kJ/mol
# Density = 2.192017 g / cm^3
# Si number density = 21.970175 Si / 1000 Ang^3
#
#
#
# Elastic Constant Matrix: (Units=GPa)
#
#
# Indices 1 2 3 4 5 6 
#
# 1 168.8178 57.0100 36.7341 0.0000 0.0000 0.0000
# 2 57.0100 80.9634 41.5681 0.0000 0.0000 0.0000
# 3 36.7341 41.5681 115.9475 0.0000 0.0000 0.0000
# 4 0.0000 0.0000 0.0000 29.2486 0.0000 0.0000
# 5 0.0000 0.0000 0.0000 0.0000 37.5240 0.0000
# 6 0.0000 0.0000 0.0000 0.0000 0.0000 31.4303
#
#
#
# Elastic Compliance Matrix: (Units=1/GPa)
#
#
# Indices 1 2 3 4 5 6 
#
# 1 0.007807 -0.005181 -0.000616 0.000000 0.000000 0.000000
# 2 -0.005181 0.018576 -0.005018 0.000000 0.000000 0.000000
# 3 -0.000616 -0.005018 0.010619 0.000000 0.000000 0.000000
# 4 0.000000 0.000000 0.000000 0.034190 0.000000 0.000000
# 5 0.000000 0.000000 0.000000 0.000000 0.026650 0.000000
# 6 0.000000 0.000000 0.000000 0.000000 0.000000 0.031816
#
#
# Mechanical properties :
#
#
# Convention : Reuss Voigt Hill
#
# Bulk Modulus (GPa) = 65.05588 70.70589 67.88089
# Shear Modulus (GPa) = 31.96682 35.00169 33.48425
#
# Velocity S-wave (km/s) = 3.81860 3.99575 3.90818
# Velocity P-wave (km/s) = 7.00839 7.31714 7.16443
#
# Compressibility (1/GPa) = 0.01537140
#
# Stress axis : x y z
#
# Youngs Moduli (GPa) = 128.08559 53.83294 94.17263
#
# Poissons Ratio (x) = 0.27892 0.05801
# Poissons Ratio (y) = 0.66364 0.47257
# Poissons Ratio (z) = 0.07890 0.27014
#
# Static dielectric constant tensor:
#      x y z
#    x 4.063940 0.000000 0.000000 
#    y 0.000000 3.919520 0.000000 
#    z 0.000000 0.000000 4.250570 
# 
# 
# High freq. dielectric constant tensor:
#      x y z
#    x 1.875170 0.000000 0.000000 
#    y 0.000000 1.857910 0.000000 
#    z 0.000000 0.000000 1.875140 
# 
# From -- ./inp_files/9456.got.cif
#   From: 2010.03.12/outbox.cif.g09.slc.cpg/sg39_5_cif.got.tgz:9456.got - 2010.04.14 02:53:20.
