data_PCOD8182395
_publ_section_title
;
Structure prediction by ZEFSAII (Michael W. Deem and Ramdas Pophale) SiO2 
 PCOD8182395
Probable space group: A M A 2
;
_chemical_formula_sum "Si O2"
_cell_formula_units_Z 48
_cell_length_a 15.700135
_cell_length_b 20.268215
_cell_length_c 8.148647
_cell_angle_alpha 90.000000
_cell_angle_beta 90.000000
_cell_angle_gamma 90.000000
_cell_volume 2593.011207
_symmetry_space_group_name_H-M "A M A 2"
_symmetry_group_IT_number 40
_symmetry_cell_setting 'orthorhombic'
loop_
_space_group_symop_operation_xyz
x,y,z
-x,-y,z
1/2-x,y,z
1/2+x,-y,z
x,1/2+y,1/2+z
-x,1/2-y,1/2+z
1/2-x,1/2+y,1/2+z
1/2+x,1/2-y,1/2+z
loop_
_atom_site_type_symbol
_atom_site_label
_atom_site_fract_x
_atom_site_fract_y
_atom_site_fract_z
Si Si1 0.901473 0.228113 0.814540
Si Si2 0.844731 0.346497 0.010083
Si Si3 0.154854 0.846195 0.508693
Si Si4 0.847274 0.291924 0.364866
Si Si5 0.491156 0.676429 0.597341
Si Si6 0.998705 0.077392 0.376648
O O1 0.848943 0.180629 0.695092
O O2 0.982981 0.259931 0.718915
O O3 0.843462 0.288963 0.873661
O O4 0.931840 0.186654 0.971222
O O5 0.750000 0.378305 0.014384
O O6 0.869936 0.314572 0.182870
O O7 0.914930 0.401425 0.969182
O O8 0.250000 0.874959 0.480182
O O9 0.135554 0.786817 0.381017
O O10 0.084336 0.902473 0.482421
O O11 0.750000 0.307604 0.410242
O O12 0.903492 0.331836 0.495883
O O13 0.507469 0.609652 0.696955
O O14 0.000000 0.000000 0.353065
#
# Coordination Sequence:
#
# PCOD8182395 Si02
#       6
#     8   8   8   8   8   8
#     4  10  17  30  54  85 109 130 163 213 273 320
#     4  10  19  33  57  85 109 133 167 214 265 317
#     4  10  20  35  56  81 109 136 167 213 265 316
#     4   9  17  31  55  86 111 130 160 213 276 320
#     4  10  18  31  52  78 110 140 169 211 260 313
#     4  11  24  38  52  71 102 149 189 214 248 298
#
# _framework density 18.511296000000002
#
# number of rings (size 3 to 8) (size 9 to 14) (size 15 to 20)
#    0.000    2.000    0.000    7.500    0.000    4.667 
#    0.000    4.167    0.000    0.000    0.000    0.000 
#    0.000    0.000    0.000    0.000    0.000    0.000 
#
# Total GULP energy -297590.616480 kJ/mol
# GULP energy per Si atom -12399.609020 kJ/mol
# Density = 1.846916 g / cm^3
# Si number density = 18.511296 Si / 1000 Ang^3
#
#
#
# Elastic Constant Matrix: (Units=GPa)
#
#
# Indices 1 2 3 4 5 6 
#
# 1 109.0462 47.9224 24.8553 0.0000 0.0000 0.0000
# 2 47.9224 99.0904 42.7152 0.0000 0.0000 0.0000
# 3 24.8553 42.7152 93.9780 0.0000 0.0000 0.0000
# 4 0.0000 0.0000 0.0000 17.4765 0.0000 0.0000
# 5 0.0000 0.0000 0.0000 0.0000 30.0597 0.0000
# 6 0.0000 0.0000 0.0000 0.0000 0.0000 14.6472
#
#
#
# Elastic Compliance Matrix: (Units=1/GPa)
#
#
# Indices 1 2 3 4 5 6 
#
# 1 0.011677 -0.005368 -0.000649 0.000000 0.000000 0.000000
# 2 -0.005368 0.015018 -0.005407 0.000000 0.000000 0.000000
# 3 -0.000649 -0.005407 0.013270 0.000000 0.000000 0.000000
# 4 0.000000 0.000000 0.000000 0.057220 0.000000 0.000000
# 5 0.000000 0.000000 0.000000 0.000000 0.033267 0.000000
# 6 0.000000 0.000000 0.000000 0.000000 0.000000 0.068272
#
#
# Mechanical properties :
#
#
# Convention : Reuss Voigt Hill
#
# Bulk Modulus (GPa) = 58.41295 59.23338 58.82317
# Shear Modulus (GPa) = 21.99960 24.87812 23.43886
#
# Velocity S-wave (km/s) = 3.45112 3.66996 3.56222
# Velocity P-wave (km/s) = 6.89232 7.07291 6.98320
#
# Compressibility (1/GPa) = 0.01711949
#
# Stress axis : x y z
#
# Youngs Moduli (GPa) = 85.63663 66.58504 75.35951
#
# Poissons Ratio (x) = 0.35741 0.04888
# Poissons Ratio (y) = 0.45968 0.40743
# Poissons Ratio (z) = 0.05554 0.35999
#
# Static dielectric constant tensor:
#      x y z
#    x 3.480420 0.000000 0.000000 
#    y 0.000000 2.864790 0.000000 
#    z 0.000000 0.000000 3.594850 
# 
# 
# High freq. dielectric constant tensor:
#      x y z
#    x 1.734640 0.000000 0.000000 
#    y 0.000000 1.657150 0.000000 
#    z 0.000000 0.000000 1.732490 
# 
# From -- ./inp_files/6594.got.cif
#   From: 2010.03.12/outbox.cif.g09.slc.cpg/sg40_4_cif.got.tgz:6594.got - 2010.04.14 01:38:03.
