data_PCOD8182122
_publ_section_title
;
Structure prediction by ZEFSAII (Michael W. Deem and Ramdas Pophale) SiO2 
 PCOD8182122
Probable space group: A B M 2
;
_chemical_formula_sum "Si O2"
_cell_formula_units_Z 48
_cell_length_a 9.011511
_cell_length_b 24.780383
_cell_length_c 9.610787
_cell_angle_alpha 90.000000
_cell_angle_beta 90.000000
_cell_angle_gamma 90.000000
_cell_volume 2146.172293
_symmetry_space_group_name_H-M "A B M 2"
_symmetry_group_IT_number 39
_symmetry_cell_setting 'orthorhombic'
loop_
_space_group_symop_operation_xyz
x,y,z
-x,-y,z
-x,1/2+y,z
x,1/2-y,z
x,1/2+y,1/2+z
-x,1/2-y,1/2+z
-x,y,1/2+z
x,-y,1/2+z
loop_
_atom_site_type_symbol
_atom_site_label
_atom_site_fract_x
_atom_site_fract_y
_atom_site_fract_z
Si Si1 0.512612 0.250000 0.328161
Si Si2 0.299910 0.943780 0.863154
Si Si3 0.000948 0.904650 0.748453
Si Si4 0.837616 0.855802 0.988535
Si Si5 0.286841 0.461303 0.670143
Si Si6 0.432044 0.129021 0.824340
Si Si7 0.303979 0.250000 0.089756
O O1 0.581633 0.307537 0.278997
O O2 0.540724 0.250000 0.496963
O O3 0.348922 0.250000 0.254709
O O4 0.131434 0.927216 0.842283
O O5 0.401075 0.889652 0.860890
O O6 0.354701 0.987379 0.750385
O O7 0.304990 0.974787 0.008992
O O8 0.066158 0.887397 0.600527
O O9 0.925071 0.856325 0.839714
O O10 0.883195 0.952057 0.717869
O O11 0.675670 0.882559 0.957517
O O12 0.806479 0.797846 0.052349
O O13 0.377616 0.406258 0.694944
#
# Coordination Sequence:
#
# PCOD8182122 Si02
#       7
#     4   8   8   8   8   8   4
#     4  10  22  44  72  98 134 192 222 285 357 411
#     4  12  26  43  71  98 139 184 232 289 353 407
#     4  11  23  45  69  96 137 187 226 284 352 420
#     4  10  23  44  68 100 140 181 231 288 344 419
#     4  11  27  43  67 102 138 182 234 285 347 421
#     4  10  25  44  72 102 141 173 239 290 348 413
#     4  10  22  42  68 104 142 180 238 285 343 417
#
# _framework density 22.365400000000001
#
# number of rings (size 3 to 8) (size 9 to 14) (size 15 to 20)
#    0.000    1.333    1.667    2.000   11.667    3.333 
#    0.000    1.667    0.000    0.000    0.000    0.000 
#    0.000    0.000    0.000    0.000    0.000    0.000 
#
# Total GULP energy -297315.161197 kJ/mol
# GULP energy per Si atom -12388.131717 kJ/mol
# Density = 2.231450 g / cm^3
# Si number density = 22.365400 Si / 1000 Ang^3
#
#
#
# Elastic Constant Matrix: (Units=GPa)
#
#
# Indices 1 2 3 4 5 6 
#
# 1 94.9153 44.3392 35.0353 0.0000 0.0000 0.0000
# 2 44.3392 116.2147 36.2670 0.0000 0.0000 0.0000
# 3 35.0353 36.2670 110.8466 0.0000 0.0000 0.0000
# 4 0.0000 0.0000 0.0000 26.1699 0.0000 0.0000
# 5 0.0000 0.0000 0.0000 0.0000 35.6950 0.0000
# 6 0.0000 0.0000 0.0000 0.0000 0.0000 31.8602
#
#
#
# Elastic Compliance Matrix: (Units=1/GPa)
#
#
# Indices 1 2 3 4 5 6 
#
# 1 0.013608 -0.004288 -0.002898 0.000000 0.000000 0.000000
# 2 -0.004288 0.010934 -0.002222 0.000000 0.000000 0.000000
# 3 -0.002898 -0.002222 0.010665 0.000000 0.000000 0.000000
# 4 0.000000 0.000000 0.000000 0.038212 0.000000 0.000000
# 5 0.000000 0.000000 0.000000 0.000000 0.028015 0.000000
# 6 0.000000 0.000000 0.000000 0.000000 0.000000 0.031387
#
#
# Mechanical properties :
#
#
# Convention : Reuss Voigt Hill
#
# Bulk Modulus (GPa) = 61.00992 61.47329 61.24161
# Shear Modulus (GPa) = 31.82658 32.50068 32.16363
#
# Velocity S-wave (km/s) = 3.77640 3.81618 3.79634
# Velocity P-wave (km/s) = 6.80829 6.85297 6.83067
#
# Compressibility (1/GPa) = 0.01639078
#
# Stress axis : x y z
#
# Youngs Moduli (GPa) = 73.48360 91.45720 93.76744
#
# Poissons Ratio (x) = 0.39212 0.27178
# Poissons Ratio (y) = 0.31506 0.20838
# Poissons Ratio (z) = 0.21299 0.20324
#
# Static dielectric constant tensor:
#      x y z
#    x 4.180120 0.000000 0.000000 
#    y 0.000000 4.031200 0.000000 
#    z 0.000000 0.000000 4.050960 
# 
# 
# High freq. dielectric constant tensor:
#      x y z
#    x 1.885160 0.000000 0.000000 
#    y 0.000000 1.873950 0.000000 
#    z 0.000000 0.000000 1.881580 
# 
# From -- ./inp_files/2333.got.cif
#   From: 2010.03.12/outbox.cif.g09.slc.cpg/sg39_2_cif.got.tgz:2333.got - 2010.04.14 02:53:20.
