data_PCOD8182017
_publ_section_title
;
Structure prediction by ZEFSAII (Michael W. Deem and Ramdas Pophale) SiO2 
 PCOD8182017
Probable space group: A B M 2
;
_chemical_formula_sum "Si O2"
_cell_formula_units_Z 48
_cell_length_a 8.273962
_cell_length_b 9.543247
_cell_length_c 29.530901
_cell_angle_alpha 90.000000
_cell_angle_beta 90.000000
_cell_angle_gamma 90.000000
_cell_volume 2331.773617
_symmetry_space_group_name_H-M "A B M 2"
_symmetry_group_IT_number 39
_symmetry_cell_setting 'orthorhombic'
loop_
_space_group_symop_operation_xyz
x,y,z
-x,-y,z
-x,1/2+y,z
x,1/2-y,z
x,1/2+y,1/2+z
-x,1/2-y,1/2+z
-x,y,1/2+z
x,-y,1/2+z
loop_
_atom_site_type_symbol
_atom_site_label
_atom_site_fract_x
_atom_site_fract_y
_atom_site_fract_z
Si Si1 0.045849 0.250000 0.768930
Si Si2 0.144534 0.590954 0.985742
Si Si3 0.661184 0.411212 0.659074
Si Si4 0.000000 0.500000 0.705327
Si Si5 0.656323 0.414020 0.552417
Si Si6 0.850896 0.250000 0.366249
Si Si7 0.196454 0.250000 0.341335
Si Si8 0.316474 0.522728 0.898796
O O1 0.071225 0.382032 0.737610
O O2 0.173478 0.250000 0.811107
O O3 0.861910 0.250000 0.789237
O O4 0.101874 0.750000 0.001916
O O5 0.268657 0.602782 0.944461
O O6 0.000000 0.500000 0.965058
O O7 0.198948 0.496340 0.028446
O O8 0.500000 0.500000 0.675121
O O9 0.629727 0.250000 0.673482
O O10 0.680583 0.426081 0.605718
O O11 0.838842 0.457867 0.677294
O O12 0.500000 0.500000 0.536602
O O13 0.645026 0.250000 0.537455
O O14 0.777716 0.380728 0.391452
O O15 0.042382 0.250000 0.375761
O O16 0.297750 0.112536 0.352826
O O17 0.500000 0.500000 0.906505
#
# Coordination Sequence:
#
# PCOD8182017 Si02
#       8
#     4   8   8   4   8   4   4   8
#     4  10  24  42  72  96 126 178 220 278 348 410
#     4  12  26  42  63  96 134 181 232 279 327 400
#     4  10  24  44  71 106 143 183 229 281 342 411
#     4  12  22  46  72 102 134 184 226 284 348 426
#     4  10  22  43  67  98 139 181 221 279 336 392
#     4  10  23  41  70  87 126 171 217 271 333 403
#     4  10  21  45  64  89 128 169 217 267 331 405
#     4  12  24  40  65  98 131 172 221 274 334 395
#
# _framework density 20.585187999999999
#
# number of rings (size 3 to 8) (size 9 to 14) (size 15 to 20)
#    0.500    0.667    1.667    4.500    4.667    0.667 
#    0.000    5.000    0.000    0.000    0.000    0.000 
#    0.000    0.000    0.000    0.000    0.000    0.000 
#
# Total GULP energy -297351.188882 kJ/mol
# GULP energy per Si atom -12389.632870 kJ/mol
# Density = 2.053833 g / cm^3
# Si number density = 20.585188 Si / 1000 Ang^3
#
#
#
# Elastic Constant Matrix: (Units=GPa)
#
#
# Indices 1 2 3 4 5 6 
#
# 1 114.0463 42.3388 25.6135 0.0000 0.0000 0.0000
# 2 42.3388 174.7415 37.3688 0.0000 0.0000 0.0000
# 3 25.6135 37.3688 63.5834 0.0000 0.0000 0.0000
# 4 0.0000 0.0000 0.0000 37.0379 0.0000 0.0000
# 5 0.0000 0.0000 0.0000 0.0000 33.1864 0.0000
# 6 0.0000 0.0000 0.0000 0.0000 0.0000 25.9793
#
#
#
# Elastic Compliance Matrix: (Units=1/GPa)
#
#
# Indices 1 2 3 4 5 6 
#
# 1 0.010116 -0.001807 -0.003013 0.000000 0.000000 0.000000
# 2 -0.001807 0.006868 -0.003309 0.000000 0.000000 0.000000
# 3 -0.003013 -0.003309 0.018886 0.000000 0.000000 0.000000
# 4 0.000000 0.000000 0.000000 0.026999 0.000000 0.000000
# 5 0.000000 0.000000 0.000000 0.000000 0.030133 0.000000
# 6 0.000000 0.000000 0.000000 0.000000 0.000000 0.038492
#
#
# Mechanical properties :
#
#
# Convention : Reuss Voigt Hill
#
# Bulk Modulus (GPa) = 50.98764 62.55703 56.77233
# Shear Modulus (GPa) = 32.40681 35.71071 34.05876
#
# Velocity S-wave (km/s) = 3.97202 4.16958 4.07200
# Velocity P-wave (km/s) = 6.77191 7.32365 7.05318
#
# Compressibility (1/GPa) = 0.01961260
#
# Stress axis : x y z
#
# Youngs Moduli (GPa) = 98.85532 145.60203 52.94996
#
# Poissons Ratio (x) = 0.26305 0.15955
# Poissons Ratio (y) = 0.17859 0.17519
# Poissons Ratio (z) = 0.29787 0.48175
#
# Static dielectric constant tensor:
#      x y z
#    x 3.690190 0.000000 0.000000 
#    y 0.000000 4.045120 0.000000 
#    z 0.000000 0.000000 3.581110 
# 
# 
# High freq. dielectric constant tensor:
#      x y z
#    x 1.801720 0.000000 0.000000 
#    y 0.000000 1.825140 0.000000 
#    z 0.000000 0.000000 1.799790 
# 
# From -- ./inp_files/17701.got.cif
#   From: 2010.03.12/outbox.cif.g09.slc.cpg/sg39_9_cif.got.tgz:17701.got - 2010.04.14 02:53:20.
