data_PCOD8182921
_publ_section_title
;
Structure prediction by ZEFSAII (Michael W. Deem and Ramdas Pophale) SiO2 
 PCOD8182921
Probable space group: A M A 2
;
_chemical_formula_sum "Si O2"
_cell_formula_units_Z 64
_cell_length_a 8.893626
_cell_length_b 14.617360
_cell_length_c 27.312873
_cell_angle_alpha 90.000000
_cell_angle_beta 90.000000
_cell_angle_gamma 90.000000
_cell_volume 3550.709897
_symmetry_space_group_name_H-M "A M A 2"
_symmetry_group_IT_number 40
_symmetry_cell_setting 'orthorhombic'
loop_
_space_group_symop_operation_xyz
x,y,z
-x,-y,z
1/2-x,y,z
1/2+x,-y,z
x,1/2+y,1/2+z
-x,1/2-y,1/2+z
1/2-x,1/2+y,1/2+z
1/2+x,1/2-y,1/2+z
loop_
_atom_site_type_symbol
_atom_site_label
_atom_site_fract_x
_atom_site_fract_y
_atom_site_fract_z
Si Si1 0.926065 0.593268 0.593740
Si Si2 0.072981 0.093725 0.816425
Si Si3 0.573820 0.093158 0.713627
Si Si4 0.422900 0.718617 0.669093
Si Si5 0.573935 0.093268 0.981959
Si Si6 0.927019 0.406275 0.759273
Si Si7 0.922900 0.781383 0.906606
Si Si8 0.426180 0.906842 0.362072
O O1 0.750000 0.581152 0.598813
O O2 0.975848 0.610956 0.537849
O O3 0.000000 0.500000 0.613945
O O4 0.977537 0.680076 0.625134
O O5 0.250000 0.080323 0.809245
O O6 0.033938 0.171752 0.855355
O O7 0.000132 0.121911 0.764948
O O8 0.000000 0.000000 0.835947
O O9 0.750000 0.077724 0.722424
O O10 0.544678 0.173294 0.674306
O O11 0.500000 0.000000 0.693051
O O12 0.250000 0.699275 0.656176
O O13 0.466062 0.671752 0.720344
O O14 0.750000 0.081152 0.976886
O O15 0.522463 0.180076 0.950564
O O16 0.500000 0.000000 0.961754
O O17 0.750000 0.419677 0.766454
O O18 0.000000 0.500000 0.739752
O O19 0.999868 0.378089 0.810751
O O20 0.750000 0.800725 0.919523
O O21 0.955322 0.673294 0.901393
O O22 0.250000 0.922276 0.353274
O O23 0.500000 0.000000 0.382648
#
# Coordination Sequence:
#
# PCOD8182921 Si02
#       8
#     8   8   8   8   8   8   8   8
#     4  10  21  36  55  79 105 132 162 199 246 299
#     4  10  19  31  47  71 102 134 168 204 246 295
#     4  10  20  34  50  71 100 134 172 210 250 293
#     4  10  21  34  51  75 101 132 170 209 249 296
#     4  10  21  36  55  79 105 132 162 199 246 299
#     4  10  19  31  47  71 102 134 168 204 246 295
#     4  10  21  34  51  75 101 132 170 209 249 296
#     4  10  20  34  50  71 100 134 172 210 250 293
#
# _framework density 18.024566
#
# number of rings (size 3 to 8) (size 9 to 14) (size 15 to 20)
#    0.000    2.000    0.000    5.250    0.000    7.500 
#    0.000    0.000    0.000    0.750    0.000    0.000 
#    0.000    0.000    0.000    0.000    0.000    0.000 
#
# Total GULP energy -396881.874475 kJ/mol
# GULP energy per Si atom -12402.558577 kJ/mol
# Density = 1.798354 g / cm^3
# Si number density = 18.024566 Si / 1000 Ang^3
#
#
#
# Elastic Constant Matrix: (Units=GPa)
#
#
# Indices 1 2 3 4 5 6 
#
# 1 97.3045 50.0587 44.0285 0.0000 0.0000 0.0000
# 2 50.0587 116.2722 56.3536 0.0000 0.0000 0.0000
# 3 44.0285 56.3536 70.7943 0.0000 0.0000 0.0000
# 4 0.0000 0.0000 0.0000 26.8111 0.0000 0.0000
# 5 0.0000 0.0000 0.0000 0.0000 29.8772 0.0000
# 6 0.0000 0.0000 0.0000 0.0000 0.0000 30.3026
#
#
#
# Elastic Compliance Matrix: (Units=1/GPa)
#
#
# Indices 1 2 3 4 5 6 
#
# 1 0.014977 -0.003148 -0.006809 0.000000 0.000000 0.000000
# 2 -0.003148 0.014665 -0.009715 0.000000 0.000000 0.000000
# 3 -0.006809 -0.009715 0.026094 0.000000 0.000000 0.000000
# 4 0.000000 0.000000 0.000000 0.037298 0.000000 0.000000
# 5 0.000000 0.000000 0.000000 0.000000 0.033470 0.000000
# 6 0.000000 0.000000 0.000000 0.000000 0.000000 0.033000
#
#
# Mechanical properties :
#
#
# Convention : Reuss Voigt Hill
#
# Bulk Modulus (GPa) = 61.00930 65.02807 63.01868
# Shear Modulus (GPa) = 24.47226 26.32687 25.39957
#
# Velocity S-wave (km/s) = 3.68872 3.82594 3.75796
# Velocity P-wave (km/s) = 7.21551 7.46143 7.33950
#
# Compressibility (1/GPa) = 0.01639094
#
# Stress axis : x y z
#
# Youngs Moduli (GPa) = 66.76692 68.19099 38.32362
#
# Poissons Ratio (x) = 0.21468 0.26093
# Poissons Ratio (y) = 0.21020 0.37233
# Poissons Ratio (z) = 0.45460 0.66250
#
# Static dielectric constant tensor:
#      x y z
#    x 3.399040 0.000000 0.000000 
#    y 0.000000 3.397770 0.000000 
#    z 0.000000 0.000000 3.127410 
# 
# 
# High freq. dielectric constant tensor:
#      x y z
#    x 1.711570 0.000000 0.000000 
#    y 0.000000 1.699580 0.000000 
#    z 0.000000 0.000000 1.672410 
# 
# From -- ./inp_files/26472.got.cif
#   From: 2010.03.12/outbox.cif.g09.slc.cpg/sg40_14_cif.got.tgz:26472.got - 2010.04.14 01:38:03.
