data_PCOD8182891
_publ_section_title
;
Structure prediction by ZEFSAII (Michael W. Deem and Ramdas Pophale) SiO2 
 PCOD8182891
Probable space group: A M A 2
;
_chemical_formula_sum "Si O2"
_cell_formula_units_Z 64
_cell_length_a 8.866877
_cell_length_b 22.475753
_cell_length_c 15.707434
_cell_angle_alpha 90.000000
_cell_angle_beta 90.000000
_cell_angle_gamma 90.000000
_cell_volume 3130.330396
_symmetry_space_group_name_H-M "A M A 2"
_symmetry_group_IT_number 40
_symmetry_cell_setting 'orthorhombic'
loop_
_space_group_symop_operation_xyz
x,y,z
-x,-y,z
1/2-x,y,z
1/2+x,-y,z
x,1/2+y,1/2+z
-x,1/2-y,1/2+z
1/2-x,1/2+y,1/2+z
1/2+x,1/2-y,1/2+z
loop_
_atom_site_type_symbol
_atom_site_label
_atom_site_fract_x
_atom_site_fract_y
_atom_site_fract_z
Si Si1 0.570114 0.311506 0.770550
Si Si2 0.922621 0.563049 0.200379
Si Si3 0.920357 0.439448 0.707504
Si Si4 0.575199 0.063964 0.886295
Si Si5 0.077739 0.122091 0.039506
Si Si6 0.924799 0.936854 0.536664
Si Si7 0.073842 0.683022 0.959291
Si Si8 0.927003 0.235064 0.109686
O O1 0.750000 0.309533 0.762227
O O2 0.512700 0.378739 0.749011
O O3 0.513910 0.295320 0.866578
O O4 0.504165 0.262892 0.703678
O O5 0.750000 0.555111 0.173154
O O6 0.935664 0.594586 0.292447
O O7 0.000000 0.500000 0.209665
O O8 0.010361 0.594608 0.122976
O O9 0.750000 0.446498 0.738508
O O10 0.931873 0.433484 0.604733
O O11 0.000000 0.500000 0.738089
O O12 0.750000 0.058934 0.915077
O O13 0.500000 0.000000 0.886329
O O14 0.477383 0.105045 0.946592
O O15 0.250000 0.146013 0.036081
O O16 0.962083 0.171303 0.070786
O O17 0.750000 0.948952 0.549301
O O18 0.957013 0.888053 0.463944
O O19 0.000000 0.000000 0.513532
O O20 0.250000 0.696526 0.962733
O O21 0.003711 0.717512 0.041119
O O22 0.750000 0.244438 0.122859
#
# Coordination Sequence:
#
# PCOD8182891 Si02
#       8
#     8   8   8   8   8   8   8   8
#     4   9  19  39  60  80 111 151 186 225 279 341
#     4   9  17  30  47  70 103 142 181 224 273 325
#     4   9  18  30  49  76 107 141 179 216 265 325
#     4  10  19  30  47  73 107 146 190 236 285 339
#     4  10  20  34  51  74 106 147 190 233 283 339
#     4  10  19  34  56  82 112 147 182 224 277 337
#     4   9  20  39  62  83 112 151 186 224 285 345
#     4  10  20  38  60  82 109 143 187 238 284 331
#
# _framework density 20.445128
#
# number of rings (size 3 to 8) (size 9 to 14) (size 15 to 20)
#    0.000    2.500    0.000    3.750    0.000    5.500 
#    2.250    5.000    0.000    0.000    0.000    0.000 
#    0.000    0.000    0.000    0.000    0.000    0.000 
#
# Total GULP energy -396437.789816 kJ/mol
# GULP energy per Si atom -12388.680932 kJ/mol
# Density = 2.039859 g / cm^3
# Si number density = 20.445128 Si / 1000 Ang^3
#
#
#
# Elastic Constant Matrix: (Units=GPa)
#
#
# Indices 1 2 3 4 5 6 
#
# 1 73.4933 21.4605 35.5514 0.0000 0.0000 0.0000
# 2 21.4605 60.8124 43.4135 0.0000 0.0000 0.0000
# 3 35.5514 43.4135 152.1712 0.0000 0.0000 0.0000
# 4 0.0000 0.0000 0.0000 23.8974 0.0000 0.0000
# 5 0.0000 0.0000 0.0000 0.0000 23.0033 0.0000
# 6 0.0000 0.0000 0.0000 0.0000 0.0000 22.1133
#
#
#
# Elastic Compliance Matrix: (Units=1/GPa)
#
#
# Indices 1 2 3 4 5 6 
#
# 1 0.015989 -0.003737 -0.002669 0.000000 0.000000 0.000000
# 2 -0.003737 0.021523 -0.005267 0.000000 0.000000 0.000000
# 3 -0.002669 -0.005267 0.008698 0.000000 0.000000 0.000000
# 4 0.000000 0.000000 0.000000 0.041846 0.000000 0.000000
# 5 0.000000 0.000000 0.000000 0.000000 0.043472 0.000000
# 6 0.000000 0.000000 0.000000 0.000000 0.000000 0.045222
#
#
# Mechanical properties :
#
#
# Convention : Reuss Voigt Hill
#
# Bulk Modulus (GPa) = 43.73896 54.14752 48.94324
# Shear Modulus (GPa) = 24.07114 26.20624 25.13869
#
# Velocity S-wave (km/s) = 3.43498 3.58409 3.51033
# Velocity P-wave (km/s) = 6.09688 6.60828 6.35772
#
# Compressibility (1/GPa) = 0.02286291
#
# Stress axis : x y z
#
# Youngs Moduli (GPa) = 62.54237 46.46176 114.96982
#
# Poissons Ratio (x) = 0.17362 0.30690
# Poissons Ratio (y) = 0.23371 0.60559
# Poissons Ratio (z) = 0.16695 0.24473
#
# Static dielectric constant tensor:
#      x y z
#    x 3.612790 0.000000 0.000000 
#    y 0.000000 3.618500 0.000000 
#    z 0.000000 0.000000 4.373400 
# 
# 
# High freq. dielectric constant tensor:
#      x y z
#    x 1.786430 0.000000 0.000000 
#    y 0.000000 1.769950 0.000000 
#    z 0.000000 0.000000 1.811160 
# 
# From -- ./inp_files/15666.got.cif
#   From: 2010.03.12/outbox.cif.g09.slc.cpg/sg40_8_cif.got.tgz:15666.got - 2010.04.14 01:38:03.
