data_PCOD8182697
_publ_section_title
;
Structure prediction by ZEFSAII (Michael W. Deem and Ramdas Pophale) SiO2 
 PCOD8182697
Probable space group: A M A 2
;
_chemical_formula_sum "Si O2"
_cell_formula_units_Z 64
_cell_length_a 8.517640
_cell_length_b 16.375723
_cell_length_c 22.705776
_cell_angle_alpha 90.000000
_cell_angle_beta 90.000000
_cell_angle_gamma 90.000000
_cell_volume 3167.058702
_symmetry_space_group_name_H-M "A M A 2"
_symmetry_group_IT_number 40
_symmetry_cell_setting 'orthorhombic'
loop_
_space_group_symop_operation_xyz
x,y,z
-x,-y,z
1/2-x,y,z
1/2+x,-y,z
x,1/2+y,1/2+z
-x,1/2-y,1/2+z
1/2-x,1/2+y,1/2+z
1/2+x,1/2-y,1/2+z
loop_
_atom_site_type_symbol
_atom_site_label
_atom_site_fract_x
_atom_site_fract_y
_atom_site_fract_z
Si Si1 0.064129 0.746486 0.491990
Si Si2 0.925369 0.206388 0.616103
Si Si3 0.433644 0.738281 0.870822
Si Si4 0.434150 0.587913 0.335982
Si Si5 0.573710 0.885869 0.157441
Si Si6 0.562375 0.583634 0.207480
Si Si7 0.436412 0.086775 0.290181
Si Si8 0.432728 0.417190 0.535705
O O1 0.250000 0.757530 0.484667
O O2 0.995576 0.788446 0.551665
O O3 0.974764 0.788506 0.437508
O O4 0.028317 0.650993 0.500346
O O5 0.750000 0.174355 0.605220
O O6 0.922203 0.289572 0.651901
O O7 0.011289 0.145079 0.659858
O O8 0.250000 0.747397 0.860464
O O9 0.508107 0.828877 0.866808
O O10 0.498883 0.666391 0.827191
O O11 0.500000 0.500000 0.359799
O O12 0.250000 0.582470 0.343499
O O13 0.482016 0.601274 0.269058
O O14 0.750000 0.921491 0.149108
O O15 0.506134 0.906776 0.222247
O O16 0.461752 0.920238 0.106342
O O17 0.500000 0.500000 0.181543
O O18 0.750000 0.588463 0.215275
O O19 0.250000 0.086281 0.294084
O O20 0.500000 0.000000 0.315902
O O21 0.500000 0.500000 0.507816
O O22 0.250000 0.406377 0.522773
#
# Coordination Sequence:
#
# PCOD8182697 Si02
#       8
#     8   8   8   8   8   8   8   8
#     4  10  21  39  58  78 103 139 185 231 274 326
#     4   8  16  32  55  77 105 141 176 215 271 329
#     4  11  23  41  60  82 112 150 192 239 286 332
#     4  11  22  37  58  87 118 151 186 228 278 338
#     4   9  17  33  55  81 109 142 179 221 272 329
#     4  10  18  32  53  80 111 143 176 220 273 329
#     4  10  22  38  59  84 115 151 191 236 285 335
#     4  11  21  34  53  81 113 145 176 216 267 326
#
# _framework density 20.208024999999999
#
# number of rings (size 3 to 8) (size 9 to 14) (size 15 to 20)
#    0.000    2.000    0.000    6.000    0.000    5.000 
#    0.000   11.875    0.000    3.000    0.000    0.000 
#    0.000    0.000    0.000    0.000    0.000    0.000 
#
# Total GULP energy -396503.503160 kJ/mol
# GULP energy per Si atom -12390.734474 kJ/mol
# Density = 2.016203 g / cm^3
# Si number density = 20.208025 Si / 1000 Ang^3
#
#
#
# Elastic Constant Matrix: (Units=GPa)
#
#
# Indices 1 2 3 4 5 6 
#
# 1 71.4025 23.2160 13.6628 0.0000 0.0000 0.0000
# 2 23.2160 76.1574 39.1449 0.0000 0.0000 0.0000
# 3 13.6628 39.1449 76.0699 0.0000 0.0000 0.0000
# 4 0.0000 0.0000 0.0000 5.6870 0.0000 0.0000
# 5 0.0000 0.0000 0.0000 0.0000 17.5221 0.0000
# 6 0.0000 0.0000 0.0000 0.0000 0.0000 18.0374
#
#
#
# Elastic Compliance Matrix: (Units=1/GPa)
#
#
# Indices 1 2 3 4 5 6 
#
# 1 0.015559 -0.004496 -0.000481 0.000000 0.000000 0.000000
# 2 -0.004496 0.019152 -0.009048 0.000000 0.000000 0.000000
# 3 -0.000481 -0.009048 0.017888 0.000000 0.000000 0.000000
# 4 0.000000 0.000000 0.000000 0.175840 0.000000 0.000000
# 5 0.000000 0.000000 0.000000 0.000000 0.057071 0.000000
# 6 0.000000 0.000000 0.000000 0.000000 0.000000 0.055440
#
#
# Mechanical properties :
#
#
# Convention : Reuss Voigt Hill
#
# Bulk Modulus (GPa) = 40.73394 41.74189 41.23791
# Shear Modulus (GPa) = 13.25619 18.08970 15.67295
#
# Velocity S-wave (km/s) = 2.56400 2.99519 2.78795
# Velocity P-wave (km/s) = 5.38206 5.71511 5.55108
#
# Compressibility (1/GPa) = 0.02454955
#
# Stress axis : x y z
#
# Youngs Moduli (GPa) = 64.27177 52.21438 55.90296
#
# Poissons Ratio (x) = 0.23474 0.02689
# Poissons Ratio (y) = 0.28895 0.50580
# Poissons Ratio (z) = 0.03092 0.47243
#
# Static dielectric constant tensor:
#      x y z
#    x 3.499640 0.000000 0.000000 
#    y 0.000000 3.883670 0.000000 
#    z 0.000000 0.000000 3.834850 
# 
# 
# High freq. dielectric constant tensor:
#      x y z
#    x 1.774520 0.000000 0.000000 
#    y 0.000000 1.788190 0.000000 
#    z 0.000000 0.000000 1.789800 
# 
# From -- ./inp_files/24328.got.cif
#   From: 2010.03.12/outbox.cif.g09.slc.cpg/sg40_13_cif.got.tgz:24328.got - 2010.04.14 01:38:03.
