data_PCOD8182644
_publ_section_title
;
Structure prediction by ZEFSAII (Michael W. Deem and Ramdas Pophale) SiO2 
 PCOD8182644
Probable space group: A M A 2
;
_chemical_formula_sum "Si O2"
_cell_formula_units_Z 64
_cell_length_a 8.689251
_cell_length_b 33.867061
_cell_length_c 11.876713
_cell_angle_alpha 90.000000
_cell_angle_beta 90.000000
_cell_angle_gamma 90.000000
_cell_volume 3495.071900
_symmetry_space_group_name_H-M "A M A 2"
_symmetry_group_IT_number 40
_symmetry_cell_setting 'orthorhombic'
loop_
_space_group_symop_operation_xyz
x,y,z
-x,-y,z
1/2-x,y,z
1/2+x,-y,z
x,1/2+y,1/2+z
-x,1/2-y,1/2+z
1/2-x,1/2+y,1/2+z
1/2+x,1/2-y,1/2+z
loop_
_atom_site_type_symbol
_atom_site_label
_atom_site_fract_x
_atom_site_fract_y
_atom_site_fract_z
Si Si1 0.069161 0.766091 0.643640
Si Si2 0.069185 0.821812 0.841159
Si Si3 0.068705 0.181284 0.084064
Si Si4 0.069507 0.958758 0.345774
Si Si5 0.070726 0.116552 0.687171
Si Si6 0.431511 0.959218 0.606257
Si Si7 0.069923 0.836559 0.492242
Si Si8 0.069125 0.374718 0.760547
O O1 0.250000 0.762614 0.654125
O O2 0.007777 0.787514 0.756431
O O3 0.997853 0.722266 0.633830
O O4 0.029477 0.791778 0.531068
O O5 0.250000 0.818342 0.865727
O O6 0.032003 0.863326 0.783254
O O7 0.974042 0.819638 0.954366
O O8 0.250000 0.180611 0.096969
O O9 0.002970 0.143174 0.147777
O O10 0.250000 0.962207 0.330105
O O11 0.024930 0.952668 0.475712
O O12 0.006948 0.919544 0.280875
O O13 0.000000 0.000000 0.298377
O O14 0.250000 0.121354 0.715126
O O15 0.020524 0.071351 0.685004
O O16 0.032526 0.134095 0.565138
O O17 0.250000 0.956567 0.625473
O O18 0.500000 0.000000 0.649142
O O19 0.250000 0.846155 0.514740
O O20 0.026379 0.844863 0.362778
O O21 0.250000 0.376604 0.744505
#
# Coordination Sequence:
#
# PCOD8182644 Si02
#       8
#     8   8   8   8   8   8   8   8
#     4   8  18  35  56  78 106 141 179 226 277 324
#     4  10  21  40  59  75 103 147 188 222 271 334
#     4  11  23  37  54  82 112 140 183 238 280 322
#     4   9  18  32  52  78 110 145 183 224 271 329
#     4  11  20  32  53  81 109 141 179 226 276 325
#     4  10  18  31  50  79 114 147 179 221 271 329
#     4   9  17  34  55  75 106 147 185 220 267 330
#     4  10  20  35  55  80 110 150 188 221 273 339
#
# _framework density 18.311498
#
# number of rings (size 3 to 8) (size 9 to 14) (size 15 to 20)
#    0.000    2.250    1.250    3.000    1.750    1.500 
#    0.000    5.625    0.000    0.750    0.000    3.500 
#    0.000    0.000    0.000    0.000    0.000    0.000 
#
# Total GULP energy -396698.944889 kJ/mol
# GULP energy per Si atom -12396.842028 kJ/mol
# Density = 1.826982 g / cm^3
# Si number density = 18.311498 Si / 1000 Ang^3
#
#
#
# Elastic Constant Matrix: (Units=GPa)
#
#
# Indices 1 2 3 4 5 6 
#
# 1 29.0344 17.7796 5.0552 0.0000 0.0000 0.0000
# 2 17.7796 142.9214 49.6457 0.0000 0.0000 0.0000
# 3 5.0552 49.6457 82.6835 0.0000 0.0000 0.0000
# 4 0.0000 0.0000 0.0000 24.7425 0.0000 0.0000
# 5 0.0000 0.0000 0.0000 0.0000 23.8509 0.0000
# 6 0.0000 0.0000 0.0000 0.0000 0.0000 25.6052
#
#
#
# Elastic Compliance Matrix: (Units=1/GPa)
#
#
# Indices 1 2 3 4 5 6 
#
# 1 0.037309 -0.004863 0.000639 0.000000 0.000000 0.000000
# 2 -0.004863 0.009475 -0.005392 0.000000 0.000000 0.000000
# 3 0.000639 -0.005392 0.015292 0.000000 0.000000 0.000000
# 4 0.000000 0.000000 0.000000 0.040416 0.000000 0.000000
# 5 0.000000 0.000000 0.000000 0.000000 0.041927 0.000000
# 6 0.000000 0.000000 0.000000 0.000000 0.000000 0.039055
#
#
# Mechanical properties :
#
#
# Convention : Reuss Voigt Hill
#
# Bulk Modulus (GPa) = 23.34030 44.40003 33.87016
# Shear Modulus (GPa) = 23.04288 26.98364 25.01326
#
# Velocity S-wave (km/s) = 3.55122 3.84290 3.69994
# Velocity P-wave (km/s) = 5.43956 6.63251 6.06544
#
# Compressibility (1/GPa) = 0.04284435
#
# Stress axis : x y z
#
# Youngs Moduli (GPa) = 26.80341 105.54460 65.39157
#
# Poissons Ratio (x) = 0.51329 -0.04179
# Poissons Ratio (y) = 0.13035 0.35256
# Poissons Ratio (z) = -0.01713 0.56905
#
# Static dielectric constant tensor:
#      x y z
#    x 3.208320 0.000000 0.000000 
#    y 0.000000 3.694600 0.000000 
#    z 0.000000 0.000000 3.173020 
# 
# 
# High freq. dielectric constant tensor:
#      x y z
#    x 1.699510 0.000000 0.000000 
#    y 0.000000 1.719520 0.000000 
#    z 0.000000 0.000000 1.681630 
# 
# From -- ./inp_files/10628.got.cif
#   From: 2010.03.12/outbox.cif.g09.slc.cpg/sg40_6_cif.got.tgz:10628.got - 2010.04.14 01:38:03.
