data_PCOD8182995
_publ_section_title
;
Structure prediction by ZEFSAII (Michael W. Deem and Ramdas Pophale) SiO2 
 PCOD8182995
Probable space group: A M A 2
;
_chemical_formula_sum "Si O2"
_cell_formula_units_Z 64
_cell_length_a 9.018331
_cell_length_b 14.529430
_cell_length_c 27.211608
_cell_angle_alpha 90.000000
_cell_angle_beta 90.000000
_cell_angle_gamma 90.000000
_cell_volume 3565.569895
_symmetry_space_group_name_H-M "A M A 2"
_symmetry_group_IT_number 40
_symmetry_cell_setting 'orthorhombic'
loop_
_space_group_symop_operation_xyz
x,y,z
-x,-y,z
1/2-x,y,z
1/2+x,-y,z
x,1/2+y,1/2+z
-x,1/2-y,1/2+z
1/2-x,1/2+y,1/2+z
1/2+x,1/2-y,1/2+z
loop_
_atom_site_type_symbol
_atom_site_label
_atom_site_fract_x
_atom_site_fract_y
_atom_site_fract_z
Si Si1 0.924207 0.221995 0.878010
Si Si2 0.922775 0.911729 0.684954
Si Si3 0.580854 0.154841 0.774704
Si Si4 0.579032 0.906849 0.067526
Si Si5 0.581533 0.214234 0.142198
Si Si6 0.084386 0.327851 0.747056
Si Si7 0.923480 0.905121 0.953494
Si Si8 0.919220 0.591089 0.846244
O O1 0.750000 0.238429 0.886907
O O2 0.949810 0.149226 0.833251
O O3 0.000178 0.179322 0.925780
O O4 0.000479 0.319634 0.867796
O O5 0.750000 0.927988 0.683408
O O6 0.968634 0.817589 0.657440
O O7 0.975354 0.909930 0.742141
O O8 0.000000 0.000000 0.659128
O O9 0.750000 0.130760 0.761891
O O10 0.547992 0.259909 0.760659
O O11 0.750000 0.920848 0.078760
O O12 0.520886 0.820104 0.098276
O O13 0.500000 0.000000 0.084812
O O14 0.548137 0.885946 0.010730
O O15 0.750000 0.214998 0.123161
O O16 0.564266 0.145660 0.189585
O O17 0.250000 0.280710 0.751552
O O18 0.075672 0.410885 0.786171
O O19 0.750000 0.910657 0.940698
O O20 0.000000 0.000000 0.937179
O O21 0.750000 0.590635 0.864921
O O22 0.000000 0.500000 0.866029
#
# Coordination Sequence:
#
# PCOD8182995 Si02
#       8
#     8   8   8   8   8   8   8   8
#     4  10  20  34  53  77 103 134 172 212 256 304
#     4  10  20  33  50  73 103 139 175 209 247 293
#     4   9  17  29  46  69  97 129 166 205 244 288
#     4  10  21  36  55  78 102 129 163 205 254 307
#     4   9  18  33  52  75 103 134 169 209 253 299
#     4   8  16  30  46  67  97 132 168 205 244 286
#     4  10  21  37  56  78 102 129 163 206 257 310
#     4  10  19  32  50  73 105 142 177 213 251 295
#
# _framework density 17.949444
#
# number of rings (size 3 to 8) (size 9 to 14) (size 15 to 20)
#    0.000    2.500    0.000    3.000    0.000    7.000 
#    0.000    1.250    0.000    0.750    0.000    1.750 
#    0.000    0.000    0.000    0.000    0.000    0.000 
#
# Total GULP energy -396596.912913 kJ/mol
# GULP energy per Si atom -12393.653529 kJ/mol
# Density = 1.790859 g / cm^3
# Si number density = 17.949444 Si / 1000 Ang^3
#
#
#
# Elastic Constant Matrix: (Units=GPa)
#
#
# Indices 1 2 3 4 5 6 
#
# 1 115.4758 61.6767 53.0170 0.0000 0.0000 0.0000
# 2 61.6767 105.9291 51.2691 0.0000 0.0000 0.0000
# 3 53.0170 51.2691 74.5159 0.0000 0.0000 0.0000
# 4 0.0000 0.0000 0.0000 23.3723 0.0000 0.0000
# 5 0.0000 0.0000 0.0000 0.0000 27.2635 0.0000
# 6 0.0000 0.0000 0.0000 0.0000 0.0000 33.7820
#
#
#
# Elastic Compliance Matrix: (Units=1/GPa)
#
#
# Indices 1 2 3 4 5 6 
#
# 1 0.014542 -0.005186 -0.006778 0.000000 0.000000 0.000000
# 2 -0.005186 0.016003 -0.007321 0.000000 0.000000 0.000000
# 3 -0.006778 -0.007321 0.023279 0.000000 0.000000 0.000000
# 4 0.000000 0.000000 0.000000 0.042786 0.000000 0.000000
# 5 0.000000 0.000000 0.000000 0.000000 0.036679 0.000000
# 6 0.000000 0.000000 0.000000 0.000000 0.000000 0.029602
#
#
# Mechanical properties :
#
#
# Convention : Reuss Voigt Hill
#
# Bulk Modulus (GPa) = 65.55529 69.76070 67.65800
# Shear Modulus (GPa) = 24.20785 25.54745 24.87765
#
# Velocity S-wave (km/s) = 3.67641 3.77676 3.72692
# Velocity P-wave (km/s) = 7.39072 7.61367 7.50302
#
# Compressibility (1/GPa) = 0.01525430
#
# Stress axis : x y z
#
# Youngs Moduli (GPa) = 68.76742 62.48764 42.95713
#
# Poissons Ratio (x) = 0.32409 0.29116
# Poissons Ratio (y) = 0.35666 0.31447
# Poissons Ratio (z) = 0.46609 0.45744
#
# Static dielectric constant tensor:
#      x y z
#    x 3.415610 0.000000 0.000000 
#    y 0.000000 3.142030 0.000000 
#    z 0.000000 0.000000 3.212350 
# 
# 
# High freq. dielectric constant tensor:
#      x y z
#    x 1.710370 0.000000 0.000000 
#    y 0.000000 1.677040 0.000000 
#    z 0.000000 0.000000 1.672420 
# 
# From -- ./inp_files/24270.got.cif
#   From: 2010.03.12/outbox.cif.g09.slc.cpg/sg40_13_cif.got.tgz:24270.got - 2010.04.14 01:38:03.
