data_PCOD8182890
_publ_section_title
;
Structure prediction by ZEFSAII (Michael W. Deem and Ramdas Pophale) SiO2 
 PCOD8182890
Probable space group: A M A 2
;
_chemical_formula_sum "Si O2"
_cell_formula_units_Z 64
_cell_length_a 8.924590
_cell_length_b 22.089497
_cell_length_c 15.584966
_cell_angle_alpha 90.000000
_cell_angle_beta 90.000000
_cell_angle_gamma 90.000000
_cell_volume 3072.415585
_symmetry_space_group_name_H-M "A M A 2"
_symmetry_group_IT_number 40
_symmetry_cell_setting 'orthorhombic'
loop_
_space_group_symop_operation_xyz
x,y,z
-x,-y,z
1/2-x,y,z
1/2+x,-y,z
x,1/2+y,1/2+z
-x,1/2-y,1/2+z
1/2-x,1/2+y,1/2+z
1/2+x,1/2-y,1/2+z
loop_
_atom_site_type_symbol
_atom_site_label
_atom_site_fract_x
_atom_site_fract_y
_atom_site_fract_z
Si Si1 0.427694 0.433994 0.322940
Si Si2 0.424224 0.690306 0.060645
Si Si3 0.576679 0.935849 0.989220
Si Si4 0.926955 0.324416 0.251409
Si Si5 0.573160 0.939678 0.494920
Si Si6 0.081643 0.893087 0.335200
Si Si7 0.417216 0.259008 0.904903
Si Si8 0.423355 0.064925 0.176733
O O1 0.500000 0.500000 0.309509
O O2 0.250000 0.439584 0.322045
O O3 0.487711 0.402890 0.412193
O O4 0.485706 0.388516 0.249831
O O5 0.250000 0.693318 0.040665
O O6 0.461751 0.707278 0.159460
O O7 0.479886 0.621138 0.044283
O O8 0.497030 0.739658 0.996113
O O9 0.750000 0.943092 0.962582
O O10 0.500000 0.000000 0.999099
O O11 0.559980 0.904260 0.082087
O O12 0.750000 0.336343 0.259274
O O13 0.988012 0.283569 0.330529
O O14 0.750000 0.947460 0.497165
O O15 0.515411 0.935806 0.397081
O O16 0.500000 0.000000 0.537578
O O17 0.250000 0.919150 0.329734
O O18 0.083428 0.825491 0.367786
O O19 0.005384 0.890647 0.242157
O O20 0.250000 0.235722 0.924857
O O21 0.250000 0.057204 0.200663
O O22 0.500000 0.000000 0.182064
#
# Coordination Sequence:
#
# PCOD8182890 Si02
#       8
#     8   8   8   8   8   8   8   8
#     4  11  22  37  59  87 117 151 189 233 286 346
#     4   9  20  38  61  85 116 153 192 239 290 342
#     4   9  17  31  50  72 105 145 184 227 280 333
#     4  10  21  41  64  87 118 154 192 238 292 347
#     4  10  19  32  51  78 110 147 187 232 284 342
#     4  10  19  32  50  74 106 147 190 235 286 342
#     4   9  20  39  61  82 112 151 191 239 292 340
#     4  10  19  30  47  73 106 146 189 237 287 340
#
# _framework density 20.830515999999999
#
# number of rings (size 3 to 8) (size 9 to 14) (size 15 to 20)
#    0.000    2.250    0.000    3.750    0.000    4.000 
#    2.250    1.250    0.000    0.000    0.000    0.000 
#    0.000    0.000    0.000    0.000    0.000    0.000 
#
# Total GULP energy -396595.523699 kJ/mol
# GULP energy per Si atom -12393.610116 kJ/mol
# Density = 2.078311 g / cm^3
# Si number density = 20.830516 Si / 1000 Ang^3
#
#
#
# Elastic Constant Matrix: (Units=GPa)
#
#
# Indices 1 2 3 4 5 6 
#
# 1 106.2065 26.5597 49.3576 0.0000 0.0000 0.0000
# 2 26.5597 51.7207 39.0816 0.0000 0.0000 0.0000
# 3 49.3576 39.0816 129.7277 0.0000 0.0000 0.0000
# 4 0.0000 0.0000 0.0000 22.6336 0.0000 0.0000
# 5 0.0000 0.0000 0.0000 0.0000 32.1178 0.0000
# 6 0.0000 0.0000 0.0000 0.0000 0.0000 20.6945
#
#
#
# Elastic Compliance Matrix: (Units=1/GPa)
#
#
# Indices 1 2 3 4 5 6 
#
# 1 0.011904 -0.003484 -0.003480 0.000000 0.000000 0.000000
# 2 -0.003484 0.026053 -0.006523 0.000000 0.000000 0.000000
# 3 -0.003480 -0.006523 0.010998 0.000000 0.000000 0.000000
# 4 0.000000 0.000000 0.000000 0.044182 0.000000 0.000000
# 5 0.000000 0.000000 0.000000 0.000000 0.031135 0.000000
# 6 0.000000 0.000000 0.000000 0.000000 0.000000 0.048322
#
#
# Mechanical properties :
#
#
# Convention : Reuss Voigt Hill
#
# Bulk Modulus (GPa) = 45.49337 57.51698 51.50518
# Shear Modulus (GPa) = 24.16705 26.59958 25.38332
#
# Velocity S-wave (km/s) = 3.40983 3.57732 3.49458
# Velocity P-wave (km/s) = 6.11472 6.68841 6.40799
#
# Compressibility (1/GPa) = 0.02198122
#
# Stress axis : x y z
#
# Youngs Moduli (GPa) = 84.00632 38.38387 90.92970
#
# Poissons Ratio (x) = 0.13371 0.31640
# Poissons Ratio (y) = 0.29264 0.59315
# Poissons Ratio (z) = 0.29231 0.25038
#
# Static dielectric constant tensor:
#      x y z
#    x 3.822400 0.000000 0.000000 
#    y 0.000000 3.506650 0.000000 
#    z 0.000000 0.000000 4.253890 
# 
# 
# High freq. dielectric constant tensor:
#      x y z
#    x 1.813940 0.000000 0.000000 
#    y 0.000000 1.790560 0.000000 
#    z 0.000000 0.000000 1.822540 
# 
# From -- ./inp_files/15597.got.cif
#   From: 2010.03.12/outbox.cif.g09.slc.cpg/sg40_8_cif.got.tgz:15597.got - 2010.04.14 01:38:03.
