data_PCOD8182488
_publ_section_title
;
Structure prediction by ZEFSAII (Michael W. Deem and Ramdas Pophale) SiO2 
 PCOD8182488
Probable space group: A M A 2
;
_chemical_formula_sum "Si O2"
_cell_formula_units_Z 64
_cell_length_a 8.902556
_cell_length_b 18.438256
_cell_length_c 25.995334
_cell_angle_alpha 90.000000
_cell_angle_beta 90.000000
_cell_angle_gamma 90.000000
_cell_volume 4267.071858
_symmetry_space_group_name_H-M "A M A 2"
_symmetry_group_IT_number 40
_symmetry_cell_setting 'orthorhombic'
loop_
_space_group_symop_operation_xyz
x,y,z
-x,-y,z
1/2-x,y,z
1/2+x,-y,z
x,1/2+y,1/2+z
-x,1/2-y,1/2+z
1/2-x,1/2+y,1/2+z
1/2+x,1/2-y,1/2+z
loop_
_atom_site_type_symbol
_atom_site_label
_atom_site_fract_x
_atom_site_fract_y
_atom_site_fract_z
Si Si1 0.924575 0.661297 0.302280
Si Si2 0.928457 0.076376 0.015869
Si Si3 0.085234 0.789450 0.259727
Si Si4 0.576150 0.073309 0.899591
Si Si5 0.572411 0.423262 0.210463
Si Si6 0.584317 0.787854 0.650702
Si Si7 0.072429 0.159707 0.104434
Si Si8 0.071370 0.423430 0.698684
O O1 0.750000 0.653930 0.289674
O O2 0.963535 0.638290 0.360603
O O3 0.972060 0.745695 0.296571
O O4 0.011834 0.608337 0.263957
O O5 0.750000 0.073765 0.024267
O O6 0.002491 0.139534 0.049539
O O7 0.974769 0.094612 0.957123
O O8 0.000000 0.000000 0.032892
O O9 0.250000 0.789794 0.285829
O O10 0.095429 0.750158 0.205435
O O11 0.031588 0.871467 0.247398
O O12 0.750000 0.055620 0.899434
O O13 0.500000 0.000000 0.879902
O O14 0.500000 0.500000 0.197655
O O15 0.750000 0.431310 0.216258
O O16 0.530993 0.370236 0.162358
O O17 0.750000 0.786857 0.624762
O O18 0.467854 0.744207 0.614979
O O19 0.250000 0.149871 0.104228
O O20 0.001022 0.106652 0.146580
O O21 0.250000 0.428835 0.690396
O O22 0.000000 0.500000 0.712639
#
# Coordination Sequence:
#
# PCOD8182488 Si02
#       8
#     8   8   8   8   8   8   8   8
#     4  10  18  28  43  62  83 109 142 173 204 242
#     4  10  19  32  45  58  81 109 139 174 209 242
#     4   8  16  29  42  58  81 108 136 167 203 242
#     4   9  19  31  43  60  81 108 140 174 207 240
#     4  10  19  29  42  61  85 112 141 170 203 242
#     4   8  16  30  43  57  80 109 138 168 202 240
#     4  11  20  29  43  62  82 107 140 172 206 245
#     4  10  19  30  43  60  83 110 140 170 203 243
#
# _framework density 14.998575000000001
#
# number of rings (size 3 to 8) (size 9 to 14) (size 15 to 20)
#    0.000    2.500    0.000    4.875    0.000    8.000 
#    0.000    0.000    0.000    0.000    0.000    0.000 
#    0.000    1.000    0.000    8.500    0.000    5.875 
#
# Total GULP energy -396667.059403 kJ/mol
# GULP energy per Si atom -12395.845606 kJ/mol
# Density = 1.496444 g / cm^3
# Si number density = 14.998575 Si / 1000 Ang^3
#
#
#
# Elastic Constant Matrix: (Units=GPa)
#
#
# Indices 1 2 3 4 5 6 
#
# 1 89.5158 52.1041 41.2561 0.0000 0.0000 0.0000
# 2 52.1041 115.8677 48.5256 0.0000 0.0000 0.0000
# 3 41.2561 48.5256 66.5010 0.0000 0.0000 0.0000
# 4 0.0000 0.0000 0.0000 21.1888 0.0000 0.0000
# 5 0.0000 0.0000 0.0000 0.0000 18.9459 0.0000
# 6 0.0000 0.0000 0.0000 0.0000 0.0000 25.5429
#
#
#
# Elastic Compliance Matrix: (Units=1/GPa)
#
#
# Indices 1 2 3 4 5 6 
#
# 1 0.017269 -0.004722 -0.007268 0.000000 0.000000 0.000000
# 2 -0.004722 0.013720 -0.007082 0.000000 0.000000 0.000000
# 3 -0.007268 -0.007082 0.024714 0.000000 0.000000 0.000000
# 4 0.000000 0.000000 0.000000 0.047195 0.000000 0.000000
# 5 0.000000 0.000000 0.000000 0.000000 0.052782 0.000000
# 6 0.000000 0.000000 0.000000 0.000000 0.000000 0.039150
#
#
# Mechanical properties :
#
#
# Convention : Reuss Voigt Hill
#
# Bulk Modulus (GPa) = 56.94950 61.73956 59.34453
# Shear Modulus (GPa) = 20.93569 21.80210 21.36890
#
# Velocity S-wave (km/s) = 3.74015 3.81676 3.77865
# Velocity P-wave (km/s) = 7.53021 7.78952 7.66096
#
# Compressibility (1/GPa) = 0.01755942
#
# Stress axis : x y z
#
# Youngs Moduli (GPa) = 57.90597 72.88705 40.46287
#
# Poissons Ratio (x) = 0.34417 0.29409
# Poissons Ratio (y) = 0.27343 0.28656
# Poissons Ratio (z) = 0.42086 0.51618
#
# Static dielectric constant tensor:
#      x y z
#    x 2.998620 0.000000 0.000000 
#    y 0.000000 3.229540 0.000000 
#    z 0.000000 0.000000 2.771890 
# 
# 
# High freq. dielectric constant tensor:
#      x y z
#    x 1.588060 0.000000 0.000000 
#    y 0.000000 1.566730 0.000000 
#    z 0.000000 0.000000 1.536500 
# 
# From -- ./inp_files/24433.got.cif
#   From: 2010.03.12/outbox.cif.g09.slc.cpg/sg40_13_cif.got.tgz:24433.got - 2010.04.14 01:38:03.
