data_PCOD8182251
_publ_section_title
;
Structure prediction by ZEFSAII (Michael W. Deem and Ramdas Pophale) SiO2 
 PCOD8182251
Probable space group: A B M 2
;
_chemical_formula_sum "Si O2"
_cell_formula_units_Z 56
_cell_length_a 14.273840
_cell_length_b 15.923223
_cell_length_c 11.075680
_cell_angle_alpha 90.000000
_cell_angle_beta 90.000000
_cell_angle_gamma 90.000000
_cell_volume 2517.341881
_symmetry_space_group_name_H-M "A B M 2"
_symmetry_group_IT_number 39
_symmetry_cell_setting 'orthorhombic'
loop_
_space_group_symop_operation_xyz
x,y,z
-x,-y,z
-x,1/2+y,z
x,1/2-y,z
x,1/2+y,1/2+z
-x,1/2-y,1/2+z
-x,y,1/2+z
x,-y,1/2+z
loop_
_atom_site_type_symbol
_atom_site_label
_atom_site_fract_x
_atom_site_fract_y
_atom_site_fract_z
Si Si1 0.741446 0.575126 0.866340
Si Si2 0.643408 0.342603 0.158942
Si Si3 0.101908 0.490779 0.686811
Si Si4 0.838500 0.842802 0.525796
Si Si5 0.715038 0.657021 0.309999
Si Si6 0.404000 0.544019 0.952120
Si Si7 0.173816 0.843400 0.580692
O O1 0.657267 0.616303 0.789911
O O2 0.814447 0.522610 0.783060
O O3 0.687295 0.516705 0.964071
O O4 0.795554 0.646412 0.941283
O O5 0.596691 0.250000 0.170345
O O6 0.745125 0.334474 0.102668
O O7 0.580787 0.403328 0.074996
O O8 0.098363 0.414905 0.587912
O O9 0.108544 0.578969 0.615544
O O10 0.000000 0.500000 0.751033
O O11 0.888836 0.750000 0.526067
O O12 0.807993 0.869203 0.389153
O O13 0.687962 0.750000 0.352451
O O14 0.623027 0.602349 0.337867
O O15 0.736073 0.652296 0.168500
O O16 0.500000 0.500000 0.918164
O O17 0.126841 0.750000 0.593259
#
# Coordination Sequence:
#
# PCOD8182251 Si02
#       7
#     8   8   8   8   8   8   8
#     4  11  22  42  64  93 131 173 215 269 330 390
#     4   9  19  39  63  85 117 164 208 256 321 391
#     4  11  24  40  66  94 137 175 222 275 336 394
#     4   8  16  35  65  90 116 165 218 263 321 391
#     4   9  18  38  65  92 127 172 216 270 333 392
#     4  11  22  37  66  95 127 164 223 271 319 382
#     4  11  23  41  65  95 130 171 222 278 329 388
#
# _framework density 22.245688000000001
#
# number of rings (size 3 to 8) (size 9 to 14) (size 15 to 20)
#    0.000    2.000    1.429    4.286    0.000    2.286 
#    0.000    2.857    0.000    0.000    0.000    0.000 
#    0.000    0.000    0.000    0.000    0.000    0.000 
#
# Total GULP energy -346916.658803 kJ/mol
# GULP energy per Si atom -12389.880672 kJ/mol
# Density = 2.219506 g / cm^3
# Si number density = 22.245688 Si / 1000 Ang^3
#
#
#
# Elastic Constant Matrix: (Units=GPa)
#
#
# Indices 1 2 3 4 5 6 
#
# 1 88.7301 40.7187 14.7729 0.0000 0.0000 0.0000
# 2 40.7187 161.4569 37.1675 0.0000 0.0000 0.0000
# 3 14.7729 37.1675 87.3672 0.0000 0.0000 0.0000
# 4 0.0000 0.0000 0.0000 26.3895 0.0000 0.0000
# 5 0.0000 0.0000 0.0000 0.0000 7.8786 0.0000
# 6 0.0000 0.0000 0.0000 0.0000 0.0000 7.7013
#
#
#
# Elastic Compliance Matrix: (Units=1/GPa)
#
#
# Indices 1 2 3 4 5 6 
#
# 1 0.012806 -0.003028 -0.000877 0.000000 0.000000 0.000000
# 2 -0.003028 0.007582 -0.002713 0.000000 0.000000 0.000000
# 3 -0.000877 -0.002713 0.012749 0.000000 0.000000 0.000000
# 4 0.000000 0.000000 0.000000 0.037894 0.000000 0.000000
# 5 0.000000 0.000000 0.000000 0.000000 0.126927 0.000000
# 6 0.000000 0.000000 0.000000 0.000000 0.000000 0.129849
#
#
# Mechanical properties :
#
#
# Convention : Reuss Voigt Hill
#
# Bulk Modulus (GPa) = 50.25309 58.09694 54.17502
# Shear Modulus (GPa) = 14.38125 24.72020 19.55073
#
# Velocity S-wave (km/s) = 2.54534 3.33714 2.96776
# Velocity P-wave (km/s) = 5.59262 6.40479 6.01244
#
# Compressibility (1/GPa) = 0.01989927
#
# Stress axis : x y z
#
# Youngs Moduli (GPa) = 78.09111 131.89503 78.43963
#
# Poissons Ratio (x) = 0.39932 0.06882
# Poissons Ratio (y) = 0.23642 0.21285
# Poissons Ratio (z) = 0.06851 0.35790
#
# Static dielectric constant tensor:
#      x y z
#    x 3.331690 0.000000 0.000000 
#    y 0.000000 4.629270 0.000000 
#    z 0.000000 0.000000 4.076650 
# 
# 
# High freq. dielectric constant tensor:
#      x y z
#    x 1.816540 0.000000 0.000000 
#    y 0.000000 1.904050 0.000000 
#    z 0.000000 0.000000 1.870450 
# 
# From -- ./inp_files/6506.got.cif
#   From: 2010.03.12/outbox.cif.g09.slc.cpg/sg39_4_cif.got.tgz:6506.got - 2010.04.14 02:53:20.
