data_PCOD8182670
_publ_section_title
;
Structure prediction by ZEFSAII (Michael W. Deem and Ramdas Pophale) SiO2 
 PCOD8182670
Probable space group: A M A 2
;
_chemical_formula_sum "Si O2"
_cell_formula_units_Z 56
_cell_length_a 13.612454
_cell_length_b 14.684923
_cell_length_c 12.505292
_cell_angle_alpha 90.000000
_cell_angle_beta 90.000000
_cell_angle_gamma 90.000000
_cell_volume 2499.780845
_symmetry_space_group_name_H-M "A M A 2"
_symmetry_group_IT_number 40
_symmetry_cell_setting 'orthorhombic'
loop_
_space_group_symop_operation_xyz
x,y,z
-x,-y,z
1/2-x,y,z
1/2+x,-y,z
x,1/2+y,1/2+z
-x,1/2-y,1/2+z
1/2-x,1/2+y,1/2+z
1/2+x,1/2-y,1/2+z
loop_
_atom_site_type_symbol
_atom_site_label
_atom_site_fract_x
_atom_site_fract_y
_atom_site_fract_z
Si Si1 0.139228 0.969876 0.530620
Si Si2 0.545779 0.692492 0.131285
Si Si3 0.364799 0.815074 0.855927
Si Si4 0.864764 0.377495 0.622215
Si Si5 0.860766 0.392950 0.218829
Si Si6 0.134353 0.115760 0.365371
Si Si7 0.364610 0.004932 0.925512
O O1 0.250000 0.941259 0.498599
O O2 0.070900 0.880690 0.538658
O O3 0.137645 0.018359 0.645000
O O4 0.091419 0.037369 0.441957
O O5 0.619846 0.675207 0.229385
O O6 0.566874 0.793108 0.086702
O O7 0.432758 0.684192 0.170837
O O8 0.250000 0.812406 0.879209
O O9 0.409611 0.716896 0.894696
O O10 0.412038 0.903552 0.915077
O O11 0.750000 0.350176 0.611523
O O12 0.889667 0.409063 0.742533
O O13 0.891238 0.460036 0.543160
O O14 0.750000 0.351911 0.224729
O O15 0.902377 0.425012 0.334287
O O16 0.250000 0.119596 0.385903
O O17 0.250000 0.996242 0.904427
#
# Coordination Sequence:
#
# PCOD8182670 Si02
#       7
#     8   8   8   8   8   8   8
#     4  10  18  31  54  84 117 144 182 238 283 329
#     4  11  19  32  56  87 107 151 192 237 280 334
#     4   9  16  30  55  86 114 147 192 230 271 336
#     4   9  18  34  56  85 117 152 190 226 279 346
#     4  10  21  35  54  84 113 144 189 242 293 326
#     4   8  16  30  51  81 116 152 189 225 270 339
#     4   9  17  32  56  83 119 150 183 238 285 330
#
# _framework density 22.401962999999999
#
# number of rings (size 3 to 8) (size 9 to 14) (size 15 to 20)
#    0.000    2.571    1.429    2.571    0.000    0.000 
#    5.143    0.000    3.143    0.000    7.429    0.000 
#    0.000    0.000    0.000    0.000    0.000    0.000 
#
# Total GULP energy -347041.016403 kJ/mol
# GULP energy per Si atom -12394.322014 kJ/mol
# Density = 2.235098 g / cm^3
# Si number density = 22.401963 Si / 1000 Ang^3
#
#
#
# Elastic Constant Matrix: (Units=GPa)
#
#
# Indices 1 2 3 4 5 6 
#
# 1 65.2922 22.2425 15.4123 0.0000 0.0000 0.0000
# 2 22.2425 132.7730 74.8105 0.0000 0.0000 0.0000
# 3 15.4123 74.8105 106.8569 0.0000 0.0000 0.0000
# 4 0.0000 0.0000 0.0000 37.6498 0.0000 0.0000
# 5 0.0000 0.0000 0.0000 0.0000 8.0437 0.0000
# 6 0.0000 0.0000 0.0000 0.0000 0.0000 12.9761
#
#
#
# Elastic Compliance Matrix: (Units=1/GPa)
#
#
# Indices 1 2 3 4 5 6 
#
# 1 0.016277 -0.002319 -0.000724 0.000000 0.000000 0.000000
# 2 -0.002319 0.012768 -0.008605 0.000000 0.000000 0.000000
# 3 -0.000724 -0.008605 0.015487 0.000000 0.000000 0.000000
# 4 0.000000 0.000000 0.000000 0.026561 0.000000 0.000000
# 5 0.000000 0.000000 0.000000 0.000000 0.124321 0.000000
# 6 0.000000 0.000000 0.000000 0.000000 0.000000 0.077065
#
#
# Mechanical properties :
#
#
# Convention : Reuss Voigt Hill
#
# Bulk Modulus (GPa) = 47.08857 58.87252 52.98055
# Shear Modulus (GPa) = 16.50967 24.56437 20.53702
#
# Velocity S-wave (km/s) = 2.71767 3.31498 3.03107
# Velocity P-wave (km/s) = 5.55996 6.40228 5.99593
#
# Compressibility (1/GPa) = 0.02123658
#
# Stress axis : x y z
#
# Youngs Moduli (GPa) = 61.43796 78.31858 64.57042
#
# Poissons Ratio (x) = 0.18158 0.04678
# Poissons Ratio (y) = 0.14245 0.55561
# Poissons Ratio (z) = 0.04451 0.67391
#
# Static dielectric constant tensor:
#      x y z
#    x 3.884640 0.000000 0.000000 
#    y 0.000000 4.189920 0.000000 
#    z 0.000000 0.000000 3.915200 
# 
# 
# High freq. dielectric constant tensor:
#      x y z
#    x 1.873370 0.000000 0.000000 
#    y 0.000000 1.866960 0.000000 
#    z 0.000000 0.000000 1.868100 
# 
# From -- ./inp_files/12233.got.cif
#   From: 2010.03.12/outbox.cif.g09.slc.cpg/sg40_7_cif.got.tgz:12233.got - 2010.04.14 01:38:03.
