data_PCOD8182095
_publ_section_title
;
Structure prediction by ZEFSAII (Michael W. Deem and Ramdas Pophale) SiO2 
 PCOD8182095
Probable space group: A B M 2
;
_chemical_formula_sum "Si O2"
_cell_formula_units_Z 36
_cell_length_a 7.628530
_cell_length_b 17.211591
_cell_length_c 14.510031
_cell_angle_alpha 90.000000
_cell_angle_beta 90.000000
_cell_angle_gamma 90.000000
_cell_volume 1905.154567
_symmetry_space_group_name_H-M "A B M 2"
_symmetry_group_IT_number 39
_symmetry_cell_setting 'orthorhombic'
loop_
_space_group_symop_operation_xyz
x,y,z
-x,-y,z
-x,1/2+y,z
x,1/2-y,z
x,1/2+y,1/2+z
-x,1/2-y,1/2+z
-x,y,1/2+z
x,-y,1/2+z
loop_
_atom_site_type_symbol
_atom_site_label
_atom_site_fract_x
_atom_site_fract_y
_atom_site_fract_z
Si Si1 0.653941 0.340932 0.340340
Si Si2 0.000000 0.500000 0.968313
Si Si3 0.004810 0.414614 0.291845
Si Si4 0.661731 0.659970 0.207215
Si Si5 0.647820 0.063528 0.525838
O O1 0.680627 0.250000 0.354463
O O2 0.815929 0.374340 0.281374
O O3 0.477830 0.361203 0.285517
O O4 0.641379 0.379480 0.439556
O O5 0.950164 0.427076 0.900958
O O6 0.163666 0.478763 0.032743
O O7 0.000000 0.500000 0.243435
O O8 0.146104 0.359846 0.244320
O O9 0.655547 0.750000 0.180658
O O10 0.612441 0.611564 0.117527
O O11 0.500000 0.000000 0.513049
#
# Coordination Sequence:
#
# PCOD8182095 Si02
#       5
#     8   4   8   8   8
#     4  10  22  41  61  85 122 156 190 244 299 345
#     4   8  20  36  56  90 110 146 194 236 292 334
#     4   9  20  37  62  85 111 153 196 238 291 347
#     4  11  24  38  59  89 120 156 195 240 296 349
#     4  11  23  36  60  87 118 154 198 240 282 347
#
# _framework density 18.896106
#
# number of rings (size 3 to 8) (size 9 to 14) (size 15 to 20)
#    0.667    1.333    0.000    2.667    4.667    0.000 
#    0.000    0.000    0.000    8.000    0.000    0.000 
#    0.000    0.000    0.000    0.000    0.000    0.000 
#
# Total GULP energy -223188.341357 kJ/mol
# GULP energy per Si atom -12399.352298 kJ/mol
# Density = 1.885310 g / cm^3
# Si number density = 18.896106 Si / 1000 Ang^3
#
#
#
# Elastic Constant Matrix: (Units=GPa)
#
#
# Indices 1 2 3 4 5 6 
#
# 1 97.8519 50.2262 22.7194 0.0000 0.0000 0.0000
# 2 50.2262 86.9731 29.9503 0.0000 0.0000 0.0000
# 3 22.7194 29.9503 57.7265 0.0000 0.0000 0.0000
# 4 0.0000 0.0000 0.0000 96.6296 0.0000 0.0000
# 5 0.0000 0.0000 0.0000 0.0000 1.6652 0.0000
# 6 0.0000 0.0000 0.0000 0.0000 0.0000 37.2638
#
#
#
# Elastic Compliance Matrix: (Units=1/GPa)
#
#
# Indices 1 2 3 4 5 6 
#
# 1 0.014657 -0.007887 -0.001677 0.000000 0.000000 0.000000
# 2 -0.007887 0.018243 -0.006361 0.000000 0.000000 0.000000
# 3 -0.001677 -0.006361 0.021283 0.000000 0.000000 0.000000
# 4 0.000000 0.000000 0.000000 0.010349 0.000000 0.000000
# 5 0.000000 0.000000 0.000000 0.000000 0.600540 0.000000
# 6 0.000000 0.000000 0.000000 0.000000 0.000000 0.026836
#
#
# Mechanical properties :
#
#
# Convention : Reuss Voigt Hill
#
# Bulk Modulus (GPa) = 44.77435 49.81592 47.29514
# Shear Modulus (GPa) = 6.83806 36.42208 21.63007
#
# Velocity S-wave (km/s) = 1.90437 4.39508 3.38699
# Velocity P-wave (km/s) = 5.34621 7.22329 6.35444
#
# Compressibility (1/GPa) = 0.02233422
#
# Stress axis : x y z
#
# Youngs Moduli (GPa) = 68.22641 54.81580 46.98555
#
# Poissons Ratio (x) = 0.43233 0.07878
# Poissons Ratio (y) = 0.53810 0.29887
# Poissons Ratio (z) = 0.11439 0.34868
#
# Static dielectric constant tensor:
#      x y z
#    x 3.524480 0.000000 0.000000 
#    y 0.000000 3.447640 0.000000 
#    z 0.000000 0.000000 3.273690 
# 
# 
# High freq. dielectric constant tensor:
#      x y z
#    x 1.744390 0.000000 0.000000 
#    y 0.000000 1.738050 0.000000 
#    z 0.000000 0.000000 1.726130 
# 
# From -- ./inp_files/7350.got.cif
#   From: 2010.03.12/outbox.cif.g09.slc.cpg/sg39_4_cif.got.tgz:7350.got - 2010.04.14 02:53:20.
