data_PCOD8182405
_publ_section_title
;
Structure prediction by ZEFSAII (Michael W. Deem and Ramdas Pophale) SiO2 
 PCOD8182405
Probable space group: A M A 2
;
_chemical_formula_sum "Si O2"
_cell_formula_units_Z 64
_cell_length_a 17.692588
_cell_length_b 12.274014
_cell_length_c 16.305659
_cell_angle_alpha 90.000000
_cell_angle_beta 90.000000
_cell_angle_gamma 90.000000
_cell_volume 3540.921790
_symmetry_space_group_name_H-M "A M A 2"
_symmetry_group_IT_number 40
_symmetry_cell_setting 'orthorhombic'
loop_
_space_group_symop_operation_xyz
x,y,z
-x,-y,z
1/2-x,y,z
1/2+x,-y,z
x,1/2+y,1/2+z
-x,1/2-y,1/2+z
1/2-x,1/2+y,1/2+z
1/2+x,1/2-y,1/2+z
loop_
_atom_site_type_symbol
_atom_site_label
_atom_site_fract_x
_atom_site_fract_y
_atom_site_fract_z
Si Si1 0.340093 0.294514 0.149610
Si Si2 0.588851 0.495074 0.073960
Si Si3 0.160693 0.903699 0.246725
Si Si4 0.338536 0.031341 0.400066
Si Si5 0.161061 0.713474 0.136095
Si Si6 0.838957 0.734200 0.331945
Si Si7 0.839606 0.125254 0.991941
Si Si8 0.839960 0.441743 0.605912
O O1 0.250000 0.304036 0.146915
O O2 0.376212 0.390543 0.098741
O O3 0.371447 0.297481 0.242964
O O4 0.368492 0.182477 0.106645
O O5 0.500000 0.500000 0.081009
O O6 0.618290 0.401451 0.135422
O O7 0.612434 0.471422 0.981255
O O8 0.250000 0.913299 0.239106
O O9 0.136707 0.781936 0.217732
O O10 0.137068 0.930834 0.340340
O O11 0.126640 0.993996 0.184636
O O12 0.250000 0.026287 0.423609
O O13 0.358459 0.141139 0.351539
O O14 0.250000 0.689482 0.135707
O O15 0.136038 0.781797 0.056307
O O16 0.750000 0.718943 0.329257
O O17 0.873759 0.654649 0.402435
O O18 0.750000 0.126299 0.986698
O O19 0.867262 0.006125 0.023564
O O20 0.750000 0.442839 0.610683
#
# Coordination Sequence:
#
# PCOD8182405 Si02
#       8
#     8   8   8   8   8   8   8   8
#     4  10  19  33  53  76 103 134 170 220 272 312
#     4  12  25  37  48  70 108 151 188 214 255 311
#     4   8  14  26  53  87 108 122 160 224 274 309
#     4  10  17  32  57  84 107 130 169 221 269 313
#     4   9  16  31  55  79 102 133 171 215 266 315
#     4   9  15  26  51  84 105 125 167 212 253 310
#     4   8  13  23  47  82 107 124 156 206 257 310
#     4   8  13  24  46  80 111 127 152 203 267 315
#
# _framework density 18.074389
#
# number of rings (size 3 to 8) (size 9 to 14) (size 15 to 20)
#    0.000    2.750    2.500    2.625    0.000    0.000 
#    0.000    2.500    0.000    6.750    0.000    0.000 
#    0.000    0.000    0.000    0.000    0.000    0.000 
#
# Total GULP energy -396526.179155 kJ/mol
# GULP energy per Si atom -12391.443099 kJ/mol
# Density = 1.803325 g / cm^3
# Si number density = 18.074389 Si / 1000 Ang^3
#
#
#
# Elastic Constant Matrix: (Units=GPa)
#
#
# Indices 1 2 3 4 5 6 
#
# 1 28.6807 20.8467 7.2436 0.0000 0.0000 0.0000
# 2 20.8467 107.8165 24.8841 0.0000 0.0000 0.0000
# 3 7.2436 24.8841 54.8870 0.0000 0.0000 0.0000
# 4 0.0000 0.0000 0.0000 35.0787 0.0000 0.0000
# 5 0.0000 0.0000 0.0000 0.0000 6.6909 0.0000
# 6 0.0000 0.0000 0.0000 0.0000 0.0000 -4.5995
#
#
#
# Elastic Compliance Matrix: (Units=1/GPa)
#
#
# Indices 1 2 3 4 5 6 
#
# 1 0.040767 -0.007417 -0.002018 0.000000 0.000000 0.000000
# 2 -0.007417 0.011708 -0.004329 0.000000 0.000000 0.000000
# 3 -0.002018 -0.004329 0.020448 0.000000 0.000000 0.000000
# 4 0.000000 0.000000 0.000000 0.028507 0.000000 0.000000
# 5 0.000000 0.000000 0.000000 0.000000 0.149456 0.000000
# 6 0.000000 0.000000 0.000000 0.000000 0.000000 -0.217413
#
#
# Mechanical properties :
#
#
# Convention : Reuss Voigt Hill
#
# Bulk Modulus (GPa) = 22.02826 33.03700 27.53263
# Shear Modulus (GPa) = 65.67433 16.66135 41.16784
#
# Velocity S-wave (km/s) = 6.03444 3.03944 4.77769
# Velocity P-wave (km/s) = 7.79529 5.53495 6.76026
#
# Compressibility (1/GPa) = 0.04539622
#
# Stress axis : x y z
#
# Youngs Moduli (GPa) = 24.52956 85.40945 48.90373
#
# Poissons Ratio (x) = 0.63347 0.09867
# Poissons Ratio (y) = 0.18193 0.21172
# Poissons Ratio (z) = 0.04949 0.36977
#
# Static dielectric constant tensor:
#      x y z
#    x 2.715250 0.000000 0.000000 
#    y 0.000000 3.605470 0.000000 
#    z 0.000000 0.000000 3.665980 
# 
# 
# High freq. dielectric constant tensor:
#      x y z
#    x 1.632200 0.000000 0.000000 
#    y 0.000000 1.703420 0.000000 
#    z 0.000000 0.000000 1.699260 
# 
# From -- ./inp_files/21206.got.cif
#   From: 2010.03.12/outbox.cif.g09.slc.cpg/sg40_11_cif.got.tgz:21206.got - 2010.04.14 01:38:03.
