data_PCOD8182581
_publ_section_title
;
Structure prediction by ZEFSAII (Michael W. Deem and Ramdas Pophale) SiO2 
 PCOD8182581
Probable space group: A M A 2
;
_chemical_formula_sum "Si O2"
_cell_formula_units_Z 64
_cell_length_a 8.495347
_cell_length_b 18.591390
_cell_length_c 26.425273
_cell_angle_alpha 90.000000
_cell_angle_beta 90.000000
_cell_angle_gamma 90.000000
_cell_volume 4173.615790
_symmetry_space_group_name_H-M "A M A 2"
_symmetry_group_IT_number 40
_symmetry_cell_setting 'orthorhombic'
loop_
_space_group_symop_operation_xyz
x,y,z
-x,-y,z
1/2-x,y,z
1/2+x,-y,z
x,1/2+y,1/2+z
-x,1/2-y,1/2+z
1/2-x,1/2+y,1/2+z
1/2+x,1/2-y,1/2+z
loop_
_atom_site_type_symbol
_atom_site_label
_atom_site_fract_x
_atom_site_fract_y
_atom_site_fract_z
Si Si1 0.931609 0.076016 0.674910
Si Si2 0.430617 0.791283 0.214633
Si Si3 0.563364 0.579046 0.656877
Si Si4 0.434820 0.424032 0.362505
Si Si5 0.064568 0.330938 0.560069
Si Si6 0.430627 0.283469 0.121962
Si Si7 0.435305 0.577961 0.471730
Si Si8 0.062914 0.157141 0.770342
O O1 0.750000 0.068102 0.690113
O O2 0.952281 0.130173 0.626820
O O3 0.022155 0.103575 0.724599
O O4 0.000000 0.000000 0.657164
O O5 0.250000 0.799354 0.228262
O O6 0.500367 0.871681 0.204550
O O7 0.448804 0.750967 0.161511
O O8 0.502442 0.738489 0.257650
O O9 0.500000 0.500000 0.664146
O O10 0.750000 0.577387 0.657634
O O11 0.506861 0.613250 0.603677
O O12 0.500000 0.500000 0.342161
O O13 0.250000 0.429997 0.372406
O O14 0.519854 0.402857 0.414425
O O15 0.473160 0.363999 0.321170
O O16 0.250000 0.320516 0.559972
O O17 0.982277 0.252264 0.568512
O O18 0.009822 0.360689 0.506384
O O19 0.250000 0.263218 0.134558
O O20 0.500000 0.500000 0.487699
O O21 0.250000 0.577400 0.478592
O O22 0.250000 0.155371 0.778828
#
# Coordination Sequence:
#
# PCOD8182581 Si02
#       8
#     8   8   8   8   8   8   8   8
#     4  10  19  29  42  62  87 114 145 178 213 254
#     4   8  16  29  42  57  81 111 141 173 210 253
#     4   9  17  27  40  60  84 111 141 171 204 244
#     4  11  21  33  46  62  85 111 142 178 214 251
#     4  10  19  31  45  61  84 115 147 176 212 254
#     4   9  17  28  42  61  83 108 141 179 213 248
#     4  11  21  33  47  64  86 112 144 179 214 249
#     4  10  18  30  46  61  81 112 146 178 214 253
#
# _framework density 15.334427
#
# number of rings (size 3 to 8) (size 9 to 14) (size 15 to 20)
#    0.000    2.250    0.000    6.000    0.000    5.500 
#    0.000    0.000    0.000    0.000    0.000    0.000 
#    0.000    1.000    0.000    6.250    0.000    4.250 
#
# Total GULP energy -396496.461910 kJ/mol
# GULP energy per Si atom -12390.514435 kJ/mol
# Density = 1.529952 g / cm^3
# Si number density = 15.334427 Si / 1000 Ang^3
#
#
#
# Elastic Constant Matrix: (Units=GPa)
#
#
# Indices 1 2 3 4 5 6 
#
# 1 48.7159 22.9029 10.5506 0.0000 0.0000 0.0000
# 2 22.9029 105.6953 46.0446 0.0000 0.0000 0.0000
# 3 10.5506 46.0446 63.8962 0.0000 0.0000 0.0000
# 4 0.0000 0.0000 0.0000 25.1452 0.0000 0.0000
# 5 0.0000 0.0000 0.0000 0.0000 21.2502 0.0000
# 6 0.0000 0.0000 0.0000 0.0000 0.0000 22.9436
#
#
#
# Elastic Compliance Matrix: (Units=1/GPa)
#
#
# Indices 1 2 3 4 5 6 
#
# 1 0.022859 -0.004823 -0.000299 0.000000 0.000000 0.000000
# 2 -0.004823 0.014808 -0.009874 0.000000 0.000000 0.000000
# 3 -0.000299 -0.009874 0.022815 0.000000 0.000000 0.000000
# 4 0.000000 0.000000 0.000000 0.039769 0.000000 0.000000
# 5 0.000000 0.000000 0.000000 0.000000 0.047058 0.000000
# 6 0.000000 0.000000 0.000000 0.000000 0.000000 0.043585
#
#
# Mechanical properties :
#
#
# Convention : Reuss Voigt Hill
#
# Bulk Modulus (GPa) = 32.79788 41.92261 37.36025
# Shear Modulus (GPa) = 21.64019 23.12175 22.38097
#
# Velocity S-wave (km/s) = 3.76069 3.88730 3.82452
# Velocity P-wave (km/s) = 6.34759 6.89538 6.62715
#
# Compressibility (1/GPa) = 0.03048977
#
# Stress axis : x y z
#
# Youngs Moduli (GPa) = 43.74561 67.53143 43.83001
#
# Poissons Ratio (x) = 0.32571 0.01310
# Poissons Ratio (y) = 0.21099 0.43280
# Poissons Ratio (z) = 0.01308 0.66683
#
# Static dielectric constant tensor:
#      x y z
#    x 3.023410 0.000000 0.000000 
#    y 0.000000 3.483930 0.000000 
#    z 0.000000 0.000000 2.809720 
# 
# 
# High freq. dielectric constant tensor:
#      x y z
#    x 1.601290 0.000000 0.000000 
#    y 0.000000 1.580750 0.000000 
#    z 0.000000 0.000000 1.551480 
# 
# From -- ./inp_files/24388.got.cif
#   From: 2010.03.12/outbox.cif.g09.slc.cpg/sg40_13_cif.got.tgz:24388.got - 2010.04.14 01:38:03.
