data_PCOD8182960
_publ_section_title
;
Structure prediction by ZEFSAII (Michael W. Deem and Ramdas Pophale) SiO2 
 PCOD8182960
Probable space group: A M A 2
;
_chemical_formula_sum "Si O2"
_cell_formula_units_Z 64
_cell_length_a 9.032522
_cell_length_b 18.501408
_cell_length_c 20.730717
_cell_angle_alpha 90.000000
_cell_angle_beta 90.000000
_cell_angle_gamma 90.000000
_cell_volume 3464.400810
_symmetry_space_group_name_H-M "A M A 2"
_symmetry_group_IT_number 40
_symmetry_cell_setting 'orthorhombic'
loop_
_space_group_symop_operation_xyz
x,y,z
-x,-y,z
1/2-x,y,z
1/2+x,-y,z
x,1/2+y,1/2+z
-x,1/2-y,1/2+z
1/2-x,1/2+y,1/2+z
1/2+x,1/2-y,1/2+z
loop_
_atom_site_type_symbol
_atom_site_label
_atom_site_fract_x
_atom_site_fract_y
_atom_site_fract_z
Si Si1 0.577447 0.838527 0.164550
Si Si2 0.411919 0.848568 0.039027
Si Si3 0.576951 0.424785 0.789864
Si Si4 0.088411 0.177397 0.534176
Si Si5 0.574598 0.925649 0.779944
Si Si6 0.572841 0.313760 0.896524
Si Si7 0.573360 0.812340 0.671798
Si Si8 0.425071 0.850000 0.895694
O O1 0.750000 0.820892 0.161107
O O2 0.524729 0.870613 0.095780
O O3 0.540859 0.898854 0.217783
O O4 0.495137 0.765714 0.185961
O O5 0.250000 0.881830 0.055019
O O6 0.395732 0.763237 0.035002
O O7 0.465825 0.875265 0.968592
O O8 0.500000 0.500000 0.804177
O O9 0.750000 0.434901 0.800869
O O10 0.513907 0.365778 0.840406
O O11 0.250000 0.140486 0.533402
O O12 0.007271 0.157814 0.466283
O O13 0.010917 0.156349 0.602475
O O14 0.750000 0.934953 0.782498
O O15 0.524429 0.866157 0.727844
O O16 0.514878 0.903058 0.849614
O O17 0.500000 0.000000 0.758183
O O18 0.750000 0.313157 0.901642
O O19 0.519974 0.232060 0.882234
O O20 0.750000 0.803186 0.667475
O O21 0.250000 0.857411 0.883018
#
# Coordination Sequence:
#
# PCOD8182960 Si02
#       8
#     8   8   8   8   8   8   8   8
#     4  10  19  31  51  77 102 129 164 209 253 293
#     4   8  15  29  51  77 101 126 158 198 247 302
#     4  10  21  34  47  68  98 132 167 201 241 286
#     4   7  11  24  48  74  96 120 154 195 238 287
#     4  11  23  36  50  71 102 137 171 210 253 301
#     4   8  14  28  52  76  96 123 161 201 241 291
#     4   9  18  33  53  76 100 130 168 206 248 298
#     4   9  17  33  57  79  99 127 163 204 252 306
#
# _framework density 18.473614000000001
#
# number of rings (size 3 to 8) (size 9 to 14) (size 15 to 20)
#    0.000    3.000    0.000    3.750    0.000    3.500 
#    0.000    1.875    0.000    4.500    0.000    0.000 
#    0.000    0.000    0.000    0.000    0.000    0.000 
#
# Total GULP energy -396511.912266 kJ/mol
# GULP energy per Si atom -12390.997258 kJ/mol
# Density = 1.843157 g / cm^3
# Si number density = 18.473614 Si / 1000 Ang^3
#
#
#
# Elastic Constant Matrix: (Units=GPa)
#
#
# Indices 1 2 3 4 5 6 
#
# 1 39.3664 15.7562 23.5206 0.0000 0.0000 0.0000
# 2 15.7562 43.8970 11.2409 0.0000 0.0000 0.0000
# 3 23.5206 11.2409 100.8359 0.0000 0.0000 0.0000
# 4 0.0000 0.0000 0.0000 7.9595 0.0000 0.0000
# 5 0.0000 0.0000 0.0000 0.0000 22.8841 0.0000
# 6 0.0000 0.0000 0.0000 0.0000 0.0000 24.3699
#
#
#
# Elastic Compliance Matrix: (Units=1/GPa)
#
#
# Indices 1 2 3 4 5 6 
#
# 1 0.033518 -0.010323 -0.006667 0.000000 0.000000 0.000000
# 2 -0.010323 0.026630 -0.000561 0.000000 0.000000 0.000000
# 3 -0.006667 -0.000561 0.011535 0.000000 0.000000 0.000000
# 4 0.000000 0.000000 0.000000 0.125636 0.000000 0.000000
# 5 0.000000 0.000000 0.000000 0.000000 0.043698 0.000000
# 6 0.000000 0.000000 0.000000 0.000000 0.000000 0.041034
#
#
# Mechanical properties :
#
#
# Convention : Reuss Voigt Hill
#
# Bulk Modulus (GPa) = 27.33774 31.68162 29.50968
# Shear Modulus (GPa) = 15.18155 19.94815 17.56485
#
# Velocity S-wave (km/s) = 2.86981 3.28962 3.08686
# Velocity P-wave (km/s) = 5.08050 5.62279 5.35851
#
# Compressibility (1/GPa) = 0.03657947
#
# Stress axis : x y z
#
# Youngs Moduli (GPa) = 29.83474 37.55221 86.69404
#
# Poissons Ratio (x) = 0.38767 0.57803
# Poissons Ratio (y) = 0.30800 0.04860
# Poissons Ratio (z) = 0.19892 0.02105
#
# Static dielectric constant tensor:
#      x y z
#    x 3.097360 0.000000 0.000000 
#    y 0.000000 3.063340 0.000000 
#    z 0.000000 0.000000 4.004700 
# 
# 
# High freq. dielectric constant tensor:
#      x y z
#    x 1.684380 0.000000 0.000000 
#    y 0.000000 1.680420 0.000000 
#    z 0.000000 0.000000 1.742200 
# 
# From -- ./inp_files/22516.got.cif
#   From: 2010.03.12/outbox.cif.g09.slc.cpg/sg40_12_cif.got.tgz:22516.got - 2010.04.14 01:38:03.
