data_PCOD8182371
_publ_section_title
;
Structure prediction by ZEFSAII (Michael W. Deem and Ramdas Pophale) SiO2 
 PCOD8182371
Probable space group: A M A 2
;
_chemical_formula_sum "Si O2"
_cell_formula_units_Z 40
_cell_length_a 8.639169
_cell_length_b 15.603645
_cell_length_c 18.640123
_cell_angle_alpha 90.000000
_cell_angle_beta 90.000000
_cell_angle_gamma 90.000000
_cell_volume 2512.735669
_symmetry_space_group_name_H-M "A M A 2"
_symmetry_group_IT_number 40
_symmetry_cell_setting 'orthorhombic'
loop_
_space_group_symop_operation_xyz
x,y,z
-x,-y,z
1/2-x,y,z
1/2+x,-y,z
x,1/2+y,1/2+z
-x,1/2-y,1/2+z
1/2-x,1/2+y,1/2+z
1/2+x,1/2-y,1/2+z
loop_
_atom_site_type_symbol
_atom_site_label
_atom_site_fract_x
_atom_site_fract_y
_atom_site_fract_z
Si Si1 0.431797 0.586412 0.035700
Si Si2 0.431710 0.408574 0.613430
Si Si3 0.425562 0.241273 0.032357
Si Si4 0.933249 0.906865 0.264762
Si Si5 0.427236 0.846998 0.402478
O O1 0.500000 0.500000 0.072045
O O2 0.250000 0.589539 0.046939
O O3 0.508212 0.672081 0.070880
O O4 0.478876 0.584406 0.951168
O O5 0.500000 0.500000 0.590379
O O6 0.250000 0.418422 0.623067
O O7 0.470785 0.340267 0.551897
O O8 0.504574 0.375772 0.687965
O O9 0.250000 0.226153 0.058241
O O10 0.433611 0.255709 0.945542
O O11 0.750000 0.910015 0.262768
O O12 0.992018 0.839882 0.324929
O O13 0.000000 0.000000 0.284010
O O14 0.250000 0.877652 0.394088
#
# Coordination Sequence:
#
# PCOD8182371 Si02
#       5
#     8   8   8   8   8
#     4  10  17  27  43  66  94 125 156 191 237 283
#     4  11  21  34  51  70  98 131 167 203 245 292
#     4   9  19  33  48  68  96 127 164 203 242 288
#     4  11  20  30  46  68  98 129 162 197 243 296
#     4   9  18  30  45  66  96 126 157 195 237 286
#
# _framework density 15.918906
#
# number of rings (size 3 to 8) (size 9 to 14) (size 15 to 20)
#    1.200    0.800    0.000    7.800    0.000    0.000 
#    0.000    0.000    0.000    0.000    0.000    1.400 
#    0.000    6.400    0.000    0.000    0.000    0.000 
#
# Total GULP energy -247817.514005 kJ/mol
# GULP energy per Si atom -12390.875700 kJ/mol
# Density = 1.588267 g / cm^3
# Si number density = 15.918906 Si / 1000 Ang^3
#
#
#
# Elastic Constant Matrix: (Units=GPa)
#
#
# Indices 1 2 3 4 5 6 
#
# 1 135.2534 32.0477 28.1231 0.0000 0.0000 0.0000
# 2 32.0477 86.5782 35.2511 0.0000 0.0000 0.0000
# 3 28.1231 35.2511 54.4568 0.0000 0.0000 0.0000
# 4 0.0000 0.0000 0.0000 21.6559 0.0000 0.0000
# 5 0.0000 0.0000 0.0000 0.0000 23.9215 0.0000
# 6 0.0000 0.0000 0.0000 0.0000 0.0000 27.4660
#
#
#
# Elastic Compliance Matrix: (Units=1/GPa)
#
#
# Indices 1 2 3 4 5 6 
#
# 1 0.008494 -0.001844 -0.003193 0.000000 0.000000 0.000000
# 2 -0.001844 0.016084 -0.009459 0.000000 0.000000 0.000000
# 3 -0.003193 -0.009459 0.026135 0.000000 0.000000 0.000000
# 4 0.000000 0.000000 0.000000 0.046177 0.000000 0.000000
# 5 0.000000 0.000000 0.000000 0.000000 0.041803 0.000000
# 6 0.000000 0.000000 0.000000 0.000000 0.000000 0.036409
#
#
# Mechanical properties :
#
#
# Convention : Reuss Voigt Hill
#
# Bulk Modulus (GPa) = 46.03824 51.90355 48.97090
# Shear Modulus (GPa) = 23.65894 26.66643 25.16269
#
# Velocity S-wave (km/s) = 3.85933 4.09729 3.98009
# Velocity P-wave (km/s) = 6.98874 7.42021 7.20770
#
# Compressibility (1/GPa) = 0.02172107
#
# Stress axis : x y z
#
# Youngs Moduli (GPa) = 117.72433 62.17212 38.26235
#
# Poissons Ratio (x) = 0.11466 0.12217
# Poissons Ratio (y) = 0.21711 0.36194
# Poissons Ratio (z) = 0.37589 0.58811
#
# Static dielectric constant tensor:
#      x y z
#    x 3.113010 0.000000 0.000000 
#    y 0.000000 2.831790 0.000000 
#    z 0.000000 0.000000 2.804730 
# 
# 
# High freq. dielectric constant tensor:
#      x y z
#    x 1.637700 0.000000 0.000000 
#    y 0.000000 1.587140 0.000000 
#    z 0.000000 0.000000 1.572780 
# 
# From -- ./inp_files/19098.got.cif
#   From: 2010.03.12/outbox.cif.g09.slc.cpg/sg40_10_cif.got.tgz:19098.got - 2010.04.14 01:38:03.
