data_PCOD8182911
_publ_section_title
;
Structure prediction by ZEFSAII (Michael W. Deem and Ramdas Pophale) SiO2 
 PCOD8182911
Probable space group: A M A 2
;
_chemical_formula_sum "Si O2"
_cell_formula_units_Z 64
_cell_length_a 8.450463
_cell_length_b 30.440341
_cell_length_c 14.707803
_cell_angle_alpha 90.000000
_cell_angle_beta 90.000000
_cell_angle_gamma 90.000000
_cell_volume 3783.361342
_symmetry_space_group_name_H-M "A M A 2"
_symmetry_group_IT_number 40
_symmetry_cell_setting 'orthorhombic'
loop_
_space_group_symop_operation_xyz
x,y,z
-x,-y,z
1/2-x,y,z
1/2+x,-y,z
x,1/2+y,1/2+z
-x,1/2-y,1/2+z
1/2-x,1/2+y,1/2+z
1/2+x,1/2-y,1/2+z
loop_
_atom_site_type_symbol
_atom_site_label
_atom_site_fract_x
_atom_site_fract_y
_atom_site_fract_z
Si Si1 0.071602 0.175154 0.836630
Si Si2 0.061059 0.453575 0.414165
Si Si3 0.568406 0.632829 0.504360
Si Si4 0.060714 0.796615 0.140249
Si Si5 0.437220 0.047064 0.711846
Si Si6 0.934047 0.633963 0.162414
Si Si7 0.931676 0.223642 0.334139
Si Si8 0.063838 0.287626 0.033620
O O1 0.250000 0.165941 0.870692
O O2 0.044835 0.225461 0.813391
O O3 0.949575 0.161854 0.914340
O O4 0.040794 0.148058 0.746467
O O5 0.250000 0.453503 0.404402
O O6 0.999027 0.416002 0.484587
O O7 0.000000 0.500000 0.452646
O O8 0.987777 0.443766 0.315750
O O9 0.750000 0.626819 0.527720
O O10 0.491116 0.660276 0.587898
O O11 0.250000 0.796198 0.139671
O O12 0.994700 0.799711 0.244208
O O13 0.008914 0.751776 0.091603
O O14 0.250000 0.048428 0.703614
O O15 0.515784 0.083402 0.644756
O O16 0.500000 0.000000 0.678779
O O17 0.750000 0.637657 0.187469
O O18 0.974907 0.664943 0.076926
O O19 0.750000 0.209898 0.340772
O O20 0.010523 0.211124 0.431198
O O21 0.250000 0.278305 0.028847
#
# Coordination Sequence:
#
# PCOD8182911 Si02
#       8
#     8   8   8   8   8   8   8   8
#     4  11  19  28  47  69  95 129 166 200 235 280
#     4  10  19  31  46  68  97 126 159 195 239 287
#     4  10  20  31  46  69  97 128 161 199 240 285
#     4  10  19  32  49  69  94 126 163 202 241 285
#     4  11  21  33  50  71  97 127 160 195 242 289
#     4  11  21  32  47  69  99 130 165 200 240 287
#     4   9  18  32  47  67  95 126 164 205 238 279
#     4  10  20  33  48  68  95 128 163 201 239 282
#
# _framework density 16.916174999999999
#
# number of rings (size 3 to 8) (size 9 to 14) (size 15 to 20)
#    0.000    1.750    3.750    3.000    0.000    1.000 
#    0.000    0.625    0.000    0.000    0.000    0.875 
#    0.000    2.000    0.000    0.000    0.000    0.500 
#
# Total GULP energy -396576.546168 kJ/mol
# GULP energy per Si atom -12393.017068 kJ/mol
# Density = 1.687767 g / cm^3
# Si number density = 16.916175 Si / 1000 Ang^3
#
#
#
# Elastic Constant Matrix: (Units=GPa)
#
#
# Indices 1 2 3 4 5 6 
#
# 1 30.7828 32.7243 9.0229 0.0000 0.0000 0.0000
# 2 32.7243 113.3613 53.4030 0.0000 0.0000 0.0000
# 3 9.0229 53.4030 105.9984 0.0000 0.0000 0.0000
# 4 0.0000 0.0000 0.0000 25.4996 0.0000 0.0000
# 5 0.0000 0.0000 0.0000 0.0000 12.0600 0.0000
# 6 0.0000 0.0000 0.0000 0.0000 0.0000 19.4589
#
#
#
# Elastic Compliance Matrix: (Units=1/GPa)
#
#
# Indices 1 2 3 4 5 6 
#
# 1 0.048006 -0.015647 0.003796 0.000000 0.000000 0.000000
# 2 -0.015647 0.016666 -0.007065 0.000000 0.000000 0.000000
# 3 0.003796 -0.007065 0.012670 0.000000 0.000000 0.000000
# 4 0.000000 0.000000 0.000000 0.039216 0.000000 0.000000
# 5 0.000000 0.000000 0.000000 0.000000 0.082919 0.000000
# 6 0.000000 0.000000 0.000000 0.000000 0.000000 0.051390
#
#
# Mechanical properties :
#
#
# Convention : Reuss Voigt Hill
#
# Bulk Modulus (GPa) = 25.30813 48.93812 37.12312
# Shear Modulus (GPa) = 16.56348 21.73651 19.14999
#
# Velocity S-wave (km/s) = 3.13253 3.58851 3.36825
# Velocity P-wave (km/s) = 5.29878 6.79430 6.09260
#
# Compressibility (1/GPa) = 0.03951299
#
# Stress axis : x y z
#
# Youngs Moduli (GPa) = 20.83063 60.00184 78.92541
#
# Poissons Ratio (x) = 0.93882 -0.29963
# Poissons Ratio (y) = 0.32593 0.55758
# Poissons Ratio (z) = -0.07908 0.42389
#
# Static dielectric constant tensor:
#      x y z
#    x 3.105540 0.000000 0.000000 
#    y 0.000000 3.481080 0.000000 
#    z 0.000000 0.000000 3.335780 
# 
# 
# High freq. dielectric constant tensor:
#      x y z
#    x 1.644500 0.000000 0.000000 
#    y 0.000000 1.651660 0.000000 
#    z 0.000000 0.000000 1.624680 
# 
# From -- ./inp_files/15881.got.cif
#   From: 2010.03.12/outbox.cif.g09.slc.cpg/sg40_8_cif.got.tgz:15881.got - 2010.04.14 01:38:03.
