data_PCOD8182082
_publ_section_title
;
Structure prediction by ZEFSAII (Michael W. Deem and Ramdas Pophale) SiO2 
 PCOD8182082
Probable space group: A B M 2
;
_chemical_formula_sum "Si O2"
_cell_formula_units_Z 64
_cell_length_a 15.425367
_cell_length_b 8.637102
_cell_length_c 23.646731
_cell_angle_alpha 90.000000
_cell_angle_beta 90.000000
_cell_angle_gamma 90.000000
_cell_volume 3150.465042
_symmetry_space_group_name_H-M "A B M 2"
_symmetry_group_IT_number 39
_symmetry_cell_setting 'orthorhombic'
loop_
_space_group_symop_operation_xyz
x,y,z
-x,-y,z
-x,1/2+y,z
x,1/2-y,z
x,1/2+y,1/2+z
-x,1/2-y,1/2+z
-x,y,1/2+z
x,-y,1/2+z
loop_
_atom_site_type_symbol
_atom_site_label
_atom_site_fract_x
_atom_site_fract_y
_atom_site_fract_z
Si Si1 0.088553 0.932486 0.434000
Si Si2 0.412092 0.432559 0.432876
Si Si3 0.347386 0.932698 0.319962
Si Si4 0.244197 0.069022 0.501864
Si Si5 0.589779 0.431355 0.703289
Si Si6 0.090959 0.932378 0.700923
Si Si7 0.842668 0.066529 0.821278
Si Si8 0.249798 0.569091 0.623088
O O1 0.082406 0.750000 0.425719
O O2 0.165442 0.971508 0.476684
O O3 0.099256 0.013784 0.373429
O O4 0.000000 0.000000 0.460631
O O5 0.500000 0.500000 0.460576
O O6 0.417839 0.250000 0.430018
O O7 0.405004 0.499564 0.370071
O O8 0.331639 0.486627 0.471133
O O9 0.348256 0.750000 0.323517
O O10 0.388278 0.985744 0.261522
O O11 0.250621 0.991945 0.327440
O O12 0.226856 0.250000 0.491529
O O13 0.253201 0.034747 0.567711
O O14 0.500000 0.500000 0.679165
O O15 0.581442 0.250000 0.714738
O O16 0.664055 0.467624 0.658168
O O17 0.083983 0.750000 0.701358
O O18 0.112480 0.993431 0.763825
O O19 0.166764 0.986358 0.658947
O O20 0.000000 0.000000 0.679512
O O21 0.830855 0.250000 0.820989
O O22 0.243459 0.750000 0.607511
#
# Coordination Sequence:
#
# PCOD8182082 Si02
#       8
#     8   8   8   8   8   8   8   8
#     4  12  25  42  66  96 129 168 211 258 315 376
#     4  11  24  42  65  92 128 165 207 258 315 378
#     4  12  23  37  63  96 128 166 208 253 314 380
#     4  11  25  44  66  92 124 165 212 267 317 370
#     4  11  23  42  65  92 128 167 208 260 316 374
#     4  10  22  40  63  92 125 164 203 249 308 366
#     4  11  21  39  64  93 131 167 204 254 314 377
#     4  10  23  44  65  87 123 168 210 260 316 370
#
# _framework density 20.314461999999999
#
# number of rings (size 3 to 8) (size 9 to 14) (size 15 to 20)
#    0.000    1.000    2.500    4.500    0.000    6.000 
#    0.000    3.750    0.000    0.000    0.000    0.000 
#    0.000    0.000    0.000    0.000    0.000    0.000 
#
# Total GULP energy -397011.308568 kJ/mol
# GULP energy per Si atom -12406.603393 kJ/mol
# Density = 2.026823 g / cm^3
# Si number density = 20.314462 Si / 1000 Ang^3
#
#
#
# Elastic Constant Matrix: (Units=GPa)
#
#
# Indices 1 2 3 4 5 6 
#
# 1 167.5731 58.5441 47.0693 0.0000 0.0000 0.0000
# 2 58.5441 133.8730 36.1431 0.0000 0.0000 0.0000
# 3 47.0693 36.1431 104.7492 0.0000 0.0000 0.0000
# 4 0.0000 0.0000 0.0000 28.2993 0.0000 0.0000
# 5 0.0000 0.0000 0.0000 0.0000 9.4505 0.0000
# 6 0.0000 0.0000 0.0000 0.0000 0.0000 36.6913
#
#
#
# Elastic Compliance Matrix: (Units=1/GPa)
#
#
# Indices 1 2 3 4 5 6 
#
# 1 0.007594 -0.002646 -0.002499 0.000000 0.000000 0.000000
# 2 -0.002646 0.009159 -0.001971 0.000000 0.000000 0.000000
# 3 -0.002499 -0.001971 0.011350 0.000000 0.000000 0.000000
# 4 0.000000 0.000000 0.000000 0.035337 0.000000 0.000000
# 5 0.000000 0.000000 0.000000 0.000000 0.105814 0.000000
# 6 0.000000 0.000000 0.000000 0.000000 0.000000 0.027254
#
#
# Mechanical properties :
#
#
# Convention : Reuss Voigt Hill
#
# Bulk Modulus (GPa) = 72.10055 76.63426 74.36740
# Shear Modulus (GPa) = 23.21636 32.51747 27.86691
#
# Velocity S-wave (km/s) = 3.38427 4.00522 3.70777
# Velocity P-wave (km/s) = 7.13024 7.69383 7.41739
#
# Compressibility (1/GPa) = 0.01386952
#
# Stress axis : x y z
#
# Youngs Moduli (GPa) = 131.68166 109.18014 88.10672
#
# Poissons Ratio (x) = 0.28891 0.22021
# Poissons Ratio (y) = 0.34846 0.17368
# Poissons Ratio (z) = 0.32912 0.21522
#
# Static dielectric constant tensor:
#      x y z
#    x 3.920530 0.000000 0.000000 
#    y 0.000000 3.668650 0.000000 
#    z 0.000000 0.000000 3.671780 
# 
# 
# High freq. dielectric constant tensor:
#      x y z
#    x 1.814580 0.000000 0.000000 
#    y 0.000000 1.799920 0.000000 
#    z 0.000000 0.000000 1.789730 
# 
# From -- ./inp_files/16139.got.cif
#   From: 2010.03.12/outbox.cif.g09.slc.cpg/sg39_9_cif.got.tgz:16139.got - 2010.04.14 02:53:20.
