data_PCOD8182903
_publ_section_title
;
Structure prediction by ZEFSAII (Michael W. Deem and Ramdas Pophale) SiO2 
 PCOD8182903
Probable space group: A M A 2
;
_chemical_formula_sum "Si O2"
_cell_formula_units_Z 64
_cell_length_a 9.030796
_cell_length_b 24.610638
_cell_length_c 15.305952
_cell_angle_alpha 90.000000
_cell_angle_beta 90.000000
_cell_angle_gamma 90.000000
_cell_volume 3401.803717
_symmetry_space_group_name_H-M "A M A 2"
_symmetry_group_IT_number 40
_symmetry_cell_setting 'orthorhombic'
loop_
_space_group_symop_operation_xyz
x,y,z
-x,-y,z
1/2-x,y,z
1/2+x,-y,z
x,1/2+y,1/2+z
-x,1/2-y,1/2+z
1/2-x,1/2+y,1/2+z
1/2+x,1/2-y,1/2+z
loop_
_atom_site_type_symbol
_atom_site_label
_atom_site_fract_x
_atom_site_fract_y
_atom_site_fract_z
Si Si1 0.073454 0.941997 0.533440
Si Si2 0.924656 0.556573 0.392273
Si Si3 0.577484 0.359687 0.518720
Si Si4 0.421161 0.216697 0.673016
Si Si5 0.076883 0.861431 0.385530
Si Si6 0.076650 0.887816 0.714207
Si Si7 0.919956 0.736430 0.999165
Si Si8 0.576129 0.659864 0.696664
O O1 0.250000 0.947750 0.531663
O O2 0.010447 0.904978 0.453770
O O3 0.020815 0.915508 0.624683
O O4 0.000000 0.000000 0.522401
O O5 0.750000 0.550979 0.403569
O O6 0.969203 0.573525 0.294229
O O7 0.000000 0.500000 0.415143
O O8 0.983023 0.600341 0.460350
O O9 0.750000 0.375322 0.516295
O O10 0.548867 0.299538 0.480110
O O11 0.520510 0.364040 0.618121
O O12 0.250000 0.202763 0.675476
O O13 0.502003 0.170723 0.729965
O O14 0.476601 0.213037 0.574188
O O15 0.455129 0.276235 0.710693
O O16 0.250000 0.870895 0.384959
O O17 0.042567 0.799303 0.414072
O O18 0.020451 0.869433 0.285963
O O19 0.250000 0.877681 0.711652
O O20 0.750000 0.727943 0.029109
O O21 0.750000 0.650038 0.677425
#
# Coordination Sequence:
#
# PCOD8182903 Si02
#       8
#     8   8   8   8   8   8   8   8
#     4  10  20  36  57  79 109 147 188 228 275 330
#     4  11  24  41  61  84 113 149 193 243 289 341
#     4  10  21  37  60  85 113 149 189 237 291 343
#     4  10  19  30  51  83 117 147 185 233 276 328
#     4   9  17  33  57  80 108 151 192 229 277 334
#     4  10  21  37  56  80 114 153 185 224 281 346
#     4   9  17  33  56  79 111 151 190 226 277 345
#     4   9  19  35  56  82 115 152 191 232 281 336
#
# _framework density 18.813548000000001
#
# number of rings (size 3 to 8) (size 9 to 14) (size 15 to 20)
#    0.000    2.250    1.250    1.500    1.750    2.500 
#    0.000    1.875    0.000    1.500    0.000    0.000 
#    0.000    0.000    0.000    0.000    0.000    0.000 
#
# Total GULP energy -396765.239855 kJ/mol
# GULP energy per Si atom -12398.913745 kJ/mol
# Density = 1.877073 g / cm^3
# Si number density = 18.813548 Si / 1000 Ang^3
#
#
#
# Elastic Constant Matrix: (Units=GPa)
#
#
# Indices 1 2 3 4 5 6 
#
# 1 44.9856 40.5065 38.2525 0.0000 0.0000 0.0000
# 2 40.5065 110.8798 62.7438 0.0000 0.0000 0.0000
# 3 38.2525 62.7438 124.4316 0.0000 0.0000 0.0000
# 4 0.0000 0.0000 0.0000 25.2540 0.0000 0.0000
# 5 0.0000 0.0000 0.0000 0.0000 21.5563 0.0000
# 6 0.0000 0.0000 0.0000 0.0000 0.0000 33.5430
#
#
#
# Elastic Compliance Matrix: (Units=1/GPa)
#
#
# Indices 1 2 3 4 5 6 
#
# 1 0.036305 -0.009721 -0.006259 0.000000 0.000000 0.000000
# 2 -0.009721 0.015223 -0.004687 0.000000 0.000000 0.000000
# 3 -0.006259 -0.004687 0.012324 0.000000 0.000000 0.000000
# 4 0.000000 0.000000 0.000000 0.039598 0.000000 0.000000
# 5 0.000000 0.000000 0.000000 0.000000 0.046390 0.000000
# 6 0.000000 0.000000 0.000000 0.000000 0.000000 0.029813
#
#
# Mechanical properties :
#
#
# Convention : Reuss Voigt Hill
#
# Bulk Modulus (GPa) = 44.41161 62.58917 53.50039
# Shear Modulus (GPa) = 21.88258 25.32359 23.60308
#
# Velocity S-wave (km/s) = 3.41417 3.67281 3.54585
# Velocity P-wave (km/s) = 6.26095 7.16424 6.72777
#
# Compressibility (1/GPa) = 0.02251663
#
# Stress axis : x y z
#
# Youngs Moduli (GPa) = 27.54469 65.69207 81.14069
#
# Poissons Ratio (x) = 0.63859 0.50786
# Poissons Ratio (y) = 0.26776 0.38034
# Poissons Ratio (z) = 0.17240 0.30793
#
# Static dielectric constant tensor:
#      x y z
#    x 3.333860 0.000000 0.000000 
#    y 0.000000 3.465150 0.000000 
#    z 0.000000 0.000000 3.691950 
# 
# 
# High freq. dielectric constant tensor:
#      x y z
#    x 1.717370 0.000000 0.000000 
#    y 0.000000 1.726460 0.000000 
#    z 0.000000 0.000000 1.732200 
# 
# From -- ./inp_files/15657.got.cif
#   From: 2010.03.12/outbox.cif.g09.slc.cpg/sg40_8_cif.got.tgz:15657.got - 2010.04.14 01:38:03.
