data_PCOD8182128
_publ_section_title
;
Structure prediction by ZEFSAII (Michael W. Deem and Ramdas Pophale) SiO2 
 PCOD8182128
Probable space group: A B M 2
;
_chemical_formula_sum "Si O2"
_cell_formula_units_Z 48
_cell_length_a 12.233021
_cell_length_b 17.693051
_cell_length_c 10.525988
_cell_angle_alpha 90.000000
_cell_angle_beta 90.000000
_cell_angle_gamma 90.000000
_cell_volume 2278.239205
_symmetry_space_group_name_H-M "A B M 2"
_symmetry_group_IT_number 39
_symmetry_cell_setting 'orthorhombic'
loop_
_space_group_symop_operation_xyz
x,y,z
-x,-y,z
-x,1/2+y,z
x,1/2-y,z
x,1/2+y,1/2+z
-x,1/2-y,1/2+z
-x,y,1/2+z
x,-y,1/2+z
loop_
_atom_site_type_symbol
_atom_site_label
_atom_site_fract_x
_atom_site_fract_y
_atom_site_fract_z
Si Si1 0.917977 0.162873 0.399520
Si Si2 0.701743 0.164855 0.041907
Si Si3 0.487109 0.335190 0.715371
Si Si4 0.293378 0.911355 0.773502
Si Si5 0.083587 0.662701 0.683378
Si Si6 0.718815 0.911078 0.788901
O O1 0.889157 0.250000 0.371991
O O2 0.967506 0.152646 0.541696
O O3 0.806281 0.114897 0.393360
O O4 0.002632 0.132742 0.293430
O O5 0.749187 0.250000 0.041508
O O6 0.722154 0.128137 0.907857
O O7 0.571557 0.165307 0.076429
O O8 0.764386 0.116683 0.150741
O O9 0.516783 0.250000 0.759553
O O10 0.595176 0.385353 0.706263
O O11 0.399342 0.371550 0.814825
O O12 0.193038 0.887032 0.685578
O O13 0.296792 0.000072 0.792640
O O14 0.113621 0.750000 0.708837
#
# Coordination Sequence:
#
# PCOD8182128 Si02
#       6
#     8   8   8   8   8   8
#     4  10  22  43  67  93 127 170 222 267 322 399
#     4   9  21  40  64  88 124 178 218 256 316 394
#     4   9  20  40  62  90 127 172 215 258 315 392
#     4  12  23  39  64  98 132 163 216 274 332 383
#     4  10  24  41  67  96 125 170 218 271 324 394
#     4  10  23  40  63  95 127 169 209 267 334 383
#
# _framework density 21.068902999999999
#
# number of rings (size 3 to 8) (size 9 to 14) (size 15 to 20)
#    1.000    1.000    0.000    3.000    4.667    2.000 
#    3.000    3.333    0.000    0.000    0.000    0.000 
#    0.000    0.000    0.000    0.000    0.000    0.000 
#
# Total GULP energy -297495.842194 kJ/mol
# GULP energy per Si atom -12395.660091 kJ/mol
# Density = 2.102095 g / cm^3
# Si number density = 21.068903 Si / 1000 Ang^3
#
#
#
# Elastic Constant Matrix: (Units=GPa)
#
#
# Indices 1 2 3 4 5 6 
#
# 1 109.8624 35.6152 26.5159 0.0000 0.0000 0.0000
# 2 35.6152 115.7069 20.1010 0.0000 0.0000 0.0000
# 3 26.5159 20.1010 103.8873 0.0000 0.0000 0.0000
# 4 0.0000 0.0000 0.0000 25.0595 0.0000 0.0000
# 5 0.0000 0.0000 0.0000 0.0000 30.3075 0.0000
# 6 0.0000 0.0000 0.0000 0.0000 0.0000 29.0972
#
#
#
# Elastic Compliance Matrix: (Units=1/GPa)
#
#
# Indices 1 2 3 4 5 6 
#
# 1 0.010550 -0.002876 -0.002136 0.000000 0.000000 0.000000
# 2 -0.002876 0.009727 -0.001148 0.000000 0.000000 0.000000
# 3 -0.002136 -0.001148 0.010393 0.000000 0.000000 0.000000
# 4 0.000000 0.000000 0.000000 0.039905 0.000000 0.000000
# 5 0.000000 0.000000 0.000000 0.000000 0.032995 0.000000
# 6 0.000000 0.000000 0.000000 0.000000 0.000000 0.034368
#
#
# Mechanical properties :
#
#
# Convention : Reuss Voigt Hill
#
# Bulk Modulus (GPa) = 54.49698 54.88008 54.68853
# Shear Modulus (GPa) = 31.97416 33.37449 32.67432
#
# Velocity S-wave (km/s) = 3.89986 3.98435 3.94233
# Velocity P-wave (km/s) = 6.79712 6.87540 6.83637
#
# Compressibility (1/GPa) = 0.01834964
#
# Stress axis : x y z
#
# Youngs Moduli (GPa) = 94.78361 102.80344 96.21681
#
# Poissons Ratio (x) = 0.29570 0.20555
# Poissons Ratio (y) = 0.27263 0.11045
# Poissons Ratio (z) = 0.20249 0.11802
#
# Static dielectric constant tensor:
#      x y z
#    x 3.688660 0.000000 0.000000 
#    y 0.000000 3.689320 0.000000 
#    z 0.000000 0.000000 3.689310 
# 
# 
# High freq. dielectric constant tensor:
#      x y z
#    x 1.814610 0.000000 0.000000 
#    y 0.000000 1.821110 0.000000 
#    z 0.000000 0.000000 1.817860 
# 
# From -- ./inp_files/5838.got.cif
#   From: 2010.03.12/outbox.cif.g09.slc.cpg/sg39_3_cif.got.tgz:5838.got - 2010.04.14 02:53:20.
