data_PCOD8182928
_publ_section_title
;
Structure prediction by ZEFSAII (Michael W. Deem and Ramdas Pophale) SiO2 
 PCOD8182928
Probable space group: A M A 2
;
_chemical_formula_sum "Si O2"
_cell_formula_units_Z 48
_cell_length_a 8.748893
_cell_length_b 24.052068
_cell_length_c 13.658141
_cell_angle_alpha 90.000000
_cell_angle_beta 90.000000
_cell_angle_gamma 90.000000
_cell_volume 2874.068534
_symmetry_space_group_name_H-M "A M A 2"
_symmetry_group_IT_number 40
_symmetry_cell_setting 'orthorhombic'
loop_
_space_group_symop_operation_xyz
x,y,z
-x,-y,z
1/2-x,y,z
1/2+x,-y,z
x,1/2+y,1/2+z
-x,1/2-y,1/2+z
1/2-x,1/2+y,1/2+z
1/2+x,1/2-y,1/2+z
loop_
_atom_site_type_symbol
_atom_site_label
_atom_site_fract_x
_atom_site_fract_y
_atom_site_fract_z
Si Si1 0.570325 0.943456 0.019710
Si Si2 0.929580 0.832546 0.701258
Si Si3 0.431281 0.669283 0.620645
Si Si4 0.931154 0.443132 0.296795
Si Si5 0.931560 0.222178 0.305103
Si Si6 0.069581 0.729508 0.010909
O O1 0.750000 0.949527 0.022191
O O2 0.516695 0.891381 0.084266
O O3 0.500000 0.000000 0.063958
O O4 0.513661 0.934538 0.908362
O O5 0.750000 0.835794 0.714846
O O6 0.999834 0.891654 0.733864
O O7 0.988775 0.783256 0.771884
O O8 0.973191 0.818439 0.589424
O O9 0.250000 0.674195 0.632088
O O10 0.512503 0.677987 0.724765
O O11 0.486169 0.713492 0.539835
O O12 0.750000 0.446176 0.288791
O O13 0.000000 0.500000 0.253274
O O14 0.750000 0.218588 0.314930
O O15 0.010117 0.207429 0.407470
O O16 0.250000 0.740527 0.009470
#
# Coordination Sequence:
#
# PCOD8182928 Si02
#       6
#     8   8   8   8   8   8
#     4   9  18  30  47  69  95 125 156 190 234 283
#     4   8  16  30  47  65  91 123 152 182 227 278
#     4  10  19  32  49  71  97 126 157 194 239 287
#     4   9  16  29  46  66  91 120 150 184 225 272
#     4  10  19  32  49  70  95 125 157 194 237 283
#     4  10  19  31  48  71  95 125 160 194 234 283
#
# _framework density 16.701063000000001
#
# number of rings (size 3 to 8) (size 9 to 14) (size 15 to 20)
#    0.000    2.667    0.000    3.500    0.000    4.000 
#    0.000    8.333    0.000    1.000    0.000    2.333 
#    0.000    0.000    0.000    0.000    0.000    0.000 
#
# Total GULP energy -297567.714450 kJ/mol
# GULP energy per Si atom -12398.654769 kJ/mol
# Density = 1.666305 g / cm^3
# Si number density = 16.701063 Si / 1000 Ang^3
#
#
#
# Elastic Constant Matrix: (Units=GPa)
#
#
# Indices 1 2 3 4 5 6 
#
# 1 28.6079 26.3700 18.4895 0.0000 0.0000 0.0000
# 2 26.3700 147.9061 63.6797 0.0000 0.0000 0.0000
# 3 18.4895 63.6797 106.6641 0.0000 0.0000 0.0000
# 4 0.0000 0.0000 0.0000 23.6303 0.0000 0.0000
# 5 0.0000 0.0000 0.0000 0.0000 26.5815 0.0000
# 6 0.0000 0.0000 0.0000 0.0000 0.0000 26.3188
#
#
#
# Elastic Compliance Matrix: (Units=1/GPa)
#
#
# Indices 1 2 3 4 5 6 
#
# 1 0.042985 -0.005997 -0.003871 0.000000 0.000000 0.000000
# 2 -0.005997 0.009937 -0.004893 0.000000 0.000000 0.000000
# 3 -0.003871 -0.004893 0.012967 0.000000 0.000000 0.000000
# 4 0.000000 0.000000 0.000000 0.042319 0.000000 0.000000
# 5 0.000000 0.000000 0.000000 0.000000 0.037620 0.000000
# 6 0.000000 0.000000 0.000000 0.000000 0.000000 0.037996
#
#
# Mechanical properties :
#
#
# Convention : Reuss Voigt Hill
#
# Bulk Modulus (GPa) = 27.49701 55.58406 41.54054
# Shear Modulus (GPa) = 22.17610 26.94871 24.56240
#
# Velocity S-wave (km/s) = 3.64789 4.02131 3.83914
# Velocity P-wave (km/s) = 5.85173 7.41048 6.67675
#
# Compressibility (1/GPa) = 0.03636759
#
# Stress axis : x y z
#
# Youngs Moduli (GPa) = 23.26384 100.63545 77.11716
#
# Poissons Ratio (x) = 0.60354 0.29850
# Poissons Ratio (y) = 0.13952 0.37732
# Poissons Ratio (z) = 0.09005 0.49239
#
# Static dielectric constant tensor:
#      x y z
#    x 3.013980 0.000000 0.000000 
#    y 0.000000 3.303170 0.000000 
#    z 0.000000 0.000000 3.174610 
# 
# 
# High freq. dielectric constant tensor:
#      x y z
#    x 1.637890 0.000000 0.000000 
#    y 0.000000 1.636490 0.000000 
#    z 0.000000 0.000000 1.633830 
# 
# From -- ./inp_files/10251.got.cif
#   From: 2010.03.12/outbox.cif.g09.slc.cpg/sg40_6_cif.got.tgz:10251.got - 2010.04.14 01:38:03.
