data_PCOD8182028
_publ_section_title
;
Structure prediction by ZEFSAII (Michael W. Deem and Ramdas Pophale) SiO2 
 PCOD8182028
Probable space group: A B M 2
;
_chemical_formula_sum "Si O2"
_cell_formula_units_Z 60
_cell_length_a 5.328193
_cell_length_b 19.781823
_cell_length_c 27.940004
_cell_angle_alpha 90.000000
_cell_angle_beta 90.000000
_cell_angle_gamma 90.000000
_cell_volume 2944.914723
_symmetry_space_group_name_H-M "A B M 2"
_symmetry_group_IT_number 39
_symmetry_cell_setting 'orthorhombic'
loop_
_space_group_symop_operation_xyz
x,y,z
-x,-y,z
-x,1/2+y,z
x,1/2-y,z
x,1/2+y,1/2+z
-x,1/2-y,1/2+z
-x,y,1/2+z
x,-y,1/2+z
loop_
_atom_site_type_symbol
_atom_site_label
_atom_site_fract_x
_atom_site_fract_y
_atom_site_fract_z
Si Si1 0.380126 0.826574 0.452400
Si Si2 0.091598 0.328876 0.184722
Si Si3 0.500000 0.500000 0.084517
Si Si4 0.118373 0.431180 0.014766
Si Si5 0.055153 0.669473 0.793469
Si Si6 0.748094 0.676789 0.538151
Si Si7 0.412404 0.870373 0.131810
Si Si8 0.553406 0.329546 0.343416
O O1 0.264819 0.750000 0.453192
O O2 0.185603 0.882908 0.470323
O O3 0.618462 0.830307 0.486836
O O4 0.459005 0.847610 0.399362
O O5 0.154734 0.250000 0.183270
O O6 0.326821 0.366560 0.160622
O O7 0.064399 0.355135 0.238880
O O8 0.825320 0.342183 0.160237
O O9 0.338261 0.451550 0.050410
O O10 0.648046 0.448811 0.119148
O O11 0.000000 0.500000 0.993651
O O12 0.930138 0.386718 0.046813
O O13 0.051433 0.750000 0.797067
O O14 0.804669 0.639861 0.819010
O O15 0.302460 0.639707 0.819633
O O16 0.886684 0.750000 0.539745
O O17 0.554449 0.673059 0.582658
O O18 0.554345 0.250000 0.335199
#
# Coordination Sequence:
#
# PCOD8182028 Si02
#       8
#     8   8   4   8   8   8   8   8
#     4  10  22  37  58  94 129 166 210 260 319 376
#     4  11  23  39  63  96 128 160 206 260 328 383
#     4  12  26  42  58  86 118 174 226 256 302 378
#     4  12  22  41  60  83 125 172 219 256 302 374
#     4   9  18  35  58  89 126 159 196 255 318 382
#     4  11  23  37  59  90 127 164 204 265 323 373
#     4  12  24  40  61  89 124 169 212 261 310 381
#     4   9  18  33  58  89 126 162 199 249 318 383
#
# _framework density 20.374103999999999
#
# number of rings (size 3 to 8) (size 9 to 14) (size 15 to 20)
#    0.000    1.333    2.667    3.200    1.867    2.133 
#    0.000    0.000    0.000    0.000    6.933    0.000 
#    0.000    0.000    0.000    0.000    0.000    0.000 
#
# Total GULP energy -371838.754171 kJ/mol
# GULP energy per Si atom -12394.625139 kJ/mol
# Density = 2.032773 g / cm^3
# Si number density = 20.374104 Si / 1000 Ang^3
#
#
#
# Elastic Constant Matrix: (Units=GPa)
#
#
# Indices 1 2 3 4 5 6 
#
# 1 130.6447 23.4950 67.2672 0.0000 0.0000 0.0000
# 2 23.4950 101.8567 34.7584 0.0000 0.0000 0.0000
# 3 67.2672 34.7584 163.0960 0.0000 0.0000 0.0000
# 4 0.0000 0.0000 0.0000 -21.1617 0.0000 0.0000
# 5 0.0000 0.0000 0.0000 0.0000 32.9548 0.0000
# 6 0.0000 0.0000 0.0000 0.0000 0.0000 26.3777
#
#
#
# Elastic Compliance Matrix: (Units=1/GPa)
#
#
# Indices 1 2 3 4 5 6 
#
# 1 0.009803 -0.000951 -0.003840 0.000000 0.000000 0.000000
# 2 -0.000951 0.010680 -0.001884 0.000000 0.000000 0.000000
# 3 -0.003840 -0.001884 0.008117 0.000000 0.000000 0.000000
# 4 0.000000 0.000000 0.000000 -0.047255 0.000000 0.000000
# 5 0.000000 0.000000 0.000000 0.000000 0.030345 0.000000
# 6 0.000000 0.000000 0.000000 0.000000 0.000000 0.037911
#
#
# Mechanical properties :
#
#
# Convention : Reuss Voigt Hill
#
# Bulk Modulus (GPa) = 65.57663 71.84874 68.71269
# Shear Modulus (GPa) = 73.49410 25.63929 49.56670
#
# Velocity S-wave (km/s) = 6.01254 3.55128 4.93772
# Velocity P-wave (km/s) = 8.96978 7.22196 8.14290
#
# Compressibility (1/GPa) = 0.01524933
#
# Stress axis : x y z
#
# Youngs Moduli (GPa) = 102.01285 93.63389 123.20120
#
# Poissons Ratio (x) = 0.08901 0.47314
# Poissons Ratio (y) = 0.09698 0.23211
# Poissons Ratio (z) = 0.39177 0.17640
#
# Static dielectric constant tensor:
#      x y z
#    x 3.747880 0.000000 0.000000 
#    y 0.000000 3.669600 0.000000 
#    z 0.000000 0.000000 3.765800 
# 
# 
# High freq. dielectric constant tensor:
#      x y z
#    x 1.799460 0.000000 0.000000 
#    y 0.000000 1.768200 0.000000 
#    z 0.000000 0.000000 1.799310 
# 
# From -- ./inp_files/15344.got.cif
#   From: 2010.03.12/outbox.cif.g09.slc.cpg/sg39_8_cif.got.tgz:15344.got - 2010.04.14 02:53:20.
