data_PCOD8182198
_publ_section_title
;
Structure prediction by ZEFSAII (Michael W. Deem and Ramdas Pophale) SiO2 
 PCOD8182198
Probable space group: A B M 2
;
_chemical_formula_sum "Si O2"
_cell_formula_units_Z 40
_cell_length_a 6.361833
_cell_length_b 20.030037
_cell_length_c 14.753425
_cell_angle_alpha 90.000000
_cell_angle_beta 90.000000
_cell_angle_gamma 90.000000
_cell_volume 1879.995758
_symmetry_space_group_name_H-M "A B M 2"
_symmetry_group_IT_number 39
_symmetry_cell_setting 'orthorhombic'
loop_
_space_group_symop_operation_xyz
x,y,z
-x,-y,z
-x,1/2+y,z
x,1/2-y,z
x,1/2+y,1/2+z
-x,1/2-y,1/2+z
-x,y,1/2+z
x,-y,1/2+z
loop_
_atom_site_type_symbol
_atom_site_label
_atom_site_fract_x
_atom_site_fract_y
_atom_site_fract_z
Si Si1 0.076856 0.357411 0.947390
Si Si2 0.500000 0.500000 0.179093
Si Si3 0.105020 0.432848 0.119057
Si Si4 0.264261 0.750000 0.914966
Si Si5 0.214251 0.615458 0.251523
Si Si6 0.638781 0.750000 0.040147
Si Si7 0.528825 0.250000 0.232166
O O1 0.175537 0.388505 0.858327
O O2 0.875467 0.316007 0.916560
O O3 0.020518 0.415206 0.018607
O O4 0.245654 0.315027 0.003799
O O5 0.356589 0.447110 0.121618
O O6 0.354051 0.549293 0.237035
O O7 0.000000 0.500000 0.149998
O O8 0.005816 0.382196 0.194348
O O9 0.406076 0.750000 0.826320
O O10 0.400641 0.750000 0.005761
O O11 0.329680 0.684113 0.225928
O O12 0.636469 0.750000 0.149214
#
# Coordination Sequence:
#
# PCOD8182198 Si02
#       7
#     8   4   8   4   8   4   4
#     4  11  24  41  65  98 131 173 225 283 338 413
#     4  10  24  46  68 100 136 188 232 284 352 426
#     4  10  24  44  65  96 133 179 229 281 346 411
#     4  11  24  43  62 102 136 170 233 278 352 417
#     4  11  24  44  67 101 138 177 233 283 356 412
#     4  11  23  41  63  97 129 175 225 265 347 408
#     4  12  23  44  71  97 143 189 220 301 353 423
#
# _framework density 21.276643
#
# number of rings (size 3 to 8) (size 9 to 14) (size 15 to 20)
#    0.000    1.200    2.000    3.000    5.600    5.600 
#    0.000    0.000    0.000    0.000    0.000    0.000 
#    0.000    0.000    0.000    0.000    0.000    0.000 
#
# Total GULP energy -247886.783028 kJ/mol
# GULP energy per Si atom -12394.339151 kJ/mol
# Density = 2.122822 g / cm^3
# Si number density = 21.276643 Si / 1000 Ang^3
#
#
#
# Elastic Constant Matrix: (Units=GPa)
#
#
# Indices 1 2 3 4 5 6 
#
# 1 107.3210 39.7576 28.9836 0.0000 0.0000 0.0000
# 2 39.7576 94.0003 30.6915 0.0000 0.0000 0.0000
# 3 28.9836 30.6915 131.6640 0.0000 0.0000 0.0000
# 4 0.0000 0.0000 0.0000 13.4368 0.0000 0.0000
# 5 0.0000 0.0000 0.0000 0.0000 37.6740 0.0000
# 6 0.0000 0.0000 0.0000 0.0000 0.0000 18.9205
#
#
#
# Elastic Compliance Matrix: (Units=1/GPa)
#
#
# Indices 1 2 3 4 5 6 
#
# 1 0.011312 -0.004299 -0.001488 0.000000 0.000000 0.000000
# 2 -0.004299 0.013148 -0.002119 0.000000 0.000000 0.000000
# 3 -0.001488 -0.002119 0.008417 0.000000 0.000000 0.000000
# 4 0.000000 0.000000 0.000000 0.074422 0.000000 0.000000
# 5 0.000000 0.000000 0.000000 0.000000 0.026544 0.000000
# 6 0.000000 0.000000 0.000000 0.000000 0.000000 0.052853
#
#
# Mechanical properties :
#
#
# Convention : Reuss Voigt Hill
#
# Bulk Modulus (GPa) = 58.59588 59.09452 58.84520
# Shear Modulus (GPa) = 24.01596 29.57643 26.79620
#
# Velocity S-wave (km/s) = 3.36333 3.73243 3.55268
# Velocity P-wave (km/s) = 6.53318 6.81245 6.67427
#
# Compressibility (1/GPa) = 0.01706605
#
# Stress axis : x y z
#
# Youngs Moduli (GPa) = 88.40028 76.05650 118.81359
#
# Poissons Ratio (x) = 0.32694 0.17681
# Poissons Ratio (y) = 0.38000 0.25172
# Poissons Ratio (z) = 0.13155 0.16113
#
# Static dielectric constant tensor:
#      x y z
#    x 4.366350 0.000000 0.000000 
#    y 0.000000 4.276110 0.000000 
#    z 0.000000 0.000000 3.832260 
# 
# 
# High freq. dielectric constant tensor:
#      x y z
#    x 1.841790 0.000000 0.000000 
#    y 0.000000 1.844050 0.000000 
#    z 0.000000 0.000000 1.837860 
# 
# From -- ./inp_files/7450.got.cif
#   From: 2010.03.12/outbox.cif.g09.slc.cpg/sg39_4_cif.got.tgz:7450.got - 2010.04.14 02:53:20.
