data_PCOD8182898
_publ_section_title
;
Structure prediction by ZEFSAII (Michael W. Deem and Ramdas Pophale) SiO2 
 PCOD8182898
Probable space group: A M A 2
;
_chemical_formula_sum "Si O2"
_cell_formula_units_Z 52
_cell_length_a 9.167178
_cell_length_b 17.009332
_cell_length_c 14.776546
_cell_angle_alpha 90.000000
_cell_angle_beta 90.000000
_cell_angle_gamma 90.000000
_cell_volume 2304.070971
_symmetry_space_group_name_H-M "A M A 2"
_symmetry_group_IT_number 40
_symmetry_cell_setting 'orthorhombic'
loop_
_space_group_symop_operation_xyz
x,y,z
-x,-y,z
1/2-x,y,z
1/2+x,-y,z
x,1/2+y,1/2+z
-x,1/2-y,1/2+z
1/2-x,1/2+y,1/2+z
1/2+x,1/2-y,1/2+z
loop_
_atom_site_type_symbol
_atom_site_label
_atom_site_fract_x
_atom_site_fract_y
_atom_site_fract_z
Si Si1 0.500000 0.500000 0.767091
Si Si2 0.079263 0.731165 0.321082
Si Si3 0.074535 0.921520 0.774212
Si Si4 0.412458 0.886536 0.419357
Si Si5 0.909170 0.430236 0.591968
Si Si6 0.415074 0.610096 0.088494
Si Si7 0.912398 0.214730 0.125769
O O1 0.412196 0.438888 0.828929
O O2 0.604552 0.449646 0.699970
O O3 0.250000 0.706943 0.316520
O O4 0.046152 0.795622 0.397776
O O5 0.031725 0.771054 0.227129
O O6 0.982322 0.652413 0.334037
O O7 0.250000 0.925766 0.776947
O O8 0.018557 0.914843 0.670672
O O9 0.000000 0.000000 0.815469
O O10 0.250000 0.888098 0.459998
O O11 0.521821 0.923184 0.493986
O O12 0.750000 0.425933 0.547762
O O13 0.000000 0.500000 0.542806
O O14 0.984262 0.346580 0.574620
O O15 0.250000 0.578910 0.105123
O O16 0.415683 0.703410 0.073247
O O17 0.750000 0.178231 0.127256
#
# Coordination Sequence:
#
# PCOD8182898 Si02
#       7
#     4   8   8   8   8   8   8
#     4  10  22  34  52  80 118 148 180 220 278 324
#     4   9  18  36  58  80 110 146 185 232 282 328
#     4  11  22  38  60  86 112 145 190 235 284 337
#     4  11  22  38  57  81 116 155 188 226 278 336
#     4  10  19  30  50  78 107 138 178 222 270 322
#     4  10  23  39  55  79 114 152 186 229 278 332
#     4   9  17  34  54  73 105 144 183 225 274 322
#
# _framework density 22.568750999999999
#
# number of rings (size 3 to 8) (size 9 to 14) (size 15 to 20)
#    0.462    1.538    1.538    3.692    1.077    4.923 
#    0.000    0.000    0.000    0.923    0.000    6.462 
#    0.000    0.000    0.000    0.000    0.000    0.000 
#
# Total GULP energy -322246.186780 kJ/mol
# GULP energy per Si atom -12394.084107 kJ/mol
# Density = 2.251738 g / cm^3
# Si number density = 22.568751 Si / 1000 Ang^3
#
#
#
# Elastic Constant Matrix: (Units=GPa)
#
#
# Indices 1 2 3 4 5 6 
#
# 1 143.2418 49.0098 -3.0775 0.0000 0.0000 0.0000
# 2 49.0098 113.6168 -13.9558 0.0000 0.0000 0.0000
# 3 -3.0775 -13.9558 22.9104 0.0000 0.0000 0.0000
# 4 0.0000 0.0000 0.0000 9.2815 0.0000 0.0000
# 5 0.0000 0.0000 0.0000 0.0000 10.5206 0.0000
# 6 0.0000 0.0000 0.0000 0.0000 0.0000 36.6016
#
#
#
# Elastic Compliance Matrix: (Units=1/GPa)
#
#
# Indices 1 2 3 4 5 6 
#
# 1 0.008217 -0.003685 -0.001141 0.000000 0.000000 0.000000
# 2 -0.003685 0.011166 0.006307 0.000000 0.000000 0.000000
# 3 -0.001141 0.006307 0.047337 0.000000 0.000000 0.000000
# 4 0.000000 0.000000 0.000000 0.107741 0.000000 0.000000
# 5 0.000000 0.000000 0.000000 0.000000 0.095052 0.000000
# 6 0.000000 0.000000 0.000000 0.000000 0.000000 0.027321
#
#
# Mechanical properties :
#
#
# Convention : Reuss Voigt Hill
#
# Bulk Modulus (GPa) = 14.35098 38.19132 26.27115
# Shear Modulus (GPa) = 15.76794 27.80025 21.78409
#
# Velocity S-wave (km/s) = 2.64609 3.51351 3.11019
# Velocity P-wave (km/s) = 3.96337 5.78089 4.95616
#
# Compressibility (1/GPa) = 0.06968165
#
# Stress axis : x y z
#
# Youngs Moduli (GPa) = 121.69242 89.56050 21.12531
#
# Poissons Ratio (x) = 0.33001 0.02410
# Poissons Ratio (y) = 0.44841 -0.13323
# Poissons Ratio (z) = 0.13882 -0.56482
#
# Static dielectric constant tensor:
#      x y z
#    x 3.867270 0.000000 0.000000 
#    y 0.000000 4.233570 0.000000 
#    z 0.000000 0.000000 3.517260 
# 
# 
# High freq. dielectric constant tensor:
#      x y z
#    x 1.879510 0.000000 0.000000 
#    y 0.000000 1.903920 0.000000 
#    z 0.000000 0.000000 1.852940 
# 
# From -- ./inp_files/19356.got.cif
#   From: 2010.03.12/outbox.cif.g09.slc.cpg/sg40_10_cif.got.tgz:19356.got - 2010.04.14 01:38:03.
