data_PCOD8182802
_publ_section_title
;
Structure prediction by ZEFSAII (Michael W. Deem and Ramdas Pophale) SiO2 
 PCOD8182802
Probable space group: A M A 2
;
_chemical_formula_sum "Si O2"
_cell_formula_units_Z 48
_cell_length_a 13.909564
_cell_length_b 17.095638
_cell_length_c 9.930301
_cell_angle_alpha 90.000000
_cell_angle_beta 90.000000
_cell_angle_gamma 90.000000
_cell_volume 2361.354784
_symmetry_space_group_name_H-M "A M A 2"
_symmetry_group_IT_number 40
_symmetry_cell_setting 'orthorhombic'
loop_
_space_group_symop_operation_xyz
x,y,z
-x,-y,z
1/2-x,y,z
1/2+x,-y,z
x,1/2+y,1/2+z
-x,1/2-y,1/2+z
1/2-x,1/2+y,1/2+z
1/2+x,1/2-y,1/2+z
loop_
_atom_site_type_symbol
_atom_site_label
_atom_site_fract_x
_atom_site_fract_y
_atom_site_fract_z
Si Si1 0.145583 0.162589 0.992200
Si Si2 0.496954 0.650335 0.883250
Si Si3 0.360141 0.331786 0.107567
Si Si4 0.402434 0.533371 0.696280
Si Si5 0.354385 0.866409 0.167975
Si Si6 0.943465 0.679717 0.393579
O O1 0.250000 0.165254 0.917456
O O2 0.056895 0.155731 0.888613
O O3 0.130606 0.239391 0.082641
O O4 0.150019 0.090554 0.094416
O O5 0.429049 0.578433 0.836683
O O6 0.567579 0.677124 0.760545
O O7 0.432874 0.726536 0.915812
O O8 0.565649 0.624092 0.007228
O O9 0.250000 0.360532 0.084937
O O10 0.392326 0.350082 0.259090
O O11 0.500000 0.500000 0.629053
O O12 0.339375 0.456028 0.720447
O O13 0.250000 0.825448 0.181882
O O14 0.389670 0.863653 0.014544
#
# Coordination Sequence:
#
# PCOD8182802 Si02
#       6
#     8   8   8   8   8   8
#     4  10  19  34  57  84 116 157 199 242 300 363
#     4  10  19  36  58  83 123 161 197 239 304 367
#     4  10  20  33  56  88 122 157 196 250 310 360
#     4  10  18  36  59  83 114 157 200 241 298 349
#     4  11  22  36  62  90 118 155 210 255 292 360
#     4  11  19  36  56  90 123 154 198 258 310 351
#
# _framework density 20.327314999999999
#
# number of rings (size 3 to 8) (size 9 to 14) (size 15 to 20)
#    0.000    1.667    5.000    2.500    0.000    0.667 
#    0.000    0.000   11.000    2.000    0.000    0.000 
#    0.000    0.000    0.000    0.000    0.000    0.000 
#
# Total GULP energy -297406.451988 kJ/mol
# GULP energy per Si atom -12391.935499 kJ/mol
# Density = 2.028105 g / cm^3
# Si number density = 20.327315 Si / 1000 Ang^3
#
#
#
# Elastic Constant Matrix: (Units=GPa)
#
#
# Indices 1 2 3 4 5 6 
#
# 1 91.3253 13.5777 23.7229 0.0000 0.0000 0.0000
# 2 13.5777 72.1448 15.6726 0.0000 0.0000 0.0000
# 3 23.7229 15.6726 108.8295 0.0000 0.0000 0.0000
# 4 0.0000 0.0000 0.0000 27.6189 0.0000 0.0000
# 5 0.0000 0.0000 0.0000 0.0000 19.6369 0.0000
# 6 0.0000 0.0000 0.0000 0.0000 0.0000 13.6316
#
#
#
# Elastic Compliance Matrix: (Units=1/GPa)
#
#
# Indices 1 2 3 4 5 6 
#
# 1 0.011810 -0.001717 -0.002327 0.000000 0.000000 0.000000
# 2 -0.001717 0.014558 -0.001722 0.000000 0.000000 0.000000
# 3 -0.002327 -0.001722 0.009944 0.000000 0.000000 0.000000
# 4 0.000000 0.000000 0.000000 0.036207 0.000000 0.000000
# 5 0.000000 0.000000 0.000000 0.000000 0.050925 0.000000
# 6 0.000000 0.000000 0.000000 0.000000 0.000000 0.073359
#
#
# Mechanical properties :
#
#
# Convention : Reuss Voigt Hill
#
# Bulk Modulus (GPa) = 40.35641 42.02734 41.19188
# Shear Modulus (GPa) = 23.08457 26.79924 24.94190
#
# Velocity S-wave (km/s) = 3.37359 3.63490 3.50668
# Velocity P-wave (km/s) = 5.92209 6.19167 6.05838
#
# Compressibility (1/GPa) = 0.02477921
#
# Stress axis : x y z
#
# Youngs Moduli (GPa) = 84.67670 68.68931 100.56354
#
# Poissons Ratio (x) = 0.11794 0.23401
# Poissons Ratio (y) = 0.14540 0.17320
# Poissons Ratio (z) = 0.19704 0.11830
#
# Static dielectric constant tensor:
#      x y z
#    x 3.924390 0.000000 0.000000 
#    y 0.000000 3.642880 0.000000 
#    z 0.000000 0.000000 3.498650 
# 
# 
# High freq. dielectric constant tensor:
#      x y z
#    x 1.805170 0.000000 0.000000 
#    y 0.000000 1.771480 0.000000 
#    z 0.000000 0.000000 1.766460 
# 
# From -- ./inp_files/6452.got.cif
#   From: 2010.03.12/outbox.cif.g09.slc.cpg/sg40_4_cif.got.tgz:6452.got - 2010.04.14 01:38:03.
