data_PCOD8182075
_publ_section_title
;
Structure prediction by ZEFSAII (Michael W. Deem and Ramdas Pophale) SiO2 
 PCOD8182075
Probable space group: A B M 2
;
_chemical_formula_sum "Si O2"
_cell_formula_units_Z 56
_cell_length_a 14.775659
_cell_length_b 20.085907
_cell_length_c 8.604366
_cell_angle_alpha 90.000000
_cell_angle_beta 90.000000
_cell_angle_gamma 90.000000
_cell_volume 2553.625360
_symmetry_space_group_name_H-M "A B M 2"
_symmetry_group_IT_number 39
_symmetry_cell_setting 'orthorhombic'
loop_
_space_group_symop_operation_xyz
x,y,z
-x,-y,z
-x,1/2+y,z
x,1/2-y,z
x,1/2+y,1/2+z
-x,1/2-y,1/2+z
-x,y,1/2+z
x,-y,1/2+z
loop_
_atom_site_type_symbol
_atom_site_label
_atom_site_fract_x
_atom_site_fract_y
_atom_site_fract_z
Si Si1 0.063921 0.825878 0.143470
Si Si2 0.122795 0.173134 0.993399
Si Si3 0.202952 0.918280 0.992816
Si Si4 0.773586 0.446600 0.632091
Si Si5 0.490679 0.639604 0.321080
Si Si6 0.635948 0.821195 0.549912
Si Si7 0.570816 0.946604 0.076171
O O1 0.086828 0.750000 0.103330
O O2 0.088196 0.843064 0.320549
O O3 0.119804 0.869364 0.021652
O O4 0.957747 0.839105 0.115941
O O5 0.158300 0.250000 0.004660
O O6 0.200852 0.119849 0.035100
O O7 0.212311 0.932039 0.811509
O O8 0.294576 0.882744 0.056219
O O9 0.174123 0.986709 0.079908
O O10 0.672359 0.471714 0.594046
O O11 0.574857 0.680038 0.393874
O O12 0.425884 0.616151 0.460380
O O13 0.429708 0.679603 0.199557
O O14 0.533666 0.574707 0.242749
O O15 0.688330 0.750000 0.552377
O O16 0.500000 0.000000 0.007868
#
# Coordination Sequence:
#
# PCOD8182075 Si02
#       7
#     8   8   8   8   8   8   8
#     4  10  22  45  74 105 140 179 223 276 348 427
#     4  10  23  45  75 106 139 179 223 281 350 419
#     4  12  26  42  65  98 136 181 229 285 347 409
#     4  12  26  43  65 101 137 176 236 290 337 417
#     4  10  22  40  60  91 122 169 230 281 344 405
#     4  11  23  42  64  92 131 176 227 287 347 411
#     4  11  23  39  65  91 131 181 225 283 342 404
#
# _framework density 21.929606
#
# number of rings (size 3 to 8) (size 9 to 14) (size 15 to 20)
#    0.000    1.143    1.429    4.714    6.000    2.857 
#    0.000    3.571    0.000    0.000    0.000    0.000 
#    0.000    0.000    0.000    0.000    0.000    0.000 
#
# Total GULP energy -347083.328871 kJ/mol
# GULP energy per Si atom -12395.833174 kJ/mol
# Density = 2.187969 g / cm^3
# Si number density = 21.929606 Si / 1000 Ang^3
#
#
#
# Elastic Constant Matrix: (Units=GPa)
#
#
# Indices 1 2 3 4 5 6 
#
# 1 77.3789 45.9504 28.7312 0.0000 0.0000 0.0000
# 2 45.9504 140.7067 46.7889 0.0000 0.0000 0.0000
# 3 28.7312 46.7889 98.4780 0.0000 0.0000 0.0000
# 4 0.0000 0.0000 0.0000 27.5901 0.0000 0.0000
# 5 0.0000 0.0000 0.0000 0.0000 25.8975 0.0000
# 6 0.0000 0.0000 0.0000 0.0000 0.0000 31.7869
#
#
#
# Elastic Compliance Matrix: (Units=1/GPa)
#
#
# Indices 1 2 3 4 5 6 
#
# 1 0.016614 -0.004529 -0.002695 0.000000 0.000000 0.000000
# 2 -0.004529 0.009675 -0.003275 0.000000 0.000000 0.000000
# 3 -0.002695 -0.003275 0.012497 0.000000 0.000000 0.000000
# 4 0.000000 0.000000 0.000000 0.036245 0.000000 0.000000
# 5 0.000000 0.000000 0.000000 0.000000 0.038614 0.000000
# 6 0.000000 0.000000 0.000000 0.000000 0.000000 0.031460
#
#
# Mechanical properties :
#
#
# Convention : Reuss Voigt Hill
#
# Bulk Modulus (GPa) = 56.22305 62.16719 59.19512
# Shear Modulus (GPa) = 29.06415 30.06109 29.56262
#
# Velocity S-wave (km/s) = 3.64447 3.70645 3.67559
# Velocity P-wave (km/s) = 6.58811 6.83572 6.71306
#
# Compressibility (1/GPa) = 0.01778630
#
# Stress axis : x y z
#
# Youngs Moduli (GPa) = 60.19077 103.35576 80.01849
#
# Poissons Ratio (x) = 0.46813 0.21566
# Poissons Ratio (y) = 0.27263 0.26210
# Poissons Ratio (z) = 0.16222 0.33854
#
# Static dielectric constant tensor:
#      x y z
#    x 3.817000 0.000000 0.000000 
#    y 0.000000 4.039400 0.000000 
#    z 0.000000 0.000000 3.977060 
# 
# 
# High freq. dielectric constant tensor:
#      x y z
#    x 1.846310 0.000000 0.000000 
#    y 0.000000 1.869260 0.000000 
#    z 0.000000 0.000000 1.875600 
# 
# From -- ./inp_files/3393.got.cif
#   From: 2010.03.12/outbox.cif.g09.slc.cpg/sg39_2_cif.got.tgz:3393.got - 2010.04.14 02:53:20.
