data_PCOD8182662
_publ_section_title
;
Structure prediction by ZEFSAII (Michael W. Deem and Ramdas Pophale) SiO2 
 PCOD8182662
Probable space group: A M A 2
;
_chemical_formula_sum "Si O2"
_cell_formula_units_Z 64
_cell_length_a 8.742826
_cell_length_b 19.728228
_cell_length_c 20.793905
_cell_angle_alpha 90.000000
_cell_angle_beta 90.000000
_cell_angle_gamma 90.000000
_cell_volume 3586.542397
_symmetry_space_group_name_H-M "A M A 2"
_symmetry_group_IT_number 40
_symmetry_cell_setting 'orthorhombic'
loop_
_space_group_symop_operation_xyz
x,y,z
-x,-y,z
1/2-x,y,z
1/2+x,-y,z
x,1/2+y,1/2+z
-x,1/2-y,1/2+z
1/2-x,1/2+y,1/2+z
1/2+x,1/2-y,1/2+z
loop_
_atom_site_type_symbol
_atom_site_label
_atom_site_fract_x
_atom_site_fract_y
_atom_site_fract_z
Si Si1 0.570800 0.710690 0.628720
Si Si2 0.431818 0.212417 0.752937
Si Si3 0.431052 0.298447 0.873423
Si Si4 0.568455 0.290382 0.006045
Si Si5 0.431588 0.570563 0.818619
Si Si6 0.429738 0.068428 0.564408
Si Si7 0.930384 0.931352 0.710705
Si Si8 0.929653 0.068781 0.179792
O O1 0.750000 0.725526 0.629897
O O2 0.499100 0.747914 0.691138
O O3 0.505654 0.741233 0.562535
O O4 0.535548 0.630379 0.631200
O O5 0.250000 0.216296 0.750171
O O6 0.490914 0.247278 0.818205
O O7 0.486702 0.134087 0.751122
O O8 0.250000 0.308245 0.869921
O O9 0.482307 0.267460 0.941504
O O10 0.513421 0.370631 0.866003
O O11 0.750000 0.283751 0.996816
O O12 0.518851 0.367092 0.022894
O O13 0.500000 0.500000 0.844463
O O14 0.250000 0.566317 0.818018
O O15 0.493134 0.586060 0.747496
O O16 0.250000 0.060989 0.563481
O O17 0.488277 0.078221 0.637491
O O18 0.500000 0.000000 0.534037
O O19 0.750000 0.937656 0.713262
O O20 0.000000 0.000000 0.741052
O O21 0.750000 0.059327 0.191738
O O22 0.000000 0.000000 0.149907
#
# Coordination Sequence:
#
# PCOD8182662 Si02
#       8
#     8   8   8   8   8   8   8   8
#     4   9  16  31  56  77  97 135 179 214 253 310
#     4   9  16  31  55  76  97 134 177 210 252 311
#     4  11  22  36  53  75 105 139 176 218 265 314
#     4  10  20  35  53  74 101 137 179 214 253 306
#     4  11  21  34  52  76 106 141 177 214 258 311
#     4   9  17  29  48  71  99 131 163 200 240 292
#     4   9  16  29  51  77 101 128 165 207 252 299
#     4  10  18  31  53  80 107 135 171 216 267 316
#
# _framework density 17.844484000000001
#
# number of rings (size 3 to 8) (size 9 to 14) (size 15 to 20)
#    0.000    2.250    2.500    2.625    0.000    1.000 
#    0.000    3.750    0.000    0.750    0.000    5.250 
#    0.000    0.000    0.000    0.000    0.000    0.000 
#
# Total GULP energy -396749.524774 kJ/mol
# GULP energy per Si atom -12398.422649 kJ/mol
# Density = 1.780387 g / cm^3
# Si number density = 17.844484 Si / 1000 Ang^3
#
#
#
# Elastic Constant Matrix: (Units=GPa)
#
#
# Indices 1 2 3 4 5 6 
#
# 1 57.6395 34.3769 27.4904 0.0000 0.0000 0.0000
# 2 34.3769 129.1205 72.4795 0.0000 0.0000 0.0000
# 3 27.4904 72.4795 116.9807 0.0000 0.0000 0.0000
# 4 0.0000 0.0000 0.0000 25.8692 0.0000 0.0000
# 5 0.0000 0.0000 0.0000 0.0000 12.7561 0.0000
# 6 0.0000 0.0000 0.0000 0.0000 0.0000 21.4516
#
#
#
# Elastic Compliance Matrix: (Units=1/GPa)
#
#
# Indices 1 2 3 4 5 6 
#
# 1 0.021005 -0.004326 -0.002256 0.000000 0.000000 0.000000
# 2 -0.004326 0.012766 -0.006893 0.000000 0.000000 0.000000
# 3 -0.002256 -0.006893 0.013349 0.000000 0.000000 0.000000
# 4 0.000000 0.000000 0.000000 0.038656 0.000000 0.000000
# 5 0.000000 0.000000 0.000000 0.000000 0.078394 0.000000
# 6 0.000000 0.000000 0.000000 0.000000 0.000000 0.046617
#
#
# Mechanical properties :
#
#
# Convention : Reuss Voigt Hill
#
# Bulk Modulus (GPa) = 49.57698 63.60381 56.59040
# Shear Modulus (GPa) = 20.45329 23.30831 21.88080
#
# Velocity S-wave (km/s) = 3.38923 3.61805 3.50550
# Velocity P-wave (km/s) = 6.56954 7.29208 6.94022
#
# Compressibility (1/GPa) = 0.02017065
#
# Stress axis : x y z
#
# Youngs Moduli (GPa) = 47.60709 78.33544 74.91103
#
# Poissons Ratio (x) = 0.33889 0.16898
# Poissons Ratio (y) = 0.20596 0.51634
# Poissons Ratio (z) = 0.10739 0.53995
#
# Static dielectric constant tensor:
#      x y z
#    x 3.054280 0.000000 0.000000 
#    y 0.000000 3.526920 0.000000 
#    z 0.000000 0.000000 3.215020 
# 
# 
# High freq. dielectric constant tensor:
#      x y z
#    x 1.669010 0.000000 0.000000 
#    y 0.000000 1.697710 0.000000 
#    z 0.000000 0.000000 1.665690 
# 
# From -- ./inp_files/22535.got.cif
#   From: 2010.03.12/outbox.cif.g09.slc.cpg/sg40_12_cif.got.tgz:22535.got - 2010.04.14 01:38:03.
