data_PCOD8182348
_publ_section_title
;
Structure prediction by ZEFSAII (Michael W. Deem and Ramdas Pophale) SiO2 
 PCOD8182348
Probable space group: A M A 2
;
_chemical_formula_sum "Si O2"
_cell_formula_units_Z 64
_cell_length_a 8.995529
_cell_length_b 20.130191
_cell_length_c 22.726821
_cell_angle_alpha 90.000000
_cell_angle_beta 90.000000
_cell_angle_gamma 90.000000
_cell_volume 4115.411767
_symmetry_space_group_name_H-M "A M A 2"
_symmetry_group_IT_number 40
_symmetry_cell_setting 'orthorhombic'
loop_
_space_group_symop_operation_xyz
x,y,z
-x,-y,z
1/2-x,y,z
1/2+x,-y,z
x,1/2+y,1/2+z
-x,1/2-y,1/2+z
1/2-x,1/2+y,1/2+z
1/2+x,1/2-y,1/2+z
loop_
_atom_site_type_symbol
_atom_site_label
_atom_site_fract_x
_atom_site_fract_y
_atom_site_fract_z
Si Si1 0.418968 0.146386 0.615250
Si Si2 0.427126 0.431207 0.018070
Si Si3 0.424336 0.810098 0.436948
Si Si4 0.086196 0.768926 0.026618
Si Si5 0.926718 0.196124 0.304422
Si Si6 0.925507 0.227558 0.707258
Si Si7 0.578361 0.661624 0.635407
Si Si8 0.580927 0.067443 0.232554
O O1 0.250000 0.122592 0.626557
O O2 0.509621 0.088336 0.582182
O O3 0.422688 0.211514 0.575192
O O4 0.498783 0.162543 0.677529
O O5 0.500000 0.500000 0.997546
O O6 0.250000 0.437397 0.021374
O O7 0.479105 0.376842 0.969681
O O8 0.250000 0.809013 0.434726
O O9 0.474844 0.744657 0.473125
O O10 0.487752 0.806642 0.371074
O O11 0.250000 0.773270 0.998716
O O12 0.048805 0.836122 0.064502
O O13 0.750000 0.206214 0.300816
O O14 0.975936 0.127145 0.274014
O O15 0.005459 0.258314 0.271891
O O16 0.750000 0.216105 0.711886
O O17 0.960965 0.290956 0.667119
O O18 0.750000 0.685451 0.648179
O O19 0.557398 0.588411 0.663705
O O20 0.750000 0.052780 0.247103
O O21 0.500000 0.000000 0.248014
#
# Coordination Sequence:
#
# PCOD8182348 Si02
#       8
#     8   8   8   8   8   8   8   8
#     4   9  16  28  44  60  80 108 136 168 214 261
#     4  10  19  30  43  62  86 114 148 183 214 248
#     4   9  18  30  43  58  80 111 145 176 206 242
#     4   8  14  25  42  60  77  99 130 166 207 251
#     4   9  18  32  43  54  80 117 146 170 206 252
#     4  10  17  25  41  64  82  99 131 176 215 250
#     4   8  15  28  42  56  78 108 133 160 208 262
#     4   9  17  28  41  56  78 108 142 173 201 236
#
# _framework density 15.551299999999999
#
# number of rings (size 3 to 8) (size 9 to 14) (size 15 to 20)
#    0.000    3.000    0.000    3.375    0.000    6.500 
#    0.000    0.000    0.000    0.000    0.000    0.000 
#    0.000    1.000    0.000    5.250    0.000    5.125 
#
# Total GULP energy -396502.485846 kJ/mol
# GULP energy per Si atom -12390.702683 kJ/mol
# Density = 1.551590 g / cm^3
# Si number density = 15.551300 Si / 1000 Ang^3
#
#
#
# Elastic Constant Matrix: (Units=GPa)
#
#
# Indices 1 2 3 4 5 6 
#
# 1 58.8504 15.7254 37.3805 0.0000 0.0000 0.0000
# 2 15.7254 20.5206 44.6219 0.0000 0.0000 0.0000
# 3 37.3805 44.6219 117.8504 0.0000 0.0000 0.0000
# 4 0.0000 0.0000 0.0000 16.0058 0.0000 0.0000
# 5 0.0000 0.0000 0.0000 0.0000 22.2465 0.0000
# 6 0.0000 0.0000 0.0000 0.0000 0.0000 20.6381
#
#
#
# Elastic Compliance Matrix: (Units=1/GPa)
#
#
# Indices 1 2 3 4 5 6 
#
# 1 0.021593 -0.009362 -0.003304 0.000000 0.000000 0.000000
# 2 -0.009362 0.279891 -0.103006 0.000000 0.000000 0.000000
# 3 -0.003304 -0.103006 0.048535 0.000000 0.000000 0.000000
# 4 0.000000 0.000000 0.000000 0.062477 0.000000 0.000000
# 5 0.000000 0.000000 0.000000 0.000000 0.044951 0.000000
# 6 0.000000 0.000000 0.000000 0.000000 0.000000 0.048454
#
#
# Mechanical properties :
#
#
# Convention : Reuss Voigt Hill
#
# Bulk Modulus (GPa) = 8.42646 43.63075 26.02860
# Shear Modulus (GPa) = 6.43664 18.41101 12.42382
#
# Velocity S-wave (km/s) = 2.03665 3.44450 2.82954
# Velocity P-wave (km/s) = 3.31072 6.62845 5.23914
#
# Compressibility (1/GPa) = 0.11867379
#
# Stress axis : x y z
#
# Youngs Moduli (GPa) = 46.31225 3.57281 20.60385
#
# Poissons Ratio (x) = 0.03345 0.06807
# Poissons Ratio (y) = 0.43359 2.12232
# Poissons Ratio (z) = 0.15301 0.36802
#
# Static dielectric constant tensor:
#      x y z
#    x 2.938120 0.000000 0.000000 
#    y 0.000000 2.791470 0.000000 
#    z 0.000000 0.000000 3.207320 
# 
# 
# High freq. dielectric constant tensor:
#      x y z
#    x 1.599390 0.000000 0.000000 
#    y 0.000000 1.552050 0.000000 
#    z 0.000000 0.000000 1.584580 
# 
# From -- ./inp_files/22524.got.cif
#   From: 2010.03.12/outbox.cif.g09.slc.cpg/sg40_12_cif.got.tgz:22524.got - 2010.04.14 01:38:03.
