data_PCOD8182516
_publ_section_title
;
Structure prediction by ZEFSAII (Michael W. Deem and Ramdas Pophale) SiO2 
 PCOD8182516
Probable space group: A M A 2
;
_chemical_formula_sum "Si O2"
_cell_formula_units_Z 48
_cell_length_a 8.765491
_cell_length_b 23.859229
_cell_length_c 13.873930
_cell_angle_alpha 90.000000
_cell_angle_beta 90.000000
_cell_angle_gamma 90.000000
_cell_volume 2901.563989
_symmetry_space_group_name_H-M "A M A 2"
_symmetry_group_IT_number 40
_symmetry_cell_setting 'orthorhombic'
loop_
_space_group_symop_operation_xyz
x,y,z
-x,-y,z
1/2-x,y,z
1/2+x,-y,z
x,1/2+y,1/2+z
-x,1/2-y,1/2+z
1/2-x,1/2+y,1/2+z
1/2+x,1/2-y,1/2+z
loop_
_atom_site_type_symbol
_atom_site_label
_atom_site_fract_x
_atom_site_fract_y
_atom_site_fract_z
Si Si1 0.430344 0.775084 0.444640
Si Si2 0.569220 0.441870 0.657702
Si Si3 0.929704 0.057840 0.951383
Si Si4 0.572209 0.169766 0.846897
Si Si5 0.069813 0.666013 0.773120
Si Si6 0.571304 0.227935 0.658019
O O1 0.250000 0.779984 0.441431
O O2 0.477663 0.713211 0.410808
O O3 0.498779 0.824230 0.378365
O O4 0.497664 0.784691 0.552629
O O5 0.500000 0.500000 0.696278
O O6 0.750000 0.446816 0.647946
O O7 0.501635 0.426287 0.553891
O O8 0.519955 0.394391 0.733526
O O9 0.750000 0.050368 0.964451
O O10 0.971395 0.106622 0.875853
O O11 0.000000 0.000000 0.911227
O O12 0.750000 0.182306 0.865606
O O13 0.532620 0.178057 0.733518
O O14 0.250000 0.671157 0.783127
O O15 0.005882 0.713701 0.700654
O O16 0.750000 0.235353 0.644577
#
# Coordination Sequence:
#
# PCOD8182516 Si02
#       6
#     8   8   8   8   8   8
#     4  10  18  28  47  71  91 115 150 189 223 262
#     4  10  19  31  48  68  93 123 152 186 227 271
#     4  10  19  30  47  69  93 121 152 188 227 269
#     4   9  18  32  47  64  91 124 151 179 223 274
#     4   9  18  32  47  64  92 125 149 177 224 274
#     4   8  15  29  46  64  88 118 148 177 218 268
#
# _framework density 16.542801999999998
#
# number of rings (size 3 to 8) (size 9 to 14) (size 15 to 20)
#    0.000    2.667    0.000    4.500    0.000    4.000 
#    0.000    8.333    0.000    1.000    0.000    4.667 
#    0.000    0.000    0.000    0.000    0.000    0.000 
#
# Total GULP energy -297524.403607 kJ/mol
# GULP energy per Si atom -12396.850150 kJ/mol
# Density = 1.650515 g / cm^3
# Si number density = 16.542802 Si / 1000 Ang^3
#
#
#
# Elastic Constant Matrix: (Units=GPa)
#
#
# Indices 1 2 3 4 5 6 
#
# 1 50.9671 39.1753 33.5748 0.0000 0.0000 0.0000
# 2 39.1753 133.6833 82.0414 0.0000 0.0000 0.0000
# 3 33.5748 82.0414 147.0459 0.0000 0.0000 0.0000
# 4 0.0000 0.0000 0.0000 30.0777 0.0000 0.0000
# 5 0.0000 0.0000 0.0000 0.0000 20.7967 0.0000
# 6 0.0000 0.0000 0.0000 0.0000 0.0000 19.2524
#
#
#
# Elastic Compliance Matrix: (Units=1/GPa)
#
#
# Indices 1 2 3 4 5 6 
#
# 1 0.025942 -0.006033 -0.002558 0.000000 0.000000 0.000000
# 2 -0.006033 0.012778 -0.005752 0.000000 0.000000 0.000000
# 3 -0.002558 -0.005752 0.010594 0.000000 0.000000 0.000000
# 4 0.000000 0.000000 0.000000 0.033247 0.000000 0.000000
# 5 0.000000 0.000000 0.000000 0.000000 0.048085 0.000000
# 6 0.000000 0.000000 0.000000 0.000000 0.000000 0.051942
#
#
# Mechanical properties :
#
#
# Convention : Reuss Voigt Hill
#
# Bulk Modulus (GPa) = 48.47339 71.25326 59.86332
# Shear Modulus (GPa) = 22.92018 25.81900 24.36959
#
# Velocity S-wave (km/s) = 3.72628 3.95491 3.84229
# Velocity P-wave (km/s) = 6.91946 8.00129 7.47996
#
# Compressibility (1/GPa) = 0.02062988
#
# Stress axis : x y z
#
# Youngs Moduli (GPa) = 38.54714 78.25856 94.39558
#
# Poissons Ratio (x) = 0.47211 0.24142
# Poissons Ratio (y) = 0.23254 0.54295
# Poissons Ratio (z) = 0.09859 0.45013
#
# Static dielectric constant tensor:
#      x y z
#    x 3.021540 0.000000 0.000000 
#    y 0.000000 3.165920 0.000000 
#    z 0.000000 0.000000 3.292340 
# 
# 
# High freq. dielectric constant tensor:
#      x y z
#    x 1.632050 0.000000 0.000000 
#    y 0.000000 1.628130 0.000000 
#    z 0.000000 0.000000 1.630210 
# 
# From -- ./inp_files/15153.got.cif
#   From: 2010.03.12/outbox.cif.g09.slc.cpg/sg40_8_cif.got.tgz:15153.got - 2010.04.14 01:38:03.
