data_PCOD8182857
_publ_section_title
;
Structure prediction by ZEFSAII (Michael W. Deem and Ramdas Pophale) SiO2 
 PCOD8182857
Probable space group: A M A 2
;
_chemical_formula_sum "Si O2"
_cell_formula_units_Z 64
_cell_length_a 9.573917
_cell_length_b 23.805030
_cell_length_c 13.461078
_cell_angle_alpha 90.000000
_cell_angle_beta 90.000000
_cell_angle_gamma 90.000000
_cell_volume 3067.879038
_symmetry_space_group_name_H-M "A M A 2"
_symmetry_group_IT_number 40
_symmetry_cell_setting 'orthorhombic'
loop_
_space_group_symop_operation_xyz
x,y,z
-x,-y,z
1/2-x,y,z
1/2+x,-y,z
x,1/2+y,1/2+z
-x,1/2-y,1/2+z
1/2-x,1/2+y,1/2+z
1/2+x,1/2-y,1/2+z
loop_
_atom_site_type_symbol
_atom_site_label
_atom_site_fract_x
_atom_site_fract_y
_atom_site_fract_z
Si Si1 0.408105 0.264646 0.470460
Si Si2 0.591368 0.672707 0.062928
Si Si3 0.589209 0.660080 0.283361
Si Si4 0.410387 0.447106 0.764009
Si Si5 0.902047 0.953763 0.999165
Si Si6 0.594132 0.950928 0.773337
Si Si7 0.588256 0.553267 0.990592
Si Si8 0.092789 0.370154 0.586481
O O1 0.250000 0.243961 0.455214
O O2 0.501911 0.210360 0.488126
O O3 0.457544 0.298043 0.371568
O O4 0.419685 0.303359 0.569971
O O5 0.750000 0.677690 0.024937
O O6 0.577477 0.692247 0.177462
O O7 0.543951 0.607351 0.055554
O O8 0.750000 0.639911 0.300991
O O9 0.485904 0.607802 0.274907
O O10 0.500000 0.500000 0.727006
O O11 0.250000 0.464760 0.753810
O O12 0.448110 0.431448 0.876705
O O13 0.444451 0.391648 0.697387
O O14 0.750000 0.951195 0.051879
O O15 0.880617 0.970405 0.885752
O O16 0.000000 0.000000 0.053735
O O17 0.982788 0.895003 0.007915
O O18 0.750000 0.945886 0.723584
O O19 0.500000 0.000000 0.720822
O O20 0.500000 0.500000 0.027726
O O21 0.750000 0.538094 0.004680
O O22 0.250000 0.389685 0.557668
#
# Coordination Sequence:
#
# PCOD8182857 Si02
#       8
#     8   8   8   8   8   8   8   8
#     4  10  22  39  59  83 115 154 193 236 288 345
#     4  10  23  41  63  89 116 148 188 238 292 344
#     4  10  21  40  61  84 117 153 193 245 299 349
#     4   9  18  32  52  79 111 146 189 233 282 336
#     4  10  19  29  45  72 107 147 189 230 276 332
#     4  10  20  33  53  82 115 155 197 238 288 346
#     4   9  19  38  61  85 112 144 182 233 287 339
#     4  10  19  32  51  76 109 151 192 233 279 333
#
# _framework density 20.861318000000001
#
# number of rings (size 3 to 8) (size 9 to 14) (size 15 to 20)
#    0.000    2.250    1.250    1.125    0.000    6.000 
#    0.000    2.500    0.000    0.000    0.000    0.000 
#    0.000    0.000    0.000    0.000    0.000    0.000 
#
# Total GULP energy -396627.448674 kJ/mol
# GULP energy per Si atom -12394.607771 kJ/mol
# Density = 2.081384 g / cm^3
# Si number density = 20.861318 Si / 1000 Ang^3
#
#
#
# Elastic Constant Matrix: (Units=GPa)
#
#
# Indices 1 2 3 4 5 6 
#
# 1 123.7462 66.9315 22.7568 0.0000 0.0000 0.0000
# 2 66.9315 118.0524 35.7498 0.0000 0.0000 0.0000
# 3 22.7568 35.7498 82.0047 0.0000 0.0000 0.0000
# 4 0.0000 0.0000 0.0000 21.4272 0.0000 0.0000
# 5 0.0000 0.0000 0.0000 0.0000 17.1866 0.0000
# 6 0.0000 0.0000 0.0000 0.0000 0.0000 39.7372
#
#
#
# Elastic Compliance Matrix: (Units=1/GPa)
#
#
# Indices 1 2 3 4 5 6 
#
# 1 0.011667 -0.006491 -0.000408 0.000000 0.000000 0.000000
# 2 -0.006491 0.013371 -0.004028 0.000000 0.000000 0.000000
# 3 -0.000408 -0.004028 0.014063 0.000000 0.000000 0.000000
# 4 0.000000 0.000000 0.000000 0.046670 0.000000 0.000000
# 5 0.000000 0.000000 0.000000 0.000000 0.058185 0.000000
# 6 0.000000 0.000000 0.000000 0.000000 0.000000 0.025165
#
#
# Mechanical properties :
#
#
# Convention : Reuss Voigt Hill
#
# Bulk Modulus (GPa) = 57.97821 63.85327 60.91574
# Shear Modulus (GPa) = 25.41633 28.89455 27.15544
#
# Velocity S-wave (km/s) = 3.49427 3.72570 3.61184
# Velocity P-wave (km/s) = 6.64322 7.01304 6.83063
#
# Compressibility (1/GPa) = 0.01724786
#
# Stress axis : x y z
#
# Youngs Moduli (GPa) = 85.71150 74.78964 71.10649
#
# Poissons Ratio (x) = 0.48548 0.02900
# Poissons Ratio (y) = 0.55638 0.28639
# Poissons Ratio (z) = 0.03495 0.30122
#
# Static dielectric constant tensor:
#      x y z
#    x 3.953830 0.000000 0.000000 
#    y 0.000000 3.470190 0.000000 
#    z 0.000000 0.000000 3.774690 
# 
# 
# High freq. dielectric constant tensor:
#      x y z
#    x 1.818810 0.000000 0.000000 
#    y 0.000000 1.790760 0.000000 
#    z 0.000000 0.000000 1.815090 
# 
# From -- ./inp_files/15659.got.cif
#   From: 2010.03.12/outbox.cif.g09.slc.cpg/sg40_8_cif.got.tgz:15659.got - 2010.04.14 01:38:03.
