data_PCOD8182653
_publ_section_title
;
Structure prediction by ZEFSAII (Michael W. Deem and Ramdas Pophale) SiO2 
 PCOD8182653
Probable space group: A M A 2
;
_chemical_formula_sum "Si O2"
_cell_formula_units_Z 64
_cell_length_a 9.083823
_cell_length_b 20.756376
_cell_length_c 19.741065
_cell_angle_alpha 90.000000
_cell_angle_beta 90.000000
_cell_angle_gamma 90.000000
_cell_volume 3722.123433
_symmetry_space_group_name_H-M "A M A 2"
_symmetry_group_IT_number 40
_symmetry_cell_setting 'orthorhombic'
loop_
_space_group_symop_operation_xyz
x,y,z
-x,-y,z
1/2-x,y,z
1/2+x,-y,z
x,1/2+y,1/2+z
-x,1/2-y,1/2+z
1/2-x,1/2+y,1/2+z
1/2+x,1/2-y,1/2+z
loop_
_atom_site_type_symbol
_atom_site_label
_atom_site_fract_x
_atom_site_fract_y
_atom_site_fract_z
Si Si1 0.574898 0.766326 0.131320
Si Si2 0.575185 0.312911 0.772056
Si Si3 0.924061 0.064542 0.769317
Si Si4 0.424786 0.565172 0.855729
Si Si5 0.420135 0.380767 0.981947
Si Si6 0.579685 0.270951 0.482499
Si Si7 0.575880 0.188916 0.852819
Si Si8 0.923831 0.123460 0.632423
O O1 0.750000 0.761082 0.130864
O O2 0.520765 0.811166 0.193606
O O3 0.508722 0.694852 0.142594
O O4 0.525544 0.793101 0.057705
O O5 0.750000 0.311155 0.775319
O O6 0.516829 0.378042 0.806659
O O7 0.513054 0.250605 0.811834
O O8 0.750000 0.055533 0.772350
O O9 0.975551 0.123819 0.816009
O O10 0.981223 0.077315 0.692358
O O11 0.000000 0.000000 0.796818
O O12 0.500000 0.500000 0.829293
O O13 0.250000 0.557868 0.853991
O O14 0.475281 0.579802 0.932076
O O15 0.250000 0.397276 0.966404
O O16 0.448948 0.304959 0.973775
O O17 0.464755 0.403292 0.057955
O O18 0.750000 0.287310 0.471605
O O19 0.487063 0.311318 0.428582
O O20 0.750000 0.192582 0.856902
O O21 0.750000 0.130223 0.638948
#
# Coordination Sequence:
#
# PCOD8182653 Si02
#       8
#     8   8   8   8   8   8   8   8
#     4   8  13  26  49  75  97 121 160 200 238 287
#     4   9  16  29  51  74  93 122 166 204 236 284
#     4  10  20  33  50  71  98 132 166 203 242 284
#     4  11  22  34  49  70  98 132 166 203 243 288
#     4   9  17  30  48  72 101 131 161 195 238 287
#     4   9  17  28  49  78 103 125 155 203 247 283
#     4  10  18  31  52  74  97 128 165 203 242 288
#     4   8  14  27  47  70  97 128 161 196 234 281
#
# _framework density 17.194486000000001
#
# number of rings (size 3 to 8) (size 9 to 14) (size 15 to 20)
#    0.000    2.750    2.500    1.875    0.000    1.000 
#    0.000    1.875    0.000    3.750    0.000    3.500 
#    0.000    0.000    0.000    0.000    0.000    0.000 
#
# Total GULP energy -396632.081479 kJ/mol
# GULP energy per Si atom -12394.752546 kJ/mol
# Density = 1.715535 g / cm^3
# Si number density = 17.194486 Si / 1000 Ang^3
#
#
#
# Elastic Constant Matrix: (Units=GPa)
#
#
# Indices 1 2 3 4 5 6 
#
# 1 27.3664 31.1006 24.8326 0.0000 0.0000 0.0000
# 2 31.1006 116.9341 69.7882 0.0000 0.0000 0.0000
# 3 24.8326 69.7882 132.8876 0.0000 0.0000 0.0000
# 4 0.0000 0.0000 0.0000 22.8111 0.0000 0.0000
# 5 0.0000 0.0000 0.0000 0.0000 23.3361 0.0000
# 6 0.0000 0.0000 0.0000 0.0000 0.0000 21.2347
#
#
#
# Elastic Compliance Matrix: (Units=1/GPa)
#
#
# Indices 1 2 3 4 5 6 
#
# 1 0.053580 -0.012053 -0.003683 0.000000 0.000000 0.000000
# 2 -0.012053 0.015167 -0.005713 0.000000 0.000000 0.000000
# 3 -0.003683 -0.005713 0.011214 0.000000 0.000000 0.000000
# 4 0.000000 0.000000 0.000000 0.043838 0.000000 0.000000
# 5 0.000000 0.000000 0.000000 0.000000 0.042852 0.000000
# 6 0.000000 0.000000 0.000000 0.000000 0.000000 0.047093
#
#
# Mechanical properties :
#
#
# Convention : Reuss Voigt Hill
#
# Bulk Modulus (GPa) = 26.98033 58.73677 42.85855
# Shear Modulus (GPa) = 18.58768 23.57416 21.08092
#
# Velocity S-wave (km/s) = 3.29146 3.70676 3.50527
# Velocity P-wave (km/s) = 5.49275 7.24945 6.43136
#
# Compressibility (1/GPa) = 0.03706404
#
# Stress axis : x y z
#
# Youngs Moduli (GPa) = 18.66361 65.93261 89.17716
#
# Poissons Ratio (x) = 0.79466 0.32843
# Poissons Ratio (y) = 0.22494 0.50947
# Poissons Ratio (z) = 0.06874 0.37667
#
# Static dielectric constant tensor:
#      x y z
#    x 2.784540 0.000000 0.000000 
#    y 0.000000 3.127070 0.000000 
#    z 0.000000 0.000000 3.505180 
# 
# 
# High freq. dielectric constant tensor:
#      x y z
#    x 1.624280 0.000000 0.000000 
#    y 0.000000 1.642200 0.000000 
#    z 0.000000 0.000000 1.672380 
# 
# From -- ./inp_files/20233.got.cif
#   From: 2010.03.12/outbox.cif.g09.slc.cpg/sg40_11_cif.got.tgz:20233.got - 2010.04.14 01:38:03.
