data_PCOD8182495
_publ_section_title
;
Structure prediction by ZEFSAII (Michael W. Deem and Ramdas Pophale) SiO2 
 PCOD8182495
Probable space group: A M A 2
;
_chemical_formula_sum "Si O2"
_cell_formula_units_Z 64
_cell_length_a 8.724377
_cell_length_b 18.483371
_cell_length_c 26.090435
_cell_angle_alpha 90.000000
_cell_angle_beta 90.000000
_cell_angle_gamma 90.000000
_cell_volume 4207.236495
_symmetry_space_group_name_H-M "A M A 2"
_symmetry_group_IT_number 40
_symmetry_cell_setting 'orthorhombic'
loop_
_space_group_symop_operation_xyz
x,y,z
-x,-y,z
1/2-x,y,z
1/2+x,-y,z
x,1/2+y,1/2+z
-x,1/2-y,1/2+z
1/2-x,1/2+y,1/2+z
1/2+x,1/2-y,1/2+z
loop_
_atom_site_type_symbol
_atom_site_label
_atom_site_fract_x
_atom_site_fract_y
_atom_site_fract_z
Si Si1 0.570124 0.075781 0.844610
Si Si2 0.570739 0.921446 0.040367
Si Si3 0.424569 0.282407 0.999726
Si Si4 0.424507 0.424629 0.047169
Si Si5 0.568308 0.422778 0.236063
Si Si6 0.576128 0.344126 0.433517
Si Si7 0.431489 0.335494 0.145904
Si Si8 0.928106 0.207994 0.091555
O O1 0.750000 0.067028 0.835728
O O2 0.491763 0.100170 0.791893
O O3 0.538018 0.135547 0.887873
O O4 0.500000 0.000000 0.863879
O O5 0.750000 0.925873 0.050066
O O6 0.497422 0.872412 0.085404
O O7 0.500000 0.000000 0.043988
O O8 0.533198 0.888316 0.984626
O O9 0.250000 0.266234 0.020431
O O10 0.448399 0.369387 0.998838
O O11 0.547893 0.249430 0.038167
O O12 0.444206 0.242364 0.944972
O O13 0.500000 0.500000 0.033366
O O14 0.250000 0.443337 0.056556
O O15 0.487462 0.386766 0.098923
O O16 0.500000 0.500000 0.219270
O O17 0.750000 0.428618 0.236836
O O18 0.514454 0.361795 0.196978
O O19 0.750000 0.361408 0.416556
O O20 0.250000 0.337847 0.153159
O O21 0.485146 0.253039 0.135996
O O22 0.750000 0.202893 0.105133
#
# Coordination Sequence:
#
# PCOD8182495 Si02
#       8
#     8   8   8   8   8   8   8   8
#     4  11  21  32  45  62  85 112 143 179 217 254
#     4  10  19  30  44  63  88 117 147 180 217 257
#     4   8  16  30  43  57  82 114 144 176 215 255
#     4   9  17  27  41  61  85 113 142 173 209 250
#     4  11  21  33  47  64  86 113 146 181 217 254
#     4   9  17  30  46  61  81 112 147 180 215 255
#     4  10  19  32  46  61  85 116 148 180 216 255
#     4  10  18  28  43  63  85 111 144 179 215 256
#
# _framework density 15.211885000000001
#
# number of rings (size 3 to 8) (size 9 to 14) (size 15 to 20)
#    0.000    2.250    0.000    7.125    0.000    7.000 
#    0.000    0.000    0.000    0.000    0.000    0.000 
#    0.000    1.000    0.000    8.500    0.000    4.750 
#
# Total GULP energy -396662.694757 kJ/mol
# GULP energy per Si atom -12395.709211 kJ/mol
# Density = 1.517726 g / cm^3
# Si number density = 15.211885 Si / 1000 Ang^3
#
#
#
# Elastic Constant Matrix: (Units=GPa)
#
#
# Indices 1 2 3 4 5 6 
#
# 1 99.1876 42.8393 36.5725 0.0000 0.0000 0.0000
# 2 42.8393 109.9001 47.8355 0.0000 0.0000 0.0000
# 3 36.5725 47.8355 69.8163 0.0000 0.0000 0.0000
# 4 0.0000 0.0000 0.0000 25.4435 0.0000 0.0000
# 5 0.0000 0.0000 0.0000 0.0000 21.2299 0.0000
# 6 0.0000 0.0000 0.0000 0.0000 0.0000 26.3740
#
#
#
# Elastic Compliance Matrix: (Units=1/GPa)
#
#
# Indices 1 2 3 4 5 6 
#
# 1 0.013170 -0.003036 -0.004819 0.000000 0.000000 0.000000
# 2 -0.003036 0.013666 -0.007773 0.000000 0.000000 0.000000
# 3 -0.004819 -0.007773 0.022173 0.000000 0.000000 0.000000
# 4 0.000000 0.000000 0.000000 0.039303 0.000000 0.000000
# 5 0.000000 0.000000 0.000000 0.000000 0.047103 0.000000
# 6 0.000000 0.000000 0.000000 0.000000 0.000000 0.037916
#
#
# Mechanical properties :
#
#
# Convention : Reuss Voigt Hill
#
# Bulk Modulus (GPa) = 56.32671 59.26650 57.79661
# Shear Modulus (GPa) = 23.75241 24.71992 24.23616
#
# Velocity S-wave (km/s) = 3.95579 4.03555 3.99587
# Velocity P-wave (km/s) = 7.61399 7.79484 7.70494
#
# Compressibility (1/GPa) = 0.01775357
#
# Stress axis : x y z
#
# Youngs Moduli (GPa) = 75.93006 73.17433 45.09959
#
# Poissons Ratio (x) = 0.22218 0.21732
# Poissons Ratio (y) = 0.23055 0.35055
# Poissons Ratio (z) = 0.36588 0.56877
#
# Static dielectric constant tensor:
#      x y z
#    x 2.965630 0.000000 0.000000 
#    y 0.000000 3.076360 0.000000 
#    z 0.000000 0.000000 2.721760 
# 
# 
# High freq. dielectric constant tensor:
#      x y z
#    x 1.596120 0.000000 0.000000 
#    y 0.000000 1.575020 0.000000 
#    z 0.000000 0.000000 1.544290 
# 
# From -- ./inp_files/25537.got.cif
#   From: 2010.03.12/outbox.cif.g09.slc.cpg/sg40_13_cif.got.tgz:25537.got - 2010.04.14 01:38:03.
