data_PCOD8182899
_publ_section_title
;
Structure prediction by ZEFSAII (Michael W. Deem and Ramdas Pophale) SiO2 
 PCOD8182899
Probable space group: A M A 2
;
_chemical_formula_sum "Si O2"
_cell_formula_units_Z 64
_cell_length_a 8.941149
_cell_length_b 20.876288
_cell_length_c 19.563140
_cell_angle_alpha 90.000000
_cell_angle_beta 90.000000
_cell_angle_gamma 90.000000
_cell_volume 3651.616617
_symmetry_space_group_name_H-M "A M A 2"
_symmetry_group_IT_number 40
_symmetry_cell_setting 'orthorhombic'
loop_
_space_group_symop_operation_xyz
x,y,z
-x,-y,z
1/2-x,y,z
1/2+x,-y,z
x,1/2+y,1/2+z
-x,1/2-y,1/2+z
1/2-x,1/2+y,1/2+z
1/2+x,1/2-y,1/2+z
loop_
_atom_site_type_symbol
_atom_site_label
_atom_site_fract_x
_atom_site_fract_y
_atom_site_fract_z
Si Si1 0.073194 0.765364 0.959860
Si Si2 0.072077 0.684549 0.589548
Si Si3 0.077982 0.368064 0.955326
Si Si4 0.926997 0.688655 0.167630
Si Si5 0.574288 0.066268 0.166048
Si Si6 0.925530 0.737915 0.308051
Si Si7 0.576201 0.565113 0.090734
Si Si8 0.078989 0.870039 0.303339
O O1 0.250000 0.773101 0.970827
O O2 0.021552 0.785805 0.882848
O O3 0.028315 0.691679 0.971439
O O4 0.984481 0.811145 0.011460
O O5 0.250000 0.677509 0.591682
O O6 0.013738 0.747868 0.629167
O O7 0.998054 0.622700 0.622587
O O8 0.250000 0.344518 0.962564
O O9 0.045784 0.396709 0.879775
O O10 0.044250 0.423263 0.010343
O O11 0.750000 0.687767 0.159065
O O12 0.975947 0.689625 0.247602
O O13 0.993548 0.624491 0.133556
O O14 0.750000 0.063636 0.150908
O O15 0.539858 0.076720 0.246773
O O16 0.500000 0.000000 0.143134
O O17 0.750000 0.745409 0.308652
O O18 0.983745 0.807535 0.288375
O O19 0.500000 0.500000 0.114992
O O20 0.750000 0.558096 0.106408
O O21 0.250000 0.848671 0.296692
#
# Coordination Sequence:
#
# PCOD8182899 Si02
#       8
#     8   8   8   8   8   8   8   8
#     4  10  19  30  50  81 109 131 168 221 265 308
#     4  11  20  35  58  78 102 140 178 219 266 319
#     4   9  17  32  50  71 104 144 178 207 253 312
#     4   9  17  32  54  76  99 134 176 212 258 312
#     4  11  23  37  52  77 109 143 180 222 267 316
#     4   9  17  31  52  77 104 135 171 212 260 313
#     4  10  20  34  50  72 102 138 176 214 254 304
#     4   9  18  31  49  74 105 138 173 214 253 300
#
# _framework density 17.526484
#
# number of rings (size 3 to 8) (size 9 to 14) (size 15 to 20)
#    0.000    2.250    2.500    1.125    0.000    2.000 
#    0.000    0.625    0.000    0.750    0.000    1.750 
#    0.000    0.000    0.000    0.000    0.000    0.000 
#
# Total GULP energy -396694.182636 kJ/mol
# GULP energy per Si atom -12396.693207 kJ/mol
# Density = 1.748659 g / cm^3
# Si number density = 17.526484 Si / 1000 Ang^3
#
#
#
# Elastic Constant Matrix: (Units=GPa)
#
#
# Indices 1 2 3 4 5 6 
#
# 1 50.5952 37.8703 40.3810 0.0000 0.0000 0.0000
# 2 37.8703 126.2539 69.7792 0.0000 0.0000 0.0000
# 3 40.3810 69.7792 111.2756 0.0000 0.0000 0.0000
# 4 0.0000 0.0000 0.0000 23.0250 0.0000 0.0000
# 5 0.0000 0.0000 0.0000 0.0000 22.3861 0.0000
# 6 0.0000 0.0000 0.0000 0.0000 0.0000 27.9145
#
#
#
# Elastic Compliance Matrix: (Units=1/GPa)
#
#
# Indices 1 2 3 4 5 6 
#
# 1 0.029384 -0.004469 -0.007860 0.000000 0.000000 0.000000
# 2 -0.004469 0.012802 -0.006406 0.000000 0.000000 0.000000
# 3 -0.007860 -0.006406 0.015856 0.000000 0.000000 0.000000
# 4 0.000000 0.000000 0.000000 0.043431 0.000000 0.000000
# 5 0.000000 0.000000 0.000000 0.000000 0.044671 0.000000
# 6 0.000000 0.000000 0.000000 0.000000 0.000000 0.035824
#
#
# Mechanical properties :
#
#
# Convention : Reuss Voigt Hill
#
# Bulk Modulus (GPa) = 48.61395 64.90952 56.76174
# Shear Modulus (GPa) = 22.09512 24.00472 23.04992
#
# Velocity S-wave (km/s) = 3.55444 3.70486 3.63043
# Velocity P-wave (km/s) = 6.68155 7.44425 7.07319
#
# Compressibility (1/GPa) = 0.02057023
#
# Stress axis : x y z
#
# Youngs Moduli (GPa) = 34.03263 78.11565 63.06714
#
# Poissons Ratio (x) = 0.34912 0.49573
# Poissons Ratio (y) = 0.15210 0.40399
# Poissons Ratio (z) = 0.26751 0.50039
#
# Static dielectric constant tensor:
#      x y z
#    x 3.180830 0.000000 0.000000 
#    y 0.000000 3.027410 0.000000 
#    z 0.000000 0.000000 3.767180 
# 
# 
# High freq. dielectric constant tensor:
#      x y z
#    x 1.669880 0.000000 0.000000 
#    y 0.000000 1.645860 0.000000 
#    z 0.000000 0.000000 1.688310 
# 
# From -- ./inp_files/22410.got.cif
#   From: 2010.03.12/outbox.cif.g09.slc.cpg/sg40_12_cif.got.tgz:22410.got - 2010.04.14 01:38:03.
