data_PCOD8182157
_publ_section_title
;
Structure prediction by ZEFSAII (Michael W. Deem and Ramdas Pophale) SiO2 
 PCOD8182157
Probable space group: A B M 2
;
_chemical_formula_sum "Si O2"
_cell_formula_units_Z 56
_cell_length_a 18.747403
_cell_length_b 10.291312
_cell_length_c 13.682222
_cell_angle_alpha 90.000000
_cell_angle_beta 90.000000
_cell_angle_gamma 90.000000
_cell_volume 2639.784611
_symmetry_space_group_name_H-M "A B M 2"
_symmetry_group_IT_number 39
_symmetry_cell_setting 'orthorhombic'
loop_
_space_group_symop_operation_xyz
x,y,z
-x,-y,z
-x,1/2+y,z
x,1/2-y,z
x,1/2+y,1/2+z
-x,1/2-y,1/2+z
-x,y,1/2+z
x,-y,1/2+z
loop_
_atom_site_type_symbol
_atom_site_label
_atom_site_fract_x
_atom_site_fract_y
_atom_site_fract_z
Si Si1 0.788340 0.399839 0.015650
Si Si2 0.674562 1.000000 0.871574
Si Si3 0.788340 0.399839 0.227497
Si Si4 0.440860 0.103993 0.009695
Si Si5 0.056221 0.103704 0.737808
Si Si6 0.943779 0.896296 0.505339
Si Si7 0.559141 0.396007 0.733452
O O1 0.801311 0.250000 0.033778
O O2 0.768793 0.464053 0.121574
O O3 0.724303 0.414450 0.940178
O O4 0.864806 0.451631 0.976498
O O5 0.724304 0.914450 0.802970
O O6 0.627107 0.092999 0.803598
O O7 0.627107 0.907001 0.939549
O O8 0.801311 0.250000 0.209369
O O9 0.864806 0.451631 0.266649
O O10 0.472385 0.250000 0.999382
O O11 0.417798 0.076370 0.121574
O O12 0.500000 0.000000 0.976170
O O13 0.041781 0.250000 0.779225
O O14 0.050005 0.107951 0.621574
O O15 0.000000 0.000000 0.782239
O O16 0.958219 0.750000 0.463922
O O17 0.000000 0.000000 0.460908
O O18 0.500000 0.500000 0.766977
O O19 0.527615 0.250000 0.743765
#
# Coordination Sequence:
#
# PCOD8182157 Si02
#       7
#     8   8   8   8   8   8   8
#     4   9  19  35  54  79 112 149 187 227 277 336
#     4  12  21  34  59  86 114 146 184 228 275 328
#     4   9  19  35  54  79 112 149 187 227 277 336
#     4  10  23  42  62  86 115 146 183 228 276 328
#     4   8  14  28  51  76 103 140 187 233 275 323
#     4   8  14  28  51  76 103 140 187 233 275 323
#     4  10  23  42  62  86 115 146 183 228 276 328
#
# _framework density 21.213851999999999
#
# number of rings (size 3 to 8) (size 9 to 14) (size 15 to 20)
#    0.000    2.571    0.000    3.857    0.000    3.429 
#    0.000    6.429    0.000   10.286    0.000    0.000 
#    0.000    0.000    0.000    0.000    0.000    1.143 
#
# Total GULP energy -346983.748124 kJ/mol
# GULP energy per Si atom -12392.276719 kJ/mol
# Density = 2.116557 g / cm^3
# Si number density = 21.213852 Si / 1000 Ang^3
#
#
#
# Elastic Constant Matrix: (Units=GPa)
#
#
# Indices 1 2 3 4 5 6 
#
# 1 163.0141 63.2125 68.8590 0.0000 0.0000 0.0000
# 2 63.2125 104.1356 29.2028 0.0000 0.0000 0.0000
# 3 68.8590 29.2028 92.9912 0.0000 0.0000 0.0000
# 4 0.0000 0.0000 0.0000 -4.8292 0.0000 0.0000
# 5 0.0000 0.0000 0.0000 0.0000 369.2117 0.0000
# 6 0.0000 0.0000 0.0000 0.0000 0.0000 31.8020
#
#
#
# Elastic Compliance Matrix: (Units=1/GPa)
#
#
# Indices 1 2 3 4 5 6 
#
# 1 0.010660 -0.004668 -0.006427 0.000000 0.000000 0.000000
# 2 -0.004668 0.012575 -0.000492 0.000000 0.000000 0.000000
# 3 -0.006427 -0.000492 0.015668 0.000000 0.000000 0.000000
# 4 0.000000 0.000000 0.000000 -0.207073 0.000000 0.000000
# 5 0.000000 0.000000 0.000000 0.000000 0.002708 0.000000
# 6 0.000000 0.000000 0.000000 0.000000 0.000000 0.031445
#
#
# Mechanical properties :
#
#
# Convention : Reuss Voigt Hill
#
# Bulk Modulus (GPa) = 63.58710 75.85438 69.72074
# Shear Modulus (GPa) = -47.34832 92.49466 22.57317
#
# Velocity S-wave (km/s) = -4.72948 6.61027 3.26556
# Velocity P-wave (km/s) = 0.46414 9.70029 6.86699
#
# Compressibility (1/GPa) = 0.01572646
#
# Stress axis : x y z
#
# Youngs Moduli (GPa) = 93.81200 79.52560 63.82584
#
# Poissons Ratio (x) = 0.37124 0.41023
# Poissons Ratio (y) = 0.43793 0.03141
# Poissons Ratio (z) = 0.60296 0.03914
#
# Static dielectric constant tensor:
#      x y z
#    x 3.952250 0.000000 0.000000 
#    y 0.000000 3.676470 0.000000 
#    z 0.000000 0.000000 3.815070 
# 
# 
# High freq. dielectric constant tensor:
#      x y z
#    x 1.830910 0.000000 0.000000 
#    y 0.000000 1.808740 0.000000 
#    z 0.000000 0.000000 1.840100 
# 
# From -- ./inp_files/6507.got.cif
#   From: 2010.03.12/outbox.cif.g09.slc.cpg/sg39_4_cif.got.tgz:6507.got - 2010.04.14 02:53:20.
