data_PCOD8182292
_publ_section_title
;
Structure prediction by ZEFSAII (Michael W. Deem and Ramdas Pophale) SiO2 
 PCOD8182292
Probable space group: A B M 2
;
_chemical_formula_sum "Si O2"
_cell_formula_units_Z 48
_cell_length_a 7.548280
_cell_length_b 27.947163
_cell_length_c 9.683225
_cell_angle_alpha 90.000000
_cell_angle_beta 90.000000
_cell_angle_gamma 90.000000
_cell_volume 2042.705475
_symmetry_space_group_name_H-M "A B M 2"
_symmetry_group_IT_number 39
_symmetry_cell_setting 'orthorhombic'
loop_
_space_group_symop_operation_xyz
x,y,z
-x,-y,z
-x,1/2+y,z
x,1/2-y,z
x,1/2+y,1/2+z
-x,1/2-y,1/2+z
-x,y,1/2+z
x,-y,1/2+z
loop_
_atom_site_type_symbol
_atom_site_label
_atom_site_fract_x
_atom_site_fract_y
_atom_site_fract_z
Si Si1 0.819175 0.517675 0.884290
Si Si2 0.689599 0.951641 0.615082
Si Si3 0.826384 0.844424 0.662441
Si Si4 0.106562 0.695456 0.868112
Si Si5 0.376994 0.902875 0.499629
Si Si6 0.454798 0.843236 0.755124
O O1 0.682200 0.518119 0.756799
O O2 0.000000 0.500000 0.813716
O O3 0.798495 0.477145 0.997292
O O4 0.806575 0.571592 0.952177
O O5 0.782012 0.900108 0.641038
O O6 0.489661 0.946818 0.562260
O O7 0.906275 0.820657 0.526201
O O8 0.638782 0.818490 0.704725
O O9 0.970717 0.837726 0.783137
O O10 0.043320 0.750000 0.854379
O O11 0.311433 0.692607 0.819016
O O12 0.350320 0.865142 0.622561
O O13 0.487922 0.881874 0.370641
#
# Coordination Sequence:
#
# PCOD8182292 Si02
#       6
#     8   8   8   8   8   8
#     4  12  27  42  66 107 142 190 258 308 358 441
#     4  11  26  44  67 101 147 198 241 313 366 446
#     4  11  27  50  75 112 156 204 247 319 398 466
#     4  12  28  48  80 114 148 197 257 322 395 483
#     4  11  23  47  73 103 143 202 247 310 384 449
#     4  11  24  49  79 107 151 201 251 318 398 466
#
# _framework density 23.498248
#
# number of rings (size 3 to 8) (size 9 to 14) (size 15 to 20)
#    0.000    0.667    6.667    1.500    9.333    2.667 
#    0.000    0.000    0.000    0.000    0.000    0.000 
#    0.000    0.000    0.000    0.000    0.000    0.000 
#
# Total GULP energy -297376.000775 kJ/mol
# GULP energy per Si atom -12390.666699 kJ/mol
# Density = 2.344477 g / cm^3
# Si number density = 23.498248 Si / 1000 Ang^3
#
#
#
# Elastic Constant Matrix: (Units=GPa)
#
#
# Indices 1 2 3 4 5 6 
#
# 1 87.3346 26.1764 30.3919 0.0000 0.0000 0.0000
# 2 26.1764 71.8233 32.7821 0.0000 0.0000 0.0000
# 3 30.3919 32.7821 152.1407 0.0000 0.0000 0.0000
# 4 0.0000 0.0000 0.0000 22.0911 0.0000 0.0000
# 5 0.0000 0.0000 0.0000 0.0000 43.1844 0.0000
# 6 0.0000 0.0000 0.0000 0.0000 0.0000 33.7285
#
#
#
# Elastic Compliance Matrix: (Units=1/GPa)
#
#
# Indices 1 2 3 4 5 6 
#
# 1 0.013278 -0.004024 -0.001785 0.000000 0.000000 0.000000
# 2 -0.004024 0.016661 -0.002786 0.000000 0.000000 0.000000
# 3 -0.001785 -0.002786 0.007530 0.000000 0.000000 0.000000
# 4 0.000000 0.000000 0.000000 0.045267 0.000000 0.000000
# 5 0.000000 0.000000 0.000000 0.000000 0.023157 0.000000
# 6 0.000000 0.000000 0.000000 0.000000 0.000000 0.029649
#
#
# Mechanical properties :
#
#
# Convention : Reuss Voigt Hill
#
# Bulk Modulus (GPa) = 49.31577 54.44438 51.88008
# Shear Modulus (GPa) = 31.34960 34.59732 32.97346
#
# Velocity S-wave (km/s) = 3.65653 3.84127 3.75004
# Velocity P-wave (km/s) = 6.23374 6.54932 6.39348
#
# Compressibility (1/GPa) = 0.02027749
#
# Stress axis : x y z
#
# Youngs Moduli (GPa) = 75.31450 60.01887 132.80508
#
# Poissons Ratio (x) = 0.24153 0.23709
# Poissons Ratio (y) = 0.30309 0.37002
# Poissons Ratio (z) = 0.13446 0.16722
#
# Static dielectric constant tensor:
#      x y z
#    x 4.236930 0.000000 0.000000 
#    y 0.000000 3.921770 0.000000 
#    z 0.000000 0.000000 4.650290 
# 
# 
# High freq. dielectric constant tensor:
#      x y z
#    x 1.923930 0.000000 0.000000 
#    y 0.000000 1.903730 0.000000 
#    z 0.000000 0.000000 1.962010 
# 
# From -- ./inp_files/2311.got.cif
#   From: 2010.03.12/outbox.cif.g09.slc.cpg/sg39_2_cif.got.tgz:2311.got - 2010.04.14 02:53:20.
