data_PCOD8182189
_publ_section_title
;
Structure prediction by ZEFSAII (Michael W. Deem and Ramdas Pophale) SiO2 
 PCOD8182189
Probable space group: A B M 2
;
_chemical_formula_sum "Si O2"
_cell_formula_units_Z 60
_cell_length_a 16.979023
_cell_length_b 20.202577
_cell_length_c 8.841042
_cell_angle_alpha 90.000000
_cell_angle_beta 90.000000
_cell_angle_gamma 90.000000
_cell_volume 3032.654400
_symmetry_space_group_name_H-M "A B M 2"
_symmetry_group_IT_number 39
_symmetry_cell_setting 'orthorhombic'
loop_
_space_group_symop_operation_xyz
x,y,z
-x,-y,z
-x,1/2+y,z
x,1/2-y,z
x,1/2+y,1/2+z
-x,1/2-y,1/2+z
-x,y,1/2+z
x,-y,1/2+z
loop_
_atom_site_type_symbol
_atom_site_label
_atom_site_fract_x
_atom_site_fract_y
_atom_site_fract_z
Si Si1 0.000000 0.500000 0.912760
Si Si2 0.296322 0.326970 0.117908
Si Si3 0.884153 0.824962 0.184596
Si Si4 0.037250 0.908071 0.157449
Si Si5 0.574283 0.431398 0.116687
Si Si6 0.595866 0.063745 0.475411
Si Si7 0.157997 0.324279 0.524188
Si Si8 0.673144 0.673162 0.460788
O O1 0.951981 0.551604 0.811234
O O2 0.942108 0.458292 0.020485
O O3 0.307863 0.250000 0.066236
O O4 0.202745 0.343676 0.122715
O O5 0.335872 0.337243 0.281413
O O6 0.340108 0.378425 0.006717
O O7 0.905390 0.750000 0.133058
O O8 0.887374 0.828829 0.365563
O O9 0.950806 0.876095 0.128004
O O10 0.105813 0.854284 0.158614
O O11 0.580131 0.438126 0.296961
O O12 0.622968 0.490822 0.033345
O O13 0.483334 0.426459 0.071254
O O14 0.607332 0.362237 0.058204
O O15 0.172435 0.250000 0.573652
O O16 0.243209 0.358013 0.512141
O O17 0.667154 0.750000 0.499909
#
# Coordination Sequence:
#
# PCOD8182189 Si02
#       8
#     4   8   8   8   8   8   8   8
#     4  10  24  34  54  74 116 146 186 236 276 330
#     4   9  19  38  60  86 117 149 187 233 284 338
#     4   9  18  35  60  83 108 143 187 235 282 332
#     4  11  19  40  52  80 109 151 188 232 278 333
#     4  11  22  39  61  86 116 150 191 232 279 338
#     4  11  22  39  61  86 116 150 191 232 279 338
#     4   9  18  35  60  83 108 143 187 235 282 332
#     4   9  19  38  60  86 117 149 187 233 284 338
#
# _framework density 19.784648000000001
#
# number of rings (size 3 to 8) (size 9 to 14) (size 15 to 20)
#    0.000    2.133    1.333    5.200    0.000    1.067 
#    7.200    0.000    0.000    0.000    0.000    0.000 
#    0.000    0.000    0.000    0.000    0.000    0.000 
#
# Total GULP energy -371772.791718 kJ/mol
# GULP energy per Si atom -12392.426391 kJ/mol
# Density = 1.973962 g / cm^3
# Si number density = 19.784648 Si / 1000 Ang^3
#
#
#
# Elastic Constant Matrix: (Units=GPa)
#
#
# Indices 1 2 3 4 5 6 
#
# 1 56.5076 39.7460 18.0442 0.0000 0.0000 0.0000
# 2 39.7460 85.9601 35.2577 0.0000 0.0000 0.0000
# 3 18.0442 35.2577 95.7978 0.0000 0.0000 0.0000
# 4 0.0000 0.0000 0.0000 24.8237 0.0000 0.0000
# 5 0.0000 0.0000 0.0000 0.0000 27.0178 0.0000
# 6 0.0000 0.0000 0.0000 0.0000 0.0000 18.5171
#
#
#
# Elastic Compliance Matrix: (Units=1/GPa)
#
#
# Indices 1 2 3 4 5 6 
#
# 1 0.026252 -0.011908 -0.000562 0.000000 0.000000 0.000000
# 2 -0.011908 0.019103 -0.004788 0.000000 0.000000 0.000000
# 3 -0.000562 -0.004788 0.012307 0.000000 0.000000 0.000000
# 4 0.000000 0.000000 0.000000 0.040284 0.000000 0.000000
# 5 0.000000 0.000000 0.000000 0.000000 0.037013 0.000000
# 6 0.000000 0.000000 0.000000 0.000000 0.000000 0.054004
#
#
# Mechanical properties :
#
#
# Convention : Reuss Voigt Hill
#
# Bulk Modulus (GPa) = 43.20382 47.15125 45.17754
# Shear Modulus (GPa) = 21.62697 23.75290 22.68994
#
# Velocity S-wave (km/s) = 3.30982 3.46869 3.39018
# Velocity P-wave (km/s) = 6.04078 6.31873 6.18132
#
# Compressibility (1/GPa) = 0.02314610
#
# Stress axis : x y z
#
# Youngs Moduli (GPa) = 38.09269 52.34801 81.25675
#
# Poissons Ratio (x) = 0.62334 0.04568
# Poissons Ratio (y) = 0.45359 0.38904
# Poissons Ratio (z) = 0.02141 0.25063
#
# Static dielectric constant tensor:
#      x y z
#    x 3.417320 0.000000 0.000000 
#    y 0.000000 3.912730 0.000000 
#    z 0.000000 0.000000 3.495890 
# 
# 
# High freq. dielectric constant tensor:
#      x y z
#    x 1.754070 0.000000 0.000000 
#    y 0.000000 1.781030 0.000000 
#    z 0.000000 0.000000 1.765170 
# 
# From -- ./inp_files/3790.got.cif
#   From: 2010.03.12/outbox.cif.g09.slc.cpg/sg39_2_cif.got.tgz:3790.got - 2010.04.14 02:53:20.
