data_PCOD8182970
_publ_section_title
;
Structure prediction by ZEFSAII (Michael W. Deem and Ramdas Pophale) SiO2 
 PCOD8182970
Probable space group: A M A 2
;
_chemical_formula_sum "Si O2"
_cell_formula_units_Z 56
_cell_length_a 9.288031
_cell_length_b 15.497106
_cell_length_c 19.609527
_cell_angle_alpha 90.000000
_cell_angle_beta 90.000000
_cell_angle_gamma 90.000000
_cell_volume 2822.548272
_symmetry_space_group_name_H-M "A M A 2"
_symmetry_group_IT_number 40
_symmetry_cell_setting 'orthorhombic'
loop_
_space_group_symop_operation_xyz
x,y,z
-x,-y,z
1/2-x,y,z
1/2+x,-y,z
x,1/2+y,1/2+z
-x,1/2-y,1/2+z
1/2-x,1/2+y,1/2+z
1/2+x,1/2-y,1/2+z
loop_
_atom_site_type_symbol
_atom_site_label
_atom_site_fract_x
_atom_site_fract_y
_atom_site_fract_z
Si Si1 0.587108 0.749882 0.473680
Si Si2 0.916958 0.748751 0.103138
Si Si3 0.589362 0.079760 0.129959
Si Si4 0.418206 0.910289 0.877914
Si Si5 0.087886 0.573017 0.900255
Si Si6 0.415696 0.796598 0.751252
Si Si7 0.910288 0.627341 0.780233
O O1 0.750000 0.736493 0.500918
O O2 0.483802 0.787034 0.533318
O O3 0.534803 0.663306 0.433408
O O4 0.581401 0.828623 0.422160
O O5 0.750000 0.769352 0.092758
O O6 0.938335 0.685727 0.169370
O O7 0.003742 0.836315 0.109742
O O8 0.750000 0.080422 0.097492
O O9 0.600129 0.073893 0.210813
O O10 0.500000 0.000000 0.099650
O O11 0.250000 0.928955 0.885994
O O12 0.451311 0.878217 0.800054
O O13 0.500000 0.000000 0.891932
O O14 0.250000 0.539817 0.893898
O O15 0.000000 0.500000 0.944695
O O16 0.009962 0.570162 0.827673
O O17 0.250000 0.767471 0.764066
O O18 0.522463 0.721265 0.770599
O O19 0.750000 0.640255 0.810833
#
# Coordination Sequence:
#
# PCOD8182970 Si02
#       7
#     8   8   8   8   8   8   8
#     4  10  22  41  60  81 119 161 194 242 304 361
#     4  10  21  36  59  83 110 152 196 244 297 356
#     4  10  20  33  50  77 112 147 186 230 282 345
#     4  10  21  39  62  89 119 159 203 249 303 358
#     4  11  22  37  57  82 113 151 188 234 290 347
#     4   9  18  37  59  82 115 153 192 238 298 352
#     4  10  19  31  53  84 114 145 182 229 280 339
#
# _framework density 19.840226999999999
#
# number of rings (size 3 to 8) (size 9 to 14) (size 15 to 20)
#    0.000    2.000    1.429    2.143    0.000    6.286 
#    0.000    2.143    0.000    3.429    0.000    0.000 
#    0.000    0.000    0.000    0.000    0.000    0.000 
#
# Total GULP energy -346874.418608 kJ/mol
# GULP energy per Si atom -12388.372093 kJ/mol
# Density = 1.979507 g / cm^3
# Si number density = 19.840227 Si / 1000 Ang^3
#
#
#
# Elastic Constant Matrix: (Units=GPa)
#
#
# Indices 1 2 3 4 5 6 
#
# 1 122.9683 38.1357 37.2100 0.0000 0.0000 0.0000
# 2 38.1357 85.1133 13.4344 0.0000 0.0000 0.0000
# 3 37.2100 13.4344 72.9486 0.0000 0.0000 0.0000
# 4 0.0000 0.0000 0.0000 14.1814 0.0000 0.0000
# 5 0.0000 0.0000 0.0000 0.0000 27.8732 0.0000
# 6 0.0000 0.0000 0.0000 0.0000 0.0000 31.9543
#
#
#
# Elastic Compliance Matrix: (Units=1/GPa)
#
#
# Indices 1 2 3 4 5 6 
#
# 1 0.010852 -0.004108 -0.004779 0.000000 0.000000 0.000000
# 2 -0.004108 0.013656 -0.000419 0.000000 0.000000 0.000000
# 3 -0.004779 -0.000419 0.016223 0.000000 0.000000 0.000000
# 4 0.000000 0.000000 0.000000 0.070515 0.000000 0.000000
# 5 0.000000 0.000000 0.000000 0.000000 0.035877 0.000000
# 6 0.000000 0.000000 0.000000 0.000000 0.000000 0.031295
#
#
# Mechanical properties :
#
#
# Convention : Reuss Voigt Hill
#
# Bulk Modulus (GPa) = 45.21142 50.95450 48.08296
# Shear Modulus (GPa) = 24.46140 27.61848 26.03994
#
# Velocity S-wave (km/s) = 3.51510 3.73506 3.62675
# Velocity P-wave (km/s) = 6.26992 6.65876 6.46726
#
# Compressibility (1/GPa) = 0.02211831
#
# Stress axis : x y z
#
# Youngs Moduli (GPa) = 92.14586 73.22821 61.63998
#
# Poissons Ratio (x) = 0.30083 0.29458
# Poissons Ratio (y) = 0.37855 0.02585
# Poissons Ratio (z) = 0.44037 0.03071
#
# Static dielectric constant tensor:
#      x y z
#    x 2.637310 0.000000 0.000000 
#    y 0.000000 3.518690 0.000000 
#    z 0.000000 0.000000 3.870640 
# 
# 
# High freq. dielectric constant tensor:
#      x y z
#    x 1.783710 0.000000 0.000000 
#    y 0.000000 1.759030 0.000000 
#    z 0.000000 0.000000 1.764360 
# 
# From -- ./inp_files/22119.got.cif
#   From: 2010.03.12/outbox.cif.g09.slc.cpg/sg40_12_cif.got.tgz:22119.got - 2010.04.14 01:38:03.
