data_PCOD8182917
_publ_section_title
;
Structure prediction by ZEFSAII (Michael W. Deem and Ramdas Pophale) SiO2 
 PCOD8182917
Probable space group: A M A 2
;
_chemical_formula_sum "Si O2"
_cell_formula_units_Z 56
_cell_length_a 8.459825
_cell_length_b 13.610126
_cell_length_c 29.082037
_cell_angle_alpha 90.000000
_cell_angle_beta 90.000000
_cell_angle_gamma 90.000000
_cell_volume 3348.484923
_symmetry_space_group_name_H-M "A M A 2"
_symmetry_group_IT_number 40
_symmetry_cell_setting 'orthorhombic'
loop_
_space_group_symop_operation_xyz
x,y,z
-x,-y,z
1/2-x,y,z
1/2+x,-y,z
x,1/2+y,1/2+z
-x,1/2-y,1/2+z
1/2-x,1/2+y,1/2+z
1/2+x,1/2-y,1/2+z
loop_
_atom_site_type_symbol
_atom_site_label
_atom_site_fract_x
_atom_site_fract_y
_atom_site_fract_z
Si Si1 0.065556 0.704124 0.853860
Si Si2 0.433879 0.109414 0.636607
Si Si3 0.434886 0.389457 0.942556
Si Si4 0.566857 0.392580 0.035400
Si Si5 0.566199 0.704829 0.223567
Si Si6 0.564588 0.106198 0.266867
Si Si7 0.564602 0.893548 0.810304
O O1 0.250000 0.688123 0.845290
O O2 0.020979 0.678879 0.905780
O O3 0.972156 0.631165 0.819898
O O4 0.020447 0.816550 0.843969
O O5 0.250000 0.105983 0.649228
O O6 0.459013 0.156867 0.585497
O O7 0.525030 0.180723 0.671155
O O8 0.500000 0.000000 0.640852
O O9 0.500000 0.500000 0.939835
O O10 0.250000 0.389263 0.932899
O O11 0.473365 0.342337 0.992924
O O12 0.500000 0.500000 0.041847
O O13 0.750000 0.396866 0.021731
O O14 0.750000 0.688977 0.233184
O O15 0.520440 0.817113 0.233181
O O16 0.471335 0.631855 0.257243
O O17 0.750000 0.111329 0.258417
O O18 0.500000 0.000000 0.253797
O O19 0.750000 0.888625 0.819010
O O20 0.500000 0.000000 0.823158
#
# Coordination Sequence:
#
# PCOD8182917 Si02
#       7
#     8   8   8   8   8   8   8
#     4  11  21  34  50  71  96 125 161 196 234 279
#     4  10  19  31  47  69  97 128 160 196 237 281
#     4  11  20  31  47  69  97 128 160 195 236 281
#     4   9  17  29  45  66  93 124 157 193 235 281
#     4  11  21  33  49  71  96 126 162 196 234 279
#     4  11  21  35  51  70  96 125 158 196 237 279
#     4  11  21  35  51  70  96 126 159 196 237 278
#
# _framework density 16.723981999999999
#
# number of rings (size 3 to 8) (size 9 to 14) (size 15 to 20)
#    0.000    1.429    0.000   10.714    0.000    1.714 
#    0.000    0.000    0.000    0.000    0.000    1.000 
#    0.000    6.857    0.000    0.000    0.000    0.000 
#
# Total GULP energy -347211.839264 kJ/mol
# GULP energy per Si atom -12400.422831 kJ/mol
# Density = 1.668592 g / cm^3
# Si number density = 16.723982 Si / 1000 Ang^3
#
#
#
# Elastic Constant Matrix: (Units=GPa)
#
#
# Indices 1 2 3 4 5 6 
#
# 1 85.3821 14.4605 18.5983 0.0000 0.0000 0.0000
# 2 14.4605 78.2235 38.4802 0.0000 0.0000 0.0000
# 3 18.5983 38.4802 110.6100 0.0000 0.0000 0.0000
# 4 0.0000 0.0000 0.0000 21.9844 0.0000 0.0000
# 5 0.0000 0.0000 0.0000 0.0000 29.0243 0.0000
# 6 0.0000 0.0000 0.0000 0.0000 0.0000 26.6168
#
#
#
# Elastic Compliance Matrix: (Units=1/GPa)
#
#
# Indices 1 2 3 4 5 6 
#
# 1 0.012305 -0.001516 -0.001541 0.000000 0.000000 0.000000
# 2 -0.001516 0.015610 -0.005176 0.000000 0.000000 0.000000
# 3 -0.001541 -0.005176 0.011101 0.000000 0.000000 0.000000
# 4 0.000000 0.000000 0.000000 0.045487 0.000000 0.000000
# 5 0.000000 0.000000 0.000000 0.000000 0.034454 0.000000
# 6 0.000000 0.000000 0.000000 0.000000 0.000000 0.037570
#
#
# Mechanical properties :
#
#
# Convention : Reuss Voigt Hill
#
# Bulk Modulus (GPa) = 44.34894 46.36594 45.35744
# Shear Modulus (GPa) = 27.69937 29.03687 28.36812
#
# Velocity S-wave (km/s) = 4.07414 4.17134 4.12303
# Velocity P-wave (km/s) = 6.97906 7.14035 7.06016
#
# Compressibility (1/GPa) = 0.02254845
#
# Stress axis : x y z
#
# Youngs Moduli (GPa) = 81.27020 64.06042 90.08583
#
# Poissons Ratio (x) = 0.09714 0.13886
# Poissons Ratio (y) = 0.12324 0.46626
# Poissons Ratio (z) = 0.12527 0.33156
#
# Static dielectric constant tensor:
#      x y z
#    x 3.334950 0.000000 0.000000 
#    y 0.000000 2.853010 0.000000 
#    z 0.000000 0.000000 3.468090 
# 
# 
# High freq. dielectric constant tensor:
#      x y z
#    x 1.671180 0.000000 0.000000 
#    y 0.000000 1.608770 0.000000 
#    z 0.000000 0.000000 1.644170 
# 
# From -- ./inp_files/26414.got.cif
#   From: 2010.03.12/outbox.cif.g09.slc.cpg/sg40_14_cif.got.tgz:26414.got - 2010.04.14 01:38:03.
