data_PCOD8182351
_publ_section_title
;
Structure prediction by ZEFSAII (Michael W. Deem and Ramdas Pophale) SiO2 
 PCOD8182351
Probable space group: A M A 2
;
_chemical_formula_sum "Si O2"
_cell_formula_units_Z 64
_cell_length_a 14.282878
_cell_length_b 13.789187
_cell_length_c 18.423059
_cell_angle_alpha 90.000000
_cell_angle_beta 90.000000
_cell_angle_gamma 90.000000
_cell_volume 3628.408125
_symmetry_space_group_name_H-M "A M A 2"
_symmetry_group_IT_number 40
_symmetry_cell_setting 'orthorhombic'
loop_
_space_group_symop_operation_xyz
x,y,z
-x,-y,z
1/2-x,y,z
1/2+x,-y,z
x,1/2+y,1/2+z
-x,1/2-y,1/2+z
1/2-x,1/2+y,1/2+z
1/2+x,1/2-y,1/2+z
loop_
_atom_site_type_symbol
_atom_site_label
_atom_site_fract_x
_atom_site_fract_y
_atom_site_fract_z
Si Si1 0.646843 0.137556 0.350220
Si Si2 0.858702 0.150451 0.656885
Si Si3 0.350716 0.047172 0.574296
Si Si4 0.860150 0.251525 0.213554
Si Si5 0.509401 0.614583 0.285128
Si Si6 0.025882 0.730622 0.081652
Si Si7 0.517474 0.756707 0.416535
Si Si8 0.598822 0.455481 0.919888
O O1 0.750000 0.175004 0.367915
O O2 0.618979 0.163642 0.268203
O O3 0.583935 0.193914 0.408614
O O4 0.639449 0.020523 0.354317
O O5 0.750000 0.182800 0.659481
O O6 0.898998 0.140067 0.738061
O O7 0.919524 0.230373 0.612252
O O8 0.873940 0.049352 0.617062
O O9 0.250000 0.088958 0.602485
O O10 0.436199 0.120401 0.583895
O O11 0.335571 0.027521 0.489053
O O12 0.750000 0.275617 0.207077
O O13 0.915691 0.346475 0.244251
O O14 0.903662 0.214193 0.136982
O O15 0.500000 0.500000 0.298265
O O16 0.526733 0.664969 0.363558
O O17 0.030197 0.776040 0.000793
O O18 0.592778 0.841840 0.397050
O O19 0.500000 0.500000 0.943065
#
# Coordination Sequence:
#
# PCOD8182351 Si02
#       8
#     8   8   8   8   8   8   8   8
#     4   9  16  28  48  72  95 120 155 198 242 290
#     4  10  19  30  47  71  97 124 156 200 253 301
#     4  10  17  25  42  68  94 120 149 186 240 298
#     4   9  18  32  51  73  93 120 162 207 246 284
#     4  10  20  34  51  70  97 132 170 206 239 282
#     4  10  18  30  46  66  96 126 155 195 242 291
#     4   9  19  32  47  70  99 130 160 197 241 286
#     4   9  16  27  44  68  98 122 145 183 238 294
#
# _framework density 17.638589
#
# number of rings (size 3 to 8) (size 9 to 14) (size 15 to 20)
#    0.000    2.500    0.000    4.875    0.000    3.000 
#    0.000    3.750    0.000    5.250    0.000    0.000 
#    0.000    0.000    0.000    0.000    0.000    0.000 
#
# Total GULP energy -396452.399050 kJ/mol
# GULP energy per Si atom -12389.137470 kJ/mol
# Density = 1.759844 g / cm^3
# Si number density = 17.638589 Si / 1000 Ang^3
#
#
#
# Elastic Constant Matrix: (Units=GPa)
#
#
# Indices 1 2 3 4 5 6 
#
# 1 105.2841 15.0449 43.1580 0.0000 0.0000 0.0000
# 2 15.0449 58.3258 49.4881 0.0000 0.0000 0.0000
# 3 43.1580 49.4881 134.3863 0.0000 0.0000 0.0000
# 4 0.0000 0.0000 0.0000 27.9395 0.0000 0.0000
# 5 0.0000 0.0000 0.0000 0.0000 36.7387 0.0000
# 6 0.0000 0.0000 0.0000 0.0000 0.0000 8.8753
#
#
#
# Elastic Compliance Matrix: (Units=1/GPa)
#
#
# Indices 1 2 3 4 5 6 
#
# 1 0.010940 0.000231 -0.003599 0.000000 0.000000 0.000000
# 2 0.000231 0.024942 -0.009259 0.000000 0.000000 0.000000
# 3 -0.003599 -0.009259 0.012007 0.000000 0.000000 0.000000
# 4 0.000000 0.000000 0.000000 0.035792 0.000000 0.000000
# 5 0.000000 0.000000 0.000000 0.000000 0.027219 0.000000
# 6 0.000000 0.000000 0.000000 0.000000 0.000000 0.112673
#
#
# Mechanical properties :
#
#
# Convention : Reuss Voigt Hill
#
# Bulk Modulus (GPa) = 44.17810 57.04202 50.61006
# Shear Modulus (GPa) = 19.50307 27.39769 23.45038
#
# Velocity S-wave (km/s) = 3.32882 3.94544 3.65018
# Velocity P-wave (km/s) = 6.31470 7.29143 6.82057
#
# Compressibility (1/GPa) = 0.02263565
#
# Stress axis : x y z
#
# Youngs Moduli (GPa) = 91.40603 40.09376 83.28736
#
# Poissons Ratio (x) = -0.00928 0.29972
# Poissons Ratio (y) = -0.02115 0.77117
# Poissons Ratio (z) = 0.32894 0.37123
#
# Static dielectric constant tensor:
#      x y z
#    x 3.454870 0.000000 0.000000 
#    y 0.000000 3.021750 0.000000 
#    z 0.000000 0.000000 3.498030 
# 
# 
# High freq. dielectric constant tensor:
#      x y z
#    x 1.692490 0.000000 0.000000 
#    y 0.000000 1.633480 0.000000 
#    z 0.000000 0.000000 1.684230 
# 
# From -- ./inp_files/20880.got.cif
#   From: 2010.03.12/outbox.cif.g09.slc.cpg/sg40_11_cif.got.tgz:20880.got - 2010.04.14 01:38:03.
