data_PCOD8182750
_publ_section_title
;
Structure prediction by ZEFSAII (Michael W. Deem and Ramdas Pophale) SiO2 
 PCOD8182750
Probable space group: A M A 2
;
_chemical_formula_sum "Si O2"
_cell_formula_units_Z 64
_cell_length_a 15.493110
_cell_length_b 16.323834
_cell_length_c 12.578908
_cell_angle_alpha 90.000000
_cell_angle_beta 90.000000
_cell_angle_gamma 90.000000
_cell_volume 3181.293329
_symmetry_space_group_name_H-M "A M A 2"
_symmetry_group_IT_number 40
_symmetry_cell_setting 'orthorhombic'
loop_
_space_group_symop_operation_xyz
x,y,z
-x,-y,z
1/2-x,y,z
1/2+x,-y,z
x,1/2+y,1/2+z
-x,1/2-y,1/2+z
1/2-x,1/2+y,1/2+z
1/2+x,1/2-y,1/2+z
loop_
_atom_site_type_symbol
_atom_site_label
_atom_site_fract_x
_atom_site_fract_y
_atom_site_fract_z
Si Si1 0.148679 0.655416 0.701000
Si Si2 0.507725 0.591098 0.364280
Si Si3 0.401134 0.017331 0.348804
Si Si4 0.845223 0.136029 0.457796
Si Si5 0.153116 0.785458 0.873467
Si Si6 0.511082 0.090326 0.620454
Si Si7 0.156134 0.140999 0.528358
Si Si8 0.848157 0.320506 0.455862
O O1 0.250000 0.651429 0.718221
O O2 0.111811 0.566233 0.737667
O O3 0.115066 0.731496 0.774136
O O4 0.122621 0.671745 0.579330
O O5 0.500000 0.500000 0.413571
O O6 0.587369 0.643205 0.411086
O O7 0.536413 0.586164 0.242247
O O8 0.414200 0.630404 0.382521
O O9 0.360582 0.072910 0.439794
O O10 0.500000 0.000000 0.368084
O O11 0.357231 0.927395 0.359332
O O12 0.750000 0.123899 0.507752
O O13 0.912876 0.130509 0.553385
O O14 0.853793 0.227769 0.413379
O O15 0.250000 0.819602 0.847728
O O16 0.158375 0.729633 0.976839
O O17 0.420644 0.139284 0.613558
O O18 0.500000 0.000000 0.572268
O O19 0.250000 0.123118 0.581696
O O20 0.750000 0.354121 0.442506
#
# Coordination Sequence:
#
# PCOD8182750 Si02
#       8
#     8   8   8   8   8   8   8   8
#     4   9  19  37  60  87 115 154 198 242 297 358
#     4  11  25  39  58  78 111 157 202 242 280 343
#     4  11  19  31  57  93 127 146 184 238 301 360
#     4  11  20  35  60  89 123 155 187 243 307 358
#     4   9  19  36  60  87 110 140 189 244 295 349
#     4  11  21  34  52  87 117 147 190 232 286 349
#     4  10  18  33  57  83 117 149 177 232 298 352
#     4  10  23  41  59  80 117 162 203 242 291 352
#
# _framework density 20.117605000000001
#
# number of rings (size 3 to 8) (size 9 to 14) (size 15 to 20)
#    0.000    1.750    2.500    3.375    1.750    3.000 
#    0.000    2.500    2.750    0.000    0.000    0.000 
#    0.000    0.000    0.000    0.000    0.000    0.000 
#
# Total GULP energy -396585.696726 kJ/mol
# GULP energy per Si atom -12393.303023 kJ/mol
# Density = 2.007182 g / cm^3
# Si number density = 20.117605 Si / 1000 Ang^3
#
#
#
# Elastic Constant Matrix: (Units=GPa)
#
#
# Indices 1 2 3 4 5 6 
#
# 1 145.2848 57.6307 10.3202 0.0000 0.0000 0.0000
# 2 57.6307 125.6017 22.9128 0.0000 0.0000 0.0000
# 3 10.3202 22.9128 26.1406 0.0000 0.0000 0.0000
# 4 0.0000 0.0000 0.0000 20.2921 0.0000 0.0000
# 5 0.0000 0.0000 0.0000 0.0000 28.2968 0.0000
# 6 0.0000 0.0000 0.0000 0.0000 0.0000 28.0711
#
#
#
# Elastic Compliance Matrix: (Units=1/GPa)
#
#
# Indices 1 2 3 4 5 6 
#
# 1 0.008415 -0.003874 0.000074 0.000000 0.000000 0.000000
# 2 -0.003874 0.011261 -0.008341 0.000000 0.000000 0.000000
# 3 0.000074 -0.008341 0.045536 0.000000 0.000000 0.000000
# 4 0.000000 0.000000 0.000000 0.049280 0.000000 0.000000
# 5 0.000000 0.000000 0.000000 0.000000 0.035340 0.000000
# 6 0.000000 0.000000 0.000000 0.000000 0.000000 0.035624
#
#
# Mechanical properties :
#
#
# Convention : Reuss Voigt Hill
#
# Bulk Modulus (GPa) = 24.43239 53.19496 38.81368
# Shear Modulus (GPa) = 22.38323 29.07624 25.72973
#
# Velocity S-wave (km/s) = 3.33921 3.80585 3.58014
# Velocity P-wave (km/s) = 5.19983 6.76846 6.03533
#
# Compressibility (1/GPa) = 0.04092928
#
# Stress axis : x y z
#
# Youngs Moduli (GPa) = 118.84002 88.80209 21.96047
#
# Poissons Ratio (x) = 0.34406 -0.00162
# Poissons Ratio (y) = 0.46044 0.18317
# Poissons Ratio (z) = -0.00879 0.74069
#
# Static dielectric constant tensor:
#      x y z
#    x 3.361350 0.000000 0.000000 
#    y 0.000000 4.035240 0.000000 
#    z 0.000000 0.000000 3.341300 
# 
# 
# High freq. dielectric constant tensor:
#      x y z
#    x 1.797620 0.000000 0.000000 
#    y 0.000000 1.784820 0.000000 
#    z 0.000000 0.000000 1.746390 
# 
# From -- ./inp_files/17261.got.cif
#   From: 2010.03.12/outbox.cif.g09.slc.cpg/sg40_9_cif.got.tgz:17261.got - 2010.04.14 01:38:03.
