data_PCOD8182613
_publ_section_title
;
Structure prediction by ZEFSAII (Michael W. Deem and Ramdas Pophale) SiO2 
 PCOD8182613
Probable space group: A M A 2
;
_chemical_formula_sum "Si O2"
_cell_formula_units_Z 48
_cell_length_a 16.747494
_cell_length_b 9.204203
_cell_length_c 16.258283
_cell_angle_alpha 90.000000
_cell_angle_beta 90.000000
_cell_angle_gamma 90.000000
_cell_volume 2506.170988
_symmetry_space_group_name_H-M "A M A 2"
_symmetry_group_IT_number 40
_symmetry_cell_setting 'orthorhombic'
loop_
_space_group_symop_operation_xyz
x,y,z
-x,-y,z
1/2-x,y,z
1/2+x,-y,z
x,1/2+y,1/2+z
-x,1/2-y,1/2+z
1/2-x,1/2+y,1/2+z
1/2+x,1/2-y,1/2+z
loop_
_atom_site_type_symbol
_atom_site_label
_atom_site_fract_x
_atom_site_fract_y
_atom_site_fract_z
Si Si1 0.090821 0.000393 0.188780
Si Si2 0.411283 0.677081 0.224034
Si Si3 0.841116 0.061354 0.626916
Si Si4 0.156654 0.011645 0.875687
Si Si5 0.156854 0.163658 0.037524
Si Si6 0.908379 0.718429 0.273783
O O1 0.143253 0.056722 0.113747
O O2 0.098040 0.106162 0.269604
O O3 0.119531 0.840855 0.212976
O O4 0.000000 0.000000 0.157510
O O5 0.393644 0.585151 0.139993
O O6 0.358764 0.613706 0.297713
O O7 0.504469 0.666306 0.244365
O O8 0.750000 0.016841 0.607758
O O9 0.876251 0.172061 0.556577
O O10 0.843126 0.153196 0.711393
O O11 0.250000 0.982863 0.888295
O O12 0.112473 0.854132 0.862325
O O13 0.118973 0.092499 0.955461
O O14 0.250000 0.181688 0.023631
#
# Coordination Sequence:
#
# PCOD8182613 Si02
#       6
#     8   8   8   8   8   8
#     4   9  19  33  50  73  98 124 162 208 247 286
#     4  10  18  30  51  74  95 124 163 204 245 291
#     4   9  16  29  48  70  94 125 159 196 239 289
#     4  10  19  32  49  72  98 130 165 198 240 295
#     4   9  19  33  49  69  98 129 161 199 244 293
#     4   9  17  31  50  70  96 128 164 201 239 288
#
# _framework density 19.152723999999999
#
# number of rings (size 3 to 8) (size 9 to 14) (size 15 to 20)
#    0.000    2.667    0.000    4.000    0.000    3.333 
#    0.000    1.667    0.000   14.000    0.000    0.000 
#    0.000    0.000    0.000    0.000    0.000    0.000 
#
# Total GULP energy -297320.420844 kJ/mol
# GULP energy per Si atom -12388.350869 kJ/mol
# Density = 1.910913 g / cm^3
# Si number density = 19.152724 Si / 1000 Ang^3
#
#
#
# Elastic Constant Matrix: (Units=GPa)
#
#
# Indices 1 2 3 4 5 6 
#
# 1 51.0138 31.6197 19.5464 0.0000 0.0000 0.0000
# 2 31.6197 177.5209 67.5071 0.0000 0.0000 0.0000
# 3 19.5464 67.5071 89.7948 0.0000 0.0000 0.0000
# 4 0.0000 0.0000 0.0000 33.3705 0.0000 0.0000
# 5 0.0000 0.0000 0.0000 0.0000 14.2074 0.0000
# 6 0.0000 0.0000 0.0000 0.0000 0.0000 22.1888
#
#
#
# Elastic Compliance Matrix: (Units=1/GPa)
#
#
# Indices 1 2 3 4 5 6 
#
# 1 0.022472 -0.003000 -0.002636 0.000000 0.000000 0.000000
# 2 -0.003000 0.008289 -0.005578 0.000000 0.000000 0.000000
# 3 -0.002636 -0.005578 0.015904 0.000000 0.000000 0.000000
# 4 0.000000 0.000000 0.000000 0.029967 0.000000 0.000000
# 5 0.000000 0.000000 0.000000 0.000000 0.070386 0.000000
# 6 0.000000 0.000000 0.000000 0.000000 0.000000 0.045068
#
#
# Mechanical properties :
#
#
# Convention : Reuss Voigt Hill
#
# Bulk Modulus (GPa) = 41.26161 61.74176 51.50169
# Shear Modulus (GPa) = 22.46244 27.26376 24.86310
#
# Velocity S-wave (km/s) = 3.42834 3.77701 3.60689
# Velocity P-wave (km/s) = 6.10423 7.16433 6.65542
#
# Compressibility (1/GPa) = 0.02423560
#
# Stress axis : x y z
#
# Youngs Moduli (GPa) = 44.49934 120.64345 62.87657
#
# Poissons Ratio (x) = 0.36196 0.16575
# Poissons Ratio (y) = 0.13351 0.35075
# Poissons Ratio (z) = 0.11731 0.67300
#
# Static dielectric constant tensor:
#      x y z
#    x 3.347920 0.000000 0.000000 
#    y 0.000000 4.032690 0.000000 
#    z 0.000000 0.000000 3.526870 
# 
# 
# High freq. dielectric constant tensor:
#      x y z
#    x 1.738480 0.000000 0.000000 
#    y 0.000000 1.754850 0.000000 
#    z 0.000000 0.000000 1.703920 
# 
# From -- ./inp_files/21004.got.cif
#   From: 2010.03.12/outbox.cif.g09.slc.cpg/sg40_11_cif.got.tgz:21004.got - 2010.04.14 01:38:03.
