data_PCOD8182784
_publ_section_title
;
Structure prediction by ZEFSAII (Michael W. Deem and Ramdas Pophale) SiO2 
 PCOD8182784
Probable space group: A M A 2
;
_chemical_formula_sum "Si O2"
_cell_formula_units_Z 56
_cell_length_a 14.343298
_cell_length_b 9.692500
_cell_length_c 16.679250
_cell_angle_alpha 90.000000
_cell_angle_beta 90.000000
_cell_angle_gamma 90.000000
_cell_volume 2318.789630
_symmetry_space_group_name_H-M "A M A 2"
_symmetry_group_IT_number 40
_symmetry_cell_setting 'orthorhombic'
loop_
_space_group_symop_operation_xyz
x,y,z
-x,-y,z
1/2-x,y,z
1/2+x,-y,z
x,1/2+y,1/2+z
-x,1/2-y,1/2+z
1/2-x,1/2+y,1/2+z
1/2+x,1/2-y,1/2+z
loop_
_atom_site_type_symbol
_atom_site_label
_atom_site_fract_x
_atom_site_fract_y
_atom_site_fract_z
Si Si1 0.857985 0.669366 0.623920
Si Si2 0.350998 0.945107 0.809420
Si Si3 0.355859 0.254451 0.801699
Si Si4 0.094694 0.918493 0.633999
Si Si5 0.638041 0.874173 0.172951
Si Si6 0.355549 0.613746 0.000232
Si Si7 0.051179 0.176089 0.341497
O O1 0.750000 0.660437 0.604753
O O2 0.874199 0.750776 0.706683
O O3 0.896679 0.513355 0.628608
O O4 0.901834 0.761777 0.552784
O O5 0.250000 0.896587 0.841928
O O6 0.369075 0.101326 0.837504
O O7 0.343632 0.942389 0.712865
O O8 0.428097 0.841077 0.844600
O O9 0.250000 0.311107 0.820016
O O10 0.438808 0.348054 0.838747
O O11 0.142341 0.973451 0.552728
O O12 0.085134 0.751277 0.627536
O O13 0.000000 0.000000 0.648233
O O14 0.750000 0.857483 0.171191
O O15 0.604463 0.886894 0.264974
O O16 0.250000 0.644993 0.975289
O O17 0.415596 0.596893 0.920399
#
# Coordination Sequence:
#
# PCOD8182784 Si02
#       7
#     8   8   8   8   8   8   8
#     4   9  20  39  67  98 129 170 219 272 327 389
#     4  10  18  34  64  96 129 172 224 272 316 386
#     4  10  20  38  64  94 129 177 225 270 321 394
#     4  11  21  37  61  94 130 177 223 262 315 396
#     4  10  21  40  66  98 133 173 221 269 325 393
#     4  11  22  41  68  99 134 170 217 277 339 390
#     4  11  22  37  64 100 129 172 219 275 331 389
#
# _framework density 24.150532999999999
#
# number of rings (size 3 to 8) (size 9 to 14) (size 15 to 20)
#    0.000    1.714    1.429    5.571    0.000    0.571 
#    2.571    2.857    0.000    3.429    0.000    0.000 
#    0.000    0.000    0.000    0.000    0.000    0.000 
#
# Total GULP energy -347020.186895 kJ/mol
# GULP energy per Si atom -12393.578103 kJ/mol
# Density = 2.409556 g / cm^3
# Si number density = 24.150533 Si / 1000 Ang^3
#
#
#
# Elastic Constant Matrix: (Units=GPa)
#
#
# Indices 1 2 3 4 5 6 
#
# 1 108.1186 5.7768 31.4080 0.0000 0.0000 0.0000
# 2 5.7768 132.2770 39.0066 0.0000 0.0000 0.0000
# 3 31.4080 39.0066 112.0942 0.0000 0.0000 0.0000
# 4 0.0000 0.0000 0.0000 26.7878 0.0000 0.0000
# 5 0.0000 0.0000 0.0000 0.0000 25.5579 0.0000
# 6 0.0000 0.0000 0.0000 0.0000 0.0000 2.1369
#
#
#
# Elastic Compliance Matrix: (Units=1/GPa)
#
#
# Indices 1 2 3 4 5 6 
#
# 1 0.010091 0.000438 -0.002980 0.000000 0.000000 0.000000
# 2 0.000438 0.008443 -0.003061 0.000000 0.000000 0.000000
# 3 -0.002980 -0.003061 0.010821 0.000000 0.000000 0.000000
# 4 0.000000 0.000000 0.000000 0.037330 0.000000 0.000000
# 5 0.000000 0.000000 0.000000 0.000000 0.039127 0.000000
# 6 0.000000 0.000000 0.000000 0.000000 0.000000 0.467963
#
#
# Mechanical properties :
#
#
# Convention : Reuss Voigt Hill
#
# Bulk Modulus (GPa) = 55.09544 56.09694 55.59619
# Shear Modulus (GPa) = 8.45979 29.31641 18.88810
#
# Velocity S-wave (km/s) = 1.87364 3.48789 2.79964
# Velocity P-wave (km/s) = 5.24820 6.28482 5.78976
#
# Compressibility (1/GPa) = 0.01815032
#
# Stress axis : x y z
#
# Youngs Moduli (GPa) = 99.09457 118.43608 92.41151
#
# Poissons Ratio (x) = -0.05188 0.27538
# Poissons Ratio (y) = -0.04341 0.28286
# Poissons Ratio (z) = 0.29530 0.36252
#
# Static dielectric constant tensor:
#      x y z
#    x 4.523500 0.000000 0.000000 
#    y 0.000000 4.694250 0.000000 
#    z 0.000000 0.000000 3.921590 
# 
# 
# High freq. dielectric constant tensor:
#      x y z
#    x 1.966420 0.000000 0.000000 
#    y 0.000000 1.969750 0.000000 
#    z 0.000000 0.000000 1.911150 
# 
# From -- ./inp_files/17073.got.cif
#   From: 2010.03.12/outbox.cif.g09.slc.cpg/sg40_9_cif.got.tgz:17073.got - 2010.04.14 01:38:03.
