data_PCOD8182109
_publ_section_title
;
Structure prediction by ZEFSAII (Michael W. Deem and Ramdas Pophale) SiO2 
 PCOD8182109
Probable space group: A B M 2
;
_chemical_formula_sum "Si O2"
_cell_formula_units_Z 48
_cell_length_a 11.677781
_cell_length_b 16.100062
_cell_length_c 11.658770
_cell_angle_alpha 90.000000
_cell_angle_beta 90.000000
_cell_angle_gamma 90.000000
_cell_volume 2192.000302
_symmetry_space_group_name_H-M "A B M 2"
_symmetry_group_IT_number 39
_symmetry_cell_setting 'orthorhombic'
loop_
_space_group_symop_operation_xyz
x,y,z
-x,-y,z
-x,1/2+y,z
x,1/2-y,z
x,1/2+y,1/2+z
-x,1/2-y,1/2+z
-x,y,1/2+z
x,-y,1/2+z
loop_
_atom_site_type_symbol
_atom_site_label
_atom_site_fract_x
_atom_site_fract_y
_atom_site_fract_z
Si Si1 0.955861 0.408640 0.262490
Si Si2 0.263026 0.073047 0.892844
Si Si3 0.808453 0.159133 0.083027
Si Si4 0.803195 0.616275 0.332387
Si Si5 0.654366 0.154907 0.619281
Si Si6 0.412399 0.152182 0.712349
O O1 0.851096 0.379203 0.346075
O O2 0.909916 0.400195 0.131200
O O3 0.000000 0.500000 0.288281
O O4 0.071802 0.359014 0.283136
O O5 0.379786 0.103267 0.829495
O O6 0.233293 0.977557 0.866039
O O7 0.283604 0.094061 0.027201
O O8 0.832743 0.250000 0.135717
O O9 0.685746 0.126630 0.123599
O O10 0.800752 0.167653 0.948108
O O11 0.717899 0.652818 0.240013
O O12 0.651368 0.250000 0.572693
O O13 0.528001 0.121242 0.650716
O O14 0.420870 0.250000 0.740158
#
# Coordination Sequence:
#
# PCOD8182109 Si02
#       6
#     8   8   8   8   8   8
#     4   9  22  42  67  90 128 172 214 265 330 394
#     4  10  23  43  67  95 127 178 217 268 332 400
#     4  10  22  41  66  93 129 173 217 268 330 397
#     4  11  25  40  64 101 133 163 220 276 332 392
#     4  11  25  43  67  96 132 175 225 277 330 398
#     4   9  21  43  66  91 127 174 221 270 330 394
#
# _framework density 21.897808000000001
#
# number of rings (size 3 to 8) (size 9 to 14) (size 15 to 20)
#    0.000    2.000    0.000    1.000   11.667    3.333 
#    0.000    0.000    0.000    0.000    0.000    0.000 
#    0.000    0.000    0.000    0.000    0.000    0.000 
#
# Total GULP energy -297349.630646 kJ/mol
# GULP energy per Si atom -12389.567944 kJ/mol
# Density = 2.184797 g / cm^3
# Si number density = 21.897808 Si / 1000 Ang^3
#
#
#
# Elastic Constant Matrix: (Units=GPa)
#
#
# Indices 1 2 3 4 5 6 
#
# 1 149.2223 32.1255 61.2246 0.0000 0.0000 0.0000
# 2 32.1255 47.0884 13.7446 0.0000 0.0000 0.0000
# 3 61.2246 13.7446 134.0444 0.0000 0.0000 0.0000
# 4 0.0000 0.0000 0.0000 31.9101 0.0000 0.0000
# 5 0.0000 0.0000 0.0000 0.0000 35.0522 0.0000
# 6 0.0000 0.0000 0.0000 0.0000 0.0000 24.4009
#
#
#
# Elastic Compliance Matrix: (Units=1/GPa)
#
#
# Indices 1 2 3 4 5 6 
#
# 1 0.009378 -0.005307 -0.003739 0.000000 0.000000 0.000000
# 2 -0.005307 0.024895 -0.000129 0.000000 0.000000 0.000000
# 3 -0.003739 -0.000129 0.009181 0.000000 0.000000 0.000000
# 4 0.000000 0.000000 0.000000 0.031338 0.000000 0.000000
# 5 0.000000 0.000000 0.000000 0.000000 0.028529 0.000000
# 6 0.000000 0.000000 0.000000 0.000000 0.000000 0.040982
#
#
# Mechanical properties :
#
#
# Convention : Reuss Voigt Hill
#
# Bulk Modulus (GPa) = 39.83342 60.50496 50.16919
# Shear Modulus (GPa) = 29.23622 33.15666 31.19644
#
# Velocity S-wave (km/s) = 3.65789 3.89544 3.77853
# Velocity P-wave (km/s) = 6.00586 6.92265 6.48049
#
# Compressibility (1/GPa) = 0.02510455
#
# Stress axis : x y z
#
# Youngs Moduli (GPa) = 106.63204 40.16926 108.91659
#
# Poissons Ratio (x) = 0.21316 0.40727
# Poissons Ratio (y) = 0.56585 0.01403
# Poissons Ratio (z) = 0.39873 0.00518
#
# Static dielectric constant tensor:
#      x y z
#    x 4.522110 0.000000 0.000000 
#    y 0.000000 3.726680 0.000000 
#    z 0.000000 0.000000 3.851810 
# 
# 
# High freq. dielectric constant tensor:
#      x y z
#    x 1.872730 0.000000 0.000000 
#    y 0.000000 1.849850 0.000000 
#    z 0.000000 0.000000 1.856780 
# 
# From -- ./inp_files/5823.got.cif
#   From: 2010.03.12/outbox.cif.g09.slc.cpg/sg39_3_cif.got.tgz:5823.got - 2010.04.14 02:53:20.
