data_PCOD8182172
_publ_section_title
;
Structure prediction by ZEFSAII (Michael W. Deem and Ramdas Pophale) SiO2 
 PCOD8182172
Probable space group: A B M 2
;
_chemical_formula_sum "Si O2"
_cell_formula_units_Z 64
_cell_length_a 21.895333
_cell_length_b 14.512303
_cell_length_c 9.321979
_cell_angle_alpha 90.000000
_cell_angle_beta 90.000000
_cell_angle_gamma 90.000000
_cell_volume 2962.074738
_symmetry_space_group_name_H-M "A B M 2"
_symmetry_group_IT_number 39
_symmetry_cell_setting 'orthorhombic'
loop_
_space_group_symop_operation_xyz
x,y,z
-x,-y,z
-x,1/2+y,z
x,1/2-y,z
x,1/2+y,1/2+z
-x,1/2-y,1/2+z
-x,y,1/2+z
x,-y,1/2+z
loop_
_atom_site_type_symbol
_atom_site_label
_atom_site_fract_x
_atom_site_fract_y
_atom_site_fract_z
Si Si1 0.168241 0.357014 0.979680
Si Si2 0.739019 0.988995 0.563307
Si Si3 0.038072 0.410818 0.490934
Si Si4 0.844405 0.642894 0.653331
Si Si5 0.572544 0.143381 0.383191
Si Si6 0.546643 0.643589 0.209444
Si Si7 0.653156 0.021962 0.817793
Si Si8 0.059544 0.350235 0.179408
O O1 0.187284 0.250000 0.005400
O O2 0.139214 0.367240 0.821163
O O3 0.225454 0.424380 0.994470
O O4 0.117526 0.391475 0.093844
O O5 0.780851 0.907339 0.622607
O O6 0.696726 0.032167 0.683366
O O7 0.694064 0.942598 0.448887
O O8 0.105411 0.408630 0.557120
O O9 0.042003 0.409304 0.318936
O O10 0.000000 0.500000 0.540544
O O11 0.996962 0.333409 0.568971
O O12 0.839348 0.750000 0.608717
O O13 0.592129 0.250000 0.374200
O O14 0.520299 0.119203 0.268121
O O15 0.548458 0.117866 0.541850
O O16 0.631690 0.083281 0.344024
O O17 0.561835 0.750000 0.235739
O O18 0.594980 0.587006 0.302084
O O19 0.077773 0.250000 0.239315
#
# Coordination Sequence:
#
# PCOD8182172 Si02
#       8
#     8   8   8   8   8   8   8   8
#     4  10  24  46  70  93 131 176 219 272 330 390
#     4  12  26  43  65  98 132 174 228 267 323 390
#     4  12  25  41  65  95 127 162 206 264 324 386
#     4  11  25  47  69  94 132 175 220 273 330 390
#     4  10  23  43  68  97 133 174 218 270 333 393
#     4  10  23  43  67  98 133 173 218 272 333 392
#     4  12  25  42  67  97 134 175 222 273 322 389
#     4  11  23  41  65  94 123 161 209 259 321 386
#
# _framework density 21.606477000000002
#
# number of rings (size 3 to 8) (size 9 to 14) (size 15 to 20)
#    0.000    1.000    2.500    3.375    3.500    6.000 
#    0.000    0.625    0.000    0.000    0.000    0.000 
#    0.000    0.000    0.000    0.000    0.000    0.000 
#
# Total GULP energy -396856.109327 kJ/mol
# GULP energy per Si atom -12401.753416 kJ/mol
# Density = 2.155730 g / cm^3
# Si number density = 21.606477 Si / 1000 Ang^3
#
#
#
# Elastic Constant Matrix: (Units=GPa)
#
#
# Indices 1 2 3 4 5 6 
#
# 1 88.1293 32.7540 30.3657 0.0000 0.0000 0.0000
# 2 32.7540 81.8198 24.6969 0.0000 0.0000 0.0000
# 3 30.3657 24.6969 127.1095 0.0000 0.0000 0.0000
# 4 0.0000 0.0000 0.0000 24.4134 0.0000 0.0000
# 5 0.0000 0.0000 0.0000 0.0000 52.1662 0.0000
# 6 0.0000 0.0000 0.0000 0.0000 0.0000 27.1847
#
#
#
# Elastic Compliance Matrix: (Units=1/GPa)
#
#
# Indices 1 2 3 4 5 6 
#
# 1 0.013984 -0.004876 -0.002393 0.000000 0.000000 0.000000
# 2 -0.004876 0.014683 -0.001688 0.000000 0.000000 0.000000
# 3 -0.002393 -0.001688 0.008767 0.000000 0.000000 0.000000
# 4 0.000000 0.000000 0.000000 0.040961 0.000000 0.000000
# 5 0.000000 0.000000 0.000000 0.000000 0.019170 0.000000
# 6 0.000000 0.000000 0.000000 0.000000 0.000000 0.036785
#
#
# Mechanical properties :
#
#
# Convention : Reuss Voigt Hill
#
# Bulk Modulus (GPa) = 51.22972 52.52133 51.87552
# Shear Modulus (GPa) = 31.49198 34.70231 33.09715
#
# Velocity S-wave (km/s) = 3.82190 4.01197 3.91809
# Velocity P-wave (km/s) = 6.57554 6.76921 6.67307
#
# Compressibility (1/GPa) = 0.01951992
#
# Stress axis : x y z
#
# Youngs Moduli (GPa) = 71.51222 68.10450 114.06419
#
# Poissons Ratio (x) = 0.33204 0.27299
# Poissons Ratio (y) = 0.34866 0.19256
# Poissons Ratio (z) = 0.17115 0.11497
#
# Static dielectric constant tensor:
#      x y z
#    x 3.818750 0.000000 0.000000 
#    y 0.000000 3.869900 0.000000 
#    z 0.000000 0.000000 3.900140 
# 
# 
# High freq. dielectric constant tensor:
#      x y z
#    x 1.848630 0.000000 0.000000 
#    y 0.000000 1.854130 0.000000 
#    z 0.000000 0.000000 1.860910 
# 
# From -- ./inp_files/4089.got.cif
#   From: 2010.03.12/outbox.cif.g09.slc.cpg/sg39_3_cif.got.tgz:4089.got - 2010.04.14 02:53:20.
