data_PCOD8182512
_publ_section_title
;
Structure prediction by ZEFSAII (Michael W. Deem and Ramdas Pophale) SiO2 
 PCOD8182512
Probable space group: A M A 2
;
_chemical_formula_sum "Si O2"
_cell_formula_units_Z 56
_cell_length_a 8.973048
_cell_length_b 18.324423
_cell_length_c 20.790275
_cell_angle_alpha 90.000000
_cell_angle_beta 90.000000
_cell_angle_gamma 90.000000
_cell_volume 3418.460243
_symmetry_space_group_name_H-M "A M A 2"
_symmetry_group_IT_number 40
_symmetry_cell_setting 'orthorhombic'
loop_
_space_group_symop_operation_xyz
x,y,z
-x,-y,z
1/2-x,y,z
1/2+x,-y,z
x,1/2+y,1/2+z
-x,1/2-y,1/2+z
1/2-x,1/2+y,1/2+z
1/2+x,1/2-y,1/2+z
loop_
_atom_site_type_symbol
_atom_site_label
_atom_site_fract_x
_atom_site_fract_y
_atom_site_fract_z
Si Si1 0.080843 0.720670 0.793170
Si Si2 0.075122 0.578005 0.487821
Si Si3 0.573747 0.339396 0.615179
Si Si4 0.919066 0.926500 0.240680
Si Si5 0.081863 0.852793 0.870617
Si Si6 0.574939 0.789362 0.676862
Si Si7 0.576034 0.577405 0.232006
O O1 0.250000 0.736862 0.766347
O O2 0.060935 0.632986 0.798668
O O3 0.061485 0.764928 0.859923
O O4 0.958219 0.749052 0.743747
O O5 0.250000 0.565871 0.489364
O O6 0.020090 0.623230 0.549455
O O7 0.000000 0.500000 0.487503
O O8 0.033698 0.622128 0.423949
O O9 0.750000 0.326499 0.617073
O O10 0.521708 0.391584 0.673942
O O11 0.493097 0.260731 0.619878
O O12 0.750000 0.949270 0.230899
O O13 0.000000 0.000000 0.260767
O O14 0.250000 0.870739 0.893373
O O15 0.046212 0.893493 0.803956
O O16 0.750000 0.799089 0.666366
O O17 0.496935 0.868578 0.679276
O O18 0.500000 0.500000 0.223815
O O19 0.750000 0.570594 0.217479
#
# Coordination Sequence:
#
# PCOD8182512 Si02
#       7
#     8   8   8   8   8   8   8
#     4   8  16  31  46  61  87 122 152 183 227 275
#     4  11  22  33  47  67  93 124 157 191 226 265
#     4   9  19  34  46  60  89 126 155 183 222 268
#     4   9  16  27  44  65  89 115 145 180 223 269
#     4   9  18  32  48  64  88 123 158 190 225 266
#     4  10  18  28  46  69  89 114 150 190 229 271
#     4  10  19  31  47  68  95 124 152 187 230 274
#
# _framework density 16.381644999999999
#
# number of rings (size 3 to 8) (size 9 to 14) (size 15 to 20)
#    0.000    2.571    0.000    4.714    0.000    7.429 
#    0.000    0.000    0.000    0.000    0.000    1.000 
#    0.000    4.571    0.000    0.000    0.000    0.000 
#
# Total GULP energy -347043.341463 kJ/mol
# GULP energy per Si atom -12394.405052 kJ/mol
# Density = 1.634436 g / cm^3
# Si number density = 16.381645 Si / 1000 Ang^3
#
#
#
# Elastic Constant Matrix: (Units=GPa)
#
#
# Indices 1 2 3 4 5 6 
#
# 1 72.3778 56.0002 29.6219 0.0000 0.0000 0.0000
# 2 56.0002 150.6094 54.1131 0.0000 0.0000 0.0000
# 3 29.6219 54.1131 63.3073 0.0000 0.0000 0.0000
# 4 0.0000 0.0000 0.0000 25.4379 0.0000 0.0000
# 5 0.0000 0.0000 0.0000 0.0000 16.0297 0.0000
# 6 0.0000 0.0000 0.0000 0.0000 0.0000 30.8765
#
#
#
# Elastic Compliance Matrix: (Units=1/GPa)
#
#
# Indices 1 2 3 4 5 6 
#
# 1 0.020203 -0.005940 -0.004376 0.000000 0.000000 0.000000
# 2 -0.005940 0.011329 -0.006904 0.000000 0.000000 0.000000
# 3 -0.004376 -0.006904 0.023745 0.000000 0.000000 0.000000
# 4 0.000000 0.000000 0.000000 0.039311 0.000000 0.000000
# 5 0.000000 0.000000 0.000000 0.000000 0.062384 0.000000
# 6 0.000000 0.000000 0.000000 0.000000 0.000000 0.032387
#
#
# Mechanical properties :
#
#
# Convention : Reuss Voigt Hill
#
# Bulk Modulus (GPa) = 47.99182 62.86276 55.42729
# Shear Modulus (GPa) = 21.66887 24.23943 22.95415
#
# Velocity S-wave (km/s) = 3.64091 3.85082 3.74734
# Velocity P-wave (km/s) = 6.85818 7.63079 7.25478
#
# Compressibility (1/GPa) = 0.02083688
#
# Stress axis : x y z
#
# Youngs Moduli (GPa) = 49.49749 88.26964 42.11372
#
# Poissons Ratio (x) = 0.52429 0.18429
# Poissons Ratio (y) = 0.29400 0.29077
# Poissons Ratio (z) = 0.21660 0.60945
#
# Static dielectric constant tensor:
#      x y z
#    x 3.052460 0.000000 0.000000 
#    y 0.000000 3.333140 0.000000 
#    z 0.000000 0.000000 2.863870 
# 
# 
# High freq. dielectric constant tensor:
#      x y z
#    x 1.634870 0.000000 0.000000 
#    y 0.000000 1.638860 0.000000 
#    z 0.000000 0.000000 1.583510 
# 
# From -- ./inp_files/22289.got.cif
#   From: 2010.03.12/outbox.cif.g09.slc.cpg/sg40_12_cif.got.tgz:22289.got - 2010.04.14 01:38:03.
