data_PCOD8182377
_publ_section_title
;
Structure prediction by ZEFSAII (Michael W. Deem and Ramdas Pophale) SiO2 
 PCOD8182377
Probable space group: A M A 2
;
_chemical_formula_sum "Si O2"
_cell_formula_units_Z 52
_cell_length_a 14.231415
_cell_length_b 9.238105
_cell_length_c 21.578237
_cell_angle_alpha 90.000000
_cell_angle_beta 90.000000
_cell_angle_gamma 90.000000
_cell_volume 2836.919001
_symmetry_space_group_name_H-M "A M A 2"
_symmetry_group_IT_number 40
_symmetry_cell_setting 'orthorhombic'
loop_
_space_group_symop_operation_xyz
x,y,z
-x,-y,z
1/2-x,y,z
1/2+x,-y,z
x,1/2+y,1/2+z
-x,1/2-y,1/2+z
1/2-x,1/2+y,1/2+z
1/2+x,1/2-y,1/2+z
loop_
_atom_site_type_symbol
_atom_site_label
_atom_site_fract_x
_atom_site_fract_y
_atom_site_fract_z
Si Si1 0.022961 0.843349 0.834270
Si Si2 0.500000 0.500000 0.216138
Si Si3 0.147111 0.733860 0.402699
Si Si4 0.644550 0.598683 0.437546
Si Si5 0.473628 0.342998 0.557548
Si Si6 0.857947 0.387006 0.118350
Si Si7 0.644479 0.146130 0.531085
O O1 0.118177 0.812480 0.873438
O O2 0.032427 0.862978 0.759825
O O3 0.934373 0.739739 0.851326
O O4 0.000000 0.000000 0.864060
O O5 0.590016 0.459646 0.176261
O O6 0.250000 0.753181 0.371026
O O7 0.141852 0.575304 0.433659
O O8 0.133753 0.853313 0.456638
O O9 0.750000 0.648138 0.455291
O O10 0.570598 0.650123 0.489131
O O11 0.500000 0.500000 0.583585
O O12 0.399161 0.271130 0.604376
O O13 0.569010 0.251671 0.561363
O O14 0.750000 0.372137 0.137515
O O15 0.872973 0.484564 0.056834
O O16 0.750000 0.197959 0.549655
#
# Coordination Sequence:
#
# PCOD8182377 Si02
#       7
#     8   4   8   8   8   8   8
#     4   8  16  28  45  75 105 141 185 232 274 315
#     4  10  20  34  54  76 112 156 196 234 280 324
#     4   9  15  27  48  78 108 135 173 228 285 334
#     4  10  17  27  47  80 113 138 176 235 286 328
#     4  12  20  34  56  82 112 144 186 240 293 345
#     4  11  24  39  54  82 117 154 191 233 290 353
#     4  10  19  33  54  77 111 146 180 226 290 349
#
# _framework density 18.329744000000002
#
# number of rings (size 3 to 8) (size 9 to 14) (size 15 to 20)
#    0.462    1.538    4.615    0.923    0.000    1.846 
#    0.000    0.000    0.000    0.000    4.000    0.000 
#    0.000    0.000    0.000    0.000    0.000    0.000 
#
# Total GULP energy -322096.603831 kJ/mol
# GULP energy per Si atom -12388.330917 kJ/mol
# Density = 1.828802 g / cm^3
# Si number density = 18.329744 Si / 1000 Ang^3
#
#
#
# Elastic Constant Matrix: (Units=GPa)
#
#
# Indices 1 2 3 4 5 6 
#
# 1 125.0835 45.3803 49.4170 0.0000 0.0000 0.0000
# 2 45.3803 58.3610 31.0546 0.0000 0.0000 0.0000
# 3 49.4170 31.0546 99.0979 0.0000 0.0000 0.0000
# 4 0.0000 0.0000 0.0000 15.0762 0.0000 0.0000
# 5 0.0000 0.0000 0.0000 0.0000 22.3240 0.0000
# 6 0.0000 0.0000 0.0000 0.0000 0.0000 21.5706
#
#
#
# Elastic Compliance Matrix: (Units=1/GPa)
#
#
# Indices 1 2 3 4 5 6 
#
# 1 0.012186 -0.007491 -0.003729 0.000000 0.000000 0.000000
# 2 -0.007491 0.025169 -0.004152 0.000000 0.000000 0.000000
# 3 -0.003729 -0.004152 0.013252 0.000000 0.000000 0.000000
# 4 0.000000 0.000000 0.000000 0.066330 0.000000 0.000000
# 5 0.000000 0.000000 0.000000 0.000000 0.044795 0.000000
# 6 0.000000 0.000000 0.000000 0.000000 0.000000 0.046359
#
#
# Mechanical properties :
#
#
# Convention : Reuss Voigt Hill
#
# Bulk Modulus (GPa) = 50.34628 59.36071 54.85350
# Shear Modulus (GPa) = 20.37037 22.24019 21.30528
#
# Velocity S-wave (km/s) = 3.33728 3.48708 3.41300
# Velocity P-wave (km/s) = 6.50972 6.97626 6.74702
#
# Compressibility (1/GPa) = 0.01986244
#
# Stress axis : x y z
#
# Youngs Moduli (GPa) = 82.06359 39.73179 75.46226
#
# Poissons Ratio (x) = 0.29763 0.28141
# Poissons Ratio (y) = 0.61474 0.31330
# Poissons Ratio (z) = 0.30603 0.16495
#
# Static dielectric constant tensor:
#      x y z
#    x 3.706730 0.000000 0.000000 
#    y 0.000000 3.068050 0.000000 
#    z 0.000000 0.000000 3.105540 
# 
# 
# High freq. dielectric constant tensor:
#      x y z
#    x 1.734260 0.000000 0.000000 
#    y 0.000000 1.663590 0.000000 
#    z 0.000000 0.000000 1.679480 
# 
# From -- ./inp_files/23060.got.cif
#   From: 2010.03.12/outbox.cif.g09.slc.cpg/sg40_12_cif.got.tgz:23060.got - 2010.04.14 01:38:03.
