data_PCOD8182011
_publ_section_title
;
Structure prediction by ZEFSAII (Michael W. Deem and Ramdas Pophale) SiO2 
 PCOD8182011
Probable space group: A B M 2
;
_chemical_formula_sum "Si O2"
_cell_formula_units_Z 48
_cell_length_a 7.261530
_cell_length_b 25.590605
_cell_length_c 8.818591
_cell_angle_alpha 90.000000
_cell_angle_beta 90.000000
_cell_angle_gamma 90.000000
_cell_volume 1638.731833
_symmetry_space_group_name_H-M "A B M 2"
_symmetry_group_IT_number 39
_symmetry_cell_setting 'orthorhombic'
loop_
_space_group_symop_operation_xyz
x,y,z
-x,-y,z
-x,1/2+y,z
x,1/2-y,z
x,1/2+y,1/2+z
-x,1/2-y,1/2+z
-x,y,1/2+z
x,-y,1/2+z
loop_
_atom_site_type_symbol
_atom_site_label
_atom_site_fract_x
_atom_site_fract_y
_atom_site_fract_z
Si Si1 0.770912 0.691309 0.053970
Si Si2 0.275871 0.072010 0.296221
Si Si3 0.120783 0.884008 0.296334
Si Si4 0.750259 0.250000 0.033175
Si Si5 0.804449 0.479844 0.509662
Si Si6 0.999211 0.750000 0.271846
Si Si7 0.404880 0.142490 0.532966
O O1 0.690051 0.750000 0.019823
O O2 0.912103 0.696621 0.195655
O O3 0.868074 0.669041 0.899579
O O4 0.610822 0.649348 0.103104
O O5 0.332526 0.041146 0.143207
O O6 0.422382 0.111437 0.373327
O O7 0.089261 0.103160 0.250223
O O8 0.274515 0.030215 0.430341
O O9 0.183968 0.934055 0.388675
O O10 0.250158 0.879589 0.146910
O O11 0.959350 0.250000 0.952882
O O12 0.644162 0.299839 0.975092
O O13 0.787354 0.250000 0.215172
O O14 0.000000 0.500000 0.580487
#
# Coordination Sequence:
#
# PCOD8182011 Si02
#       7
#     8   8   8   4   8   4   8
#     4  10  26  47  69  97 153 202 249 300 363 438
#     4  11  23  43  76 115 143 189 243 311 370 442
#     4  11  24  42  72 104 142 185 250 304 366 437
#     4  12  27  44  72 108 144 195 254 312 352 433
#     4  10  21  42  74 108 148 178 237 313 380 428
#     4  10  27  46  70  98 144 187 248 312 356 421
#     4  12  27  42  72 106 147 203 247 294 375 434
#
# _framework density 29.290946000000002
#
# number of rings (size 3 to 8) (size 9 to 14) (size 15 to 20)
#    0.500    0.667    0.833    5.500   10.500    0.000 
#    0.000    0.833    0.000   12.000    0.000    0.000 
#    0.000    0.000    0.000    0.000    0.000    0.000 
#
# Total GULP energy -297412.292278 kJ/mol
# GULP energy per Si atom -12392.178845 kJ/mol
# Density = 2.922428 g / cm^3
# Si number density = 29.290946 Si / 1000 Ang^3
#
#
#
# Elastic Constant Matrix: (Units=GPa)
#
#
# Indices 1 2 3 4 5 6 
#
# 1 64.1855 0.5198 17.3751 0.0000 0.0000 0.0000
# 2 0.5198 126.0983 22.1163 0.0000 0.0000 0.0000
# 3 17.3751 22.1163 122.3616 0.0000 0.0000 0.0000
# 4 0.0000 0.0000 0.0000 31.1298 0.0000 0.0000
# 5 0.0000 0.0000 0.0000 0.0000 111.2590 0.0000
# 6 0.0000 0.0000 0.0000 0.0000 0.0000 24.4612
#
#
#
# Elastic Compliance Matrix: (Units=1/GPa)
#
#
# Indices 1 2 3 4 5 6 
#
# 1 0.016217 0.000348 -0.002366 0.000000 0.000000 0.000000
# 2 0.000348 0.008197 -0.001531 0.000000 0.000000 0.000000
# 3 -0.002366 -0.001531 0.008785 0.000000 0.000000 0.000000
# 4 0.000000 0.000000 0.000000 0.032124 0.000000 0.000000
# 5 0.000000 0.000000 0.000000 0.000000 0.008988 0.000000
# 6 0.000000 0.000000 0.000000 0.000000 0.000000 0.040881
#
#
# Mechanical properties :
#
#
# Convention : Reuss Voigt Hill
#
# Bulk Modulus (GPa) = 38.31048 43.62976 40.97012
# Shear Modulus (GPa) = 38.17056 51.54561 44.85809
#
# Velocity S-wave (km/s) = 3.61384 4.19952 3.91764
# Velocity P-wave (km/s) = 5.52456 6.20019 5.87210
#
# Compressibility (1/GPa) = 0.02610252
#
# Stress axis : x y z
#
# Youngs Moduli (GPa) = 61.66198 121.98964 113.82824
#
# Poissons Ratio (x) = -0.04246 0.26929
# Poissons Ratio (y) = -0.02146 0.17428
# Poissons Ratio (z) = 0.14588 0.18677
#
# Static dielectric constant tensor:
#      x y z
#    x 5.117100 0.000000 0.000000 
#    y 0.000000 6.191030 0.000000 
#    z 0.000000 0.000000 5.121530 
# 
# 
# High freq. dielectric constant tensor:
#      x y z
#    x 2.161460 0.000000 0.000000 
#    y 0.000000 2.241360 0.000000 
#    z 0.000000 0.000000 2.197920 
# 
# From -- ./inp_files/2348.got.cif
#   From: 2010.03.12/outbox.cif.g09.slc.cpg/sg39_2_cif.got.tgz:2348.got - 2010.04.14 02:53:20.
