data_PCOD8182822
_publ_section_title
;
Structure prediction by ZEFSAII (Michael W. Deem and Ramdas Pophale) SiO2 
 PCOD8182822
Probable space group: A M A 2
;
_chemical_formula_sum "Si O2"
_cell_formula_units_Z 64
_cell_length_a 21.322112
_cell_length_b 9.608237
_cell_length_c 16.246280
_cell_angle_alpha 90.000000
_cell_angle_beta 90.000000
_cell_angle_gamma 90.000000
_cell_volume 3328.341355
_symmetry_space_group_name_H-M "A M A 2"
_symmetry_group_IT_number 40
_symmetry_cell_setting 'orthorhombic'
loop_
_space_group_symop_operation_xyz
x,y,z
-x,-y,z
1/2-x,y,z
1/2+x,-y,z
x,1/2+y,1/2+z
-x,1/2-y,1/2+z
1/2-x,1/2+y,1/2+z
1/2+x,1/2-y,1/2+z
loop_
_atom_site_type_symbol
_atom_site_label
_atom_site_fract_x
_atom_site_fract_y
_atom_site_fract_z
Si Si1 0.178437 0.747734 0.013390
Si Si2 0.074138 0.334038 0.085335
Si Si3 0.322201 0.043119 0.364892
Si Si4 0.478206 0.655305 0.295335
Si Si5 0.121950 0.255084 0.911991
Si Si6 0.389135 0.767519 0.761523
Si Si7 0.066019 0.655112 0.116653
Si Si8 0.820771 0.532441 0.378442
O O1 0.250000 0.744605 0.049145
O O2 0.126034 0.742858 0.085041
O O3 0.168278 0.618542 0.952030
O O4 0.165478 0.889321 0.964008
O O5 0.115047 0.282915 0.163232
O O6 0.073300 0.500049 0.082926
O O7 0.001266 0.282415 0.086662
O O8 0.111988 0.274042 0.008653
O O9 0.250000 0.026636 0.342688
O O10 0.352873 0.892492 0.368217
O O11 0.352487 0.131246 0.290915
O O12 0.500000 0.500000 0.313969
O O13 0.444840 0.717336 0.374355
O O14 0.538118 0.753340 0.283187
O O15 0.432978 0.656517 0.215678
O O16 0.169954 0.130511 0.893836
O O17 0.364074 0.908406 0.805415
O O18 0.750000 0.562025 0.350267
#
# Coordination Sequence:
#
# PCOD8182822 Si02
#       8
#     8   8   8   8   8   8   8   8
#     4   9  19  37  62  90 119 159 204 251 300 370
#     4  10  21  34  62  92 121 156 197 256 314 362
#     4  10  22  40  62  90 126 159 205 254 300 370
#     4  11  21  38  63  89 123 159 202 261 297 369
#     4  12  23  37  63  92 126 160 202 256 323 356
#     4  10  20  42  64  86 120 162 213 248 307 366
#     4  10  18  39  61  89 123 154 205 256 294 369
#     4  10  21  39  62  86 121 166 211 249 302 376
#
# _framework density 19.228797
#
# number of rings (size 3 to 8) (size 9 to 14) (size 15 to 20)
#    0.000    1.750    5.000    1.500    3.500    0.500 
#    2.250    6.250    0.000    0.000    0.000    0.000 
#    0.000    0.000    0.000    0.000    0.000    0.000 
#
# Total GULP energy -396774.420517 kJ/mol
# GULP energy per Si atom -12399.200641 kJ/mol
# Density = 1.918503 g / cm^3
# Si number density = 19.228797 Si / 1000 Ang^3
#
#
#
# Elastic Constant Matrix: (Units=GPa)
#
#
# Indices 1 2 3 4 5 6 
#
# 1 94.8806 23.7427 59.6847 0.0000 0.0000 0.0000
# 2 23.7427 88.7722 49.9342 0.0000 0.0000 0.0000
# 3 59.6847 49.9342 111.0526 0.0000 0.0000 0.0000
# 4 0.0000 0.0000 0.0000 12.8575 0.0000 0.0000
# 5 0.0000 0.0000 0.0000 0.0000 35.7898 0.0000
# 6 0.0000 0.0000 0.0000 0.0000 0.0000 23.9082
#
#
#
# Elastic Compliance Matrix: (Units=1/GPa)
#
#
# Indices 1 2 3 4 5 6 
#
# 1 0.015959 0.000745 -0.008912 0.000000 0.000000 0.000000
# 2 0.000745 0.015113 -0.007196 0.000000 0.000000 0.000000
# 3 -0.008912 -0.007196 0.017030 0.000000 0.000000 0.000000
# 4 0.000000 0.000000 0.000000 0.077776 0.000000 0.000000
# 5 0.000000 0.000000 0.000000 0.000000 0.027941 0.000000
# 6 0.000000 0.000000 0.000000 0.000000 0.000000 0.041827
#
#
# Mechanical properties :
#
#
# Convention : Reuss Voigt Hill
#
# Bulk Modulus (GPa) = 57.55017 62.38095 59.96556
# Shear Modulus (GPa) = 21.53646 25.26737 23.40191
#
# Velocity S-wave (km/s) = 3.35029 3.62890 3.49237
# Velocity P-wave (km/s) = 6.70522 7.07604 6.89313
#
# Compressibility (1/GPa) = 0.01737614
#
# Stress axis : x y z
#
# Youngs Moduli (GPa) = 62.65896 66.16706 58.71965
#
# Poissons Ratio (x) = -0.04927 0.52332
# Poissons Ratio (y) = -0.04666 0.42253
# Poissons Ratio (z) = 0.55842 0.47612
#
# Static dielectric constant tensor:
#      x y z
#    x 3.651760 0.000000 0.000000 
#    y 0.000000 3.453120 0.000000 
#    z 0.000000 0.000000 3.377500 
# 
# 
# High freq. dielectric constant tensor:
#      x y z
#    x 1.757160 0.000000 0.000000 
#    y 0.000000 1.737420 0.000000 
#    z 0.000000 0.000000 1.737380 
# 
# From -- ./inp_files/21407.got.cif
#   From: 2010.03.12/outbox.cif.g09.slc.cpg/sg40_11_cif.got.tgz:21407.got - 2010.04.14 01:38:03.
