data_PCOD8182753
_publ_section_title
;
Structure prediction by ZEFSAII (Michael W. Deem and Ramdas Pophale) SiO2 
 PCOD8182753
Probable space group: A M A 2
;
_chemical_formula_sum "Si O2"
_cell_formula_units_Z 64
_cell_length_a 17.734482
_cell_length_b 16.356649
_cell_length_c 12.145832
_cell_angle_alpha 90.000000
_cell_angle_beta 90.000000
_cell_angle_gamma 90.000000
_cell_volume 3523.222832
_symmetry_space_group_name_H-M "A M A 2"
_symmetry_group_IT_number 40
_symmetry_cell_setting 'orthorhombic'
loop_
_space_group_symop_operation_xyz
x,y,z
-x,-y,z
1/2-x,y,z
1/2+x,-y,z
x,1/2+y,1/2+z
-x,1/2-y,1/2+z
1/2-x,1/2+y,1/2+z
1/2+x,1/2-y,1/2+z
loop_
_atom_site_type_symbol
_atom_site_label
_atom_site_fract_x
_atom_site_fract_y
_atom_site_fract_z
Si Si1 0.661005 0.460336 0.734220
Si Si2 0.339102 0.723011 0.754939
Si Si3 0.838888 0.230342 0.001313
Si Si4 0.838471 0.511980 0.972097
Si Si5 0.413273 0.508109 0.303817
Si Si6 0.839323 0.545859 0.518777
Si Si7 0.416113 0.125311 0.614440
Si Si8 0.907318 0.630268 0.130492
O O1 0.750000 0.455680 0.723635
O O2 0.630205 0.368021 0.734795
O O3 0.639154 0.510761 0.843531
O O4 0.626274 0.506068 0.628924
O O5 0.250000 0.732697 0.738695
O O6 0.380120 0.780430 0.666274
O O7 0.362680 0.743948 0.879092
O O8 0.750000 0.238205 0.019946
O O9 0.869035 0.138508 0.015984
O O10 0.878773 0.286824 0.093045
O O11 0.750000 0.494808 0.989178
O O12 0.884852 0.439343 0.027564
O O13 0.861433 0.599659 0.022840
O O14 0.500000 0.500000 0.336516
O O15 0.365284 0.507525 0.414748
O O16 0.397885 0.592885 0.237974
O O17 0.388162 0.432092 0.228741
O O18 0.750000 0.545349 0.518869
O O19 0.505411 0.131548 0.598868
#
# Coordination Sequence:
#
# PCOD8182753 Si02
#       8
#     8   8   8   8   8   8   8   8
#     4   9  19  35  55  80 111 139 176 231 279 320
#     4  10  18  34  57  82 107 143 192 230 265 324
#     4  10  19  34  59  84 106 141 191 231 267 326
#     4  10  18  33  58  83 107 144 188 231 276 328
#     4   9  19  35  53  76 110 147 178 222 275 328
#     4  10  20  36  57  81 109 141 181 231 275 324
#     4  10  20  35  54  81 117 141 179 234 284 322
#     4  10  20  34  54  82 114 143 180 235 280 327
#
# _framework density 18.165188000000001
#
# number of rings (size 3 to 8) (size 9 to 14) (size 15 to 20)
#    0.000    2.250    2.500    1.875    0.000    2.500 
#    2.250    3.750    0.000    4.500    0.000    0.000 
#    0.000    0.000    0.000    0.000    0.000    0.000 
#
# Total GULP energy -396792.153677 kJ/mol
# GULP energy per Si atom -12399.754802 kJ/mol
# Density = 1.812384 g / cm^3
# Si number density = 18.165188 Si / 1000 Ang^3
#
#
#
# Elastic Constant Matrix: (Units=GPa)
#
#
# Indices 1 2 3 4 5 6 
#
# 1 50.9559 32.2216 44.6248 0.0000 0.0000 0.0000
# 2 32.2216 123.0701 81.1134 0.0000 0.0000 0.0000
# 3 44.6248 81.1134 140.9305 0.0000 0.0000 0.0000
# 4 0.0000 0.0000 0.0000 36.0474 0.0000 0.0000
# 5 0.0000 0.0000 0.0000 0.0000 14.4942 0.0000
# 6 0.0000 0.0000 0.0000 0.0000 0.0000 18.4424
#
#
#
# Elastic Compliance Matrix: (Units=1/GPa)
#
#
# Indices 1 2 3 4 5 6 
#
# 1 0.027574 -0.002360 -0.007373 0.000000 0.000000 0.000000
# 2 -0.002360 0.013294 -0.006904 0.000000 0.000000 0.000000
# 3 -0.007373 -0.006904 0.013404 0.000000 0.000000 0.000000
# 4 0.000000 0.000000 0.000000 0.027741 0.000000 0.000000
# 5 0.000000 0.000000 0.000000 0.000000 0.068993 0.000000
# 6 0.000000 0.000000 0.000000 0.000000 0.000000 0.054223
#
#
# Mechanical properties :
#
#
# Convention : Reuss Voigt Hill
#
# Bulk Modulus (GPa) = 47.62378 70.09735 58.86056
# Shear Modulus (GPa) = 20.36649 24.26325 22.31487
#
# Velocity S-wave (km/s) = 3.35204 3.65869 3.50872
# Velocity P-wave (km/s) = 6.42305 7.51802 6.99200
#
# Compressibility (1/GPa) = 0.02099791
#
# Stress axis : x y z
#
# Youngs Moduli (GPa) = 36.26617 75.22425 74.60535
#
# Poissons Ratio (x) = 0.17753 0.55005
# Poissons Ratio (y) = 0.08559 0.51507
# Poissons Ratio (z) = 0.26738 0.51934
#
# Static dielectric constant tensor:
#      x y z
#    x 3.157220 0.000000 0.000000 
#    y 0.000000 3.497830 0.000000 
#    z 0.000000 0.000000 3.458280 
# 
# 
# High freq. dielectric constant tensor:
#      x y z
#    x 1.687380 0.000000 0.000000 
#    y 0.000000 1.700420 0.000000 
#    z 0.000000 0.000000 1.701700 
# 
# From -- ./inp_files/13093.got.cif
#   From: 2010.03.12/outbox.cif.g09.slc.cpg/sg40_7_cif.got.tgz:13093.got - 2010.04.14 01:38:03.
