data_PCOD8182659
_publ_section_title
;
Structure prediction by ZEFSAII (Michael W. Deem and Ramdas Pophale) SiO2 
 PCOD8182659
Probable space group: A M A 2
;
_chemical_formula_sum "Si O2"
_cell_formula_units_Z 52
_cell_length_a 19.385329
_cell_length_b 9.140801
_cell_length_c 15.392120
_cell_angle_alpha 90.000000
_cell_angle_beta 90.000000
_cell_angle_gamma 90.000000
_cell_volume 2727.444179
_symmetry_space_group_name_H-M "A M A 2"
_symmetry_group_IT_number 40
_symmetry_cell_setting 'orthorhombic'
loop_
_space_group_symop_operation_xyz
x,y,z
-x,-y,z
1/2-x,y,z
1/2+x,-y,z
x,1/2+y,1/2+z
-x,1/2-y,1/2+z
1/2-x,1/2+y,1/2+z
1/2+x,1/2-y,1/2+z
loop_
_atom_site_type_symbol
_atom_site_label
_atom_site_fract_x
_atom_site_fract_y
_atom_site_fract_z
Si Si1 0.828107 0.176460 0.856750
Si Si2 0.078145 0.324359 0.714268
Si Si3 0.000000 0.000000 0.953892
Si Si4 0.127974 0.358402 0.538332
Si Si5 0.580355 0.327604 0.713643
Si Si6 0.326296 0.172670 0.055160
Si Si7 0.380084 0.647720 0.373276
O O1 0.750000 0.213960 0.829512
O O2 0.881157 0.260444 0.796075
O O3 0.840016 0.002200 0.851198
O O4 0.841864 0.231696 0.956399
O O5 0.117242 0.266120 0.626780
O O6 0.083715 0.498296 0.720289
O O7 0.122139 0.257477 0.792920
O O8 0.998598 0.272335 0.713759
O O9 0.039882 0.113599 0.892537
O O10 0.948320 0.083115 0.016956
O O11 0.177433 0.496401 0.555693
O O12 0.618465 0.270681 0.626197
O O13 0.250000 0.233083 0.078000
O O14 0.347271 0.225860 0.958187
#
# Coordination Sequence:
#
# PCOD8182659 Si02
#       7
#     8   8   4   8   8   8   8
#     4  10  20  36  53  75 102 138 172 203 249 308
#     4  10  19  33  52  83 104 127 168 214 262 291
#     4   8  14  28  50  74  96 134 170 206 258 298
#     4   9  16  29  51  73 100 131 171 215 246 296
#     4  10  20  33  55  77 105 133 167 212 253 307
#     4   9  17  32  50  72  98 136 173 204 247 304
#     4  10  18  31  53  75 102 131 170 216 250 296
#
# _framework density 19.065467000000002
#
# number of rings (size 3 to 8) (size 9 to 14) (size 15 to 20)
#    0.000    2.769    0.000    6.923    0.000    0.000 
#    0.000   10.769    0.000    3.692    0.000    0.000 
#    0.000    0.000    0.000    0.000    0.000    0.000 
#
# Total GULP energy -322212.439971 kJ/mol
# GULP energy per Si atom -12392.786153 kJ/mol
# Density = 1.902207 g / cm^3
# Si number density = 19.065467 Si / 1000 Ang^3
#
#
#
# Elastic Constant Matrix: (Units=GPa)
#
#
# Indices 1 2 3 4 5 6 
#
# 1 96.0868 13.1892 39.3137 0.0000 0.0000 0.0000
# 2 13.1892 22.0648 30.8131 0.0000 0.0000 0.0000
# 3 39.3137 30.8131 162.0232 0.0000 0.0000 0.0000
# 4 0.0000 0.0000 0.0000 35.9448 0.0000 0.0000
# 5 0.0000 0.0000 0.0000 0.0000 15.5336 0.0000
# 6 0.0000 0.0000 0.0000 0.0000 0.0000 11.3376
#
#
#
# Elastic Compliance Matrix: (Units=1/GPa)
#
#
# Indices 1 2 3 4 5 6 
#
# 1 0.011830 -0.004170 -0.002077 0.000000 0.000000 0.000000
# 2 -0.004170 0.063180 -0.011004 0.000000 0.000000 0.000000
# 3 -0.002077 -0.011004 0.008769 0.000000 0.000000 0.000000
# 4 0.000000 0.000000 0.000000 0.027820 0.000000 0.000000
# 5 0.000000 0.000000 0.000000 0.000000 0.064377 0.000000
# 6 0.000000 0.000000 0.000000 0.000000 0.000000 0.088202
#
#
# Mechanical properties :
#
#
# Convention : Reuss Voigt Hill
#
# Bulk Modulus (GPa) = 20.29381 49.64521 34.96951
# Shear Modulus (GPa) = 15.86775 25.68713 20.77744
#
# Velocity S-wave (km/s) = 2.88805 3.67456 3.30478
# Velocity P-wave (km/s) = 4.66782 6.64071 5.73967
#
# Compressibility (1/GPa) = 0.04927612
#
# Stress axis : x y z
#
# Youngs Moduli (GPa) = 84.53376 15.82779 114.04312
#
# Poissons Ratio (x) = 0.06601 0.23690
# Poissons Ratio (y) = 0.35253 1.25488
# Poissons Ratio (z) = 0.17560 0.17416
#
# Static dielectric constant tensor:
#      x y z
#    x 3.579410 0.000000 0.000000 
#    y 0.000000 2.927010 0.000000 
#    z 0.000000 0.000000 3.804050 
# 
# 
# High freq. dielectric constant tensor:
#      x y z
#    x 1.752590 0.000000 0.000000 
#    y 0.000000 1.672270 0.000000 
#    z 0.000000 0.000000 1.760190 
# 
# From -- ./inp_files/18164.got.cif
#   From: 2010.03.12/outbox.cif.g09.slc.cpg/sg40_10_cif.got.tgz:18164.got - 2010.04.14 01:38:03.
