data_PCOD8182273
_publ_section_title
;
Structure prediction by ZEFSAII (Michael W. Deem and Ramdas Pophale) SiO2 
 PCOD8182273
Probable space group: A B M 2
;
_chemical_formula_sum "Si O2"
_cell_formula_units_Z 40
_cell_length_a 9.119767
_cell_length_b 22.991571
_cell_length_c 8.572792
_cell_angle_alpha 90.000000
_cell_angle_beta 90.000000
_cell_angle_gamma 90.000000
_cell_volume 1797.523913
_symmetry_space_group_name_H-M "A B M 2"
_symmetry_group_IT_number 39
_symmetry_cell_setting 'orthorhombic'
loop_
_space_group_symop_operation_xyz
x,y,z
-x,-y,z
-x,1/2+y,z
x,1/2-y,z
x,1/2+y,1/2+z
-x,1/2-y,1/2+z
-x,y,1/2+z
x,-y,1/2+z
loop_
_atom_site_type_symbol
_atom_site_label
_atom_site_fract_x
_atom_site_fract_y
_atom_site_fract_z
Si Si1 0.640056 0.605005 0.123580
Si Si2 0.340365 0.086647 0.466427
Si Si3 0.153260 0.025018 0.944080
Si Si4 0.856781 0.683981 0.009800
Si Si5 0.107634 0.625368 0.199317
O O1 0.622875 0.618734 0.305728
O O2 0.687563 0.667022 0.047851
O O3 0.491280 0.577277 0.058149
O O4 0.773431 0.561804 0.081659
O O5 0.236326 0.127069 0.571410
O O6 0.266214 0.026832 0.409889
O O7 0.119050 0.062822 0.787649
O O8 0.000000 0.000000 0.009488
O O9 0.890952 0.750000 0.057628
O O10 0.958817 0.638075 0.104806
O O11 0.878141 0.676864 0.824645
#
# Coordination Sequence:
#
# PCOD8182273 Si02
#       5
#     8   8   8   8   8
#     4  11  24  41  63  92 130 172 222 271 331 410
#     4  12  24  42  63  93 133 175 217 275 340 409
#     4  11  23  40  64  96 133 173 215 268 333 409
#     4  11  23  44  69  97 130 172 223 285 343 397
#     4  11  24  41  67  98 131 170 225 279 335 413
#
# _framework density 22.252832000000001
#
# number of rings (size 3 to 8) (size 9 to 14) (size 15 to 20)
#    0.000    0.800    0.000    9.600    0.000    4.800 
#    0.000    6.000    0.000    0.000    0.000    0.000 
#    0.000    0.000    0.000    0.000    0.000    0.000 
#
# Total GULP energy -247891.999313 kJ/mol
# GULP energy per Si atom -12394.599966 kJ/mol
# Density = 2.220218 g / cm^3
# Si number density = 22.252832 Si / 1000 Ang^3
#
#
#
# Elastic Constant Matrix: (Units=GPa)
#
#
# Indices 1 2 3 4 5 6 
#
# 1 141.8656 61.3362 43.6077 0.0000 0.0000 0.0000
# 2 61.3362 99.2001 31.9155 0.0000 0.0000 0.0000
# 3 43.6077 31.9155 140.3371 0.0000 0.0000 0.0000
# 4 0.0000 0.0000 0.0000 23.0231 0.0000 0.0000
# 5 0.0000 0.0000 0.0000 0.0000 39.6726 0.0000
# 6 0.0000 0.0000 0.0000 0.0000 0.0000 21.2061
#
#
#
# Elastic Compliance Matrix: (Units=1/GPa)
#
#
# Indices 1 2 3 4 5 6 
#
# 1 0.010044 -0.005617 -0.001844 0.000000 0.000000 0.000000
# 2 -0.005617 0.014018 -0.001442 0.000000 0.000000 0.000000
# 3 -0.001844 -0.001442 0.008027 0.000000 0.000000 0.000000
# 4 0.000000 0.000000 0.000000 0.043435 0.000000 0.000000
# 5 0.000000 0.000000 0.000000 0.000000 0.025206 0.000000
# 6 0.000000 0.000000 0.000000 0.000000 0.000000 0.047156
#
#
# Mechanical properties :
#
#
# Convention : Reuss Voigt Hill
#
# Bulk Modulus (GPa) = 70.01796 72.79130 71.40463
# Shear Modulus (GPa) = 29.33350 33.08325 31.20838
#
# Velocity S-wave (km/s) = 3.63463 3.85996 3.74899
# Velocity P-wave (km/s) = 7.01050 7.25587 7.13424
#
# Compressibility (1/GPa) = 0.01428205
#
# Stress axis : x y z
#
# Youngs Moduli (GPa) = 99.55883 71.33707 124.58538
#
# Poissons Ratio (x) = 0.40072 0.22969
# Poissons Ratio (y) = 0.55925 0.17971
# Poissons Ratio (z) = 0.18355 0.10290
#
# Static dielectric constant tensor:
#      x y z
#    x 4.144500 0.000000 0.000000 
#    y 0.000000 3.812540 0.000000 
#    z 0.000000 0.000000 4.075810 
# 
# 
# High freq. dielectric constant tensor:
#      x y z
#    x 1.881690 0.000000 0.000000 
#    y 0.000000 1.847230 0.000000 
#    z 0.000000 0.000000 1.893970 
# 
# From -- ./inp_files/2097.got.cif
#   From: 2010.03.12/outbox.cif.g09.slc.cpg/sg39_2_cif.got.tgz:2097.got - 2010.04.14 02:53:20.
