data_PCOD8182121
_publ_section_title
;
Structure prediction by ZEFSAII (Michael W. Deem and Ramdas Pophale) SiO2 
 PCOD8182121
Probable space group: A B M 2
;
_chemical_formula_sum "Si O2"
_cell_formula_units_Z 32
_cell_length_a 6.408184
_cell_length_b 15.782367
_cell_length_c 13.380273
_cell_angle_alpha 90.000000
_cell_angle_beta 90.000000
_cell_angle_gamma 90.000000
_cell_volume 1353.231461
_symmetry_space_group_name_H-M "A B M 2"
_symmetry_group_IT_number 39
_symmetry_cell_setting 'orthorhombic'
loop_
_space_group_symop_operation_xyz
x,y,z
-x,-y,z
-x,1/2+y,z
x,1/2-y,z
x,1/2+y,1/2+z
-x,1/2-y,1/2+z
-x,y,1/2+z
x,-y,1/2+z
loop_
_atom_site_type_symbol
_atom_site_label
_atom_site_fract_x
_atom_site_fract_y
_atom_site_fract_z
Si Si1 0.035665 0.250000 0.119900
Si Si2 0.238144 0.890233 0.210326
Si Si3 0.575822 0.750000 0.236856
Si Si4 0.663594 0.931083 0.500820
Si Si5 0.722036 0.250000 0.951227
Si Si6 0.000000 0.500000 0.865401
O O1 0.286366 0.250000 0.134668
O O2 0.953638 0.167020 0.175705
O O3 0.953147 0.250000 0.004459
O O4 0.435640 0.833937 0.243070
O O5 0.298067 0.951144 0.117596
O O6 0.167272 0.948324 0.301214
O O7 0.735471 0.750000 0.331119
O O8 0.592231 0.832543 0.489895
O O9 0.874684 0.935902 0.436166
O O10 0.500000 0.000000 0.459422
#
# Coordination Sequence:
#
# PCOD8182121 Si02
#       6
#     4   8   4   8   4   4
#     4   9  21  43  65  94 134 171 226 296 354 416
#     4  10  24  42  67 101 134 181 235 290 354 419
#     4  11  21  43  73  99 136 187 236 285 353 429
#     4  11  25  44  67 100 138 180 233 291 354 417
#     4  10  22  42  68 101 134 178 234 287 351 419
#     4  12  24  42  66  96 136 182 230 288 352 420
#
# _framework density 23.647102
#
# number of rings (size 3 to 8) (size 9 to 14) (size 15 to 20)
#    0.000    1.500    0.000    4.500    0.000   10.000 
#    0.000   21.250    0.000    0.000    0.000    0.000 
#    0.000    0.000    0.000    0.000    0.000    0.000 
#
# Total GULP energy -198371.783152 kJ/mol
# GULP energy per Si atom -12398.236447 kJ/mol
# Density = 2.359328 g / cm^3
# Si number density = 23.647102 Si / 1000 Ang^3
#
#
#
# Elastic Constant Matrix: (Units=GPa)
#
#
# Indices 1 2 3 4 5 6 
#
# 1 123.6587 59.3940 62.6982 0.0000 0.0000 0.0000
# 2 59.3940 139.9381 42.5641 0.0000 0.0000 0.0000
# 3 62.6982 42.5641 159.6492 0.0000 0.0000 0.0000
# 4 0.0000 0.0000 0.0000 36.4652 0.0000 0.0000
# 5 0.0000 0.0000 0.0000 0.0000 38.0888 0.0000
# 6 0.0000 0.0000 0.0000 0.0000 0.0000 26.2398
#
#
#
# Elastic Compliance Matrix: (Units=1/GPa)
#
#
# Indices 1 2 3 4 5 6 
#
# 1 0.011783 -0.003911 -0.003585 0.000000 0.000000 0.000000
# 2 -0.003911 0.009075 -0.000884 0.000000 0.000000 0.000000
# 3 -0.003585 -0.000884 0.007907 0.000000 0.000000 0.000000
# 4 0.000000 0.000000 0.000000 0.027423 0.000000 0.000000
# 5 0.000000 0.000000 0.000000 0.000000 0.026254 0.000000
# 6 0.000000 0.000000 0.000000 0.000000 0.000000 0.038110
#
#
# Mechanical properties :
#
#
# Convention : Reuss Voigt Hill
#
# Bulk Modulus (GPa) = 83.28816 83.61762 83.45289
# Shear Modulus (GPa) = 35.38268 37.39805 36.39036
#
# Velocity S-wave (km/s) = 3.87237 3.98113 3.92713
# Velocity P-wave (km/s) = 7.43582 7.52130 7.47868
#
# Compressibility (1/GPa) = 0.01200651
#
# Stress axis : x y z
#
# Youngs Moduli (GPa) = 84.87106 110.19858 126.46837
#
# Poissons Ratio (x) = 0.43094 0.45335
# Poissons Ratio (y) = 0.33189 0.11175
# Poissons Ratio (z) = 0.30424 0.09737
#
# Static dielectric constant tensor:
#      x y z
#    x 3.888060 0.000000 0.000000 
#    y 0.000000 4.270060 0.000000 
#    z 0.000000 0.000000 4.346540 
# 
# 
# High freq. dielectric constant tensor:
#      x y z
#    x 1.913590 0.000000 0.000000 
#    y 0.000000 1.944490 0.000000 
#    z 0.000000 0.000000 1.946720 
# 
# From -- ./inp_files/7265.got.cif
#   From: 2010.03.12/outbox.cif.g09.slc.cpg/sg39_4_cif.got.tgz:7265.got - 2010.04.14 02:53:20.
