data_PCOD8182663
_publ_section_title
;
Structure prediction by ZEFSAII (Michael W. Deem and Ramdas Pophale) SiO2 
 PCOD8182663
Probable space group: A M A 2
;
_chemical_formula_sum "Si O2"
_cell_formula_units_Z 48
_cell_length_a 8.519286
_cell_length_b 9.469871
_cell_length_c 30.781871
_cell_angle_alpha 90.000000
_cell_angle_beta 90.000000
_cell_angle_gamma 90.000000
_cell_volume 2483.374830
_symmetry_space_group_name_H-M "A M A 2"
_symmetry_group_IT_number 40
_symmetry_cell_setting 'orthorhombic'
loop_
_space_group_symop_operation_xyz
x,y,z
-x,-y,z
1/2-x,y,z
1/2+x,-y,z
x,1/2+y,1/2+z
-x,1/2-y,1/2+z
1/2-x,1/2+y,1/2+z
1/2+x,1/2-y,1/2+z
loop_
_atom_site_type_symbol
_atom_site_label
_atom_site_fract_x
_atom_site_fract_y
_atom_site_fract_z
Si Si1 0.065209 0.651324 0.911240
Si Si2 0.065266 0.350575 0.817259
Si Si3 0.065409 0.155493 0.984807
Si Si4 0.934857 0.655431 0.066631
Si Si5 0.435592 0.657316 0.154954
Si Si6 0.435424 0.842416 0.743200
O O1 0.250000 0.640181 0.910765
O O2 0.000000 0.500000 0.926852
O O3 0.006620 0.691662 0.863420
O O4 0.011737 0.775103 0.942762
O O5 0.250000 0.360683 0.822360
O O6 0.000000 0.500000 0.800817
O O7 0.019333 0.234028 0.782609
O O8 0.250000 0.150644 0.977733
O O9 0.018061 0.245628 0.026770
O O10 0.000000 0.000000 0.991296
O O11 0.750000 0.644952 0.073830
O O12 0.000000 0.500000 0.056626
O O13 0.012659 0.728580 0.109481
O O14 0.500000 0.500000 0.150751
O O15 0.250000 0.660240 0.161097
O O16 0.515790 0.730287 0.197169
O O17 0.250000 0.838437 0.749506
O O18 0.500000 0.000000 0.742537
#
# Coordination Sequence:
#
# PCOD8182663 Si02
#       6
#     8   8   8   8   8   8
#     4  11  22  39  62  86 112 146 188 231 276 329
#     4  11  22  39  60  85 115 148 187 230 279 332
#     4  11  24  40  58  83 115 149 185 230 284 337
#     4  10  20  35  57  83 110 144 187 231 277 330
#     4  10  18  31  53  81 111 145 186 231 278 327
#     4  11  21  36  57  84 116 150 189 233 281 331
#
# _framework density 19.328536
#
# number of rings (size 3 to 8) (size 9 to 14) (size 15 to 20)
#    0.000    1.333    0.000   10.500    0.000    4.667 
#    0.000    4.167    0.000    2.000    0.000    0.000 
#    0.000    0.000    0.000    0.000    0.000    0.000 
#
# Total GULP energy -297639.228063 kJ/mol
# GULP energy per Si atom -12401.634503 kJ/mol
# Density = 1.928454 g / cm^3
# Si number density = 19.328536 Si / 1000 Ang^3
#
#
#
# Elastic Constant Matrix: (Units=GPa)
#
#
# Indices 1 2 3 4 5 6 
#
# 1 102.5253 39.1310 40.9427 0.0000 0.0000 0.0000
# 2 39.1310 86.3108 64.4672 0.0000 0.0000 0.0000
# 3 40.9427 64.4672 129.5122 0.0000 0.0000 0.0000
# 4 0.0000 0.0000 0.0000 30.4879 0.0000 0.0000
# 5 0.0000 0.0000 0.0000 0.0000 45.8495 0.0000
# 6 0.0000 0.0000 0.0000 0.0000 0.0000 30.7077
#
#
#
# Elastic Compliance Matrix: (Units=1/GPa)
#
#
# Indices 1 2 3 4 5 6 
#
# 1 0.012034 -0.004162 -0.001733 0.000000 0.000000 0.000000
# 2 -0.004162 0.019882 -0.008581 0.000000 0.000000 0.000000
# 3 -0.001733 -0.008581 0.012540 0.000000 0.000000 0.000000
# 4 0.000000 0.000000 0.000000 0.032800 0.000000 0.000000
# 5 0.000000 0.000000 0.000000 0.000000 0.021810 0.000000
# 6 0.000000 0.000000 0.000000 0.000000 0.000000 0.032565
#
#
# Mechanical properties :
#
#
# Convention : Reuss Voigt Hill
#
# Bulk Modulus (GPa) = 64.49278 67.49222 65.99250
# Shear Modulus (GPa) = 30.16556 32.99618 31.58087
#
# Velocity S-wave (km/s) = 3.95482 4.13622 4.04654
# Velocity P-wave (km/s) = 7.36839 7.60298 7.48660
#
# Compressibility (1/GPa) = 0.01550561
#
# Stress axis : x y z
#
# Youngs Moduli (GPa) = 83.09756 50.29621 79.74175
#
# Poissons Ratio (x) = 0.20932 0.13817
# Poissons Ratio (y) = 0.34582 0.68427
# Poissons Ratio (z) = 0.14399 0.43160
#
# Static dielectric constant tensor:
#      x y z
#    x 3.728800 0.000000 0.000000 
#    y 0.000000 3.301230 0.000000 
#    z 0.000000 0.000000 4.104350 
# 
# 
# High freq. dielectric constant tensor:
#      x y z
#    x 1.776980 0.000000 0.000000 
#    y 0.000000 1.722390 0.000000 
#    z 0.000000 0.000000 1.775940 
# 
# From -- ./inp_files/26149.got.cif
#   From: 2010.03.12/outbox.cif.g09.slc.cpg/sg40_14_cif.got.tgz:26149.got - 2010.04.14 01:38:03.
