data_PCOD8182324
_publ_section_title
;
Structure prediction by ZEFSAII (Michael W. Deem and Ramdas Pophale) SiO2 
 PCOD8182324
Probable space group: A B M 2
;
_chemical_formula_sum "Si O2"
_cell_formula_units_Z 32
_cell_length_a 4.712390
_cell_length_b 32.513065
_cell_length_c 8.322513
_cell_angle_alpha 90.000000
_cell_angle_beta 90.000000
_cell_angle_gamma 90.000000
_cell_volume 1275.127524
_symmetry_space_group_name_H-M "A B M 2"
_symmetry_group_IT_number 39
_symmetry_cell_setting 'orthorhombic'
loop_
_space_group_symop_operation_xyz
x,y,z
-x,-y,z
-x,1/2+y,z
x,1/2-y,z
x,1/2+y,1/2+z
-x,1/2-y,1/2+z
-x,y,1/2+z
x,-y,1/2+z
loop_
_atom_site_type_symbol
_atom_site_label
_atom_site_fract_x
_atom_site_fract_y
_atom_site_fract_z
Si Si1 0.100115 0.546101 0.134020
Si Si2 0.398438 0.170252 0.444190
Si Si3 0.596399 0.077283 0.451284
Si Si4 0.886602 0.702586 0.762246
O O1 0.254279 0.563611 0.289058
O O2 0.000000 0.500000 0.162368
O O3 0.326887 0.547784 0.987481
O O4 0.826823 0.574200 0.094825
O O5 0.484816 0.123138 0.437128
O O6 0.259685 0.180361 0.613386
O O7 0.677385 0.198261 0.415925
O O8 0.179785 0.179650 0.299919
O O9 0.947616 0.750000 0.723639
#
# Coordination Sequence:
#
# PCOD8182324 Si02
#       4
#     8   8   8   8
#     4  12  27  50  77 110 150 197 249 307 371 443
#     4  12  27  47  74 109 148 194 247 308 372 443
#     4  12  27  50  77 111 150 196 249 309 372 443
#     4  12  25  47  74 108 148 195 247 306 371 443
#
# _framework density 25.095528999999999
#
# number of rings (size 3 to 8) (size 9 to 14) (size 15 to 20)
#    0.000    0.000    0.000    9.750    0.000    6.000 
#    0.000    1.250    0.000    0.000    0.000    0.000 
#    0.000    0.000    0.000    0.000    0.000    0.000 
#
# Total GULP energy -198530.220737 kJ/mol
# GULP energy per Si atom -12408.138796 kJ/mol
# Density = 2.503841 g / cm^3
# Si number density = 25.095529 Si / 1000 Ang^3
#
#
#
# Elastic Constant Matrix: (Units=GPa)
#
#
# Indices 1 2 3 4 5 6 
#
# 1 161.7923 104.7978 29.1059 0.0000 0.0000 0.0000
# 2 104.7978 216.6597 89.2926 0.0000 0.0000 0.0000
# 3 29.1059 89.2926 69.8669 0.0000 0.0000 0.0000
# 4 0.0000 0.0000 0.0000 28.5245 0.0000 0.0000
# 5 0.0000 0.0000 0.0000 0.0000 61.4811 0.0000
# 6 0.0000 0.0000 0.0000 0.0000 0.0000 57.9370
#
#
#
# Elastic Compliance Matrix: (Units=1/GPa)
#
#
# Indices 1 2 3 4 5 6 
#
# 1 0.009515 -0.006272 0.004053 0.000000 0.000000 0.000000
# 2 -0.006272 0.013887 -0.015136 0.000000 0.000000 0.000000
# 3 0.004053 -0.015136 0.031968 0.000000 0.000000 0.000000
# 4 0.000000 0.000000 0.000000 0.035058 0.000000 0.000000
# 5 0.000000 0.000000 0.000000 0.000000 0.016265 0.000000
# 6 0.000000 0.000000 0.000000 0.000000 0.000000 0.017260
#
#
# Mechanical properties :
#
#
# Convention : Reuss Voigt Hill
#
# Bulk Modulus (GPa) = 48.40304 99.41240 73.90772
# Shear Modulus (GPa) = 30.20229 44.59669 37.39949
#
# Velocity S-wave (km/s) = 3.47290 4.22011 3.86461
# Velocity P-wave (km/s) = 5.95070 7.96526 7.03051
#
# Compressibility (1/GPa) = 0.02065986
#
# Stress axis : x y z
#
# Youngs Moduli (GPa) = 105.10235 72.00790 31.28085
#
# Poissons Ratio (x) = 0.45167 -0.12677
# Poissons Ratio (y) = 0.65925 0.47345
# Poissons Ratio (z) = -0.42595 1.08988
#
# Static dielectric constant tensor:
#      x y z
#    x 5.467180 0.000000 0.000000 
#    y 0.000000 11.805850 0.000000 
#    z 0.000000 0.000000 4.865210 
# 
# 
# High freq. dielectric constant tensor:
#      x y z
#    x 2.036180 0.000000 0.000000 
#    y 0.000000 2.000360 0.000000 
#    z 0.000000 0.000000 2.013940 
# 
# From -- ./inp_files/1742.got.cif
#   From: 2010.03.12/outbox.cif.g09.slc.cpg/sg39_1_cif.got.tgz:1742.got - 2010.04.14 02:53:20.
