data_PCOD8182902
_publ_section_title
;
Structure prediction by ZEFSAII (Michael W. Deem and Ramdas Pophale) SiO2 
 PCOD8182902
Probable space group: A M A 2
;
_chemical_formula_sum "Si O2"
_cell_formula_units_Z 48
_cell_length_a 8.855732
_cell_length_b 13.616190
_cell_length_c 18.402444
_cell_angle_alpha 90.000000
_cell_angle_beta 90.000000
_cell_angle_gamma 90.000000
_cell_volume 2218.991164
_symmetry_space_group_name_H-M "A M A 2"
_symmetry_group_IT_number 40
_symmetry_cell_setting 'orthorhombic'
loop_
_space_group_symop_operation_xyz
x,y,z
-x,-y,z
1/2-x,y,z
1/2+x,-y,z
x,1/2+y,1/2+z
-x,1/2-y,1/2+z
1/2-x,1/2+y,1/2+z
1/2+x,1/2-y,1/2+z
loop_
_atom_site_type_symbol
_atom_site_label
_atom_site_fract_x
_atom_site_fract_y
_atom_site_fract_z
Si Si1 0.419109 0.753390 0.295700
Si Si2 0.917085 0.414290 0.407709
Si Si3 0.424876 0.904806 0.058188
Si Si4 0.927632 0.894525 0.401301
Si Si5 0.071677 0.398535 0.190972
Si Si6 0.573178 0.813279 0.558029
O O1 0.250000 0.781507 0.267842
O O2 0.404935 0.684579 0.364709
O O3 0.505634 0.848518 0.326631
O O4 0.508949 0.697077 0.232854
O O5 0.750000 0.446315 0.434008
O O6 0.000000 0.500000 0.359709
O O7 0.030523 0.403125 0.474370
O O8 0.250000 0.919741 0.068393
O O9 0.472069 0.796661 0.086047
O O10 0.500000 0.000000 0.098358
O O11 0.750000 0.905232 0.390337
O O12 0.965443 0.829313 0.472917
O O13 0.000000 0.000000 0.413714
O O14 0.250000 0.404493 0.200732
O O15 0.000000 0.500000 0.220411
O O16 0.025916 0.387213 0.106393
O O17 0.750000 0.833877 0.571728
#
# Coordination Sequence:
#
# PCOD8182902 Si02
#       6
#     8   8   8   8   8   8
#     4  11  23  40  62  90 124 163 208 260 315 374
#     4  10  19  30  51  82 116 153 193 241 296 355
#     4  10  19  33  55  86 122 159 199 249 303 361
#     4  11  23  41  65  94 127 165 213 265 320 380
#     4  12  26  43  66  94 128 168 212 262 320 385
#     4  10  22  41  64  92 129 170 213 263 316 377
#
# _framework density 21.631450999999998
#
# number of rings (size 3 to 8) (size 9 to 14) (size 15 to 20)
#    0.000    1.333    1.667    5.500    0.000    7.333 
#    0.000    0.833    0.000    2.000    0.000    0.000 
#    0.000    0.000    0.000    0.000    0.000    0.000 
#
# Total GULP energy -297411.615399 kJ/mol
# GULP energy per Si atom -12392.150642 kJ/mol
# Density = 2.158222 g / cm^3
# Si number density = 21.631451 Si / 1000 Ang^3
#
#
#
# Elastic Constant Matrix: (Units=GPa)
#
#
# Indices 1 2 3 4 5 6 
#
# 1 125.9648 64.3666 37.0678 0.0000 0.0000 0.0000
# 2 64.3666 114.3962 20.3532 0.0000 0.0000 0.0000
# 3 37.0678 20.3532 62.8134 0.0000 0.0000 0.0000
# 4 0.0000 0.0000 0.0000 22.8945 0.0000 0.0000
# 5 0.0000 0.0000 0.0000 0.0000 27.1462 0.0000
# 6 0.0000 0.0000 0.0000 0.0000 0.0000 39.9513
#
#
#
# Elastic Compliance Matrix: (Units=1/GPa)
#
#
# Indices 1 2 3 4 5 6 
#
# 1 0.012713 -0.006174 -0.005501 0.000000 0.000000 0.000000
# 2 -0.006174 0.012275 -0.000334 0.000000 0.000000 0.000000
# 3 -0.005501 -0.000334 0.019275 0.000000 0.000000 0.000000
# 4 0.000000 0.000000 0.000000 0.043679 0.000000 0.000000
# 5 0.000000 0.000000 0.000000 0.000000 0.036838 0.000000
# 6 0.000000 0.000000 0.000000 0.000000 0.000000 0.025030
#
#
# Mechanical properties :
#
#
# Convention : Reuss Voigt Hill
#
# Bulk Modulus (GPa) = 49.39855 60.74996 55.07426
# Shear Modulus (GPa) = 27.68922 30.09084 28.89003
#
# Velocity S-wave (km/s) = 3.58165 3.73375 3.65849
# Velocity P-wave (km/s) = 6.32379 6.83615 6.58495
#
# Compressibility (1/GPa) = 0.02024351
#
# Stress axis : x y z
#
# Youngs Moduli (GPa) = 78.66262 81.46714 51.88090
#
# Poissons Ratio (x) = 0.50298 0.28542
# Poissons Ratio (y) = 0.48567 0.01732
# Poissons Ratio (z) = 0.43276 0.02720
#
# Static dielectric constant tensor:
#      x y z
#    x 4.108750 0.000000 0.000000 
#    y 0.000000 4.705560 0.000000 
#    z 0.000000 0.000000 3.582640 
# 
# 
# High freq. dielectric constant tensor:
#      x y z
#    x 1.856580 0.000000 0.000000 
#    y 0.000000 1.861820 0.000000 
#    z 0.000000 0.000000 1.822680 
# 
# From -- ./inp_files/19215.got.cif
#   From: 2010.03.12/outbox.cif.g09.slc.cpg/sg40_10_cif.got.tgz:19215.got - 2010.04.14 01:38:03.
