data_PCOD8182302
_publ_section_title
;
Structure prediction by ZEFSAII (Michael W. Deem and Ramdas Pophale) SiO2 
 PCOD8182302
Probable space group: A B M 2
;
_chemical_formula_sum "Si O2"
_cell_formula_units_Z 40
_cell_length_a 8.460144
_cell_length_b 10.016175
_cell_length_c 22.214897
_cell_angle_alpha 90.000000
_cell_angle_beta 90.000000
_cell_angle_gamma 90.000000
_cell_volume 1882.452225
_symmetry_space_group_name_H-M "A B M 2"
_symmetry_group_IT_number 39
_symmetry_cell_setting 'orthorhombic'
loop_
_space_group_symop_operation_xyz
x,y,z
-x,-y,z
-x,1/2+y,z
x,1/2-y,z
x,1/2+y,1/2+z
-x,1/2-y,1/2+z
-x,y,1/2+z
x,-y,1/2+z
loop_
_atom_site_type_symbol
_atom_site_label
_atom_site_fract_x
_atom_site_fract_y
_atom_site_fract_z
Si Si1 0.177671 0.250000 0.194160
Si Si2 0.684920 0.981798 0.271654
Si Si3 0.144245 0.098532 0.387055
Si Si4 0.309390 0.250000 0.065205
Si Si5 0.811776 0.250000 0.225011
Si Si6 0.814615 0.517651 0.518252
Si Si7 0.325564 0.750000 0.095437
O O1 0.258270 0.117609 0.219732
O O2 0.194012 0.250000 0.122436
O O3 0.994272 0.250000 0.208846
O O4 0.721391 0.921723 0.337154
O O5 0.500000 0.000000 0.264402
O O6 0.774868 0.121385 0.265144
O O7 0.080110 0.250000 0.383933
O O8 0.222597 0.073090 0.451915
O O9 0.000000 0.000000 0.374367
O O10 0.274808 0.377825 0.024158
O O11 0.488734 0.250000 0.085862
O O12 0.702106 0.250000 0.166412
O O13 0.751297 0.618172 0.568085
O O14 0.000000 0.500000 0.528427
#
# Coordination Sequence:
#
# PCOD8182302 Si02
#       7
#     4   8   8   4   4   8   4
#     4  12  24  47  68  99 136 179 231 273 333 412
#     4  12  26  44  69 101 139 175 223 284 343 400
#     4  11  25  46  73 101 136 180 230 280 334 408
#     4  12  26  41  70 101 138 179 219 283 345 398
#     4  12  26  43  72  99 132 185 225 277 335 408
#     4  11  24  44  70  98 133 180 229 278 329 406
#     4  12  24  45  66 101 142 173 225 279 343 404
#
# _framework density 21.24888
#
# number of rings (size 3 to 8) (size 9 to 14) (size 15 to 20)
#    0.000    0.400    2.000    7.200    5.600    1.600 
#    0.000    0.000    0.000    0.000    0.000    0.000 
#    0.000    0.000    0.000    0.000    0.000    0.000 
#
# Total GULP energy -248189.723323 kJ/mol
# GULP energy per Si atom -12409.486166 kJ/mol
# Density = 2.120052 g / cm^3
# Si number density = 21.248880 Si / 1000 Ang^3
#
#
#
# Elastic Constant Matrix: (Units=GPa)
#
#
# Indices 1 2 3 4 5 6 
#
# 1 136.2314 39.0914 23.8524 0.0000 0.0000 0.0000
# 2 39.0914 178.5409 38.5092 0.0000 0.0000 0.0000
# 3 23.8524 38.5092 94.9790 0.0000 0.0000 0.0000
# 4 0.0000 0.0000 0.0000 42.8481 0.0000 0.0000
# 5 0.0000 0.0000 0.0000 0.0000 18.4339 0.0000
# 6 0.0000 0.0000 0.0000 0.0000 0.0000 -8.6578
#
#
#
# Elastic Compliance Matrix: (Units=1/GPa)
#
#
# Indices 1 2 3 4 5 6 
#
# 1 0.008005 -0.001445 -0.001424 0.000000 0.000000 0.000000
# 2 -0.001445 0.006399 -0.002231 0.000000 0.000000 0.000000
# 3 -0.001424 -0.002231 0.011791 0.000000 0.000000 0.000000
# 4 0.000000 0.000000 0.000000 0.023338 0.000000 0.000000
# 5 0.000000 0.000000 0.000000 0.000000 0.054248 0.000000
# 6 0.000000 0.000000 0.000000 0.000000 0.000000 -0.115503
#
#
# Mechanical properties :
#
#
# Convention : Reuss Voigt Hill
#
# Bulk Modulus (GPa) = 62.52978 68.07303 65.30140
# Shear Modulus (GPa) = 1312.36488 31.07807 671.72147
#
# Velocity S-wave (km/s) = 24.87884 3.82851 17.79908
# Velocity P-wave (km/s) = 29.23640 7.18672 21.28868
#
# Compressibility (1/GPa) = 0.01599238
#
# Stress axis : x y z
#
# Youngs Moduli (GPa) = 124.92870 156.28154 84.81046
#
# Poissons Ratio (x) = 0.22589 0.12078
# Poissons Ratio (y) = 0.18057 0.18924
# Poissons Ratio (z) = 0.17792 0.34872
#
# Static dielectric constant tensor:
#      x y z
#    x 3.820980 0.000000 0.000000 
#    y 0.000000 4.115550 0.000000 
#    z 0.000000 0.000000 4.019460 
# 
# 
# High freq. dielectric constant tensor:
#      x y z
#    x 1.835860 0.000000 0.000000 
#    y 0.000000 1.857210 0.000000 
#    z 0.000000 0.000000 1.845310 
# 
# From -- ./inp_files/15483.got.cif
#   From: 2010.03.12/outbox.cif.g09.slc.cpg/sg39_8_cif.got.tgz:15483.got - 2010.04.14 02:53:20.
