data_PCOD8182608
_publ_section_title
;
Structure prediction by ZEFSAII (Michael W. Deem and Ramdas Pophale) SiO2 
 PCOD8182608
Probable space group: A M A 2
;
_chemical_formula_sum "Si O2"
_cell_formula_units_Z 64
_cell_length_a 8.830829
_cell_length_b 23.074075
_cell_length_c 19.002921
_cell_angle_alpha 90.000000
_cell_angle_beta 90.000000
_cell_angle_gamma 90.000000
_cell_volume 3872.096195
_symmetry_space_group_name_H-M "A M A 2"
_symmetry_group_IT_number 40
_symmetry_cell_setting 'orthorhombic'
loop_
_space_group_symop_operation_xyz
x,y,z
-x,-y,z
1/2-x,y,z
1/2+x,-y,z
x,1/2+y,1/2+z
-x,1/2-y,1/2+z
1/2-x,1/2+y,1/2+z
1/2+x,1/2-y,1/2+z
loop_
_atom_site_type_symbol
_atom_site_label
_atom_site_fract_x
_atom_site_fract_y
_atom_site_fract_z
Si Si1 0.429013 0.154741 0.992850
Si Si2 0.428932 0.560685 0.121319
Si Si3 0.426692 0.749446 0.753364
Si Si4 0.926492 0.561936 0.400924
Si Si5 0.424846 0.382949 0.251462
Si Si6 0.573418 0.829459 0.541079
Si Si7 0.926805 0.759160 0.411438
Si Si8 0.570985 0.214955 0.117461
O O1 0.250000 0.151618 0.996305
O O2 0.494089 0.093854 0.966034
O O3 0.478386 0.205325 0.939712
O O4 0.494427 0.164704 0.071177
O O5 0.500000 0.500000 0.098383
O O6 0.250000 0.554609 0.117180
O O7 0.474287 0.577646 0.200489
O O8 0.495401 0.609445 0.067240
O O9 0.250000 0.740897 0.739200
O O10 0.474084 0.816271 0.744416
O O11 0.471169 0.727172 0.831258
O O12 0.519500 0.710118 0.698457
O O13 0.750000 0.555297 0.417121
O O14 0.956647 0.598831 0.330972
O O15 0.000000 0.500000 0.390247
O O16 0.250000 0.392155 0.231174
O O17 0.750000 0.832888 0.555611
O O18 0.538624 0.816377 0.458741
O O19 0.509435 0.776452 0.587623
O O20 0.750000 0.741354 0.417250
O O21 0.750000 0.208736 0.110805
#
# Coordination Sequence:
#
# PCOD8182608 Si02
#       8
#     8   8   8   8   8   8   8   8
#     4  11  21  33  50  74  99 130 169 210 251 301
#     4  11  21  33  47  68  95 132 174 209 244 289
#     4  10  18  30  50  76 102 129 162 202 250 301
#     4  11  22  37  52  71  99 137 175 212 252 296
#     4  10  20  33  48  70 101 134 167 205 244 286
#     4   8  16  30  48  67  90 124 164 199 241 293
#     4   9  17  33  52  71  98 130 161 204 256 303
#     4  10  19  33  51  71  98 131 164 204 251 301
#
# _framework density 16.528514999999999
#
# number of rings (size 3 to 8) (size 9 to 14) (size 15 to 20)
#    0.000    2.000    2.500    3.375    0.000    2.500 
#    0.000    0.625    0.000    0.000    0.000    0.875 
#    0.000    4.000    0.000    0.000    0.000    0.000 
#
# Total GULP energy -396797.238284 kJ/mol
# GULP energy per Si atom -12399.913696 kJ/mol
# Density = 1.649090 g / cm^3
# Si number density = 16.528515 Si / 1000 Ang^3
#
#
#
# Elastic Constant Matrix: (Units=GPa)
#
#
# Indices 1 2 3 4 5 6 
#
# 1 79.3397 23.4291 37.7407 0.0000 0.0000 0.0000
# 2 23.4291 35.5193 19.7255 0.0000 0.0000 0.0000
# 3 37.7407 19.7255 98.5770 0.0000 0.0000 0.0000
# 4 0.0000 0.0000 0.0000 50.7938 0.0000 0.0000
# 5 0.0000 0.0000 0.0000 0.0000 25.0197 0.0000
# 6 0.0000 0.0000 0.0000 0.0000 0.0000 19.9977
#
#
#
# Elastic Compliance Matrix: (Units=1/GPa)
#
#
# Indices 1 2 3 4 5 6 
#
# 1 0.017573 -0.008837 -0.004960 0.000000 0.000000 0.000000
# 2 -0.008837 0.036118 -0.003844 0.000000 0.000000 0.000000
# 3 -0.004960 -0.003844 0.012812 0.000000 0.000000 0.000000
# 4 0.000000 0.000000 0.000000 0.019687 0.000000 0.000000
# 5 0.000000 0.000000 0.000000 0.000000 0.039969 0.000000
# 6 0.000000 0.000000 0.000000 0.000000 0.000000 0.050006
#
#
# Mechanical properties :
#
#
# Convention : Reuss Voigt Hill
#
# Bulk Modulus (GPa) = 32.02906 41.69185 36.86045
# Shear Modulus (GPa) = 22.53751 27.99828 25.26790
#
# Velocity S-wave (km/s) = 3.69664 4.12021 3.91416
# Velocity P-wave (km/s) = 6.13517 6.92198 6.54042
#
# Compressibility (1/GPa) = 0.03122165
#
# Stress axis : x y z
#
# Youngs Moduli (GPa) = 56.90615 27.68740 78.05001
#
# Poissons Ratio (x) = 0.24468 0.38709
# Poissons Ratio (y) = 0.50288 0.30002
# Poissons Ratio (z) = 0.28223 0.10643
#
# Static dielectric constant tensor:
#      x y z
#    x 3.032080 0.000000 0.000000 
#    y 0.000000 2.756320 0.000000 
#    z 0.000000 0.000000 3.229010 
# 
# 
# High freq. dielectric constant tensor:
#      x y z
#    x 1.634510 0.000000 0.000000 
#    y 0.000000 1.609220 0.000000 
#    z 0.000000 0.000000 1.634020 
# 
# From -- ./inp_files/22532.got.cif
#   From: 2010.03.12/outbox.cif.g09.slc.cpg/sg40_12_cif.got.tgz:22532.got - 2010.04.14 01:38:03.
