data_PCOD8182240
_publ_section_title
;
Structure prediction by ZEFSAII (Michael W. Deem and Ramdas Pophale) SiO2 
 PCOD8182240
Probable space group: A B M 2
;
_chemical_formula_sum "Si O2"
_cell_formula_units_Z 48
_cell_length_a 13.576580
_cell_length_b 9.992238
_cell_length_c 17.088977
_cell_angle_alpha 90.000000
_cell_angle_beta 90.000000
_cell_angle_gamma 90.000000
_cell_volume 2318.297773
_symmetry_space_group_name_H-M "A B M 2"
_symmetry_group_IT_number 39
_symmetry_cell_setting 'orthorhombic'
loop_
_space_group_symop_operation_xyz
x,y,z
-x,-y,z
-x,1/2+y,z
x,1/2-y,z
x,1/2+y,1/2+z
-x,1/2-y,1/2+z
-x,y,1/2+z
x,-y,1/2+z
loop_
_atom_site_type_symbol
_atom_site_label
_atom_site_fract_x
_atom_site_fract_y
_atom_site_fract_z
Si Si1 0.615914 0.750000 0.846560
Si Si2 0.918647 0.603218 0.608686
Si Si3 0.549016 0.250000 0.124066
Si Si4 0.635189 0.250000 0.525108
Si Si5 0.084844 0.903255 0.295485
Si Si6 0.707675 0.984896 0.606320
Si Si7 0.581547 0.750000 0.286982
Si Si8 0.711054 0.997318 0.281259
O O1 0.498908 0.750000 0.854860
O O2 0.644578 0.626913 0.791811
O O3 0.658557 0.750000 0.933086
O O4 0.952433 0.750000 0.580718
O O5 0.915408 0.599537 0.702185
O O6 0.809245 0.577969 0.573203
O O7 0.000000 0.500000 0.575757
O O8 0.479451 0.250000 0.048009
O O9 0.617186 0.381095 0.115688
O O10 0.474431 0.250000 0.200905
O O11 0.682890 0.386635 0.555186
O O12 0.075136 0.750000 0.327200
O O13 0.186099 0.972046 0.325514
O O14 0.000000 0.000000 0.328954
O O15 0.733385 0.037996 0.691854
O O16 0.649963 0.627118 0.311360
#
# Coordination Sequence:
#
# PCOD8182240 Si02
#       8
#     4   8   4   4   8   8   4   8
#     4  12  26  44  61  93 135 169 209 266 335 365
#     4   9  18  32  55  91 127 160 202 267 322 369
#     4  12  22  40  61  93 128 165 219 262 308 370
#     4  12  28  40  63  97 131 171 207 272 321 383
#     4   9  18  32  55  91 130 160 200 267 325 366
#     4  11  21  39  63  93 128 168 216 261 318 379
#     4  12  24  36  65  95 122 169 221 264 306 384
#     4  11  21  39  64  92 126 169 216 263 313 382
#
# _framework density 20.704844999999999
#
# number of rings (size 3 to 8) (size 9 to 14) (size 15 to 20)
#    0.000    1.333    5.000    1.000    2.333    2.667 
#    0.000    0.000    0.000    1.000    0.000    0.000 
#    0.000    0.000    0.000    0.000    0.000    0.000 
#
# Total GULP energy -297349.755891 kJ/mol
# GULP energy per Si atom -12389.573162 kJ/mol
# Density = 2.065772 g / cm^3
# Si number density = 20.704845 Si / 1000 Ang^3
#
#
#
# Elastic Constant Matrix: (Units=GPa)
#
#
# Indices 1 2 3 4 5 6 
#
# 1 163.1575 89.3307 3.2716 0.0000 0.0000 0.0000
# 2 89.3307 183.8244 19.6938 0.0000 0.0000 0.0000
# 3 3.2716 19.6938 49.1112 0.0000 0.0000 0.0000
# 4 0.0000 0.0000 0.0000 9.8841 0.0000 0.0000
# 5 0.0000 0.0000 0.0000 0.0000 9.8246 0.0000
# 6 0.0000 0.0000 0.0000 0.0000 0.0000 43.0859
#
#
#
# Elastic Compliance Matrix: (Units=1/GPa)
#
#
# Indices 1 2 3 4 5 6 
#
# 1 0.008410 -0.004208 0.001127 0.000000 0.000000 0.000000
# 2 -0.004208 0.007789 -0.002843 0.000000 0.000000 0.000000
# 3 0.001127 -0.002843 0.021427 0.000000 0.000000 0.000000
# 4 0.000000 0.000000 0.000000 0.101173 0.000000 0.000000
# 5 0.000000 0.000000 0.000000 0.000000 0.101785 0.000000
# 6 0.000000 0.000000 0.000000 0.000000 0.000000 0.023209
#
#
# Mechanical properties :
#
#
# Convention : Reuss Voigt Hill
#
# Bulk Modulus (GPa) = 38.79163 68.96504 53.87834
# Shear Modulus (GPa) = 17.59109 31.47872 24.53490
#
# Velocity S-wave (km/s) = 2.91797 3.90340 3.44609
# Velocity P-wave (km/s) = 5.48899 7.32778 6.47400
#
# Compressibility (1/GPa) = 0.02577876
#
# Stress axis : x y z
#
# Youngs Moduli (GPa) = 118.90253 128.37997 46.66996
#
# Poissons Ratio (x) = 0.54019 -0.05260
# Poissons Ratio (y) = 0.50031 0.13270
# Poissons Ratio (z) = -0.13401 0.36502
#
# Static dielectric constant tensor:
#      x y z
#    x 4.143730 0.000000 0.000000 
#    y 0.000000 3.903030 0.000000 
#    z 0.000000 0.000000 3.134010 
# 
# 
# High freq. dielectric constant tensor:
#      x y z
#    x 1.827790 0.000000 0.000000 
#    y 0.000000 1.825770 0.000000 
#    z 0.000000 0.000000 1.747130 
# 
# From -- ./inp_files/12714.got.cif
#   From: 2010.03.12/outbox.cif.g09.slc.cpg/sg39_7_cif.got.tgz:12714.got - 2010.04.14 02:53:20.
