data_PCOD8182094
_publ_section_title
;
Structure prediction by ZEFSAII (Michael W. Deem and Ramdas Pophale) SiO2 
 PCOD8182094
Probable space group: A B M 2
;
_chemical_formula_sum "Si O2"
_cell_formula_units_Z 64
_cell_length_a 13.762798
_cell_length_b 17.966317
_cell_length_c 11.958447
_cell_angle_alpha 90.000000
_cell_angle_beta 90.000000
_cell_angle_gamma 90.000000
_cell_volume 2956.926823
_symmetry_space_group_name_H-M "A B M 2"
_symmetry_group_IT_number 39
_symmetry_cell_setting 'orthorhombic'
loop_
_space_group_symop_operation_xyz
x,y,z
-x,-y,z
-x,1/2+y,z
x,1/2-y,z
x,1/2+y,1/2+z
-x,1/2-y,1/2+z
-x,y,1/2+z
x,-y,1/2+z
loop_
_atom_site_type_symbol
_atom_site_label
_atom_site_fract_x
_atom_site_fract_y
_atom_site_fract_z
Si Si1 0.819388 0.612421 0.589960
Si Si2 0.232545 0.333058 0.045542
Si Si3 0.424509 0.331717 0.934344
Si Si4 0.113733 0.334690 0.825659
Si Si5 0.941775 0.930295 0.394609
Si Si6 0.787901 0.964569 0.208117
Si Si7 0.405701 0.953122 0.259407
Si Si8 0.611201 0.835319 0.570907
O O1 0.833689 0.656265 0.705930
O O2 0.902107 0.621557 0.495775
O O3 0.819631 0.524922 0.616564
O O4 0.720379 0.643397 0.533747
O O5 0.195339 0.250000 0.074829
O O6 0.204275 0.385126 0.148487
O O7 0.350011 0.333167 0.038514
O O8 0.184445 0.359529 0.927481
O O9 0.414666 0.250000 0.875390
O O10 0.384610 0.398738 0.861270
O O11 0.536551 0.343415 0.968265
O O12 0.084040 0.250000 0.841135
O O13 0.014813 0.381222 0.821329
O O14 0.856710 0.962628 0.316099
O O15 0.000000 0.000000 0.446103
O O16 0.680579 0.987660 0.247424
O O17 0.423416 0.897603 0.157148
O O18 0.500000 0.000000 0.283412
O O19 0.607105 0.750000 0.616602
#
# Coordination Sequence:
#
# PCOD8182094 Si02
#       8
#     8   8   8   8   8   8   8   8
#     4  11  25  43  70  98 138 173 227 283 338 414
#     4  10  22  43  70 100 136 175 227 281 335 409
#     4  10  22  40  67  97 133 179 221 271 335 405
#     4  11  25  44  70 100 131 180 232 279 342 406
#     4  12  27  44  67  98 133 178 226 284 346 406
#     4  11  25  42  67  99 132 178 219 283 343 404
#     4  11  24  39  65  99 134 175 221 274 329 406
#     4  10  22  43  67  96 131 173 220 273 337 399
#
# _framework density 21.644095
#
# number of rings (size 3 to 8) (size 9 to 14) (size 15 to 20)
#    0.000    1.250    1.250    3.750    7.000    4.000 
#    0.000    0.625    0.000    0.000    0.000    0.000 
#    0.000    0.000    0.000    0.000    0.000    0.000 
#
# Total GULP energy -396681.898203 kJ/mol
# GULP energy per Si atom -12396.309319 kJ/mol
# Density = 2.159483 g / cm^3
# Si number density = 21.644095 Si / 1000 Ang^3
#
#
#
# Elastic Constant Matrix: (Units=GPa)
#
#
# Indices 1 2 3 4 5 6 
#
# 1 87.4892 21.2772 29.6983 0.0000 0.0000 0.0000
# 2 21.2772 97.9062 27.5712 0.0000 0.0000 0.0000
# 3 29.6983 27.5712 74.8394 0.0000 0.0000 0.0000
# 4 0.0000 0.0000 0.0000 43.2408 0.0000 0.0000
# 5 0.0000 0.0000 0.0000 0.0000 31.3661 0.0000
# 6 0.0000 0.0000 0.0000 0.0000 0.0000 30.5052
#
#
#
# Elastic Compliance Matrix: (Units=1/GPa)
#
#
# Indices 1 2 3 4 5 6 
#
# 1 0.013425 -0.001581 -0.004745 0.000000 0.000000 0.000000
# 2 -0.001581 0.011582 -0.003639 0.000000 0.000000 0.000000
# 3 -0.004745 -0.003639 0.016586 0.000000 0.000000 0.000000
# 4 0.000000 0.000000 0.000000 0.023126 0.000000 0.000000
# 5 0.000000 0.000000 0.000000 0.000000 0.031882 0.000000
# 6 0.000000 0.000000 0.000000 0.000000 0.000000 0.032781
#
#
# Mechanical properties :
#
#
# Convention : Reuss Voigt Hill
#
# Bulk Modulus (GPa) = 46.16432 46.36982 46.26707
# Shear Modulus (GPa) = 31.94179 33.13495 32.53837
#
# Velocity S-wave (km/s) = 3.84575 3.91692 3.88150
# Velocity P-wave (km/s) = 6.41053 6.47508 6.44288
#
# Compressibility (1/GPa) = 0.02166175
#
# Stress axis : x y z
#
# Youngs Moduli (GPa) = 74.48660 86.33760 60.29302
#
# Poissons Ratio (x) = 0.13653 0.28608
# Poissons Ratio (y) = 0.11779 0.21944
# Poissons Ratio (z) = 0.35343 0.31423
#
# Static dielectric constant tensor:
#      x y z
#    x 3.975700 0.000000 0.000000 
#    y 0.000000 4.051700 0.000000 
#    z 0.000000 0.000000 3.573160 
# 
# 
# High freq. dielectric constant tensor:
#      x y z
#    x 1.861440 0.000000 0.000000 
#    y 0.000000 1.864200 0.000000 
#    z 0.000000 0.000000 1.826530 
# 
# From -- ./inp_files/6624.got.cif
#   From: 2010.03.12/outbox.cif.g09.slc.cpg/sg39_4_cif.got.tgz:6624.got - 2010.04.14 02:53:20.
