data_PCOD8182673
_publ_section_title
;
Structure prediction by ZEFSAII (Michael W. Deem and Ramdas Pophale) SiO2 
 PCOD8182673
Probable space group: A M A 2
;
_chemical_formula_sum "Si O2"
_cell_formula_units_Z 64
_cell_length_a 8.720000
_cell_length_b 14.743729
_cell_length_c 24.351684
_cell_angle_alpha 90.000000
_cell_angle_beta 90.000000
_cell_angle_gamma 90.000000
_cell_volume 3130.781970
_symmetry_space_group_name_H-M "A M A 2"
_symmetry_group_IT_number 40
_symmetry_cell_setting 'orthorhombic'
loop_
_space_group_symop_operation_xyz
x,y,z
-x,-y,z
1/2-x,y,z
1/2+x,-y,z
x,1/2+y,1/2+z
-x,1/2-y,1/2+z
1/2-x,1/2+y,1/2+z
1/2+x,1/2-y,1/2+z
loop_
_atom_site_type_symbol
_atom_site_label
_atom_site_fract_x
_atom_site_fract_y
_atom_site_fract_z
Si Si1 0.932119 0.600322 0.068020
Si Si2 0.569215 0.400850 0.178787
Si Si3 0.928804 0.254229 0.268622
Si Si4 0.928276 0.903043 0.458163
Si Si5 0.569563 0.098211 0.975166
Si Si6 0.930398 0.599053 0.595407
Si Si7 0.069904 0.599263 0.703861
Si Si8 0.928168 0.737082 0.383724
O O1 0.750000 0.601202 0.070191
O O2 0.000000 0.500000 0.066438
O O3 0.999701 0.645688 0.123393
O O4 0.992349 0.644981 0.011366
O O5 0.500000 0.500000 0.189761
O O6 0.750000 0.410357 0.171356
O O7 0.523750 0.337790 0.229800
O O8 0.750000 0.232809 0.263479
O O9 0.022655 0.163869 0.253873
O O10 0.970995 0.281185 0.330348
O O11 0.750000 0.915712 0.471843
O O12 0.953937 0.838698 0.405907
O O13 0.000000 0.000000 0.443166
O O14 0.750000 0.086364 0.972054
O O15 0.509742 0.167140 0.929401
O O16 0.500000 0.000000 0.964570
O O17 0.526634 0.139797 0.035574
O O18 0.750000 0.596719 0.605435
O O19 0.000000 0.500000 0.596661
O O20 0.008010 0.648369 0.647706
O O21 0.250000 0.589140 0.701086
O O22 0.000000 0.500000 0.713508
O O23 0.750000 0.719851 0.370409
#
# Coordination Sequence:
#
# PCOD8182673 Si02
#       8
#     8   8   8   8   8   8   8   8
#     4  10  18  31  55  86 117 147 182 226 277 336
#     4  10  21  38  60  85 115 150 187 232 285 339
#     4  11  25  42  59  82 112 149 195 241 283 333
#     4  10  20  36  58  83 113 149 185 227 280 333
#     4   9  19  36  58  84 114 148 184 226 279 335
#     4   9  16  30  54  84 116 147 183 227 277 336
#     4  11  22  38  61  87 117 151 187 232 284 338
#     4  10  23  41  58  79 110 149 192 235 280 332
#
# _framework density 20.442176
#
# number of rings (size 3 to 8) (size 9 to 14) (size 15 to 20)
#    0.000    2.000    0.000    6.000    0.000    6.000 
#    0.000    6.250    0.000    0.000    0.000    0.000 
#    0.000    0.000    0.000    0.000    0.000    0.000 
#
# Total GULP energy -396704.843567 kJ/mol
# GULP energy per Si atom -12397.026361 kJ/mol
# Density = 2.039565 g / cm^3
# Si number density = 20.442176 Si / 1000 Ang^3
#
#
#
# Elastic Constant Matrix: (Units=GPa)
#
#
# Indices 1 2 3 4 5 6 
#
# 1 104.5842 16.9126 26.5314 0.0000 0.0000 0.0000
# 2 16.9126 50.5681 13.5149 0.0000 0.0000 0.0000
# 3 26.5314 13.5149 101.8451 0.0000 0.0000 0.0000
# 4 0.0000 0.0000 0.0000 25.0537 0.0000 0.0000
# 5 0.0000 0.0000 0.0000 0.0000 33.5306 0.0000
# 6 0.0000 0.0000 0.0000 0.0000 0.0000 22.0057
#
#
#
# Elastic Compliance Matrix: (Units=1/GPa)
#
#
# Indices 1 2 3 4 5 6 
#
# 1 0.010639 -0.002921 -0.002384 0.000000 0.000000 0.000000
# 2 -0.002921 0.021304 -0.002066 0.000000 0.000000 0.000000
# 3 -0.002384 -0.002066 0.010714 0.000000 0.000000 0.000000
# 4 0.000000 0.000000 0.000000 0.039914 0.000000 0.000000
# 5 0.000000 0.000000 0.000000 0.000000 0.029824 0.000000
# 6 0.000000 0.000000 0.000000 0.000000 0.000000 0.045443
#
#
# Mechanical properties :
#
#
# Convention : Reuss Voigt Hill
#
# Bulk Modulus (GPa) = 35.82283 41.21277 38.51780
# Shear Modulus (GPa) = 27.48988 29.45389 28.47189
#
# Velocity S-wave (km/s) = 3.67108 3.79996 3.73607
# Velocity P-wave (km/s) = 5.96080 6.28151 6.12325
#
# Compressibility (1/GPa) = 0.02791516
#
# Stress axis : x y z
#
# Youngs Moduli (GPa) = 93.99565 46.93855 93.33563
#
# Poissons Ratio (x) = 0.13711 0.22250
# Poissons Ratio (y) = 0.27457 0.19285
# Poissons Ratio (z) = 0.22407 0.09698
#
# Static dielectric constant tensor:
#      x y z
#    x 3.685910 0.000000 0.000000 
#    y 0.000000 3.544990 0.000000 
#    z 0.000000 0.000000 4.347200 
# 
# 
# High freq. dielectric constant tensor:
#      x y z
#    x 1.805130 0.000000 0.000000 
#    y 0.000000 1.782820 0.000000 
#    z 0.000000 0.000000 1.809250 
# 
# From -- ./inp_files/24256.got.cif
#   From: 2010.03.12/outbox.cif.g09.slc.cpg/sg40_13_cif.got.tgz:24256.got - 2010.04.14 01:38:03.
