data_PCOD8182726
_publ_section_title
;
Structure prediction by ZEFSAII (Michael W. Deem and Ramdas Pophale) SiO2 
 PCOD8182726
Probable space group: A M A 2
;
_chemical_formula_sum "Si O2"
_cell_formula_units_Z 56
_cell_length_a 19.108714
_cell_length_b 9.550195
_cell_length_c 16.103979
_cell_angle_alpha 90.000000
_cell_angle_beta 90.000000
_cell_angle_gamma 90.000000
_cell_volume 2938.846448
_symmetry_space_group_name_H-M "A M A 2"
_symmetry_group_IT_number 40
_symmetry_cell_setting 'orthorhombic'
loop_
_space_group_symop_operation_xyz
x,y,z
-x,-y,z
1/2-x,y,z
1/2+x,-y,z
x,1/2+y,1/2+z
-x,1/2-y,1/2+z
1/2-x,1/2+y,1/2+z
1/2+x,1/2-y,1/2+z
loop_
_atom_site_type_symbol
_atom_site_label
_atom_site_fract_x
_atom_site_fract_y
_atom_site_fract_z
Si Si1 0.331087 0.448348 0.030210
Si Si2 0.421987 0.695254 0.494692
Si Si3 0.924771 0.940526 0.824704
Si Si4 0.046642 0.630774 0.046550
Si Si5 0.829173 0.130387 0.718667
Si Si6 0.061765 0.804453 0.207901
Si Si7 0.409661 0.606247 0.679645
O O1 0.250000 0.476364 0.006056
O O2 0.356989 0.303562 0.988988
O O3 0.383048 0.573862 0.999750
O O4 0.342040 0.441279 0.129564
O O5 0.415664 0.579308 0.423211
O O6 0.496898 0.776502 0.486451
O O7 0.418821 0.611127 0.580444
O O8 0.911798 0.788462 0.784329
O O9 0.869931 0.052385 0.791347
O O10 0.000000 0.000000 0.800353
O O11 0.073102 0.719676 0.123772
O O12 0.000000 0.500000 0.079518
O O13 0.750000 0.121637 0.746352
O O14 0.848699 0.294064 0.712824
O O15 0.980974 0.842117 0.221962
O O16 0.107588 0.946789 0.205233
#
# Coordination Sequence:
#
# PCOD8182726 Si02
#       7
#     8   8   8   8   8   8   8
#     4   9  17  34  59  82 111 156 198 230 282 355
#     4   9  21  33  55  83 116 144 189 244 292 332
#     4  12  22  35  57  91 112 147 191 248 289 342
#     4   9  16  32  54  82 115 151 189 239 287 339
#     4  10  20  37  59  84 119 158 194 234 291 356
#     4  10  18  32  59  81 112 141 193 238 282 328
#     4   9  19  37  55  82 110 153 186 237 287 341
#
# _framework density 19.055095000000001
#
# number of rings (size 3 to 8) (size 9 to 14) (size 15 to 20)
#    0.000    2.286    2.857    1.286    4.000    0.571 
#    7.714    1.429    0.000    2.571    0.000    0.000 
#    0.000    0.000    0.000    0.000    0.000    0.000 
#
# Total GULP energy -347141.354416 kJ/mol
# GULP energy per Si atom -12397.905515 kJ/mol
# Density = 1.901172 g / cm^3
# Si number density = 19.055095 Si / 1000 Ang^3
#
#
#
# Elastic Constant Matrix: (Units=GPa)
#
#
# Indices 1 2 3 4 5 6 
#
# 1 122.5898 43.9116 29.3374 0.0000 0.0000 0.0000
# 2 43.9116 113.6317 39.0570 0.0000 0.0000 0.0000
# 3 29.3374 39.0570 69.6990 0.0000 0.0000 0.0000
# 4 0.0000 0.0000 0.0000 30.6792 0.0000 0.0000
# 5 0.0000 0.0000 0.0000 0.0000 13.6599 0.0000
# 6 0.0000 0.0000 0.0000 0.0000 0.0000 20.7068
#
#
#
# Elastic Compliance Matrix: (Units=1/GPa)
#
#
# Indices 1 2 3 4 5 6 
#
# 1 0.009802 -0.002935 -0.002481 0.000000 0.000000 0.000000
# 2 -0.002935 0.011779 -0.005365 0.000000 0.000000 0.000000
# 3 -0.002481 -0.005365 0.018398 0.000000 0.000000 0.000000
# 4 0.000000 0.000000 0.000000 0.032595 0.000000 0.000000
# 5 0.000000 0.000000 0.000000 0.000000 0.073207 0.000000
# 6 0.000000 0.000000 0.000000 0.000000 0.000000 0.048293
#
#
# Mechanical properties :
#
#
# Convention : Reuss Voigt Hill
#
# Bulk Modulus (GPa) = 54.29890 58.94806 56.62348
# Shear Modulus (GPa) = 22.54526 25.91682 24.23104
#
# Velocity S-wave (km/s) = 3.44344 3.69195 3.56986
# Velocity P-wave (km/s) = 6.66088 7.01262 6.83901
#
# Compressibility (1/GPa) = 0.01841658
#
# Stress axis : x y z
#
# Youngs Moduli (GPa) = 102.01517 84.89949 54.35339
#
# Poissons Ratio (x) = 0.24920 0.13486
# Poissons Ratio (y) = 0.29944 0.29160
# Poissons Ratio (z) = 0.25312 0.45548
#
# Static dielectric constant tensor:
#      x y z
#    x 3.411080 0.000000 0.000000 
#    y 0.000000 3.661210 0.000000 
#    z 0.000000 0.000000 3.127690 
# 
# 
# High freq. dielectric constant tensor:
#      x y z
#    x 1.722100 0.000000 0.000000 
#    y 0.000000 1.747240 0.000000 
#    z 0.000000 0.000000 1.709300 
# 
# From -- ./inp_files/18200.got.cif
#   From: 2010.03.12/outbox.cif.g09.slc.cpg/sg40_10_cif.got.tgz:18200.got - 2010.04.14 01:38:03.
