data_PCOD8182061
_publ_section_title
;
Structure prediction by ZEFSAII (Michael W. Deem and Ramdas Pophale) SiO2 
 PCOD8182061
Probable space group: A B M 2
;
_chemical_formula_sum "Si O2"
_cell_formula_units_Z 40
_cell_length_a 9.971046
_cell_length_b 17.400058
_cell_length_c 9.992477
_cell_angle_alpha 90.000000
_cell_angle_beta 90.000000
_cell_angle_gamma 90.000000
_cell_volume 1733.662571
_symmetry_space_group_name_H-M "A B M 2"
_symmetry_group_IT_number 39
_symmetry_cell_setting 'orthorhombic'
loop_
_space_group_symop_operation_xyz
x,y,z
-x,-y,z
-x,1/2+y,z
x,1/2-y,z
x,1/2+y,1/2+z
-x,1/2-y,1/2+z
-x,y,1/2+z
x,-y,1/2+z
loop_
_atom_site_type_symbol
_atom_site_label
_atom_site_fract_x
_atom_site_fract_y
_atom_site_fract_z
Si Si1 0.359680 0.036201 0.211270
Si Si2 0.859095 0.159589 0.024076
Si Si3 0.698941 0.080882 0.437607
Si Si4 0.064361 0.839642 0.311662
Si Si5 0.420180 0.660137 0.907264
O O1 0.379706 0.122960 0.265676
O O2 0.500000 0.000000 0.166377
O O3 0.292456 0.984509 0.325457
O O4 0.265243 0.041248 0.079983
O O5 0.886897 0.250000 0.024363
O O6 0.699399 0.144446 0.014103
O O7 0.937406 0.124870 0.893717
O O8 0.916081 0.123541 0.163189
O O9 0.804014 0.146688 0.401464
O O10 0.553039 0.118422 0.459738
O O11 0.044719 0.750000 0.292407
O O12 0.445457 0.750000 0.883686
#
# Coordination Sequence:
#
# PCOD8182061 Si02
#       5
#     8   8   8   8   8
#     4  10  23  41  62  91 129 173 204 263 328 378
#     4   9  21  40  63  95 133 165 204 263 325 373
#     4  11  24  41  67  92 130 168 220 260 322 385
#     4  10  22  41  67  96 129 170 213 264 321 381
#     4  10  22  39  67  98 127 162 215 272 320 381
#
# _framework density 23.07254
#
# number of rings (size 3 to 8) (size 9 to 14) (size 15 to 20)
#    0.000    2.000    0.000    2.400   11.200    1.600 
#    0.000    1.000    0.000    0.000    0.000    0.000 
#    0.000    0.000    0.000    0.000    0.000    0.000 
#
# Total GULP energy -247939.009798 kJ/mol
# GULP energy per Si atom -12396.950490 kJ/mol
# Density = 2.302003 g / cm^3
# Si number density = 23.072540 Si / 1000 Ang^3
#
#
#
# Elastic Constant Matrix: (Units=GPa)
#
#
# Indices 1 2 3 4 5 6 
#
# 1 98.5878 18.6479 43.4529 0.0000 0.0000 0.0000
# 2 18.6479 69.3788 34.9348 0.0000 0.0000 0.0000
# 3 43.4529 34.9348 154.3560 0.0000 0.0000 0.0000
# 4 0.0000 0.0000 0.0000 25.4857 0.0000 0.0000
# 5 0.0000 0.0000 0.0000 0.0000 28.2072 0.0000
# 6 0.0000 0.0000 0.0000 0.0000 0.0000 15.4045
#
#
#
# Elastic Compliance Matrix: (Units=1/GPa)
#
#
# Indices 1 2 3 4 5 6 
#
# 1 0.011752 -0.001685 -0.002927 0.000000 0.000000 0.000000
# 2 -0.001685 0.016509 -0.003262 0.000000 0.000000 0.000000
# 3 -0.002927 -0.003262 0.008041 0.000000 0.000000 0.000000
# 4 0.000000 0.000000 0.000000 0.039238 0.000000 0.000000
# 5 0.000000 0.000000 0.000000 0.000000 0.035452 0.000000
# 6 0.000000 0.000000 0.000000 0.000000 0.000000 0.064916
#
#
# Mechanical properties :
#
#
# Convention : Reuss Voigt Hill
#
# Bulk Modulus (GPa) = 48.65257 57.37708 53.01482
# Shear Modulus (GPa) = 25.18804 28.83861 27.01333
#
# Velocity S-wave (km/s) = 3.30766 3.53924 3.42541
# Velocity P-wave (km/s) = 5.97662 6.45165 6.21867
#
# Compressibility (1/GPa) = 0.02055390
#
# Stress axis : x y z
#
# Youngs Moduli (GPa) = 85.09174 60.57271 124.36560
#
# Poissons Ratio (x) = 0.10206 0.36402
# Poissons Ratio (y) = 0.14337 0.40569
# Poissons Ratio (z) = 0.24906 0.19760
#
# Static dielectric constant tensor:
#      x y z
#    x 4.043800 0.000000 0.000000 
#    y 0.000000 3.972600 0.000000 
#    z 0.000000 0.000000 4.443380 
# 
# 
# High freq. dielectric constant tensor:
#      x y z
#    x 1.896320 0.000000 0.000000 
#    y 0.000000 1.894750 0.000000 
#    z 0.000000 0.000000 1.922800 
# 
# From -- ./inp_files/2514.got.cif
#   From: 2010.03.12/outbox.cif.g09.slc.cpg/sg39_2_cif.got.tgz:2514.got - 2010.04.14 02:53:20.
