data_PCOD8182327
_publ_section_title
;
Structure prediction by ZEFSAII (Michael W. Deem and Ramdas Pophale) SiO2 
 PCOD8182327
Probable space group: A M A 2
;
_chemical_formula_sum "Si O2"
_cell_formula_units_Z 36
_cell_length_a 10.365920
_cell_length_b 12.319509
_cell_length_c 16.403949
_cell_angle_alpha 90.000000
_cell_angle_beta 90.000000
_cell_angle_gamma 90.000000
_cell_volume 2094.834233
_symmetry_space_group_name_H-M "A M A 2"
_symmetry_group_IT_number 40
_symmetry_cell_setting 'orthorhombic'
loop_
_space_group_symop_operation_xyz
x,y,z
-x,-y,z
1/2-x,y,z
1/2+x,-y,z
x,1/2+y,1/2+z
-x,1/2-y,1/2+z
1/2-x,1/2+y,1/2+z
1/2+x,1/2-y,1/2+z
loop_
_atom_site_type_symbol
_atom_site_label
_atom_site_fract_x
_atom_site_fract_y
_atom_site_fract_z
Si Si1 0.750000 0.589105 0.892421
Si Si2 0.604220 0.405179 0.312766
Si Si3 0.750000 0.352876 0.641224
Si Si4 0.500000 0.000000 0.349531
Si Si5 0.002116 0.305435 0.725098
Si Si6 0.250000 0.403572 0.699231
Si Si7 0.250000 0.677630 0.453735
O O1 0.622183 0.518109 0.908806
O O2 0.750000 0.623137 0.796783
O O3 0.750000 0.691931 0.951787
O O4 0.500000 0.500000 0.308299
O O5 0.750000 0.436870 0.279839
O O6 0.543174 0.308897 0.261023
O O7 0.621965 0.366206 0.406741
O O8 0.623793 0.287493 0.669762
O O9 0.750000 0.470253 0.682016
O O10 0.750000 0.366506 0.544579
O O11 0.528026 0.894466 0.294481
O O12 0.118450 0.349174 0.666296
#
# Coordination Sequence:
#
# PCOD8182327 Si02
#       7
#     4   8   4   4   8   4   4
#     4  10  16  32  56  80 114 147 187 231 292 352
#     4  10  21  39  59  79 115 168 202 235 296 379
#     4  12  22  29  62  98 115 142 202 260 311 347
#     4  10  14  30  60  84  98 142 198 224 268 338
#     4  11  18  34  58  89 112 147 202 254 283 355
#     4  10  16  34  56  84 114 149 194 240 304 349
#     4  10  22  39  52  84 135 154 173 263 325 336
#
# _framework density 17.185130999999998
#
# number of rings (size 3 to 8) (size 9 to 14) (size 15 to 20)
#    0.667    0.889   10.000    0.000    1.556    1.778 
#    0.000    0.000    2.444    0.000    0.000    0.000 
#    0.000    0.000    0.000    0.000    0.000    0.000 
#
# Total GULP energy -223001.490716 kJ/mol
# GULP energy per Si atom -12388.971706 kJ/mol
# Density = 1.714602 g / cm^3
# Si number density = 17.185131 Si / 1000 Ang^3
#
#
#
# Elastic Constant Matrix: (Units=GPa)
#
#
# Indices 1 2 3 4 5 6 
#
# 1 170.2324 66.8249 34.4181 0.0000 0.0000 0.0000
# 2 66.8249 101.5659 22.0591 0.0000 0.0000 0.0000
# 3 34.4181 22.0591 47.9124 0.0000 0.0000 0.0000
# 4 0.0000 0.0000 0.0000 6.4283 0.0000 0.0000
# 5 0.0000 0.0000 0.0000 0.0000 12.4551 0.0000
# 6 0.0000 0.0000 0.0000 0.0000 0.0000 34.7045
#
#
#
# Elastic Compliance Matrix: (Units=1/GPa)
#
#
# Indices 1 2 3 4 5 6 
#
# 1 0.008541 -0.004763 -0.003943 0.000000 0.000000 0.000000
# 2 -0.004763 0.013596 -0.002838 0.000000 0.000000 0.000000
# 3 -0.003943 -0.002838 0.025010 0.000000 0.000000 0.000000
# 4 0.000000 0.000000 0.000000 0.155563 0.000000 0.000000
# 5 0.000000 0.000000 0.000000 0.000000 0.080288 0.000000
# 6 0.000000 0.000000 0.000000 0.000000 0.000000 0.028815
#
#
# Mechanical properties :
#
#
# Convention : Reuss Voigt Hill
#
# Bulk Modulus (GPa) = 41.56302 62.92390 52.24346
# Shear Modulus (GPa) = 14.58059 23.81148 19.19603
#
# Velocity S-wave (km/s) = 2.91596 3.72638 3.34580
# Velocity P-wave (km/s) = 5.96448 7.43030 6.73738
#
# Compressibility (1/GPa) = 0.02405985
#
# Stress axis : x y z
#
# Youngs Moduli (GPa) = 117.07746 73.54946 39.98365
#
# Poissons Ratio (x) = 0.35035 0.15764
# Poissons Ratio (y) = 0.55769 0.11347
# Poissons Ratio (z) = 0.46159 0.20873
#
# Static dielectric constant tensor:
#      x y z
#    x 3.995540 0.000000 0.000000 
#    y 0.000000 3.106670 0.000000 
#    z 0.000000 0.000000 2.664210 
# 
# 
# High freq. dielectric constant tensor:
#      x y z
#    x 1.688780 0.000000 0.000000 
#    y 0.000000 1.658480 0.000000 
#    z 0.000000 0.000000 1.601440 
# 
# From -- ./inp_files/16169.got.cif
#   From: 2010.03.12/outbox.cif.g09.slc.cpg/sg40_9_cif.got.tgz:16169.got - 2010.04.14 01:38:03.
