data_PCOD8182450
_publ_section_title
;
Structure prediction by ZEFSAII (Michael W. Deem and Ramdas Pophale) SiO2 
 PCOD8182450
Probable space group: A M A 2
;
_chemical_formula_sum "Si O2"
_cell_formula_units_Z 64
_cell_length_a 8.848001
_cell_length_b 18.646389
_cell_length_c 21.379606
_cell_angle_alpha 90.000000
_cell_angle_beta 90.000000
_cell_angle_gamma 90.000000
_cell_volume 3527.277278
_symmetry_space_group_name_H-M "A M A 2"
_symmetry_group_IT_number 40
_symmetry_cell_setting 'orthorhombic'
loop_
_space_group_symop_operation_xyz
x,y,z
-x,-y,z
1/2-x,y,z
1/2+x,-y,z
x,1/2+y,1/2+z
-x,1/2-y,1/2+z
1/2-x,1/2+y,1/2+z
1/2+x,1/2-y,1/2+z
loop_
_atom_site_type_symbol
_atom_site_label
_atom_site_fract_x
_atom_site_fract_y
_atom_site_fract_z
Si Si1 0.428270 0.925038 0.715090
Si Si2 0.081774 0.063807 0.914792
Si Si3 0.418175 0.677509 0.309391
Si Si4 0.425456 0.929554 0.045324
Si Si5 0.571381 0.375803 0.087336
Si Si6 0.072977 0.274427 0.534928
Si Si7 0.928637 0.071291 0.461956
Si Si8 0.427278 0.778738 0.410484
O O1 0.250000 0.934223 0.714907
O O2 0.470883 0.857904 0.759435
O O3 0.486827 0.907598 0.646533
O O4 0.500000 0.000000 0.738742
O O5 0.250000 0.042498 0.938167
O O6 0.092371 0.132219 0.872285
O O7 0.000000 0.000000 0.875140
O O8 0.970144 0.073782 0.972955
O O9 0.250000 0.684844 0.279057
O O10 0.478042 0.752509 0.340141
O O11 0.250000 0.940170 0.055188
O O12 0.475194 0.849600 0.069466
O O13 0.500000 0.000000 0.078561
O O14 0.750000 0.387940 0.094382
O O15 0.529253 0.291527 0.080287
O O16 0.510587 0.418821 0.028140
O O17 0.250000 0.274653 0.521449
O O18 0.997839 0.266856 0.467009
O O19 0.750000 0.063756 0.471989
O O20 0.969926 0.137494 0.416535
O O21 0.000000 0.000000 0.430858
O O22 0.250000 0.766973 0.417164
#
# Coordination Sequence:
#
# PCOD8182450 Si02
#       8
#     8   8   8   8   8   8   8   8
#     4  12  25  39  54  74 100 135 175 213 251 295
#     4  10  18  27  41  61  89 125 162 195 232 275
#     4  10  20  34  50  70  97 131 169 207 247 291
#     4  10  18  27  41  65  96 128 161 195 237 288
#     4  10  20  36  55  74  99 132 171 215 257 300
#     4   9  18  31  49  72  98 129 166 207 253 300
#     4  10  19  32  52  78 106 134 164 204 252 304
#     4   9  18  32  50  72  99 130 165 203 248 300
#
# _framework density 18.144307000000001
#
# number of rings (size 3 to 8) (size 9 to 14) (size 15 to 20)
#    0.000    2.000    1.250    4.125    0.000    4.000 
#    0.000    0.000    0.000    0.000    0.000    0.875 
#    0.000    0.000    0.000    0.000    0.000    0.000 
#
# Total GULP energy -396463.966670 kJ/mol
# GULP energy per Si atom -12389.498958 kJ/mol
# Density = 1.810301 g / cm^3
# Si number density = 18.144307 Si / 1000 Ang^3
#
#
#
# Elastic Constant Matrix: (Units=GPa)
#
#
# Indices 1 2 3 4 5 6 
#
# 1 82.9463 41.7313 24.2227 0.0000 0.0000 0.0000
# 2 41.7313 132.2264 27.2630 0.0000 0.0000 0.0000
# 3 24.2227 27.2630 52.7372 0.0000 0.0000 0.0000
# 4 0.0000 0.0000 0.0000 22.4677 0.0000 0.0000
# 5 0.0000 0.0000 0.0000 0.0000 21.1039 0.0000
# 6 0.0000 0.0000 0.0000 0.0000 0.0000 25.1755
#
#
#
# Elastic Compliance Matrix: (Units=1/GPa)
#
#
# Indices 1 2 3 4 5 6 
#
# 1 0.015480 -0.003828 -0.005132 0.000000 0.000000 0.000000
# 2 -0.003828 0.009411 -0.003107 0.000000 0.000000 0.000000
# 3 -0.005132 -0.003107 0.022925 0.000000 0.000000 0.000000
# 4 0.000000 0.000000 0.000000 0.044508 0.000000 0.000000
# 5 0.000000 0.000000 0.000000 0.000000 0.047385 0.000000
# 6 0.000000 0.000000 0.000000 0.000000 0.000000 0.039721
#
#
# Mechanical properties :
#
#
# Convention : Reuss Voigt Hill
#
# Bulk Modulus (GPa) = 42.22233 50.48267 46.35250
# Shear Modulus (GPa) = 23.64529 25.39561 24.52045
#
# Velocity S-wave (km/s) = 3.61387 3.74524 3.68014
# Velocity P-wave (km/s) = 6.38234 6.82537 6.60757
#
# Compressibility (1/GPa) = 0.02368415
#
# Stress axis : x y z
#
# Youngs Moduli (GPa) = 64.59837 106.25329 43.62001
#
# Poissons Ratio (x) = 0.40670 0.22384
# Poissons Ratio (y) = 0.24726 0.13554
# Poissons Ratio (z) = 0.33149 0.33016
#
# Static dielectric constant tensor:
#      x y z
#    x 3.453420 0.000000 0.000000 
#    y 0.000000 4.240750 0.000000 
#    z 0.000000 0.000000 2.977360 
# 
# 
# High freq. dielectric constant tensor:
#      x y z
#    x 1.710010 0.000000 0.000000 
#    y 0.000000 1.722910 0.000000 
#    z 0.000000 0.000000 1.644980 
# 
# From -- ./inp_files/22509.got.cif
#   From: 2010.03.12/outbox.cif.g09.slc.cpg/sg40_12_cif.got.tgz:22509.got - 2010.04.14 01:38:03.
