data_PCOD8182243
_publ_section_title
;
Structure prediction by ZEFSAII (Michael W. Deem and Ramdas Pophale) SiO2 
 PCOD8182243
Probable space group: A B M 2
;
_chemical_formula_sum "Si O2"
_cell_formula_units_Z 40
_cell_length_a 12.876383
_cell_length_b 15.053092
_cell_length_c 9.873879
_cell_angle_alpha 90.000000
_cell_angle_beta 90.000000
_cell_angle_gamma 90.000000
_cell_volume 1913.847824
_symmetry_space_group_name_H-M "A B M 2"
_symmetry_group_IT_number 39
_symmetry_cell_setting 'orthorhombic'
loop_
_space_group_symop_operation_xyz
x,y,z
-x,-y,z
-x,1/2+y,z
x,1/2-y,z
x,1/2+y,1/2+z
-x,1/2-y,1/2+z
-x,y,1/2+z
x,-y,1/2+z
loop_
_atom_site_type_symbol
_atom_site_label
_atom_site_fract_x
_atom_site_fract_y
_atom_site_fract_z
Si Si1 0.403211 0.855987 0.763010
Si Si2 0.103906 0.750000 0.925110
Si Si3 0.743032 0.592247 0.494868
Si Si4 0.257095 0.394570 0.023717
Si Si5 0.637680 0.849158 0.752241
Si Si6 0.903425 0.250000 0.610310
O O1 0.390386 0.750000 0.751620
O O2 0.341363 0.903285 0.642690
O O3 0.521820 0.889064 0.758459
O O4 0.358656 0.889791 0.905315
O O5 0.068024 0.750000 0.769131
O O6 0.167917 0.839047 0.954612
O O7 0.006814 0.750000 0.023511
O O8 0.782983 0.491440 0.475868
O O9 0.711529 0.597367 0.651768
O O10 0.159717 0.338591 0.075587
O O11 0.311771 0.345876 0.899466
O O12 0.629618 0.750000 0.694135
#
# Coordination Sequence:
#
# PCOD8182243 Si02
#       6
#     8   4   8   8   8   4
#     4  11  21  43  65  97 145 188 219 264 322 386
#     4  12  28  52  73  95 130 170 221 287 347 398
#     4  12  24  43  69 100 137 176 221 272 331 394
#     4  12  24  43  69 100 137 176 221 272 331 394
#     4  11  23  37  69 103 139 182 225 262 318 398
#     4  12  28  52  73  95 130 170 221 287 347 398
#
# _framework density 20.900302
#
# number of rings (size 3 to 8) (size 9 to 14) (size 15 to 20)
#    0.000    0.400    6.000    2.400    2.800    8.800 
#    0.000    2.000    0.000    0.000    0.000    0.000 
#    0.000    0.000    0.000    0.000    0.000    0.000 
#
# Total GULP energy -248103.823355 kJ/mol
# GULP energy per Si atom -12405.191168 kJ/mol
# Density = 2.085273 g / cm^3
# Si number density = 20.900302 Si / 1000 Ang^3
#
#
#
# Elastic Constant Matrix: (Units=GPa)
#
#
# Indices 1 2 3 4 5 6 
#
# 1 117.2379 39.1425 60.8870 0.0000 0.0000 0.0000
# 2 39.1425 128.2577 21.7314 0.0000 0.0000 0.0000
# 3 60.8870 21.7314 129.9457 0.0000 0.0000 0.0000
# 4 0.0000 0.0000 0.0000 38.5915 0.0000 0.0000
# 5 0.0000 0.0000 0.0000 0.0000 45.1492 0.0000
# 6 0.0000 0.0000 0.0000 0.0000 0.0000 0.3397
#
#
#
# Elastic Compliance Matrix: (Units=1/GPa)
#
#
# Indices 1 2 3 4 5 6 
#
# 1 0.012198 -0.002835 -0.005242 0.000000 0.000000 0.000000
# 2 -0.002835 0.008683 -0.000124 0.000000 0.000000 0.000000
# 3 -0.005242 -0.000124 0.010172 0.000000 0.000000 0.000000
# 4 0.000000 0.000000 0.000000 0.025912 0.000000 0.000000
# 5 0.000000 0.000000 0.000000 0.000000 0.022149 0.000000
# 6 0.000000 0.000000 0.000000 0.000000 0.000000 2.943605
#
#
# Mechanical properties :
#
#
# Convention : Reuss Voigt Hill
#
# Bulk Modulus (GPa) = 68.24438 68.77368 68.50903
# Shear Modulus (GPa) = 1.64257 33.72812 17.68535
#
# Velocity S-wave (km/s) = 0.88748 4.02152 2.91207
# Velocity P-wave (km/s) = 5.81149 7.38516 6.64507
#
# Compressibility (1/GPa) = 0.01465322
#
# Stress axis : x y z
#
# Youngs Moduli (GPa) = 81.97911 115.16902 98.30726
#
# Poissons Ratio (x) = 0.32646 0.51528
# Poissons Ratio (y) = 0.23238 0.01218
# Poissons Ratio (z) = 0.42969 0.01427
#
# Static dielectric constant tensor:
#      x y z
#    x 3.668210 0.000000 0.000000 
#    y 0.000000 3.604160 0.000000 
#    z 0.000000 0.000000 3.909070 
# 
# 
# High freq. dielectric constant tensor:
#      x y z
#    x 1.799510 0.000000 0.000000 
#    y 0.000000 1.830590 0.000000 
#    z 0.000000 0.000000 1.837150 
# 
# From -- ./inp_files/3095.got.cif
#   From: 2010.03.12/outbox.cif.g09.slc.cpg/sg39_2_cif.got.tgz:3095.got - 2010.04.14 02:53:20.
