data_PCOD8182150
_publ_section_title
;
Structure prediction by ZEFSAII (Michael W. Deem and Ramdas Pophale) SiO2 
 PCOD8182150
Probable space group: A B M 2
;
_chemical_formula_sum "Si O2"
_cell_formula_units_Z 40
_cell_length_a 13.269016
_cell_length_b 13.309827
_cell_length_c 10.525146
_cell_angle_alpha 90.000000
_cell_angle_beta 90.000000
_cell_angle_gamma 90.000000
_cell_volume 1858.828220
_symmetry_space_group_name_H-M "A B M 2"
_symmetry_group_IT_number 39
_symmetry_cell_setting 'orthorhombic'
loop_
_space_group_symop_operation_xyz
x,y,z
-x,-y,z
-x,1/2+y,z
x,1/2-y,z
x,1/2+y,1/2+z
-x,1/2-y,1/2+z
-x,y,1/2+z
x,-y,1/2+z
loop_
_atom_site_type_symbol
_atom_site_label
_atom_site_fract_x
_atom_site_fract_y
_atom_site_fract_z
Si Si1 0.710171 0.466621 0.993470
Si Si2 0.608688 0.458691 0.248438
Si Si3 0.907456 0.073296 0.582035
Si Si4 0.912316 0.250000 0.767292
Si Si5 0.767988 0.750000 0.493462
Si Si6 0.896186 0.750000 0.896268
Si Si7 0.698081 0.750000 0.758197
O O1 0.687174 0.515218 0.858887
O O2 0.702429 0.348415 0.963523
O O3 0.635039 0.500255 0.107802
O O4 0.819546 0.497468 0.043203
O O5 0.500000 0.500000 0.288182
O O6 0.617724 0.339089 0.248410
O O7 0.875906 0.147015 0.698725
O O8 0.930775 0.148552 0.466975
O O9 0.000000 0.000000 0.616400
O O10 0.870088 0.250000 0.911353
O O11 0.034525 0.250000 0.770030
O O12 0.782888 0.750000 0.646181
O O13 0.774113 0.750000 0.878904
#
# Coordination Sequence:
#
# PCOD8182150 Si02
#       7
#     8   8   8   4   4   4   4
#     4  11  23  43  68  96 136 176 225 277 341 402
#     4  11  24  44  69  98 130 173 227 285 347 404
#     4  11  25  40  65  98 133 181 220 272 327 406
#     4  11  25  38  63  97 135 176 230 267 323 402
#     4  10  23  40  63  95 135 173 216 273 332 390
#     4  11  23  42  62  92 131 176 226 267 326 390
#     4  10  23  44  70  92 129 177 216 287 337 402
#
# _framework density 21.518934999999999
#
# number of rings (size 3 to 8) (size 9 to 14) (size 15 to 20)
#    0.000    1.200    2.000    3.000    8.400    3.200 
#    0.000    5.000    0.000    0.000    0.000    0.000 
#    0.000    0.000    0.000    0.000    0.000    0.000 
#
# Total GULP energy -247817.447934 kJ/mol
# GULP energy per Si atom -12390.872397 kJ/mol
# Density = 2.146996 g / cm^3
# Si number density = 21.518935 Si / 1000 Ang^3
#
#
#
# Elastic Constant Matrix: (Units=GPa)
#
#
# Indices 1 2 3 4 5 6 
#
# 1 99.7172 39.0758 31.0968 0.0000 0.0000 0.0000
# 2 39.0758 137.8244 49.6508 0.0000 0.0000 0.0000
# 3 31.0968 49.6508 90.9219 0.0000 0.0000 0.0000
# 4 0.0000 0.0000 0.0000 20.3596 0.0000 0.0000
# 5 0.0000 0.0000 0.0000 0.0000 31.6897 0.0000
# 6 0.0000 0.0000 0.0000 0.0000 0.0000 25.1497
#
#
#
# Elastic Compliance Matrix: (Units=1/GPa)
#
#
# Indices 1 2 3 4 5 6 
#
# 1 0.011810 -0.002357 -0.002752 0.000000 0.000000 0.000000
# 2 -0.002357 0.009503 -0.004383 0.000000 0.000000 0.000000
# 3 -0.002752 -0.004383 0.014333 0.000000 0.000000 0.000000
# 4 0.000000 0.000000 0.000000 0.049117 0.000000 0.000000
# 5 0.000000 0.000000 0.000000 0.000000 0.031556 0.000000
# 6 0.000000 0.000000 0.000000 0.000000 0.000000 0.039762
#
#
# Mechanical properties :
#
#
# Convention : Reuss Voigt Hill
#
# Bulk Modulus (GPa) = 60.01791 63.12336 61.57063
# Shear Modulus (GPa) = 27.68243 29.34915 28.51579
#
# Velocity S-wave (km/s) = 3.59056 3.69707 3.64421
# Velocity P-wave (km/s) = 6.71869 6.90087 6.81039
#
# Compressibility (1/GPa) = 0.01666169
#
# Stress axis : x y z
#
# Youngs Moduli (GPa) = 84.67223 105.23112 69.76726
#
# Poissons Ratio (x) = 0.24802 0.19202
# Poissons Ratio (y) = 0.19957 0.30581
# Poissons Ratio (z) = 0.23304 0.46125
#
# Static dielectric constant tensor:
#      x y z
#    x 3.456800 0.000000 0.000000 
#    y 0.000000 4.217180 0.000000 
#    z 0.000000 0.000000 4.024920 
# 
# 
# High freq. dielectric constant tensor:
#      x y z
#    x 1.819710 0.000000 0.000000 
#    y 0.000000 1.861460 0.000000 
#    z 0.000000 0.000000 1.853820 
# 
# From -- ./inp_files/5727.got.cif
#   From: 2010.03.12/outbox.cif.g09.slc.cpg/sg39_3_cif.got.tgz:5727.got - 2010.04.14 02:53:20.
