data_PCOD8182188
_publ_section_title
;
Structure prediction by ZEFSAII (Michael W. Deem and Ramdas Pophale) SiO2 
 PCOD8182188
Probable space group: A B M 2
;
_chemical_formula_sum "Si O2"
_cell_formula_units_Z 60
_cell_length_a 17.690837
_cell_length_b 20.691030
_cell_length_c 9.129484
_cell_angle_alpha 90.000000
_cell_angle_beta 90.000000
_cell_angle_gamma 90.000000
_cell_volume 3341.771287
_symmetry_space_group_name_H-M "A B M 2"
_symmetry_group_IT_number 39
_symmetry_cell_setting 'orthorhombic'
loop_
_space_group_symop_operation_xyz
x,y,z
-x,-y,z
-x,1/2+y,z
x,1/2-y,z
x,1/2+y,1/2+z
-x,1/2-y,1/2+z
-x,y,1/2+z
x,-y,1/2+z
loop_
_atom_site_type_symbol
_atom_site_label
_atom_site_fract_x
_atom_site_fract_y
_atom_site_fract_z
Si Si1 0.000000 0.500000 0.978111
Si Si2 0.269667 0.326717 0.195025
Si Si3 0.895159 0.824501 0.266758
Si Si4 0.040612 0.911104 0.226828
Si Si5 0.549135 0.327061 0.199284
Si Si6 0.591563 0.173144 0.517305
Si Si7 0.154524 0.323210 0.599100
Si Si8 0.685436 0.673012 0.507254
O O1 0.049539 0.453630 0.873275
O O2 0.051555 0.543636 0.083956
O O3 0.268793 0.250000 0.207325
O O4 0.181803 0.348370 0.183633
O O5 0.308649 0.354491 0.342567
O O6 0.323117 0.349825 0.060234
O O7 0.914939 0.750000 0.224581
O O8 0.884325 0.829865 0.440581
O O9 0.961377 0.872537 0.217317
O O10 0.109760 0.861684 0.224128
O O11 0.553001 0.250000 0.204459
O O12 0.566710 0.355785 0.360403
O O13 0.467349 0.350372 0.142175
O O14 0.611661 0.354866 0.087050
O O15 0.589245 0.250000 0.508739
O O16 0.153138 0.250000 0.652745
O O17 0.240158 0.349166 0.596088
O O18 0.682558 0.750000 0.501818
#
# Coordination Sequence:
#
# PCOD8182188 Si02
#       8
#     4   8   8   8   8   8   8   8
#     4  10  24  34  54  66  92 122 166 196 240 274
#     4   8  14  25  39  57  82 114 149 184 225 271
#     4   9  17  30  50  72  95 123 156 196 242 289
#     4  11  19  38  50  72  91 127 158 200 234 287
#     4   9  15  22  33  51  78 115 154 185 214 258
#     4   9  15  22  33  51  78 115 154 185 214 258
#     4   9  17  30  50  72  95 123 156 196 242 289
#     4   8  14  25  39  57  82 114 149 184 225 271
#
# _framework density 17.954550999999999
#
# number of rings (size 3 to 8) (size 9 to 14) (size 15 to 20)
#    0.000    2.933    1.333    2.800    0.000    3.200 
#    2.400    0.000    0.000    0.000    0.000    0.000 
#    0.000    0.000    0.000    7.200    0.000    3.200 
#
# Total GULP energy -371721.516871 kJ/mol
# GULP energy per Si atom -12390.717229 kJ/mol
# Density = 1.791369 g / cm^3
# Si number density = 17.954551 Si / 1000 Ang^3
#
#
#
# Elastic Constant Matrix: (Units=GPa)
#
#
# Indices 1 2 3 4 5 6 
#
# 1 83.4008 16.7805 11.5570 0.0000 0.0000 0.0000
# 2 16.7805 33.0193 13.9903 0.0000 0.0000 0.0000
# 3 11.5570 13.9903 63.0904 0.0000 0.0000 0.0000
# 4 0.0000 0.0000 0.0000 15.9740 0.0000 0.0000
# 5 0.0000 0.0000 0.0000 0.0000 27.9877 0.0000
# 6 0.0000 0.0000 0.0000 0.0000 0.0000 1.8451
#
#
#
# Elastic Compliance Matrix: (Units=1/GPa)
#
#
# Indices 1 2 3 4 5 6 
#
# 1 0.013418 -0.006377 -0.001044 0.000000 0.000000 0.000000
# 2 -0.006377 0.036456 -0.006916 0.000000 0.000000 0.000000
# 3 -0.001044 -0.006916 0.017575 0.000000 0.000000 0.000000
# 4 0.000000 0.000000 0.000000 0.062602 0.000000 0.000000
# 5 0.000000 0.000000 0.000000 0.000000 0.035730 0.000000
# 6 0.000000 0.000000 0.000000 0.000000 0.000000 0.541971
#
#
# Mechanical properties :
#
#
# Convention : Reuss Voigt Hill
#
# Bulk Modulus (GPa) = 25.78918 29.35181 27.57049
# Shear Modulus (GPa) = 6.67245 18.30690 12.48967
#
# Velocity S-wave (km/s) = 1.92986 3.19662 2.64034
# Velocity P-wave (km/s) = 4.40007 5.47794 4.96832
#
# Compressibility (1/GPa) = 0.03877596
#
# Stress axis : x y z
#
# Youngs Moduli (GPa) = 74.52694 27.43005 56.89858
#
# Poissons Ratio (x) = 0.17492 0.05939
# Poissons Ratio (y) = 0.47524 0.39352
# Poissons Ratio (z) = 0.07780 0.18971
#
# Static dielectric constant tensor:
#      x y z
#    x 3.474400 0.000000 0.000000 
#    y 0.000000 2.822990 0.000000 
#    z 0.000000 0.000000 3.419290 
# 
# 
# High freq. dielectric constant tensor:
#      x y z
#    x 1.698160 0.000000 0.000000 
#    y 0.000000 1.618070 0.000000 
#    z 0.000000 0.000000 1.695080 
# 
# From -- ./inp_files/3789.got.cif
#   From: 2010.03.12/outbox.cif.g09.slc.cpg/sg39_2_cif.got.tgz:3789.got - 2010.04.14 02:53:20.
