data_PCOD8182370
_publ_section_title
;
Structure prediction by ZEFSAII (Michael W. Deem and Ramdas Pophale) SiO2 
 PCOD8182370
Probable space group: A M A 2
;
_chemical_formula_sum "Si O2"
_cell_formula_units_Z 56
_cell_length_a 8.933140
_cell_length_b 22.187772
_cell_length_c 17.543989
_cell_angle_alpha 90.000000
_cell_angle_beta 90.000000
_cell_angle_gamma 90.000000
_cell_volume 3477.332192
_symmetry_space_group_name_H-M "A M A 2"
_symmetry_group_IT_number 40
_symmetry_cell_setting 'orthorhombic'
loop_
_space_group_symop_operation_xyz
x,y,z
-x,-y,z
1/2-x,y,z
1/2+x,-y,z
x,1/2+y,1/2+z
-x,1/2-y,1/2+z
1/2-x,1/2+y,1/2+z
1/2+x,1/2-y,1/2+z
loop_
_atom_site_type_symbol
_atom_site_label
_atom_site_fract_x
_atom_site_fract_y
_atom_site_fract_z
Si Si1 0.073860 0.852821 0.958590
Si Si2 0.574558 0.282121 0.007388
Si Si3 0.419565 0.679041 0.310328
Si Si4 0.427058 0.064509 0.081636
Si Si5 0.425808 0.786605 0.663939
Si Si6 0.576316 0.846722 0.215792
Si Si7 0.581648 0.183441 0.361181
O O1 0.250000 0.864285 0.957216
O O2 0.033783 0.787707 0.993374
O O3 0.010682 0.858946 0.872962
O O4 0.994135 0.903742 0.007683
O O5 0.750000 0.291835 0.016145
O O6 0.515849 0.322974 0.937681
O O7 0.493034 0.305564 0.082916
O O8 0.250000 0.654821 0.305357
O O9 0.499574 0.671552 0.228670
O O10 0.423157 0.748363 0.333371
O O11 0.250000 0.059376 0.071263
O O12 0.470337 0.101699 0.156939
O O13 0.500000 0.000000 0.091607
O O14 0.250000 0.798323 0.664217
O O15 0.466223 0.716904 0.678010
O O16 0.750000 0.848447 0.236641
O O17 0.486639 0.857871 0.294176
O O18 0.750000 0.162035 0.378275
#
# Coordination Sequence:
#
# PCOD8182370 Si02
#       7
#     8   8   8   8   8   8   8
#     4  10  19  31  46  63  86 118 153 190 230 271
#     4  10  18  27  42  64  91 120 151 183 222 270
#     4   9  17  28  42  62  87 116 149 183 223 271
#     4  11  22  35  49  67  89 119 157 198 235 272
#     4  10  17  27  43  64  90 119 152 185 222 269
#     4   9  18  31  45  60  85 117 149 187 230 268
#     4   9  17  27  42  62  85 114 149 183 220 268
#
# _framework density 16.104299000000001
#
# number of rings (size 3 to 8) (size 9 to 14) (size 15 to 20)
#    0.000    2.286    1.429    2.571    0.000    6.286 
#    0.000    0.000    0.000    0.000    0.000    0.000 
#    0.000    1.143    0.000    9.714    0.000    6.571 
#
# Total GULP energy -347238.141920 kJ/mol
# GULP energy per Si atom -12401.362211 kJ/mol
# Density = 1.606764 g / cm^3
# Si number density = 16.104299 Si / 1000 Ang^3
#
#
#
# Elastic Constant Matrix: (Units=GPa)
#
#
# Indices 1 2 3 4 5 6 
#
# 1 93.8954 26.1586 64.6990 0.0000 0.0000 0.0000
# 2 26.1586 44.8711 36.4705 0.0000 0.0000 0.0000
# 3 64.6990 36.4705 147.2571 0.0000 0.0000 0.0000
# 4 0.0000 0.0000 0.0000 19.6307 0.0000 0.0000
# 5 0.0000 0.0000 0.0000 0.0000 37.3719 0.0000
# 6 0.0000 0.0000 0.0000 0.0000 0.0000 16.8728
#
#
#
# Elastic Compliance Matrix: (Units=1/GPa)
#
#
# Indices 1 2 3 4 5 6 
#
# 1 0.015974 -0.004517 -0.005899 0.000000 0.000000 0.000000
# 2 -0.004517 0.029180 -0.005242 0.000000 0.000000 0.000000
# 3 -0.005899 -0.005242 0.010681 0.000000 0.000000 0.000000
# 4 0.000000 0.000000 0.000000 0.050941 0.000000 0.000000
# 5 0.000000 0.000000 0.000000 0.000000 0.026758 0.000000
# 6 0.000000 0.000000 0.000000 0.000000 0.000000 0.059267
#
#
# Mechanical properties :
#
#
# Convention : Reuss Voigt Hill
#
# Bulk Modulus (GPa) = 40.78760 60.07554 50.43157
# Shear Modulus (GPa) = 21.52475 25.35479 23.43977
#
# Velocity S-wave (km/s) = 3.65990 3.97219 3.81924
# Velocity P-wave (km/s) = 6.57586 7.64348 7.12968
#
# Compressibility (1/GPa) = 0.02451726
#
# Stress axis : x y z
#
# Youngs Moduli (GPa) = 62.60315 34.26970 93.62287
#
# Poissons Ratio (x) = 0.15480 0.55232
# Poissons Ratio (y) = 0.28279 0.49080
# Poissons Ratio (z) = 0.36932 0.17965
#
# Static dielectric constant tensor:
#      x y z
#    x 3.184930 0.000000 0.000000 
#    y 0.000000 2.478460 0.000000 
#    z 0.000000 0.000000 3.229190 
# 
# 
# High freq. dielectric constant tensor:
#      x y z
#    x 1.638230 0.000000 0.000000 
#    y 0.000000 1.545650 0.000000 
#    z 0.000000 0.000000 1.633570 
# 
# From -- ./inp_files/15287.got.cif
#   From: 2010.03.12/outbox.cif.g09.slc.cpg/sg40_8_cif.got.tgz:15287.got - 2010.04.14 01:38:03.
