data_PCOD8182418
_publ_section_title
;
Structure prediction by ZEFSAII (Michael W. Deem and Ramdas Pophale) SiO2 
 PCOD8182418
Probable space group: A M A 2
;
_chemical_formula_sum "Si O2"
_cell_formula_units_Z 44
_cell_length_a 14.171634
_cell_length_b 14.445601
_cell_length_c 11.682488
_cell_angle_alpha 90.000000
_cell_angle_beta 90.000000
_cell_angle_gamma 90.000000
_cell_volume 2391.612895
_symmetry_space_group_name_H-M "A M A 2"
_symmetry_group_IT_number 40
_symmetry_cell_setting 'orthorhombic'
loop_
_space_group_symop_operation_xyz
x,y,z
-x,-y,z
1/2-x,y,z
1/2+x,-y,z
x,1/2+y,1/2+z
-x,1/2-y,1/2+z
1/2-x,1/2+y,1/2+z
1/2+x,1/2-y,1/2+z
loop_
_atom_site_type_symbol
_atom_site_label
_atom_site_fract_x
_atom_site_fract_y
_atom_site_fract_z
Si Si1 0.386800 0.901367 0.363520
Si Si2 0.250000 0.276631 0.730305
Si Si3 0.250000 0.327825 0.038128
Si Si4 0.250000 0.365894 0.510992
Si Si5 0.250000 0.638653 0.409855
Si Si6 0.403687 0.096658 0.279835
Si Si7 0.250000 0.253361 0.284519
Si Si8 0.601296 0.479781 0.526722
O O1 0.341800 0.830149 0.274666
O O2 0.345292 0.878405 0.490431
O O3 0.498774 0.887565 0.348475
O O4 0.355016 0.006562 0.335785
O O5 0.250000 0.275470 0.592986
O O6 0.250000 0.171458 0.777598
O O7 0.250000 0.320735 0.174554
O O8 0.250000 0.223499 0.995558
O O9 0.250000 0.329683 0.383051
O O10 0.342141 0.425202 0.543738
O O11 0.343622 0.580600 0.433835
O O12 0.341783 0.188632 0.292697
O O13 0.416266 0.074870 0.145429
O O14 0.500000 0.500000 0.471489
#
# Coordination Sequence:
#
# PCOD8182418 Si02
#       8
#     8   4   4   4   4   8   4   8
#     4   9  19  33  63  86 109 146 200 239 280 332
#     4  10  17  37  53  88 115 148 185 243 285 339
#     4  10  20  37  57  85 121 151 181 238 301 347
#     4  11  23  36  56  89 115 149 196 240 289 335
#     4   9  20  31  58  83 111 151 190 222 296 339
#     4  11  18  36  58  91 106 150 202 239 273 340
#     4  12  24  37  56  87 126 151 186 243 303 346
#     4  11  19  36  60  83 112 147 196 238 279 343
#
# _framework density 18.397625999999999
#
# number of rings (size 3 to 8) (size 9 to 14) (size 15 to 20)
#    0.000    1.818    5.455    1.636    0.000    2.909 
#    3.273    3.636    4.000    0.000    0.000    0.000 
#    0.000    0.000    0.000    0.000    0.000    0.000 
#
# Total GULP energy -272631.494635 kJ/mol
# GULP energy per Si atom -12392.340665 kJ/mol
# Density = 1.835575 g / cm^3
# Si number density = 18.397626 Si / 1000 Ang^3
#
#
#
# Elastic Constant Matrix: (Units=GPa)
#
#
# Indices 1 2 3 4 5 6 
#
# 1 141.8718 45.6199 43.9397 0.0000 0.0000 0.0000
# 2 45.6199 75.7626 45.7212 0.0000 0.0000 0.0000
# 3 43.9397 45.7212 119.8459 0.0000 0.0000 0.0000
# 4 0.0000 0.0000 0.0000 40.7257 0.0000 0.0000
# 5 0.0000 0.0000 0.0000 0.0000 33.9419 0.0000
# 6 0.0000 0.0000 0.0000 0.0000 0.0000 21.8103
#
#
#
# Elastic Compliance Matrix: (Units=1/GPa)
#
#
# Indices 1 2 3 4 5 6 
#
# 1 0.008970 -0.004438 -0.001595 0.000000 0.000000 0.000000
# 2 -0.004438 0.019343 -0.005752 0.000000 0.000000 0.000000
# 3 -0.001595 -0.005752 0.011123 0.000000 0.000000 0.000000
# 4 0.000000 0.000000 0.000000 0.024555 0.000000 0.000000
# 5 0.000000 0.000000 0.000000 0.000000 0.029462 0.000000
# 6 0.000000 0.000000 0.000000 0.000000 0.000000 0.045850
#
#
# Mechanical properties :
#
#
# Convention : Reuss Voigt Hill
#
# Bulk Modulus (GPa) = 63.03381 67.56022 65.29702
# Shear Modulus (GPa) = 29.73310 32.77554 31.25432
#
# Velocity S-wave (km/s) = 4.02448 4.22537 4.12615
# Velocity P-wave (km/s) = 7.47874 7.78505 7.63343
#
# Compressibility (1/GPa) = 0.01586450
#
# Stress axis : x y z
#
# Youngs Moduli (GPa) = 111.48352 51.69851 89.90041
#
# Poissons Ratio (x) = 0.22946 0.14343
# Poissons Ratio (y) = 0.49480 0.51711
# Poissons Ratio (z) = 0.17787 0.29737
#
# Static dielectric constant tensor:
#      x y z
#    x 3.135460 0.000000 0.000000 
#    y 0.000000 3.442970 0.000000 
#    z 0.000000 0.000000 3.271960 
# 
# 
# High freq. dielectric constant tensor:
#      x y z
#    x 1.720050 0.000000 0.000000 
#    y 0.000000 1.707960 0.000000 
#    z 0.000000 0.000000 1.689570 
# 
# From -- ./inp_files/12130.got.cif
#   From: 2010.03.12/outbox.cif.g09.slc.cpg/sg40_7_cif.got.tgz:12130.got - 2010.04.14 01:38:03.
