data_PCOD8182025
_publ_section_title
;
Structure prediction by ZEFSAII (Michael W. Deem and Ramdas Pophale) SiO2 
 PCOD8182025
Probable space group: A B M 2
;
_chemical_formula_sum "Si O2"
_cell_formula_units_Z 48
_cell_length_a 11.227963
_cell_length_b 23.143213
_cell_length_c 8.790274
_cell_angle_alpha 90.000000
_cell_angle_beta 90.000000
_cell_angle_gamma 90.000000
_cell_volume 2284.162713
_symmetry_space_group_name_H-M "A B M 2"
_symmetry_group_IT_number 39
_symmetry_cell_setting 'orthorhombic'
loop_
_space_group_symop_operation_xyz
x,y,z
-x,-y,z
-x,1/2+y,z
x,1/2-y,z
x,1/2+y,1/2+z
-x,1/2-y,1/2+z
-x,y,1/2+z
x,-y,1/2+z
loop_
_atom_site_type_symbol
_atom_site_label
_atom_site_fract_x
_atom_site_fract_y
_atom_site_fract_z
Si Si1 0.145292 0.963825 0.983610
Si Si2 0.768980 0.067811 0.654859
Si Si3 0.134707 0.816102 0.182949
Si Si4 0.338243 0.111387 0.608739
Si Si5 0.948738 0.874818 0.987175
Si Si6 0.533676 0.566092 0.312932
O O1 0.186475 0.953436 0.814616
O O2 0.009618 0.940275 0.992807
O O3 0.225183 0.930827 0.108042
O O4 0.178765 0.029583 0.017544
O O5 0.834936 0.127524 0.604575
O O6 0.625394 0.069424 0.668245
O O7 0.123243 0.750000 0.233368
O O8 0.273418 0.826518 0.130549
O O9 0.095307 0.857827 0.320512
O O10 0.047955 0.828878 0.040501
O O11 0.413962 0.102450 0.454114
O O12 0.415720 0.098453 0.757845
O O13 0.500000 0.500000 0.357272
#
# Coordination Sequence:
#
# PCOD8182025 Si02
#       6
#     8   8   8   8   8   8
#     4  10  22  37  56  97 135 169 206 249 312 389
#     4  11  23  35  60  94 135 173 208 248 310 391
#     4  11  25  47  68  89 121 166 223 282 336 381
#     4  10  24  39  64  93 128 170 215 263 305 382
#     4  11  23  41  66  93 125 166 214 274 328 383
#     4  11  22  40  64  98 136 176 209 246 313 390
#
# _framework density 21.014264000000001
#
# number of rings (size 3 to 8) (size 9 to 14) (size 15 to 20)
#    0.000    1.333    3.333    1.500    9.333    1.333 
#    0.000    0.833    0.000    0.000    0.000    0.000 
#    0.000    0.000    0.000    0.000    0.000    0.000 
#
# Total GULP energy -297318.830978 kJ/mol
# GULP energy per Si atom -12388.284624 kJ/mol
# Density = 2.096644 g / cm^3
# Si number density = 21.014264 Si / 1000 Ang^3
#
#
#
# Elastic Constant Matrix: (Units=GPa)
#
#
# Indices 1 2 3 4 5 6 
#
# 1 113.2078 21.3053 42.7722 0.0000 0.0000 0.0000
# 2 21.3053 46.6423 22.3216 0.0000 0.0000 0.0000
# 3 42.7722 22.3216 94.5339 0.0000 0.0000 0.0000
# 4 0.0000 0.0000 0.0000 20.3383 0.0000 0.0000
# 5 0.0000 0.0000 0.0000 0.0000 36.1764 0.0000
# 6 0.0000 0.0000 0.0000 0.0000 0.0000 19.1755
#
#
#
# Elastic Compliance Matrix: (Units=1/GPa)
#
#
# Indices 1 2 3 4 5 6 
#
# 1 0.011011 -0.002982 -0.004278 0.000000 0.000000 0.000000
# 2 -0.002982 0.024979 -0.004549 0.000000 0.000000 0.000000
# 3 -0.004278 -0.004549 0.013588 0.000000 0.000000 0.000000
# 4 0.000000 0.000000 0.000000 0.049168 0.000000 0.000000
# 5 0.000000 0.000000 0.000000 0.000000 0.027642 0.000000
# 6 0.000000 0.000000 0.000000 0.000000 0.000000 0.052150
#
#
# Mechanical properties :
#
#
# Convention : Reuss Voigt Hill
#
# Bulk Modulus (GPa) = 38.52085 47.46468 42.99277
# Shear Modulus (GPa) = 23.71817 26.33703 25.02760
#
# Velocity S-wave (km/s) = 3.36321 3.54403 3.45480
# Velocity P-wave (km/s) = 5.78379 6.27557 6.03469
#
# Compressibility (1/GPa) = 0.02595996
#
# Stress axis : x y z
#
# Youngs Moduli (GPa) = 90.82030 40.03372 73.59591
#
# Poissons Ratio (x) = 0.11939 0.31482
# Poissons Ratio (y) = 0.27086 0.33477
# Poissons Ratio (z) = 0.38850 0.18210
#
# Static dielectric constant tensor:
#      x y z
#    x 4.647220 0.000000 0.000000 
#    y 0.000000 3.518290 0.000000 
#    z 0.000000 0.000000 3.691310 
# 
# 
# High freq. dielectric constant tensor:
#      x y z
#    x 1.848660 0.000000 0.000000 
#    y 0.000000 1.770790 0.000000 
#    z 0.000000 0.000000 1.830970 
# 
# From -- ./inp_files/2691.got.cif
#   From: 2010.03.12/outbox.cif.g09.slc.cpg/sg39_2_cif.got.tgz:2691.got - 2010.04.14 02:53:20.
