data_PCOD8182491
_publ_section_title
;
Structure prediction by ZEFSAII (Michael W. Deem and Ramdas Pophale) SiO2 
 PCOD8182491
Probable space group: A M A 2
;
_chemical_formula_sum "Si O2"
_cell_formula_units_Z 64
_cell_length_a 8.721772
_cell_length_b 25.921457
_cell_length_c 18.426393
_cell_angle_alpha 90.000000
_cell_angle_beta 90.000000
_cell_angle_gamma 90.000000
_cell_volume 4165.858053
_symmetry_space_group_name_H-M "A M A 2"
_symmetry_group_IT_number 40
_symmetry_cell_setting 'orthorhombic'
loop_
_space_group_symop_operation_xyz
x,y,z
-x,-y,z
1/2-x,y,z
1/2+x,-y,z
x,1/2+y,1/2+z
-x,1/2-y,1/2+z
1/2-x,1/2+y,1/2+z
1/2+x,1/2-y,1/2+z
loop_
_atom_site_type_symbol
_atom_site_label
_atom_site_fract_x
_atom_site_fract_y
_atom_site_fract_z
Si Si1 0.929665 0.353692 0.537240
Si Si2 0.430463 0.258177 0.617465
Si Si3 0.572302 0.644392 0.860808
Si Si4 0.579082 0.196142 0.907021
Si Si5 0.569021 0.945217 0.275295
Si Si6 0.419633 0.694975 0.986305
Si Si7 0.568337 0.055127 0.121896
Si Si8 0.429217 0.750731 0.282504
O O1 0.750000 0.363732 0.542713
O O2 0.974299 0.306981 0.590172
O O3 0.974848 0.342784 0.453674
O O4 0.020193 0.404556 0.560793
O O5 0.250000 0.271932 0.611509
O O6 0.469160 0.207043 0.569483
O O7 0.480021 0.245733 0.699259
O O8 0.750000 0.630953 0.852006
O O9 0.471785 0.595822 0.837133
O O10 0.536609 0.656724 0.945525
O O11 0.522416 0.692943 0.811600
O O12 0.750000 0.173187 0.900337
O O13 0.581517 0.250149 0.947671
O O14 0.511319 0.204898 0.826702
O O15 0.750000 0.950406 0.266479
O O16 0.497095 0.926414 0.199417
O O17 0.500000 0.000000 0.298970
O O18 0.250000 0.670117 0.983596
O O19 0.750000 0.051304 0.127533
O O20 0.500000 0.000000 0.100025
O O21 0.250000 0.742895 0.293386
#
# Coordination Sequence:
#
# PCOD8182491 Si02
#       8
#     8   8   8   8   8   8   8   8
#     4  11  20  30  45  64  86 115 149 180 215 257
#     4   9  17  29  44  63  89 118 147 180 217 256
#     4  10  18  28  43  62  85 115 148 180 216 255
#     4   9  17  29  43  60  84 113 144 179 215 252
#     4  11  21  33  47  64  86 112 144 180 217 255
#     4   8  15  27  41  58  82 113 146 179 215 254
#     4  11  21  34  48  64  87 113 144 180 217 253
#     4   9  17  28  43  63  87 115 145 178 214 254
#
# _framework density 15.362981
#
# number of rings (size 3 to 8) (size 9 to 14) (size 15 to 20)
#    0.000    2.250    0.000    6.375    0.000    5.000 
#    0.000    0.000    0.000    0.000    0.000    0.000 
#    0.000    1.000    0.000    8.000    0.000    4.750 
#
# Total GULP energy -396778.227500 kJ/mol
# GULP energy per Si atom -12399.319609 kJ/mol
# Density = 1.532801 g / cm^3
# Si number density = 15.362981 Si / 1000 Ang^3
#
#
#
# Elastic Constant Matrix: (Units=GPa)
#
#
# Indices 1 2 3 4 5 6 
#
# 1 99.3546 35.7311 34.2617 0.0000 0.0000 0.0000
# 2 35.7311 62.8558 43.4870 0.0000 0.0000 0.0000
# 3 34.2617 43.4870 105.3819 0.0000 0.0000 0.0000
# 4 0.0000 0.0000 0.0000 22.9457 0.0000 0.0000
# 5 0.0000 0.0000 0.0000 0.0000 24.1680 0.0000
# 6 0.0000 0.0000 0.0000 0.0000 0.0000 23.2901
#
#
#
# Elastic Compliance Matrix: (Units=1/GPa)
#
#
# Indices 1 2 3 4 5 6 
#
# 1 0.012848 -0.006177 -0.001628 0.000000 0.000000 0.000000
# 2 -0.006177 0.025237 -0.008406 0.000000 0.000000 0.000000
# 3 -0.001628 -0.008406 0.013487 0.000000 0.000000 0.000000
# 4 0.000000 0.000000 0.000000 0.043581 0.000000 0.000000
# 5 0.000000 0.000000 0.000000 0.000000 0.041377 0.000000
# 6 0.000000 0.000000 0.000000 0.000000 0.000000 0.042937
#
#
# Mechanical properties :
#
#
# Convention : Reuss Voigt Hill
#
# Bulk Modulus (GPa) = 52.22005 54.95022 53.58513
# Shear Modulus (GPa) = 22.90721 24.35492 23.63107
#
# Velocity S-wave (km/s) = 3.86562 3.98590 3.92622
# Velocity P-wave (km/s) = 7.34770 7.55174 7.45042
#
# Compressibility (1/GPa) = 0.01914973
#
# Stress axis : x y z
#
# Youngs Moduli (GPa) = 77.83384 39.62514 74.14365
#
# Poissons Ratio (x) = 0.24477 0.12071
# Poissons Ratio (y) = 0.48079 0.62324
# Poissons Ratio (z) = 0.12671 0.33308
#
# Static dielectric constant tensor:
#      x y z
#    x 3.043390 0.000000 0.000000 
#    y 0.000000 2.717720 0.000000 
#    z 0.000000 0.000000 3.109170 
# 
# 
# High freq. dielectric constant tensor:
#      x y z
#    x 1.602410 0.000000 0.000000 
#    y 0.000000 1.551590 0.000000 
#    z 0.000000 0.000000 1.579400 
# 
# From -- ./inp_files/19784.got.cif
#   From: 2010.03.12/outbox.cif.g09.slc.cpg/sg40_10_cif.got.tgz:19784.got - 2010.04.14 01:38:03.
