data_PCOD8182463
_publ_section_title
;
Structure prediction by ZEFSAII (Michael W. Deem and Ramdas Pophale) SiO2 
 PCOD8182463
Probable space group: A M A 2
;
_chemical_formula_sum "Si O2"
_cell_formula_units_Z 56
_cell_length_a 8.896650
_cell_length_b 21.897233
_cell_length_c 17.675801
_cell_angle_alpha 90.000000
_cell_angle_beta 90.000000
_cell_angle_gamma 90.000000
_cell_volume 3443.458462
_symmetry_space_group_name_H-M "A M A 2"
_symmetry_group_IT_number 40
_symmetry_cell_setting 'orthorhombic'
loop_
_space_group_symop_operation_xyz
x,y,z
-x,-y,z
1/2-x,y,z
1/2+x,-y,z
x,1/2+y,1/2+z
-x,1/2-y,1/2+z
1/2-x,1/2+y,1/2+z
1/2+x,1/2-y,1/2+z
loop_
_atom_site_type_symbol
_atom_site_label
_atom_site_fract_x
_atom_site_fract_y
_atom_site_fract_z
Si Si1 0.427179 0.785237 0.714560
Si Si2 0.572310 0.780828 0.563851
Si Si3 0.927360 0.846472 0.020664
Si Si4 0.915986 0.820762 0.406379
Si Si5 0.083279 0.822179 0.873867
Si Si6 0.924558 0.064421 0.134956
Si Si7 0.422101 0.837969 0.261655
O O1 0.250000 0.785299 0.701102
O O2 0.510826 0.811745 0.640582
O O3 0.470143 0.828435 0.786282
O O4 0.476732 0.715605 0.727815
O O5 0.750000 0.770153 0.568235
O O6 0.497213 0.714760 0.555022
O O7 0.530627 0.826185 0.494077
O O8 0.750000 0.844110 0.029732
O O9 0.993179 0.904099 0.064612
O O10 0.969172 0.854510 0.931754
O O11 0.750000 0.849535 0.395938
O O12 0.909568 0.749272 0.390073
O O13 0.029017 0.853644 0.348152
O O14 0.250000 0.850403 0.884852
O O15 0.750000 0.056811 0.114582
O O16 0.946740 0.102263 0.211828
O O17 0.000000 0.000000 0.150402
O O18 0.250000 0.816147 0.261367
#
# Coordination Sequence:
#
# PCOD8182463 Si02
#       7
#     8   8   8   8   8   8   8
#     4  10  18  27  43  65  89 120 152 181 219 267
#     4  10  18  28  42  63  91 121 150 183 220 262
#     4  11  20  30  46  64  85 117 152 186 227 270
#     4   8  16  28  42  60  85 116 148 180 218 264
#     4   8  16  29  42  60  87 116 147 182 219 263
#     4  11  23  36  49  66  88 117 154 196 232 267
#     4  10  19  30  45  62  85 115 147 186 228 264
#
# _framework density 16.262719000000001
#
# number of rings (size 3 to 8) (size 9 to 14) (size 15 to 20)
#    0.000    2.286    1.429    4.714    0.000    8.000 
#    0.000    0.000    0.000    0.000    0.000    0.000 
#    0.000    1.143    0.000   10.286    0.000    7.714 
#
# Total GULP energy -347074.924278 kJ/mol
# GULP energy per Si atom -12395.533010 kJ/mol
# Density = 1.622570 g / cm^3
# Si number density = 16.262719 Si / 1000 Ang^3
#
#
#
# Elastic Constant Matrix: (Units=GPa)
#
#
# Indices 1 2 3 4 5 6 
#
# 1 106.1108 28.0875 63.5162 0.0000 0.0000 0.0000
# 2 28.0875 34.9127 27.3449 0.0000 0.0000 0.0000
# 3 63.5162 27.3449 152.1621 0.0000 0.0000 0.0000
# 4 0.0000 0.0000 0.0000 10.5609 0.0000 0.0000
# 5 0.0000 0.0000 0.0000 0.0000 31.5369 0.0000
# 6 0.0000 0.0000 0.0000 0.0000 0.0000 17.0447
#
#
#
# Elastic Compliance Matrix: (Units=1/GPa)
#
#
# Indices 1 2 3 4 5 6 
#
# 1 0.014219 -0.007903 -0.004515 0.000000 0.000000 0.000000
# 2 -0.007903 0.037727 -0.003481 0.000000 0.000000 0.000000
# 3 -0.004515 -0.003481 0.009082 0.000000 0.000000 0.000000
# 4 0.000000 0.000000 0.000000 0.094689 0.000000 0.000000
# 5 0.000000 0.000000 0.000000 0.000000 0.031709 0.000000
# 6 0.000000 0.000000 0.000000 0.000000 0.000000 0.058669
#
#
# Mechanical properties :
#
#
# Convention : Reuss Voigt Hill
#
# Bulk Modulus (GPa) = 34.21101 59.00922 46.61012
# Shear Modulus (GPa) = 17.38311 23.44431 20.41371
#
# Velocity S-wave (km/s) = 3.27294 3.80096 3.54679
# Velocity P-wave (km/s) = 5.94685 7.45834 6.74506
#
# Compressibility (1/GPa) = 0.02923035
#
# Stress axis : x y z
#
# Youngs Moduli (GPa) = 70.33081 26.50612 110.10536
#
# Poissons Ratio (x) = 0.20947 0.49713
# Poissons Ratio (y) = 0.55579 0.38330
# Poissons Ratio (z) = 0.31754 0.09227
#
# Static dielectric constant tensor:
#      x y z
#    x 3.198270 0.000000 0.000000 
#    y 0.000000 2.478570 0.000000 
#    z 0.000000 0.000000 3.858310 
# 
# 
# High freq. dielectric constant tensor:
#      x y z
#    x 1.638860 0.000000 0.000000 
#    y 0.000000 1.543640 0.000000 
#    z 0.000000 0.000000 1.648590 
# 
# From -- ./inp_files/19493.got.cif
#   From: 2010.03.12/outbox.cif.g09.slc.cpg/sg40_10_cif.got.tgz:19493.got - 2010.04.14 01:38:03.
