data_PCOD8182261
_publ_section_title
;
Structure prediction by ZEFSAII (Michael W. Deem and Ramdas Pophale) SiO2 
 PCOD8182261
Probable space group: A B M 2
;
_chemical_formula_sum "Si O2"
_cell_formula_units_Z 48
_cell_length_a 9.627143
_cell_length_b 26.855225
_cell_length_c 8.511026
_cell_angle_alpha 90.000000
_cell_angle_beta 90.000000
_cell_angle_gamma 90.000000
_cell_volume 2200.432929
_symmetry_space_group_name_H-M "A B M 2"
_symmetry_group_IT_number 39
_symmetry_cell_setting 'orthorhombic'
loop_
_space_group_symop_operation_xyz
x,y,z
-x,-y,z
-x,1/2+y,z
x,1/2-y,z
x,1/2+y,1/2+z
-x,1/2-y,1/2+z
-x,y,1/2+z
x,-y,1/2+z
loop_
_atom_site_type_symbol
_atom_site_label
_atom_site_fract_x
_atom_site_fract_y
_atom_site_fract_z
Si Si1 0.188701 0.342455 0.806780
Si Si2 0.314580 0.349511 0.313099
Si Si3 0.163077 0.050617 0.351928
Si Si4 0.436430 0.807441 0.132175
Si Si5 0.074857 0.692401 0.632590
Si Si6 0.141641 0.447141 0.720707
O O1 0.327592 0.310239 0.777303
O O2 0.230170 0.400110 0.780592
O O3 0.077230 0.327012 0.674803
O O4 0.131670 0.336241 0.981180
O O5 0.277692 0.408124 0.306416
O O6 0.424623 0.337038 0.176990
O O7 0.371250 0.333997 0.481813
O O8 0.175848 0.317478 0.280153
O O9 0.141882 0.048198 0.535764
O O10 0.016918 0.062821 0.271015
O O11 0.212061 0.996260 0.294129
O O12 0.472550 0.750000 0.096430
O O13 0.066701 0.750000 0.590427
#
# Coordination Sequence:
#
# PCOD8182261 Si02
#       6
#     8   8   8   8   8   8
#     4  12  24  42  68 101 140 178 230 292 352 417
#     4  12  26  46  70  99 137 185 236 289 351 420
#     4  11  23  42  74 105 140 181 230 291 353 424
#     4  12  25  46  69  96 139 188 232 283 353 423
#     4  12  24  40  66 103 139 179 233 291 348 416
#     4  11  22  42  71 108 137 179 225 288 357 410
#
# _framework density 21.813890000000001
#
# number of rings (size 3 to 8) (size 9 to 14) (size 15 to 20)
#    0.000    0.333    3.333    8.000    2.333    0.000 
#    0.000    0.833    0.000    0.000    0.000    0.000 
#    0.000    0.000    0.000    0.000    0.000    0.000 
#
# Total GULP energy -297743.786017 kJ/mol
# GULP energy per Si atom -12405.991084 kJ/mol
# Density = 2.176424 g / cm^3
# Si number density = 21.813890 Si / 1000 Ang^3
#
#
#
# Elastic Constant Matrix: (Units=GPa)
#
#
# Indices 1 2 3 4 5 6 
#
# 1 79.3059 59.8437 13.2247 0.0000 0.0000 0.0000
# 2 59.8437 180.1193 57.4582 0.0000 0.0000 0.0000
# 3 13.2247 57.4582 88.5965 0.0000 0.0000 0.0000
# 4 0.0000 0.0000 0.0000 33.7549 0.0000 0.0000
# 5 0.0000 0.0000 0.0000 0.0000 35.0942 0.0000
# 6 0.0000 0.0000 0.0000 0.0000 0.0000 37.2828
#
#
#
# Elastic Compliance Matrix: (Units=1/GPa)
#
#
# Indices 1 2 3 4 5 6 
#
# 1 0.016968 -0.006089 0.001416 0.000000 0.000000 0.000000
# 2 -0.006089 0.009185 -0.005048 0.000000 0.000000 0.000000
# 3 0.001416 -0.005048 0.014350 0.000000 0.000000 0.000000
# 4 0.000000 0.000000 0.000000 0.029625 0.000000 0.000000
# 5 0.000000 0.000000 0.000000 0.000000 0.028495 0.000000
# 6 0.000000 0.000000 0.000000 0.000000 0.000000 0.026822
#
#
# Mechanical properties :
#
#
# Convention : Reuss Voigt Hill
#
# Bulk Modulus (GPa) = 47.48122 67.67496 57.57809
# Shear Modulus (GPa) = 32.91464 35.72605 34.32035
#
# Velocity S-wave (km/s) = 3.88865 4.05132 3.97082
# Velocity P-wave (km/s) = 6.47888 7.27842 6.89026
#
# Compressibility (1/GPa) = 0.02106096
#
# Stress axis : x y z
#
# Youngs Moduli (GPa) = 58.93350 108.86815 69.68829
#
# Poissons Ratio (x) = 0.66295 -0.09871
# Poissons Ratio (y) = 0.35887 0.35180
# Poissons Ratio (z) = -0.08347 0.54958
#
# Static dielectric constant tensor:
#      x y z
#    x 3.968680 0.000000 0.000000 
#    y 0.000000 4.279470 0.000000 
#    z 0.000000 0.000000 3.967130 
# 
# 
# High freq. dielectric constant tensor:
#      x y z
#    x 1.838800 0.000000 0.000000 
#    y 0.000000 1.871020 0.000000 
#    z 0.000000 0.000000 1.875430 
# 
# From -- ./inp_files/2316.got.cif
#   From: 2010.03.12/outbox.cif.g09.slc.cpg/sg39_2_cif.got.tgz:2316.got - 2010.04.14 02:53:20.
