data_PCOD8182626
_publ_section_title
;
Structure prediction by ZEFSAII (Michael W. Deem and Ramdas Pophale) SiO2 
 PCOD8182626
Probable space group: A M A 2
;
_chemical_formula_sum "Si O2"
_cell_formula_units_Z 64
_cell_length_a 19.937526
_cell_length_b 19.102160
_cell_length_c 9.589565
_cell_angle_alpha 90.000000
_cell_angle_beta 90.000000
_cell_angle_gamma 90.000000
_cell_volume 3652.184024
_symmetry_space_group_name_H-M "A M A 2"
_symmetry_group_IT_number 40
_symmetry_cell_setting 'orthorhombic'
loop_
_space_group_symop_operation_xyz
x,y,z
-x,-y,z
1/2-x,y,z
1/2+x,-y,z
x,1/2+y,1/2+z
-x,1/2-y,1/2+z
1/2-x,1/2+y,1/2+z
1/2+x,1/2-y,1/2+z
loop_
_atom_site_type_symbol
_atom_site_label
_atom_site_fract_x
_atom_site_fract_y
_atom_site_fract_z
Si Si1 0.591309 0.671137 0.382160
Si Si2 0.580477 0.926184 0.705028
Si Si3 0.074885 0.175768 0.280808
Si Si4 0.942310 0.337653 0.466778
Si Si5 0.672557 0.851074 0.517625
Si Si6 0.937041 0.087387 0.634626
Si Si7 0.173030 0.801821 0.130525
Si Si8 0.424950 0.320401 0.876661
O O1 0.591368 0.742865 0.295461
O O2 0.522789 0.661946 0.469074
O O3 0.604422 0.613373 0.266897
O O4 0.652597 0.659478 0.488117
O O5 0.585136 0.901168 0.867606
O O6 0.650103 0.907683 0.631028
O O7 0.514720 0.885465 0.645100
O O8 0.567896 0.005306 0.659409
O O9 0.127975 0.135932 0.379666
O O10 0.998892 0.160423 0.324702
O O11 0.085173 0.148897 0.122683
O O12 0.917647 0.260307 0.422778
O O13 0.750000 0.859864 0.477006
O O14 0.657119 0.778850 0.596780
O O15 0.906536 0.121971 0.495204
O O16 0.250000 0.815631 0.167062
O O17 0.129171 0.831727 0.256036
#
# Coordination Sequence:
#
# PCOD8182626 Si02
#       8
#     8   8   8   8   8   8   8   8
#     4   9  18  30  51  81 108 143 177 232 284 329
#     4  10  20  36  54  82 114 148 183 230 281 341
#     4  10  18  30  55  84 107 139 191 234 278 325
#     4  10  18  30  56  84 107 137 189 236 274 325
#     4  10  20  36  55  80 114 151 186 227 285 341
#     4  10  20  34  57  82 114 143 185 236 281 329
#     4  10  20  34  53  81 114 145 181 233 289 335
#     4  11  18  32  56  86 109 139 188 241 276 327
#
# _framework density 17.523762000000001
#
# number of rings (size 3 to 8) (size 9 to 14) (size 15 to 20)
#    0.000    2.000    5.000    0.000    0.000    0.000 
#    0.000    4.375    2.750    0.000    0.000    0.000 
#    0.000    0.000    0.000    0.000    0.000    0.000 
#
# Total GULP energy -396479.268967 kJ/mol
# GULP energy per Si atom -12389.977155 kJ/mol
# Density = 1.748388 g / cm^3
# Si number density = 17.523762 Si / 1000 Ang^3
#
#
#
# Elastic Constant Matrix: (Units=GPa)
#
#
# Indices 1 2 3 4 5 6 
#
# 1 90.6426 25.4732 64.4163 0.0000 0.0000 0.0000
# 2 25.4732 55.5350 42.5203 0.0000 0.0000 0.0000
# 3 64.4163 42.5203 142.1966 0.0000 0.0000 0.0000
# 4 0.0000 0.0000 0.0000 27.5148 0.0000 0.0000
# 5 0.0000 0.0000 0.0000 0.0000 27.1792 0.0000
# 6 0.0000 0.0000 0.0000 0.0000 0.0000 12.8726
#
#
#
# Elastic Compliance Matrix: (Units=1/GPa)
#
#
# Indices 1 2 3 4 5 6 
#
# 1 0.016512 -0.002395 -0.006764 0.000000 0.000000 0.000000
# 2 -0.002395 0.023701 -0.006002 0.000000 0.000000 0.000000
# 3 -0.006764 -0.006002 0.011891 0.000000 0.000000 0.000000
# 4 0.000000 0.000000 0.000000 0.036344 0.000000 0.000000
# 5 0.000000 0.000000 0.000000 0.000000 0.036793 0.000000
# 6 0.000000 0.000000 0.000000 0.000000 0.000000 0.077684
#
#
# Mechanical properties :
#
#
# Convention : Reuss Voigt Hill
#
# Bulk Modulus (GPa) = 45.90933 61.46597 53.68765
# Shear Modulus (GPa) = 20.78925 23.91096 22.35010
#
# Velocity S-wave (km/s) = 3.44807 3.69790 3.57517
# Velocity P-wave (km/s) = 6.48903 7.30648 6.90985
#
# Compressibility (1/GPa) = 0.02178206
#
# Stress axis : x y z
#
# Youngs Moduli (GPa) = 60.56053 42.19271 84.09393
#
# Poissons Ratio (x) = 0.10106 0.56882
# Poissons Ratio (y) = 0.14505 0.50474
# Poissons Ratio (z) = 0.40963 0.25324
#
# Static dielectric constant tensor:
#      x y z
#    x 3.088910 0.000000 0.000000 
#    y 0.000000 3.045640 0.000000 
#    z 0.000000 0.000000 3.324980 
# 
# 
# High freq. dielectric constant tensor:
#      x y z
#    x 1.655050 0.000000 0.000000 
#    y 0.000000 1.649510 0.000000 
#    z 0.000000 0.000000 1.686900 
# 
# From -- ./inp_files/7781.got.cif
#   From: 2010.03.12/outbox.cif.g09.slc.cpg/sg40_4_cif.got.tgz:7781.got - 2010.04.14 01:38:03.
