data_PCOD8182428
_publ_section_title
;
Structure prediction by ZEFSAII (Michael W. Deem and Ramdas Pophale) SiO2 
 PCOD8182428
Probable space group: A M A 2
;
_chemical_formula_sum "Si O2"
_cell_formula_units_Z 64
_cell_length_a 8.912011
_cell_length_b 26.665172
_cell_length_c 18.468760
_cell_angle_alpha 90.000000
_cell_angle_beta 90.000000
_cell_angle_gamma 90.000000
_cell_volume 4388.921781
_symmetry_space_group_name_H-M "A M A 2"
_symmetry_group_IT_number 40
_symmetry_cell_setting 'orthorhombic'
loop_
_space_group_symop_operation_xyz
x,y,z
-x,-y,z
1/2-x,y,z
1/2+x,-y,z
x,1/2+y,1/2+z
-x,1/2-y,1/2+z
1/2-x,1/2+y,1/2+z
1/2+x,1/2-y,1/2+z
loop_
_atom_site_type_symbol
_atom_site_label
_atom_site_fract_x
_atom_site_fract_y
_atom_site_fract_z
Si Si1 0.073175 0.449479 0.881930
Si Si2 0.572439 0.257042 0.726066
Si Si3 0.073867 0.949453 0.217213
Si Si4 0.586148 0.696702 0.098416
Si Si5 0.072245 0.846806 0.144768
Si Si6 0.416665 0.199835 0.013541
Si Si7 0.925918 0.754172 0.391622
Si Si8 0.569940 0.150369 0.459268
O O1 0.250000 0.454949 0.886782
O O2 0.019647 0.440027 0.799654
O O3 0.016391 0.403444 0.930990
O O4 0.000000 0.500000 0.913318
O O5 0.750000 0.263883 0.711014
O O6 0.507280 0.211343 0.674775
O O7 0.492267 0.308624 0.704473
O O8 0.538947 0.242077 0.808051
O O9 0.250000 0.957033 0.214764
O O10 0.023691 0.902437 0.168917
O O11 0.000000 0.000000 0.185633
O O12 0.750000 0.675153 0.116975
O O13 0.596849 0.747691 0.053419
O O14 0.508601 0.657168 0.042828
O O15 0.250000 0.840126 0.142596
O O16 0.006264 0.838785 0.064525
O O17 0.250000 0.178476 0.997350
O O18 0.504529 0.208655 0.938223
O O19 0.750000 0.757449 0.407635
O O20 0.999506 0.807676 0.407935
O O21 0.750000 0.156637 0.456817
#
# Coordination Sequence:
#
# PCOD8182428 Si02
#       8
#     8   8   8   8   8   8   8   8
#     4   9  17  28  40  56  78 105 137 170 203 237
#     4   9  17  27  39  58  83 109 135 163 199 243
#     4   9  18  29  40  56  79 105 134 169 203 236
#     4   7  12  24  39  53  71  98 129 158 189 231
#     4  10  18  28  43  61  80 104 137 173 204 236
#     4   9  17  29  42  56  78 107 135 163 200 244
#     4  10  18  26  39  60  83 106 135 169 200 234
#     4   9  16  27  42  56  75 106 139 167 200 243
#
# _framework density 14.58217
#
# number of rings (size 3 to 8) (size 9 to 14) (size 15 to 20)
#    0.000    3.000    0.000    3.375    0.000    3.500 
#    0.000    2.500    0.000    0.000    0.000    0.000 
#    0.000    1.000    0.000    4.250    0.000    2.000 
#
# Total GULP energy -396508.508462 kJ/mol
# GULP energy per Si atom -12390.890889 kJ/mol
# Density = 1.454898 g / cm^3
# Si number density = 14.582170 Si / 1000 Ang^3
#
#
#
# Elastic Constant Matrix: (Units=GPa)
#
#
# Indices 1 2 3 4 5 6 
#
# 1 47.6075 30.1311 35.9615 0.0000 0.0000 0.0000
# 2 30.1311 92.9921 63.0631 0.0000 0.0000 0.0000
# 3 35.9615 63.0631 114.1790 0.0000 0.0000 0.0000
# 4 0.0000 0.0000 0.0000 24.8593 0.0000 0.0000
# 5 0.0000 0.0000 0.0000 0.0000 18.8438 0.0000
# 6 0.0000 0.0000 0.0000 0.0000 0.0000 20.2969
#
#
#
# Elastic Compliance Matrix: (Units=1/GPa)
#
#
# Indices 1 2 3 4 5 6 
#
# 1 0.029012 -0.005122 -0.006308 0.000000 0.000000 0.000000
# 2 -0.005122 0.018098 -0.008382 0.000000 0.000000 0.000000
# 3 -0.006308 -0.008382 0.015375 0.000000 0.000000 0.000000
# 4 0.000000 0.000000 0.000000 0.040226 0.000000 0.000000
# 5 0.000000 0.000000 0.000000 0.000000 0.053068 0.000000
# 6 0.000000 0.000000 0.000000 0.000000 0.000000 0.049269
#
#
# Mechanical properties :
#
#
# Convention : Reuss Voigt Hill
#
# Bulk Modulus (GPa) = 43.74740 57.00999 50.37870
# Shear Modulus (GPa) = 19.81811 21.17485 20.49648
#
# Velocity S-wave (km/s) = 3.69055 3.81478 3.75318
# Velocity P-wave (km/s) = 6.94449 7.65402 7.30787
#
# Compressibility (1/GPa) = 0.02285850
#
# Stress axis : x y z
#
# Youngs Moduli (GPa) = 34.46804 55.25475 65.04120
#
# Poissons Ratio (x) = 0.28304 0.41031
# Poissons Ratio (y) = 0.17656 0.54521
# Poissons Ratio (z) = 0.21744 0.46317
#
# Static dielectric constant tensor:
#      x y z
#    x 2.823770 0.000000 0.000000 
#    y 0.000000 2.751830 0.000000 
#    z 0.000000 0.000000 3.069410 
# 
# 
# High freq. dielectric constant tensor:
#      x y z
#    x 1.554460 0.000000 0.000000 
#    y 0.000000 1.524630 0.000000 
#    z 0.000000 0.000000 1.551460 
# 
# From -- ./inp_files/19758.got.cif
#   From: 2010.03.12/outbox.cif.g09.slc.cpg/sg40_10_cif.got.tgz:19758.got - 2010.04.14 01:38:03.
