data_PCOD8182489
_publ_section_title
;
Structure prediction by ZEFSAII (Michael W. Deem and Ramdas Pophale) SiO2 
 PCOD8182489
Probable space group: A M A 2
;
_chemical_formula_sum "Si O2"
_cell_formula_units_Z 64
_cell_length_a 8.937372
_cell_length_b 26.356785
_cell_length_c 18.118973
_cell_angle_alpha 90.000000
_cell_angle_beta 90.000000
_cell_angle_gamma 90.000000
_cell_volume 4268.112387
_symmetry_space_group_name_H-M "A M A 2"
_symmetry_group_IT_number 40
_symmetry_cell_setting 'orthorhombic'
loop_
_space_group_symop_operation_xyz
x,y,z
-x,-y,z
1/2-x,y,z
1/2+x,-y,z
x,1/2+y,1/2+z
-x,1/2-y,1/2+z
1/2-x,1/2+y,1/2+z
1/2+x,1/2-y,1/2+z
loop_
_atom_site_type_symbol
_atom_site_label
_atom_site_fract_x
_atom_site_fract_y
_atom_site_fract_z
Si Si1 0.575537 0.145232 0.656920
Si Si2 0.081162 0.197072 0.529027
Si Si3 0.925516 0.250479 0.403227
Si Si4 0.575866 0.247204 0.746166
Si Si5 0.081645 0.300144 0.619902
Si Si6 0.573989 0.948626 0.905337
Si Si7 0.926880 0.947930 0.736567
Si Si8 0.925361 0.850588 0.992690
O O1 0.750000 0.132843 0.651343
O O2 0.513218 0.156000 0.575039
O O3 0.544267 0.192632 0.710271
O O4 0.487886 0.097427 0.687686
O O5 0.250000 0.177168 0.517481
O O6 0.080348 0.249403 0.572591
O O7 0.003931 0.205744 0.449871
O O8 0.750000 0.240207 0.403835
O O9 0.965252 0.305145 0.437111
O O10 0.984581 0.249163 0.320851
O O11 0.750000 0.255818 0.761561
O O12 0.517275 0.291907 0.692892
O O13 0.250000 0.315388 0.642482
O O14 0.009956 0.344726 0.570561
O O15 0.750000 0.954899 0.911040
O O16 0.525107 0.938019 0.821181
O O17 0.500000 0.000000 0.935582
O O18 0.516916 0.902195 0.955154
O O19 0.750000 0.951448 0.727519
O O20 0.000000 0.000000 0.708006
O O21 0.750000 0.851840 0.009290
#
# Coordination Sequence:
#
# PCOD8182489 Si02
#       8
#     8   8   8   8   8   8   8   8
#     4  10  19  30  44  62  84 113 147 179 213 253
#     4   9  17  29  43  60  83 110 140 174 212 253
#     4  10  18  28  43  62  85 112 143 177 211 251
#     4  10  19  29  42  61  86 114 143 175 211 252
#     4   9  17  28  42  60  81 107 140 175 209 248
#     4   9  18  30  43  60  83 111 143 178 214 250
#     4  10  19  31  45  62  85 113 145 181 218 253
#     4   9  17  29  43  59  82 112 142 173 212 252
#
# _framework density 14.994918
#
# number of rings (size 3 to 8) (size 9 to 14) (size 15 to 20)
#    0.000    2.500    0.000    3.000    0.000    7.000 
#    0.000    0.000    0.000    0.000    0.000    0.000 
#    0.000    1.000    0.000    8.500    0.000    5.750 
#
# Total GULP energy -396832.783169 kJ/mol
# GULP energy per Si atom -12401.024474 kJ/mol
# Density = 1.496079 g / cm^3
# Si number density = 14.994918 Si / 1000 Ang^3
#
#
#
# Elastic Constant Matrix: (Units=GPa)
#
#
# Indices 1 2 3 4 5 6 
#
# 1 71.1387 33.5462 37.6023 0.0000 0.0000 0.0000
# 2 33.5462 77.6931 40.2054 0.0000 0.0000 0.0000
# 3 37.6023 40.2054 75.0166 0.0000 0.0000 0.0000
# 4 0.0000 0.0000 0.0000 22.9872 0.0000 0.0000
# 5 0.0000 0.0000 0.0000 0.0000 29.6738 0.0000
# 6 0.0000 0.0000 0.0000 0.0000 0.0000 24.1702
#
#
#
# Elastic Compliance Matrix: (Units=1/GPa)
#
#
# Indices 1 2 3 4 5 6 
#
# 1 0.020368 -0.004859 -0.007606 0.000000 0.000000 0.000000
# 2 -0.004859 0.018970 -0.007732 0.000000 0.000000 0.000000
# 3 -0.007606 -0.007732 0.021287 0.000000 0.000000 0.000000
# 4 0.000000 0.000000 0.000000 0.043502 0.000000 0.000000
# 5 0.000000 0.000000 0.000000 0.000000 0.033700 0.000000
# 6 0.000000 0.000000 0.000000 0.000000 0.000000 0.041373
#
#
# Mechanical properties :
#
#
# Convention : Reuss Voigt Hill
#
# Bulk Modulus (GPa) = 49.42433 49.61736 49.52084
# Shear Modulus (GPa) = 22.09095 22.86587 22.47841
#
# Velocity S-wave (km/s) = 3.84243 3.90924 3.87598
# Velocity P-wave (km/s) = 7.26071 7.31693 7.28888
#
# Compressibility (1/GPa) = 0.02023295
#
# Stress axis : x y z
#
# Youngs Moduli (GPa) = 49.09554 52.71446 46.97810
#
# Poissons Ratio (x) = 0.25613 0.35730
# Poissons Ratio (y) = 0.23855 0.36322
# Poissons Ratio (z) = 0.37340 0.40757
#
# Static dielectric constant tensor:
#      x y z
#    x 3.032890 0.000000 0.000000 
#    y 0.000000 2.747760 0.000000 
#    z 0.000000 0.000000 2.874540 
# 
# 
# High freq. dielectric constant tensor:
#      x y z
#    x 1.591170 0.000000 0.000000 
#    y 0.000000 1.540600 0.000000 
#    z 0.000000 0.000000 1.562050 
# 
# From -- ./inp_files/19690.got.cif
#   From: 2010.03.12/outbox.cif.g09.slc.cpg/sg40_10_cif.got.tgz:19690.got - 2010.04.14 01:38:03.
