data_PCOD8182474
_publ_section_title
;
Structure prediction by ZEFSAII (Michael W. Deem and Ramdas Pophale) SiO2 
 PCOD8182474
Probable space group: A M A 2
;
_chemical_formula_sum "Si O2"
_cell_formula_units_Z 56
_cell_length_a 9.085342
_cell_length_b 31.310063
_cell_length_c 13.926949
_cell_angle_alpha 90.000000
_cell_angle_beta 90.000000
_cell_angle_gamma 90.000000
_cell_volume 3961.696546
_symmetry_space_group_name_H-M "A M A 2"
_symmetry_group_IT_number 40
_symmetry_cell_setting 'orthorhombic'
loop_
_space_group_symop_operation_xyz
x,y,z
-x,-y,z
1/2-x,y,z
1/2+x,-y,z
x,1/2+y,1/2+z
-x,1/2-y,1/2+z
1/2-x,1/2+y,1/2+z
1/2+x,1/2-y,1/2+z
loop_
_atom_site_type_symbol
_atom_site_label
_atom_site_fract_x
_atom_site_fract_y
_atom_site_fract_z
Si Si1 0.077341 0.731020 0.975620
Si Si2 0.423605 0.815479 0.637249
Si Si3 0.923574 0.616165 0.455656
Si Si4 0.417457 0.125980 0.772163
Si Si5 0.916886 0.456780 0.372564
Si Si6 0.922651 0.767064 0.257806
Si Si7 0.580489 0.687366 0.599224
O O1 0.250000 0.720783 0.981442
O O2 0.019219 0.730968 0.866486
O O3 0.040068 0.776997 0.020322
O O4 0.988557 0.694430 0.032332
O O5 0.250000 0.822074 0.629758
O O6 0.499195 0.858617 0.676564
O O7 0.469557 0.777785 0.710463
O O8 0.750000 0.612124 0.437816
O O9 0.957968 0.641206 0.554111
O O10 0.994370 0.642946 0.366586
O O11 0.998907 0.568966 0.458765
O O12 0.250000 0.143264 0.773305
O O13 0.418889 0.073885 0.777948
O O14 0.750000 0.466639 0.405059
O O15 0.000000 0.500000 0.346805
O O16 0.750000 0.772603 0.254605
O O17 0.990215 0.806120 0.196958
O O18 0.750000 0.690404 0.627353
#
# Coordination Sequence:
#
# PCOD8182474 Si02
#       7
#     8   8   8   8   8   8   8
#     4   9  17  29  41  55  80 111 143 180 216 249
#     4  10  18  28  42  60  80 107 144 179 215 253
#     4   9  16  27  43  61  84 112 139 171 207 250
#     4   9  18  28  41  61  83 110 140 169 204 252
#     4   9  18  29  43  64  88 114 141 169 210 255
#     4   9  18  29  41  57  80 110 144 182 216 250
#     4   9  17  28  42  59  80 109 143 177 215 253
#
# _framework density 14.135358999999999
#
# number of rings (size 3 to 8) (size 9 to 14) (size 15 to 20)
#    0.857    2.000    0.000    2.143    0.000    4.571 
#    0.000    2.857    0.000    0.000    0.000    0.000 
#    0.000    1.143    0.000    6.286    0.000    4.857 
#
# Total GULP energy -346989.125649 kJ/mol
# GULP energy per Si atom -12392.468773 kJ/mol
# Density = 1.410319 g / cm^3
# Si number density = 14.135359 Si / 1000 Ang^3
#
#
#
# Elastic Constant Matrix: (Units=GPa)
#
#
# Indices 1 2 3 4 5 6 
#
# 1 76.5509 35.5423 36.5043 0.0000 0.0000 0.0000
# 2 35.5423 64.3890 32.8256 0.0000 0.0000 0.0000
# 3 36.5043 32.8256 91.5885 0.0000 0.0000 0.0000
# 4 0.0000 0.0000 0.0000 16.8312 0.0000 0.0000
# 5 0.0000 0.0000 0.0000 0.0000 24.2905 0.0000
# 6 0.0000 0.0000 0.0000 0.0000 0.0000 22.5388
#
#
#
# Elastic Compliance Matrix: (Units=1/GPa)
#
#
# Indices 1 2 3 4 5 6 
#
# 1 0.019078 -0.008142 -0.004686 0.000000 0.000000 0.000000
# 2 -0.008142 0.022478 -0.004811 0.000000 0.000000 0.000000
# 3 -0.004686 -0.004811 0.014510 0.000000 0.000000 0.000000
# 4 0.000000 0.000000 0.000000 0.059413 0.000000 0.000000
# 5 0.000000 0.000000 0.000000 0.000000 0.041168 0.000000
# 6 0.000000 0.000000 0.000000 0.000000 0.000000 0.044368
#
#
# Mechanical properties :
#
#
# Convention : Reuss Voigt Hill
#
# Bulk Modulus (GPa) = 48.10376 49.14142 48.62259
# Shear Modulus (GPa) = 20.55730 21.24250 20.89990
#
# Velocity S-wave (km/s) = 3.81769 3.88079 3.84937
# Velocity P-wave (km/s) = 7.31694 7.41088 7.36406
#
# Compressibility (1/GPa) = 0.02078840
#
# Stress axis : x y z
#
# Youngs Moduli (GPa) = 52.41633 44.48877 68.91700
#
# Poissons Ratio (x) = 0.36223 0.32293
# Poissons Ratio (y) = 0.42678 0.33155
# Poissons Ratio (z) = 0.24561 0.21403
#
# Static dielectric constant tensor:
#      x y z
#    x 2.811030 0.000000 0.000000 
#    y 0.000000 2.561930 0.000000 
#    z 0.000000 0.000000 2.675740 
# 
# 
# High freq. dielectric constant tensor:
#      x y z
#    x 1.554150 0.000000 0.000000 
#    y 0.000000 1.509570 0.000000 
#    z 0.000000 0.000000 1.513920 
# 
# From -- ./inp_files/15827.got.cif
#   From: 2010.03.12/outbox.cif.g09.slc.cpg/sg40_8_cif.got.tgz:15827.got - 2010.04.14 01:38:03.
