data_PCOD8182419
_publ_section_title
;
Structure prediction by ZEFSAII (Michael W. Deem and Ramdas Pophale) SiO2 
 PCOD8182419
Probable space group: A M A 2
;
_chemical_formula_sum "Si O2"
_cell_formula_units_Z 52
_cell_length_a 23.885216
_cell_length_b 12.393906
_cell_length_c 8.002884
_cell_angle_alpha 90.000000
_cell_angle_beta 90.000000
_cell_angle_gamma 90.000000
_cell_volume 2369.102729
_symmetry_space_group_name_H-M "A M A 2"
_symmetry_group_IT_number 40
_symmetry_cell_setting 'orthorhombic'
loop_
_space_group_symop_operation_xyz
x,y,z
-x,-y,z
1/2-x,y,z
1/2+x,-y,z
x,1/2+y,1/2+z
-x,1/2-y,1/2+z
1/2-x,1/2+y,1/2+z
1/2+x,1/2-y,1/2+z
loop_
_atom_site_type_symbol
_atom_site_label
_atom_site_fract_x
_atom_site_fract_y
_atom_site_fract_z
Si Si1 0.130154 0.333735 0.382840
Si Si2 0.131548 0.871047 0.255732
Si Si3 0.864293 0.391881 0.716967
Si Si4 0.944816 0.784966 0.966270
Si Si5 0.250000 0.649455 0.566938
Si Si6 0.250000 0.274623 0.735665
Si Si7 0.750000 0.685795 0.362135
Si Si8 0.021001 0.386770 0.198980
O O1 0.108141 0.351568 0.569182
O O2 0.139278 0.205076 0.350752
O O3 0.192754 0.386084 0.362639
O O4 0.086614 0.387363 0.253728
O O5 0.099731 0.790371 0.375967
O O6 0.196824 0.848166 0.274270
O O7 0.120432 0.995579 0.308684
O O8 0.913516 0.366198 0.588319
O O9 0.806705 0.414334 0.614262
O O10 0.981231 0.861897 0.852856
O O11 0.987860 0.705651 0.061419
O O12 0.250000 0.675344 0.367719
O O13 0.250000 0.753626 0.686001
O O14 0.250000 0.241673 0.536778
O O15 0.000000 0.500000 0.123400
#
# Coordination Sequence:
#
# PCOD8182419 Si02
#       8
#     8   8   8   8   4   4   4   8
#     4   9  20  39  62  89 124 156 202 259 305 369
#     4  11  21  38  63  90 123 166 209 255 318 376
#     4  10  21  38  63  89 123 168 206 256 322 367
#     4  11  24  39  60  88 119 159 207 262 309 375
#     4  10  17  37  63  89 134 169 210 267 315 379
#     4  10  19  35  63  93 128 171 212 261 321 379
#     4   8  18  34  64  90 126 166 198 264 322 362
#     4  11  24  42  63  89 121 162 206 256 316 376
#
# _framework density 21.949238000000001
#
# number of rings (size 3 to 8) (size 9 to 14) (size 15 to 20)
#    0.000    1.846    1.538    2.308    0.000    3.692 
#    0.000    0.769    0.000    5.538    0.000    0.000 
#    0.000    0.000    0.000    0.000    0.000    0.000 
#
# Total GULP energy -322260.320483 kJ/mol
# GULP energy per Si atom -12394.627711 kJ/mol
# Density = 2.189928 g / cm^3
# Si number density = 21.949238 Si / 1000 Ang^3
#
#
#
# Elastic Constant Matrix: (Units=GPa)
#
#
# Indices 1 2 3 4 5 6 
#
# 1 86.7952 22.7741 -2.3232 0.0000 0.0000 0.0000
# 2 22.7741 68.8376 -6.5816 0.0000 0.0000 0.0000
# 3 -2.3232 -6.5816 45.4448 0.0000 0.0000 0.0000
# 4 0.0000 0.0000 0.0000 17.2759 0.0000 0.0000
# 5 0.0000 0.0000 0.0000 0.0000 42.2166 0.0000
# 6 0.0000 0.0000 0.0000 0.0000 0.0000 20.3385
#
#
#
# Elastic Compliance Matrix: (Units=1/GPa)
#
#
# Indices 1 2 3 4 5 6 
#
# 1 0.012617 -0.004170 0.000041 0.000000 0.000000 0.000000
# 2 -0.004170 0.016109 0.002120 0.000000 0.000000 0.000000
# 3 0.000041 0.002120 0.022314 0.000000 0.000000 0.000000
# 4 0.000000 0.000000 0.000000 0.057884 0.000000 0.000000
# 5 0.000000 0.000000 0.000000 0.000000 0.023687 0.000000
# 6 0.000000 0.000000 0.000000 0.000000 0.000000 0.049168
#
#
# Mechanical properties :
#
#
# Convention : Reuss Voigt Hill
#
# Bulk Modulus (GPa) = 21.26696 25.42402 23.34549
# Shear Modulus (GPa) = 24.81741 28.44674 26.63208
#
# Velocity S-wave (km/s) = 3.36620 3.60394 3.48709
# Velocity P-wave (km/s) = 4.98182 5.37830 5.18385
#
# Compressibility (1/GPa) = 0.04702130
#
# Stress axis : x y z
#
# Youngs Moduli (GPa) = 79.26022 62.07604 44.81521
#
# Poissons Ratio (x) = 0.25887 -0.00184
# Poissons Ratio (y) = 0.33053 -0.09500
# Poissons Ratio (z) = -0.00325 -0.13159
#
# Static dielectric constant tensor:
#      x y z
#    x 3.338080 0.000000 0.000000 
#    y 0.000000 3.614210 0.000000 
#    z 0.000000 0.000000 4.064000 
# 
# 
# High freq. dielectric constant tensor:
#      x y z
#    x 1.881300 0.000000 0.000000 
#    y 0.000000 1.835680 0.000000 
#    z 0.000000 0.000000 1.859750 
# 
# From -- ./inp_files/9136.got.cif
#   From: 2010.03.12/outbox.cif.g09.slc.cpg/sg40_5_cif.got.tgz:9136.got - 2010.04.14 01:38:03.
