data_PCOD8182831
_publ_section_title
;
Structure prediction by ZEFSAII (Michael W. Deem and Ramdas Pophale) SiO2 
 PCOD8182831
Probable space group: A M A 2
;
_chemical_formula_sum "Si O2"
_cell_formula_units_Z 64
_cell_length_a 9.045362
_cell_length_b 18.408009
_cell_length_c 26.407214
_cell_angle_alpha 90.000000
_cell_angle_beta 90.000000
_cell_angle_gamma 90.000000
_cell_volume 4396.988757
_symmetry_space_group_name_H-M "A M A 2"
_symmetry_group_IT_number 40
_symmetry_cell_setting 'orthorhombic'
loop_
_space_group_symop_operation_xyz
x,y,z
-x,-y,z
1/2-x,y,z
1/2+x,-y,z
x,1/2+y,1/2+z
-x,1/2-y,1/2+z
1/2-x,1/2+y,1/2+z
1/2+x,1/2-y,1/2+z
loop_
_atom_site_type_symbol
_atom_site_label
_atom_site_fract_x
_atom_site_fract_y
_atom_site_fract_z
Si Si1 0.922163 0.926776 0.356970
Si Si2 0.417253 0.426233 0.151792
Si Si3 0.080718 0.153125 0.259506
Si Si4 0.082417 0.284403 0.198217
Si Si5 0.423121 0.924772 0.167530
Si Si6 0.925162 0.424275 0.971395
Si Si7 0.575941 0.667476 0.054180
Si Si8 0.920369 0.714081 0.609328
O O1 0.750000 0.942934 0.355857
O O2 0.968329 0.863918 0.317140
O O3 0.969277 0.904343 0.413672
O O4 0.000000 0.000000 0.339050
O O5 0.500000 0.500000 0.162650
O O6 0.250000 0.449874 0.144753
O O7 0.439784 0.371856 0.200292
O O8 0.469800 0.384545 0.101058
O O9 0.250000 0.129136 0.251131
O O10 0.063838 0.240817 0.251152
O O11 0.985647 0.107524 0.219754
O O12 0.250000 0.270701 0.176282
O O13 0.957951 0.253275 0.161754
O O14 0.250000 0.937024 0.175715
O O15 0.452902 0.871240 0.119468
O O16 0.500000 0.000000 0.153499
O O17 0.750000 0.430767 0.979507
O O18 0.000000 0.500000 0.987752
O O19 0.991039 0.359881 0.004802
O O20 0.750000 0.668053 0.044176
O O21 0.520902 0.750040 0.065283
O O22 0.750000 0.727574 0.595575
#
# Coordination Sequence:
#
# PCOD8182831 Si02
#       8
#     8   8   8   8   8   8   8   8
#     4   9  18  29  41  58  79 105 135 168 203 236
#     4   9  17  26  37  55  77 101 129 159 190 229
#     4   9  16  28  44  58  77 107 139 169 202 238
#     4   8  15  27  40  55  77 104 133 164 197 236
#     4  10  19  28  40  60  84 109 137 166 198 237
#     4  10  19  30  42  58  81 106 135 170 204 238
#     4  10  19  30  43  58  77 105 138 166 200 242
#     4   9  17  28  41  58  79 103 132 166 200 234
#
# _framework density 14.555415999999999
#
# number of rings (size 3 to 8) (size 9 to 14) (size 15 to 20)
#    0.000    2.750    0.000    3.000    0.000    7.000 
#    0.000    0.000    0.000    0.000    0.000    0.000 
#    0.000    1.000    0.000    4.250    0.000    2.000 
#
# Total GULP energy -396502.664432 kJ/mol
# GULP energy per Si atom -12390.708264 kJ/mol
# Density = 1.452229 g / cm^3
# Si number density = 14.555416 Si / 1000 Ang^3
#
#
#
# Elastic Constant Matrix: (Units=GPa)
#
#
# Indices 1 2 3 4 5 6 
#
# 1 60.6759 43.2597 31.7405 0.0000 0.0000 0.0000
# 2 43.2597 104.0918 51.2724 0.0000 0.0000 0.0000
# 3 31.7405 51.2724 73.8263 0.0000 0.0000 0.0000
# 4 0.0000 0.0000 0.0000 25.0158 0.0000 0.0000
# 5 0.0000 0.0000 0.0000 0.0000 15.7424 0.0000
# 6 0.0000 0.0000 0.0000 0.0000 0.0000 24.3350
#
#
#
# Elastic Compliance Matrix: (Units=1/GPa)
#
#
# Indices 1 2 3 4 5 6 
#
# 1 0.024718 -0.007657 -0.005309 0.000000 0.000000 0.000000
# 2 -0.007657 0.016974 -0.008497 0.000000 0.000000 0.000000
# 3 -0.005309 -0.008497 0.021729 0.000000 0.000000 0.000000
# 4 0.000000 0.000000 0.000000 0.039975 0.000000 0.000000
# 5 0.000000 0.000000 0.000000 0.000000 0.063523 0.000000
# 6 0.000000 0.000000 0.000000 0.000000 0.000000 0.041093
#
#
# Mechanical properties :
#
#
# Convention : Reuss Voigt Hill
#
# Bulk Modulus (GPa) = 48.79247 54.57102 51.68175
# Shear Modulus (GPa) = 19.39726 20.50675 19.95201
#
# Velocity S-wave (km/s) = 3.65451 3.75757 3.70640
# Velocity P-wave (km/s) = 7.16951 7.50993 7.34169
#
# Compressibility (1/GPa) = 0.02049497
#
# Stress axis : x y z
#
# Youngs Moduli (GPa) = 40.45698 58.91217 46.02221
#
# Poissons Ratio (x) = 0.45112 0.24432
# Poissons Ratio (y) = 0.30980 0.39103
# Poissons Ratio (z) = 0.21478 0.50055
#
# Static dielectric constant tensor:
#      x y z
#    x 2.922910 0.000000 0.000000 
#    y 0.000000 2.987330 0.000000 
#    z 0.000000 0.000000 2.767370 
# 
# 
# High freq. dielectric constant tensor:
#      x y z
#    x 1.569090 0.000000 0.000000 
#    y 0.000000 1.546190 0.000000 
#    z 0.000000 0.000000 1.521070 
# 
# From -- ./inp_files/24392.got.cif
#   From: 2010.03.12/outbox.cif.g09.slc.cpg/sg40_13_cif.got.tgz:24392.got - 2010.04.14 01:38:03.
