data_PCOD8182444
_publ_section_title
;
Structure prediction by ZEFSAII (Michael W. Deem and Ramdas Pophale) SiO2 
 PCOD8182444
Probable space group: A M A 2
;
_chemical_formula_sum "Si O2"
_cell_formula_units_Z 64
_cell_length_a 8.498136
_cell_length_b 18.690941
_cell_length_c 26.701344
_cell_angle_alpha 90.000000
_cell_angle_beta 90.000000
_cell_angle_gamma 90.000000
_cell_volume 4241.192313
_symmetry_space_group_name_H-M "A M A 2"
_symmetry_group_IT_number 40
_symmetry_cell_setting 'orthorhombic'
loop_
_space_group_symop_operation_xyz
x,y,z
-x,-y,z
1/2-x,y,z
1/2+x,-y,z
x,1/2+y,1/2+z
-x,1/2-y,1/2+z
1/2-x,1/2+y,1/2+z
1/2+x,1/2-y,1/2+z
loop_
_atom_site_type_symbol
_atom_site_label
_atom_site_fract_x
_atom_site_fract_y
_atom_site_fract_z
Si Si1 0.567573 0.209952 0.587270
Si Si2 0.935946 0.166673 0.437106
Si Si3 0.936615 0.921324 0.236402
Si Si4 0.435747 0.921374 0.341564
Si Si5 0.434167 0.287655 0.494037
Si Si6 0.062461 0.156169 0.138650
Si Si7 0.936516 0.921116 0.037486
Si Si8 0.436266 0.421758 0.033186
O O1 0.750000 0.201755 0.598198
O O2 0.544326 0.251249 0.535412
O O3 0.496061 0.261917 0.630562
O O4 0.498531 0.129694 0.578797
O O5 0.750000 0.178600 0.438632
O O6 0.990752 0.133251 0.384464
O O7 0.992013 0.110893 0.480152
O O8 0.022652 0.243835 0.443290
O O9 0.750000 0.922901 0.236819
O O10 0.003756 0.872386 0.191309
O O11 0.998287 0.890968 0.289130
O O12 0.000000 0.000000 0.226778
O O13 0.250000 0.927256 0.338233
O O14 0.500000 0.000000 0.353581
O O15 0.250000 0.280476 0.505956
O O16 0.485729 0.370989 0.494097
O O17 0.250000 0.157050 0.139459
O O18 0.007374 0.105905 0.092571
O O19 0.750000 0.919688 0.032007
O O20 0.000000 0.000000 0.028548
O O21 0.500000 0.500000 0.042150
O O22 0.250000 0.424532 0.034278
#
# Coordination Sequence:
#
# PCOD8182444 Si02
#       8
#     8   8   8   8   8   8   8   8
#     4   8  15  29  42  54  77 108 137 165 200 240
#     4   9  18  31  43  55  76 109 140 165 199 240
#     4  10  18  28  41  58  80 105 135 170 205 238
#     4  10  19  30  43  59  81 108 138 171 207 242
#     4  10  18  27  41  61  81 103 133 168 204 240
#     4   8  15  27  43  58  76 107 141 170 201 239
#     4  10  18  29  43  60  84 111 140 170 201 239
#     4   9  16  25  39  57  78 103 131 163 196 234
#
# _framework density 15.090096000000001
#
# number of rings (size 3 to 8) (size 9 to 14) (size 15 to 20)
#    0.000    2.750    0.000    5.250    0.000    3.000 
#    0.000    5.625    0.000    0.000    0.000    0.000 
#    0.000    1.000    0.000    9.250    0.000    2.750 
#
# Total GULP energy -396431.687598 kJ/mol
# GULP energy per Si atom -12388.490237 kJ/mol
# Density = 1.505575 g / cm^3
# Si number density = 15.090096 Si / 1000 Ang^3
#
#
#
# Elastic Constant Matrix: (Units=GPa)
#
#
# Indices 1 2 3 4 5 6 
#
# 1 30.1625 23.0601 23.4388 0.0000 0.0000 0.0000
# 2 23.0601 135.3716 71.4235 0.0000 0.0000 0.0000
# 3 23.4388 71.4235 97.2257 0.0000 0.0000 0.0000
# 4 0.0000 0.0000 0.0000 27.9618 0.0000 0.0000
# 5 0.0000 0.0000 0.0000 0.0000 8.1947 0.0000
# 6 0.0000 0.0000 0.0000 0.0000 0.0000 22.0427
#
#
#
# Elastic Compliance Matrix: (Units=1/GPa)
#
#
# Indices 1 2 3 4 5 6 
#
# 1 0.041493 -0.002924 -0.007855 0.000000 0.000000 0.000000
# 2 -0.002924 0.012268 -0.008308 0.000000 0.000000 0.000000
# 3 -0.007855 -0.008308 0.018282 0.000000 0.000000 0.000000
# 4 0.000000 0.000000 0.000000 0.035763 0.000000 0.000000
# 5 0.000000 0.000000 0.000000 0.000000 0.122029 0.000000
# 6 0.000000 0.000000 0.000000 0.000000 0.000000 0.045366
#
#
# Mechanical properties :
#
#
# Convention : Reuss Voigt Hill
#
# Bulk Modulus (GPa) = 29.52438 55.40053 42.46245
# Shear Modulus (GPa) = 15.40045 21.29567 18.34806
#
# Velocity S-wave (km/s) = 3.19810 3.76072 3.49076
# Velocity P-wave (km/s) = 5.76585 7.45991 6.66690
#
# Compressibility (1/GPa) = 0.03387032
#
# Stress axis : x y z
#
# Youngs Moduli (GPa) = 24.10030 81.51062 54.69857
#
# Poissons Ratio (x) = 0.23832 0.42967
# Poissons Ratio (y) = 0.07046 0.45442
# Poissons Ratio (z) = 0.18931 0.67716
#
# Static dielectric constant tensor:
#      x y z
#    x 2.796800 0.000000 0.000000 
#    y 0.000000 3.468900 0.000000 
#    z 0.000000 0.000000 3.021610 
# 
# 
# High freq. dielectric constant tensor:
#      x y z
#    x 1.575230 0.000000 0.000000 
#    y 0.000000 1.573960 0.000000 
#    z 0.000000 0.000000 1.543550 
# 
# From -- ./inp_files/25549.got.cif
#   From: 2010.03.12/outbox.cif.g09.slc.cpg/sg40_13_cif.got.tgz:25549.got - 2010.04.14 01:38:03.
