data_PCOD8182104
_publ_section_title
;
Structure prediction by ZEFSAII (Michael W. Deem and Ramdas Pophale) SiO2 
 PCOD8182104
Probable space group: A B M 2
;
_chemical_formula_sum "Si O2"
_cell_formula_units_Z 64
_cell_length_a 20.541341
_cell_length_b 15.618367
_cell_length_c 9.508884
_cell_angle_alpha 90.000000
_cell_angle_beta 90.000000
_cell_angle_gamma 90.000000
_cell_volume 3050.661107
_symmetry_space_group_name_H-M "A B M 2"
_symmetry_group_IT_number 39
_symmetry_cell_setting 'orthorhombic'
loop_
_space_group_symop_operation_xyz
x,y,z
-x,-y,z
-x,1/2+y,z
x,1/2-y,z
x,1/2+y,1/2+z
-x,1/2-y,1/2+z
-x,y,1/2+z
x,-y,1/2+z
loop_
_atom_site_type_symbol
_atom_site_label
_atom_site_fract_x
_atom_site_fract_y
_atom_site_fract_z
Si Si1 0.440929 0.152434 0.865890
Si Si2 0.571652 0.652095 0.193827
Si Si3 0.255681 0.501426 0.549928
Si Si4 0.655313 0.005436 0.296600
Si Si5 0.842403 0.654013 0.052224
Si Si6 0.058255 0.844604 0.788162
Si Si7 0.080425 0.079371 0.823004
Si Si8 0.126360 0.575737 0.010269
O O1 0.416022 0.250000 0.840864
O O2 0.510451 0.138901 0.794872
O O3 0.393567 0.085600 0.788258
O O4 0.447497 0.133074 0.032042
O O5 0.598017 0.750000 0.208034
O O6 0.625253 0.584545 0.245520
O O7 0.320289 0.499383 0.455955
O O8 0.280515 0.475840 0.704290
O O9 0.221183 0.594439 0.550337
O O10 0.204302 0.431079 0.494188
O O11 0.818956 0.750000 0.086897
O O12 0.893059 0.618786 0.169306
O O13 0.880926 0.655055 0.903483
O O14 0.035128 0.750000 0.745925
O O15 0.995504 0.903835 0.800783
O O16 0.097915 0.838947 0.937202
O O17 0.111888 0.066539 0.672421
O O18 0.089651 0.996176 0.918392
#
# Coordination Sequence:
#
# PCOD8182104 Si02
#       8
#     8   8   8   8   8   8   8   8
#     4  10  23  43  68 101 136 169 210 263 323 379
#     4  10  23  43  69 100 136 171 209 263 324 379
#     4  11  24  40  60  87 125 170 219 257 298 377
#     4  12  23  41  66  95 130 175 222 266 308 374
#     4  10  22  41  63  88 124 168 208 266 333 387
#     4  11  23  39  61  89 118 151 202 264 330 396
#     4  11  22  38  63  90 115 153 204 263 327 397
#     4  11  23  41  59  84 124 159 203 256 320 375
#
# _framework density 20.979057999999998
#
# number of rings (size 3 to 8) (size 9 to 14) (size 15 to 20)
#    0.000    1.250    1.250    5.625    1.750    6.000 
#    0.000    1.250    0.000    0.000    0.000    0.000 
#    0.000    0.000    0.000    0.000    0.000    0.000 
#
# Total GULP energy -396710.512492 kJ/mol
# GULP energy per Si atom -12397.203515 kJ/mol
# Density = 2.093131 g / cm^3
# Si number density = 20.979058 Si / 1000 Ang^3
#
#
#
# Elastic Constant Matrix: (Units=GPa)
#
#
# Indices 1 2 3 4 5 6 
#
# 1 105.1398 46.7713 37.1069 0.0000 0.0000 0.0000
# 2 46.7713 79.0228 37.9545 0.0000 0.0000 0.0000
# 3 37.1069 37.9545 119.3802 0.0000 0.0000 0.0000
# 4 0.0000 0.0000 0.0000 25.6974 0.0000 0.0000
# 5 0.0000 0.0000 0.0000 0.0000 49.7324 0.0000
# 6 0.0000 0.0000 0.0000 0.0000 0.0000 21.7341
#
#
#
# Elastic Compliance Matrix: (Units=1/GPa)
#
#
# Indices 1 2 3 4 5 6 
#
# 1 0.013274 -0.006933 -0.001922 0.000000 0.000000 0.000000
# 2 -0.006933 0.018557 -0.003745 0.000000 0.000000 0.000000
# 3 -0.001922 -0.003745 0.010164 0.000000 0.000000 0.000000
# 4 0.000000 0.000000 0.000000 0.038915 0.000000 0.000000
# 5 0.000000 0.000000 0.000000 0.000000 0.020108 0.000000
# 6 0.000000 0.000000 0.000000 0.000000 0.000000 0.046011
#
#
# Mechanical properties :
#
#
# Convention : Reuss Voigt Hill
#
# Bulk Modulus (GPa) = 59.53895 60.80091 60.16993
# Shear Modulus (GPa) = 28.11751 31.54677 29.83214
#
# Velocity S-wave (km/s) = 3.66494 3.88200 3.77503
# Velocity P-wave (km/s) = 6.80814 7.00984 6.90973
#
# Compressibility (1/GPa) = 0.01679573
#
# Stress axis : x y z
#
# Youngs Moduli (GPa) = 75.33753 53.88874 98.38262
#
# Poissons Ratio (x) = 0.37363 0.18904
# Poissons Ratio (y) = 0.52234 0.36841
# Poissons Ratio (z) = 0.14476 0.20179
#
# Static dielectric constant tensor:
#      x y z
#    x 3.727010 0.000000 0.000000 
#    y 0.000000 3.882730 0.000000 
#    z 0.000000 0.000000 4.129120 
# 
# 
# High freq. dielectric constant tensor:
#      x y z
#    x 1.818230 0.000000 0.000000 
#    y 0.000000 1.820060 0.000000 
#    z 0.000000 0.000000 1.838750 
# 
# From -- ./inp_files/4032.got.cif
#   From: 2010.03.12/outbox.cif.g09.slc.cpg/sg39_3_cif.got.tgz:4032.got - 2010.04.14 02:53:20.
