data_PCOD8182288
_publ_section_title
;
Structure prediction by ZEFSAII (Michael W. Deem and Ramdas Pophale) SiO2 
 PCOD8182288
Probable space group: A B M 2
;
_chemical_formula_sum "Si O2"
_cell_formula_units_Z 48
_cell_length_a 11.874452
_cell_length_b 16.771548
_cell_length_c 9.358499
_cell_angle_alpha 90.000000
_cell_angle_beta 90.000000
_cell_angle_gamma 90.000000
_cell_volume 1863.772606
_symmetry_space_group_name_H-M "A B M 2"
_symmetry_group_IT_number 39
_symmetry_cell_setting 'orthorhombic'
loop_
_space_group_symop_operation_xyz
x,y,z
-x,-y,z
-x,1/2+y,z
x,1/2-y,z
x,1/2+y,1/2+z
-x,1/2-y,1/2+z
-x,y,1/2+z
x,-y,1/2+z
loop_
_atom_site_type_symbol
_atom_site_label
_atom_site_fract_x
_atom_site_fract_y
_atom_site_fract_z
Si Si1 0.287008 0.538100 0.157740
Si Si2 0.406741 0.113651 0.175460
Si Si3 0.995081 0.160848 0.343482
Si Si4 0.076926 0.566520 0.585113
Si Si5 0.373612 0.340557 0.851827
Si Si6 0.251200 0.162352 0.418533
O O1 0.398077 0.482999 0.170750
O O2 0.187533 0.473048 0.150893
O O3 0.277254 0.596950 0.296116
O O4 0.299687 0.592393 0.017543
O O5 0.519752 0.141540 0.251546
O O6 0.299853 0.150626 0.259580
O O7 0.404883 0.147298 0.015549
O O8 0.961954 0.250000 0.296325
O O9 0.996744 0.105101 0.205518
O O10 0.117056 0.158291 0.416919
O O11 0.901489 0.131063 0.459349
O O12 0.000000 0.500000 0.509254
O O13 0.332637 0.250000 0.827667
O O14 0.288495 0.250000 0.475456
#
# Coordination Sequence:
#
# PCOD8182288 Si02
#       6
#     8   8   8   8   8   8
#     4  12  26  47  73 110 149 199 255 320 383 453
#     4  12  26  48  78 109 153 200 258 322 389 462
#     4  11  25  46  73 106 147 199 254 312 374 447
#     4  12  25  47  74 106 151 199 255 315 380 446
#     4  12  27  48  74 111 151 202 259 319 391 469
#     4  11  23  45  73 106 147 200 255 314 382 453
#
# _framework density 25.754216
#
# number of rings (size 3 to 8) (size 9 to 14) (size 15 to 20)
#    0.000    0.333    3.333    5.500    0.000    1.333 
#    0.000    1.667    0.000    0.000    0.000    0.000 
#    0.000    0.000    0.000    0.000    0.000    0.000 
#
# Total GULP energy -297589.180144 kJ/mol
# GULP energy per Si atom -12399.549173 kJ/mol
# Density = 2.569560 g / cm^3
# Si number density = 25.754216 Si / 1000 Ang^3
#
#
#
# Elastic Constant Matrix: (Units=GPa)
#
#
# Indices 1 2 3 4 5 6 
#
# 1 45.6194 17.6539 21.6308 0.0000 0.0000 0.0000
# 2 17.6539 190.1530 53.7849 0.0000 0.0000 0.0000
# 3 21.6308 53.7849 156.6434 0.0000 0.0000 0.0000
# 4 0.0000 0.0000 0.0000 43.5126 0.0000 0.0000
# 5 0.0000 0.0000 0.0000 0.0000 42.9079 0.0000
# 6 0.0000 0.0000 0.0000 0.0000 0.0000 35.0395
#
#
#
# Elastic Compliance Matrix: (Units=1/GPa)
#
#
# Indices 1 2 3 4 5 6 
#
# 1 0.023796 -0.001417 -0.002799 0.000000 0.000000 0.000000
# 2 -0.001417 0.005909 -0.001833 0.000000 0.000000 0.000000
# 3 -0.002799 -0.001833 0.007400 0.000000 0.000000 0.000000
# 4 0.000000 0.000000 0.000000 0.022982 0.000000 0.000000
# 5 0.000000 0.000000 0.000000 0.000000 0.023306 0.000000
# 6 0.000000 0.000000 0.000000 0.000000 0.000000 0.028539
#
#
# Mechanical properties :
#
#
# Convention : Reuss Voigt Hill
#
# Bulk Modulus (GPa) = 39.99145 64.28392 52.13768
# Shear Modulus (GPa) = 37.77370 44.24840 41.01105
#
# Velocity S-wave (km/s) = 3.83391 4.14950 3.99482
# Velocity P-wave (km/s) = 5.92961 6.92622 6.44720
#
# Compressibility (1/GPa) = 0.02500535
#
# Stress axis : x y z
#
# Youngs Moduli (GPa) = 42.02324 169.23220 135.13656
#
# Poissons Ratio (x) = 0.23988 0.37829
# Poissons Ratio (y) = 0.05957 0.24773
# Poissons Ratio (z) = 0.11764 0.31023
#
# Static dielectric constant tensor:
#      x y z
#    x 4.553490 0.000000 0.000000 
#    y 0.000000 5.272770 0.000000 
#    z 0.000000 0.000000 4.581330 
# 
# 
# High freq. dielectric constant tensor:
#      x y z
#    x 2.021060 0.000000 0.000000 
#    y 0.000000 2.056060 0.000000 
#    z 0.000000 0.000000 2.031200 
# 
# From -- ./inp_files/3220.got.cif
#   From: 2010.03.12/outbox.cif.g09.slc.cpg/sg39_2_cif.got.tgz:3220.got - 2010.04.14 02:53:20.
