data_PCOD8182454
_publ_section_title
;
Structure prediction by ZEFSAII (Michael W. Deem and Ramdas Pophale) SiO2 
 PCOD8182454
Probable space group: A M A 2
;
_chemical_formula_sum "Si O2"
_cell_formula_units_Z 64
_cell_length_a 9.045223
_cell_length_b 25.055798
_cell_length_c 19.769676
_cell_angle_alpha 90.000000
_cell_angle_beta 90.000000
_cell_angle_gamma 90.000000
_cell_volume 4480.506063
_symmetry_space_group_name_H-M "A M A 2"
_symmetry_group_IT_number 40
_symmetry_cell_setting 'orthorhombic'
loop_
_space_group_symop_operation_xyz
x,y,z
-x,-y,z
1/2-x,y,z
1/2+x,-y,z
x,1/2+y,1/2+z
-x,1/2-y,1/2+z
1/2-x,1/2+y,1/2+z
1/2+x,1/2-y,1/2+z
loop_
_atom_site_type_symbol
_atom_site_label
_atom_site_fract_x
_atom_site_fract_y
_atom_site_fract_z
Si Si1 0.081041 0.300380 0.275750
Si Si2 0.913870 0.335317 0.501841
Si Si3 0.575566 0.447408 0.454951
Si Si4 0.078642 0.735723 0.019656
Si Si5 0.915130 0.081128 0.822933
Si Si6 0.423352 0.446825 0.171319
Si Si7 0.414418 0.746029 0.392807
Si Si8 0.923498 0.838767 0.645224
O O1 0.250000 0.284199 0.260185
O O2 0.073669 0.355481 0.316171
O O3 0.005276 0.255303 0.322715
O O4 0.992815 0.304379 0.205772
O O5 0.750000 0.335095 0.534806
O O6 0.977305 0.395662 0.498177
O O7 0.903802 0.313773 0.424302
O O8 0.019084 0.294571 0.543672
O O9 0.500000 0.500000 0.486843
O O10 0.750000 0.453223 0.458693
O O11 0.530215 0.441618 0.376698
O O12 0.250000 0.741317 0.003882
O O13 0.044596 0.692517 0.076357
O O14 0.997201 0.717667 0.949790
O O15 0.750000 0.065370 0.846789
O O16 0.952462 0.054702 0.751263
O O17 0.500000 0.500000 0.141757
O O18 0.250000 0.446241 0.153974
O O19 0.498920 0.395838 0.136579
O O20 0.250000 0.768963 0.378811
O O21 0.750000 0.846434 0.659123
#
# Coordination Sequence:
#
# PCOD8182454 Si02
#       8
#     8   8   8   8   8   8   8   8
#     4  10  18  27  42  61  81 106 139 176 209 245
#     4   8  17  29  41  55  74 102 134 167 207 245
#     4  11  20  27  36  53  75 102 135 169 203 236
#     4   9  17  29  45  62  78 102 137 172 208 251
#     4   9  17  27  37  51  71 100 135 168 200 231
#     4  10  20  31  41  55  76 105 138 171 207 244
#     4   9  16  27  43  59  78 104 134 169 210 249
#     4  10  20  31  44  62  84 108 138 175 211 249
#
# _framework density 14.284101
#
# number of rings (size 3 to 8) (size 9 to 14) (size 15 to 20)
#    0.750    1.750    1.250    3.000    0.000    6.500 
#    0.000    0.000    0.000    0.000    0.000    0.000 
#    0.000    0.000    0.000    1.125    0.000   17.750 
#
# Total GULP energy -396541.896636 kJ/mol
# GULP energy per Si atom -12391.934270 kJ/mol
# Density = 1.425159 g / cm^3
# Si number density = 14.284101 Si / 1000 Ang^3
#
#
#
# Elastic Constant Matrix: (Units=GPa)
#
#
# Indices 1 2 3 4 5 6 
#
# 1 108.9778 49.2766 44.2482 0.0000 0.0000 0.0000
# 2 49.2766 64.0105 34.3813 0.0000 0.0000 0.0000
# 3 44.2482 34.3813 52.6529 0.0000 0.0000 0.0000
# 4 0.0000 0.0000 0.0000 17.0605 0.0000 0.0000
# 5 0.0000 0.0000 0.0000 0.0000 19.6983 0.0000
# 6 0.0000 0.0000 0.0000 0.0000 0.0000 20.0474
#
#
#
# Elastic Compliance Matrix: (Units=1/GPa)
#
#
# Indices 1 2 3 4 5 6 
#
# 1 0.016182 -0.007937 -0.008417 0.000000 0.000000 0.000000
# 2 -0.007937 0.027954 -0.011584 0.000000 0.000000 0.000000
# 3 -0.008417 -0.011584 0.033629 0.000000 0.000000 0.000000
# 4 0.000000 0.000000 0.000000 0.058615 0.000000 0.000000
# 5 0.000000 0.000000 0.000000 0.000000 0.050766 0.000000
# 6 0.000000 0.000000 0.000000 0.000000 0.000000 0.049882
#
#
# Mechanical properties :
#
#
# Convention : Reuss Voigt Hill
#
# Bulk Modulus (GPa) = 45.67947 53.49481 49.58714
# Shear Modulus (GPa) = 16.65556 17.87690 17.26623
#
# Velocity S-wave (km/s) = 3.41841 3.54153 3.48051
# Velocity P-wave (km/s) = 6.90140 7.36581 7.13738
#
# Compressibility (1/GPa) = 0.02189167
#
# Stress axis : x y z
#
# Youngs Moduli (GPa) = 61.79548 35.77290 29.73590
#
# Poissons Ratio (x) = 0.28392 0.25028
# Poissons Ratio (y) = 0.49046 0.34445
# Poissons Ratio (z) = 0.52012 0.41438
#
# Static dielectric constant tensor:
#      x y z
#    x 2.914280 0.000000 0.000000 
#    y 0.000000 2.631580 0.000000 
#    z 0.000000 0.000000 2.414740 
# 
# 
# High freq. dielectric constant tensor:
#      x y z
#    x 1.565370 0.000000 0.000000 
#    y 0.000000 1.517900 0.000000 
#    z 0.000000 0.000000 1.497940 
# 
# From -- ./inp_files/19782.got.cif
#   From: 2010.03.12/outbox.cif.g09.slc.cpg/sg40_10_cif.got.tgz:19782.got - 2010.04.14 01:38:03.
