data_PCOD8182305
_publ_section_title
;
Structure prediction by ZEFSAII (Michael W. Deem and Ramdas Pophale) SiO2 
 PCOD8182305
Probable space group: A B M 2
;
_chemical_formula_sum "Si O2"
_cell_formula_units_Z 48
_cell_length_a 13.064568
_cell_length_b 16.978719
_cell_length_c 9.920223
_cell_angle_alpha 90.000000
_cell_angle_beta 90.000000
_cell_angle_gamma 90.000000
_cell_volume 2200.500185
_symmetry_space_group_name_H-M "A B M 2"
_symmetry_group_IT_number 39
_symmetry_cell_setting 'orthorhombic'
loop_
_space_group_symop_operation_xyz
x,y,z
-x,-y,z
-x,1/2+y,z
x,1/2-y,z
x,1/2+y,1/2+z
-x,1/2-y,1/2+z
-x,y,1/2+z
x,-y,1/2+z
loop_
_atom_site_type_symbol
_atom_site_label
_atom_site_fract_x
_atom_site_fract_y
_atom_site_fract_z
Si Si1 0.552715 0.084449 0.910730
Si Si2 0.787884 0.905732 0.786141
Si Si3 0.845716 0.658897 0.062752
Si Si4 0.785629 0.418122 0.828956
Si Si5 0.919101 0.658659 0.558068
Si Si6 0.424842 0.341904 0.689357
O O1 0.673668 0.078341 0.892476
O O2 0.508870 0.146690 0.804404
O O3 0.500000 0.000000 0.891977
O O4 0.527307 0.119598 0.056254
O O5 0.872423 0.855476 0.706175
O O6 0.677512 0.888241 0.725607
O O7 0.815640 0.997176 0.769391
O O8 0.786873 0.885927 0.944173
O O9 0.835584 0.750000 0.030996
O O10 0.791425 0.642096 0.204857
O O11 0.963547 0.632096 0.065904
O O12 0.863318 0.393449 0.946165
O O13 0.907354 0.750000 0.518988
O O14 0.400747 0.250000 0.667778
#
# Coordination Sequence:
#
# PCOD8182305 Si02
#       6
#     8   8   8   8   8   8
#     4  12  27  48  72 101 139 182 231 290 350 412
#     4  12  25  43  68 100 138 180 228 285 345 408
#     4  11  26  44  70 104 140 182 230 284 342 414
#     4  12  26  44  71 103 139 185 230 282 344 413
#     4  11  24  46  70  99 141 185 231 285 343 405
#     4  12  27  46  71 101 135 179 231 290 350 415
#
# _framework density 21.813223000000001
#
# number of rings (size 3 to 8) (size 9 to 14) (size 15 to 20)
#    0.000    0.333    3.333    5.000    2.333    8.667 
#    0.000    0.000    0.000    0.000    0.000    0.000 
#    0.000    0.000    0.000    0.000    0.000    0.000 
#
# Total GULP energy -297826.129472 kJ/mol
# GULP energy per Si atom -12409.422061 kJ/mol
# Density = 2.176358 g / cm^3
# Si number density = 21.813223 Si / 1000 Ang^3
#
#
#
# Elastic Constant Matrix: (Units=GPa)
#
#
# Indices 1 2 3 4 5 6 
#
# 1 72.2838 28.7782 31.9627 0.0000 0.0000 0.0000
# 2 28.7782 93.2448 14.7788 0.0000 0.0000 0.0000
# 3 31.9627 14.7788 129.4979 0.0000 0.0000 0.0000
# 4 0.0000 0.0000 0.0000 34.7633 0.0000 0.0000
# 5 0.0000 0.0000 0.0000 0.0000 41.8880 0.0000
# 6 0.0000 0.0000 0.0000 0.0000 0.0000 30.3248
#
#
#
# Elastic Compliance Matrix: (Units=1/GPa)
#
#
# Indices 1 2 3 4 5 6 
#
# 1 0.017392 -0.004774 -0.003748 0.000000 0.000000 0.000000
# 2 -0.004774 0.012232 -0.000218 0.000000 0.000000 0.000000
# 3 -0.003748 -0.000218 0.008672 0.000000 0.000000 0.000000
# 4 0.000000 0.000000 0.000000 0.028766 0.000000 0.000000
# 5 0.000000 0.000000 0.000000 0.000000 0.023873 0.000000
# 6 0.000000 0.000000 0.000000 0.000000 0.000000 0.032976
#
#
# Mechanical properties :
#
#
# Convention : Reuss Voigt Hill
#
# Bulk Modulus (GPa) = 48.03607 49.56287 48.79947
# Shear Modulus (GPa) = 33.70861 36.02901 34.86881
#
# Velocity S-wave (km/s) = 3.93533 4.06853 4.00248
# Velocity P-wave (km/s) = 6.53594 6.69637 6.61664
#
# Compressibility (1/GPa) = 0.02081769
#
# Stress axis : x y z
#
# Youngs Moduli (GPa) = 57.49707 81.75086 115.31294
#
# Poissons Ratio (x) = 0.39026 0.43219
# Poissons Ratio (y) = 0.27448 0.02511
# Poissons Ratio (z) = 0.21550 0.01780
#
# Static dielectric constant tensor:
#      x y z
#    x 4.042770 0.000000 0.000000 
#    y 0.000000 4.038490 0.000000 
#    z 0.000000 0.000000 4.112610 
# 
# 
# High freq. dielectric constant tensor:
#      x y z
#    x 1.862990 0.000000 0.000000 
#    y 0.000000 1.867090 0.000000 
#    z 0.000000 0.000000 1.875160 
# 
# From -- ./inp_files/3216.got.cif
#   From: 2010.03.12/outbox.cif.g09.slc.cpg/sg39_2_cif.got.tgz:3216.got - 2010.04.14 02:53:20.
