data_PCOD8182536
_publ_section_title
;
Structure prediction by ZEFSAII (Michael W. Deem and Ramdas Pophale) SiO2 
 PCOD8182536
Probable space group: A M A 2
;
_chemical_formula_sum "Si O2"
_cell_formula_units_Z 64
_cell_length_a 8.965754
_cell_length_b 18.376436
_cell_length_c 21.265180
_cell_angle_alpha 90.000000
_cell_angle_beta 90.000000
_cell_angle_gamma 90.000000
_cell_volume 3503.621383
_symmetry_space_group_name_H-M "A M A 2"
_symmetry_group_IT_number 40
_symmetry_cell_setting 'orthorhombic'
loop_
_space_group_symop_operation_xyz
x,y,z
-x,-y,z
1/2-x,y,z
1/2+x,-y,z
x,1/2+y,1/2+z
-x,1/2-y,1/2+z
1/2-x,1/2+y,1/2+z
1/2+x,1/2-y,1/2+z
loop_
_atom_site_type_symbol
_atom_site_label
_atom_site_fract_x
_atom_site_fract_y
_atom_site_fract_z
Si Si1 0.918876 0.927908 0.635320
Si Si2 0.573613 0.314883 0.895803
Si Si3 0.924191 0.075098 0.034492
Si Si4 0.079677 0.858469 0.166801
Si Si5 0.087134 0.066150 0.487051
Si Si6 0.425411 0.922848 0.300351
Si Si7 0.574492 0.720375 0.119999
Si Si8 0.926894 0.784336 0.985970
O O1 0.750000 0.925132 0.661548
O O2 0.920142 0.934861 0.561017
O O3 0.002517 0.852572 0.650006
O O4 0.000000 0.000000 0.663903
O O5 0.750000 0.303587 0.884325
O O6 0.528755 0.359440 0.958566
O O7 0.499804 0.355003 0.836846
O O8 0.494414 0.240598 0.918113
O O9 0.750000 0.073833 0.017616
O O10 0.951315 0.089097 0.108200
O O11 0.000000 0.000000 0.015340
O O12 0.005865 0.136033 0.993890
O O13 0.250000 0.830643 0.167220
O O14 0.042262 0.906223 0.227648
O O15 0.975780 0.787279 0.163819
O O16 0.250000 0.053647 0.460259
O O17 0.000000 0.000000 0.456188
O O18 0.250000 0.926511 0.315520
O O19 0.500000 0.000000 0.318296
O O20 0.750000 0.710427 0.124929
O O21 0.525960 0.735714 0.047488
O O22 0.750000 0.788123 0.980858
#
# Coordination Sequence:
#
# PCOD8182536 Si02
#       8
#     8   8   8   8   8   8   8   8
#     4  10  18  29  44  66  98 132 167 206 251 304
#     4  11  21  34  50  71 100 137 176 215 258 304
#     4  10  19  33  54  79 106 136 170 213 265 318
#     4   9  20  36  54  74 102 139 177 218 264 311
#     4   9  18  28  41  61  89 127 166 202 241 289
#     4  11  23  38  54  76 105 141 183 223 261 305
#     4  10  19  31  50  75 101 131 171 216 264 314
#     4  10  20  33  50  74 103 135 171 213 260 315
#
# _framework density 18.266814
#
# number of rings (size 3 to 8) (size 9 to 14) (size 15 to 20)
#    0.000    2.000    1.250    3.000    0.000    5.000 
#    0.000    0.000    0.000    0.000    0.000    0.875 
#    0.000    6.000    0.000    0.000    0.000    0.000 
#
# Total GULP energy -396601.708783 kJ/mol
# GULP energy per Si atom -12393.803399 kJ/mol
# Density = 1.822524 g / cm^3
# Si number density = 18.266814 Si / 1000 Ang^3
#
#
#
# Elastic Constant Matrix: (Units=GPa)
#
#
# Indices 1 2 3 4 5 6 
#
# 1 88.4596 46.5355 28.4397 0.0000 0.0000 0.0000
# 2 46.5355 106.7140 27.5237 0.0000 0.0000 0.0000
# 3 28.4397 27.5237 52.6470 0.0000 0.0000 0.0000
# 4 0.0000 0.0000 0.0000 25.9851 0.0000 0.0000
# 5 0.0000 0.0000 0.0000 0.0000 21.5598 0.0000
# 6 0.0000 0.0000 0.0000 0.0000 0.0000 38.0866
#
#
#
# Elastic Compliance Matrix: (Units=1/GPa)
#
#
# Indices 1 2 3 4 5 6 
#
# 1 0.016068 -0.005511 -0.005799 0.000000 0.000000 0.000000
# 2 -0.005511 0.012722 -0.003674 0.000000 0.000000 0.000000
# 3 -0.005799 -0.003674 0.024047 0.000000 0.000000 0.000000
# 4 0.000000 0.000000 0.000000 0.038484 0.000000 0.000000
# 5 0.000000 0.000000 0.000000 0.000000 0.046383 0.000000
# 6 0.000000 0.000000 0.000000 0.000000 0.000000 0.026256
#
#
# Mechanical properties :
#
#
# Convention : Reuss Voigt Hill
#
# Bulk Modulus (GPa) = 43.72542 50.31315 47.01928
# Shear Modulus (GPa) = 24.80772 26.81442 25.81107
#
# Velocity S-wave (km/s) = 3.68921 3.83552 3.76307
# Velocity P-wave (km/s) = 6.49123 6.87155 6.68409
#
# Compressibility (1/GPa) = 0.02286999
#
# Stress axis : x y z
#
# Youngs Moduli (GPa) = 62.23474 78.60567 41.58448
#
# Poissons Ratio (x) = 0.43323 0.24113
# Poissons Ratio (y) = 0.34300 0.15277
# Poissons Ratio (z) = 0.36088 0.28877
#
# Static dielectric constant tensor:
#      x y z
#    x 3.500160 0.000000 0.000000 
#    y 0.000000 3.435800 0.000000 
#    z 0.000000 0.000000 3.024360 
# 
# 
# High freq. dielectric constant tensor:
#      x y z
#    x 1.722230 0.000000 0.000000 
#    y 0.000000 1.710470 0.000000 
#    z 0.000000 0.000000 1.661250 
# 
# From -- ./inp_files/22412.got.cif
#   From: 2010.03.12/outbox.cif.g09.slc.cpg/sg40_12_cif.got.tgz:22412.got - 2010.04.14 01:38:03.
