data_PCOD8182089
_publ_section_title
;
Structure prediction by ZEFSAII (Michael W. Deem and Ramdas Pophale) SiO2 
 PCOD8182089
Probable space group: A B M 2
;
_chemical_formula_sum "Si O2"
_cell_formula_units_Z 60
_cell_length_a 8.820603
_cell_length_b 17.611070
_cell_length_c 18.615133
_cell_angle_alpha 90.000000
_cell_angle_beta 90.000000
_cell_angle_gamma 90.000000
_cell_volume 2891.679542
_symmetry_space_group_name_H-M "A B M 2"
_symmetry_group_IT_number 39
_symmetry_cell_setting 'orthorhombic'
loop_
_space_group_symop_operation_xyz
x,y,z
-x,-y,z
-x,1/2+y,z
x,1/2-y,z
x,1/2+y,1/2+z
-x,1/2-y,1/2+z
-x,y,1/2+z
x,-y,1/2+z
loop_
_atom_site_type_symbol
_atom_site_label
_atom_site_fract_x
_atom_site_fract_y
_atom_site_fract_z
Si Si1 0.044871 0.415096 0.625000
Si Si2 0.581403 0.609095 0.994365
Si Si3 0.427782 0.661535 0.339148
Si Si4 0.741800 0.334275 0.623180
Si Si5 0.372376 0.441095 0.248233
Si Si6 0.836215 0.075809 0.279754
Si Si7 0.739319 0.451074 0.006709
Si Si8 0.000000 0.500000 0.399852
O O1 0.070506 0.401568 0.709287
O O2 0.196302 0.406807 0.577008
O O3 0.000000 0.500000 0.606963
O O4 0.911018 0.359403 0.599537
O O5 0.629911 0.669571 0.054513
O O6 0.667095 0.533433 0.021333
O O7 0.400520 0.602008 0.983627
O O8 0.635590 0.637575 0.916823
O O9 0.469484 0.750000 0.334559
O O10 0.571905 0.610874 0.314874
O O11 0.289978 0.641257 0.285853
O O12 0.750097 0.250000 0.655910
O O13 0.672859 0.390006 0.681695
O O14 0.500000 0.500000 0.221620
O O15 0.229714 0.490297 0.273431
O O16 0.940453 0.069824 0.350407
O O17 0.869456 0.460436 0.947178
#
# Coordination Sequence:
#
# PCOD8182089 Si02
#       8
#     8   8   8   8   8   8   8   4
#     4  12  22  42  63  98 130 169 215 268 322 384
#     4  11  23  40  64  96 129 171 219 269 323 384
#     4  11  24  41  61  93 136 169 208 270 334 388
#     4  12  25  42  67  98 135 175 215 270 335 391
#     4  10  22  40  65  96 123 168 221 271 319 382
#     4  11  22  37  68  94 126 165 221 266 315 390
#     4  11  23  37  68  95 125 166 225 275 312 380
#     4  12  18  36  60 100 120 158 212 272 322 370
#
# _framework density 20.749186000000002
#
# number of rings (size 3 to 8) (size 9 to 14) (size 15 to 20)
#    0.000    0.800    5.333    1.600    9.333    0.533 
#    0.000    1.333    0.000    1.600    0.000    0.000 
#    0.000    0.000    0.000    0.000    0.000    0.000 
#
# Total GULP energy -371939.366531 kJ/mol
# GULP energy per Si atom -12397.978884 kJ/mol
# Density = 2.070196 g / cm^3
# Si number density = 20.749186 Si / 1000 Ang^3
#
#
#
# Elastic Constant Matrix: (Units=GPa)
#
#
# Indices 1 2 3 4 5 6 
#
# 1 112.1654 34.4624 49.7966 0.0000 0.0000 0.0000
# 2 34.4624 105.5156 29.7898 0.0000 0.0000 0.0000
# 3 49.7966 29.7898 114.1988 0.0000 0.0000 0.0000
# 4 0.0000 0.0000 0.0000 16.6597 0.0000 0.0000
# 5 0.0000 0.0000 0.0000 0.0000 37.9254 0.0000
# 6 0.0000 0.0000 0.0000 0.0000 0.0000 15.5279
#
#
#
# Elastic Compliance Matrix: (Units=1/GPa)
#
#
# Indices 1 2 3 4 5 6 
#
# 1 0.011664 -0.002562 -0.004418 0.000000 0.000000 0.000000
# 2 -0.002562 0.010794 -0.001698 0.000000 0.000000 0.000000
# 3 -0.004418 -0.001698 0.011126 0.000000 0.000000 0.000000
# 4 0.000000 0.000000 0.000000 0.060025 0.000000 0.000000
# 5 0.000000 0.000000 0.000000 0.000000 0.026368 0.000000
# 6 0.000000 0.000000 0.000000 0.000000 0.000000 0.064400
#
#
# Mechanical properties :
#
#
# Convention : Reuss Voigt Hill
#
# Bulk Modulus (GPa) = 61.62585 62.21970 61.92277
# Shear Modulus (GPa) = 24.13804 28.54467 26.34136
#
# Velocity S-wave (km/s) = 3.41445 3.71307 3.56689
# Velocity P-wave (km/s) = 6.73123 6.95947 6.84630
#
# Compressibility (1/GPa) = 0.01622696
#
# Stress axis : x y z
#
# Youngs Moduli (GPa) = 85.73442 92.64730 89.87951
#
# Poissons Ratio (x) = 0.23739 0.39706
# Poissons Ratio (y) = 0.21968 0.15264
# Poissons Ratio (z) = 0.37875 0.15734
#
# Static dielectric constant tensor:
#      x y z
#    x 4.148510 0.000000 0.000000 
#    y 0.000000 3.551310 0.000000 
#    z 0.000000 0.000000 3.786710 
# 
# 
# High freq. dielectric constant tensor:
#      x y z
#    x 1.824180 0.000000 0.000000 
#    y 0.000000 1.778910 0.000000 
#    z 0.000000 0.000000 1.821120 
# 
# From -- ./inp_files/11811.got.cif
#   From: 2010.03.12/outbox.cif.g09.slc.cpg/sg39_6_cif.got.tgz:11811.got - 2010.04.14 02:53:20.
