data_PCOD8182553
_publ_section_title
;
Structure prediction by ZEFSAII (Michael W. Deem and Ramdas Pophale) SiO2 
 PCOD8182553
Probable space group: A M A 2
;
_chemical_formula_sum "Si O2"
_cell_formula_units_Z 64
_cell_length_a 9.473195
_cell_length_b 30.367543
_cell_length_c 14.291972
_cell_angle_alpha 90.000000
_cell_angle_beta 90.000000
_cell_angle_gamma 90.000000
_cell_volume 4111.481012
_symmetry_space_group_name_H-M "A M A 2"
_symmetry_group_IT_number 40
_symmetry_cell_setting 'orthorhombic'
loop_
_space_group_symop_operation_xyz
x,y,z
-x,-y,z
1/2-x,y,z
1/2+x,-y,z
x,1/2+y,1/2+z
-x,1/2-y,1/2+z
1/2-x,1/2+y,1/2+z
1/2+x,1/2-y,1/2+z
loop_
_atom_site_type_symbol
_atom_site_label
_atom_site_fract_x
_atom_site_fract_y
_atom_site_fract_z
Si Si1 0.916070 0.797621 0.454490
Si Si2 0.909215 0.317943 0.277794
Si Si3 0.585306 0.957420 0.896374
Si Si4 0.583465 0.867274 0.604929
Si Si5 0.909053 0.865269 0.969438
Si Si6 0.584660 0.209529 0.065898
Si Si7 0.585050 0.957781 0.680067
Si Si8 0.415478 0.777710 0.281959
O O1 0.750000 0.794404 0.436082
O O2 0.955624 0.842479 0.509655
O O3 0.967104 0.754096 0.512761
O O4 0.996801 0.805909 0.356956
O O5 0.750000 0.305884 0.246584
O O6 0.987882 0.339908 0.189846
O O7 0.912939 0.351138 0.362411
O O8 0.976529 0.271147 0.303480
O O9 0.750000 0.967811 0.906614
O O10 0.543264 0.916484 0.964479
O O11 0.548851 0.946539 0.788181
O O12 0.500000 0.000000 0.931573
O O13 0.750000 0.867861 0.622540
O O14 0.532399 0.917830 0.612720
O O15 0.750000 0.860727 0.009494
O O16 0.011451 0.834807 0.029387
O O17 0.750000 0.203922 0.049927
O O18 0.546649 0.211127 0.175309
O O19 0.750000 0.967525 0.667847
O O20 0.500000 0.000000 0.644965
O O21 0.250000 0.784192 0.302692
#
# Coordination Sequence:
#
# PCOD8182553 Si02
#       8
#     8   8   8   8   8   8   8   8
#     4  10  19  30  46  68  90 116 156 196 223 258
#     4   9  14  24  44  65  87 120 157 183 209 260
#     4   9  17  28  44  67  92 120 152 185 223 270
#     4   9  15  27  46  65  88 123 158 182 214 267
#     4  10  18  29  47  68  90 123 162 188 216 266
#     4  10  20  31  45  67  93 121 153 189 230 271
#     4   9  16  27  44  65  90 119 150 183 221 267
#     4  10  19  32  47  63  90 126 156 185 226 270
#
# _framework density 15.566167
#
# number of rings (size 3 to 8) (size 9 to 14) (size 15 to 20)
#    0.000    2.500    3.750    0.000    0.000    1.000 
#    0.000    0.625    0.000    1.500    0.000    0.875 
#    0.000    2.000    0.000    0.000    0.000    0.000 
#
# Total GULP energy -396525.096081 kJ/mol
# GULP energy per Si atom -12391.409253 kJ/mol
# Density = 1.553074 g / cm^3
# Si number density = 15.566167 Si / 1000 Ang^3
#
#
#
# Elastic Constant Matrix: (Units=GPa)
#
#
# Indices 1 2 3 4 5 6 
#
# 1 35.6732 37.0694 30.6791 0.0000 0.0000 0.0000
# 2 37.0694 114.0486 37.0286 0.0000 0.0000 0.0000
# 3 30.6791 37.0286 74.1582 0.0000 0.0000 0.0000
# 4 0.0000 0.0000 0.0000 22.2557 0.0000 0.0000
# 5 0.0000 0.0000 0.0000 0.0000 20.4417 0.0000
# 6 0.0000 0.0000 0.0000 0.0000 0.0000 24.7530
#
#
#
# Elastic Compliance Matrix: (Units=1/GPa)
#
#
# Indices 1 2 3 4 5 6 
#
# 1 0.055461 -0.012624 -0.016641 0.000000 0.000000 0.000000
# 2 -0.012624 0.013338 -0.001437 0.000000 0.000000 0.000000
# 3 -0.016641 -0.001437 0.021087 0.000000 0.000000 0.000000
# 4 0.000000 0.000000 0.000000 0.044932 0.000000 0.000000
# 5 0.000000 0.000000 0.000000 0.000000 0.048920 0.000000
# 6 0.000000 0.000000 0.000000 0.000000 0.000000 0.040399
#
#
# Mechanical properties :
#
#
# Convention : Reuss Voigt Hill
#
# Bulk Modulus (GPa) = 35.11025 48.15935 41.63480
# Shear Modulus (GPa) = 16.94710 21.43028 19.18869
#
# Velocity S-wave (km/s) = 3.30315 3.71445 3.51482
# Velocity P-wave (km/s) = 6.09526 7.02864 6.57852
#
# Compressibility (1/GPa) = 0.02848171
#
# Stress axis : x y z
#
# Youngs Moduli (GPa) = 18.03055 74.97344 47.42313
#
# Poissons Ratio (x) = 0.94645 0.78916
# Poissons Ratio (y) = 0.22761 0.06817
# Poissons Ratio (z) = 0.30005 0.10777
#
# Static dielectric constant tensor:
#      x y z
#    x 2.744500 0.000000 0.000000 
#    y 0.000000 3.083020 0.000000 
#    z 0.000000 0.000000 2.774780 
# 
# 
# High freq. dielectric constant tensor:
#      x y z
#    x 1.571310 0.000000 0.000000 
#    y 0.000000 1.596670 0.000000 
#    z 0.000000 0.000000 1.572950 
# 
# From -- ./inp_files/11475.got.cif
#   From: 2010.03.12/outbox.cif.g09.slc.cpg/sg40_6_cif.got.tgz:11475.got - 2010.04.14 01:38:03.
