data_PCOD8182945
_publ_section_title
;
Structure prediction by ZEFSAII (Michael W. Deem and Ramdas Pophale) SiO2 
 PCOD8182945
Probable space group: A M A 2
;
_chemical_formula_sum "Si O2"
_cell_formula_units_Z 64
_cell_length_a 9.391504
_cell_length_b 16.233190
_cell_length_c 21.969490
_cell_angle_alpha 90.000000
_cell_angle_beta 90.000000
_cell_angle_gamma 90.000000
_cell_volume 3349.338140
_symmetry_space_group_name_H-M "A M A 2"
_symmetry_group_IT_number 40
_symmetry_cell_setting 'orthorhombic'
loop_
_space_group_symop_operation_xyz
x,y,z
-x,-y,z
1/2-x,y,z
1/2+x,-y,z
x,1/2+y,1/2+z
-x,1/2-y,1/2+z
1/2-x,1/2+y,1/2+z
1/2+x,1/2-y,1/2+z
loop_
_atom_site_type_symbol
_atom_site_label
_atom_site_fract_x
_atom_site_fract_y
_atom_site_fract_z
Si Si1 0.415148 0.419988 0.136580
Si Si2 0.590083 0.924601 0.247188
Si Si3 0.914137 0.241494 0.567897
Si Si4 0.412213 0.783166 0.303656
Si Si5 0.408387 0.367960 0.271164
Si Si6 0.590593 0.574920 0.402061
Si Si7 0.089978 0.229094 0.933671
Si Si8 0.911279 0.421109 0.602934
O O1 0.500000 0.500000 0.111982
O O2 0.250000 0.430710 0.118294
O O3 0.478732 0.335413 0.106250
O O4 0.436140 0.416877 0.209122
O O5 0.750000 0.932337 0.272115
O O6 0.520506 0.843247 0.272166
O O7 0.586997 0.922539 0.175133
O O8 0.500000 0.000000 0.273625
O O9 0.750000 0.247810 0.587019
O O10 0.936374 0.221632 0.496388
O O11 0.979809 0.332634 0.582551
O O12 0.250000 0.798596 0.282314
O O13 0.461709 0.694178 0.280928
O O14 0.425947 0.791248 0.376841
O O15 0.250000 0.325498 0.268110
O O16 0.410718 0.429331 0.328562
O O17 0.500000 0.500000 0.428833
O O18 0.750000 0.567914 0.427387
O O19 0.525398 0.658091 0.428339
O O20 0.250000 0.190903 0.933223
O O21 0.750000 0.429709 0.577962
O O22 0.000000 0.500000 0.577619
#
# Coordination Sequence:
#
# PCOD8182945 Si02
#       8
#     8   8   8   8   8   8   8   8
#     4  10  20  35  55  78 103 134 173 215 261 310
#     4  10  19  32  51  75 103 131 162 204 254 307
#     4   9  18  35  56  74 100 139 175 209 254 305
#     4  10  19  31  50  75 101 131 167 206 251 301
#     4   9  18  32  51  75 103 133 163 200 251 308
#     4  10  19  31  49  74 104 134 163 200 247 299
#     4   9  19  35  52  70  96 132 172 209 246 296
#     4   9  18  33  54  79 105 134 167 205 253 308
#
# _framework density 19.108253000000001
#
# number of rings (size 3 to 8) (size 9 to 14) (size 15 to 20)
#    0.000    2.500    0.000    2.250    0.000    4.500 
#    0.000    3.750    0.000    1.500    0.000    0.000 
#    0.000    0.000    0.000    0.000    0.000    0.000 
#
# Total GULP energy -396643.275401 kJ/mol
# GULP energy per Si atom -12395.102356 kJ/mol
# Density = 1.906476 g / cm^3
# Si number density = 19.108253 Si / 1000 Ang^3
#
#
#
# Elastic Constant Matrix: (Units=GPa)
#
#
# Indices 1 2 3 4 5 6 
#
# 1 101.7430 32.6509 16.2963 0.0000 0.0000 0.0000
# 2 32.6509 87.1244 8.6695 0.0000 0.0000 0.0000
# 3 16.2963 8.6695 30.4019 0.0000 0.0000 0.0000
# 4 0.0000 0.0000 0.0000 11.8204 0.0000 0.0000
# 5 0.0000 0.0000 0.0000 0.0000 22.8053 0.0000
# 6 0.0000 0.0000 0.0000 0.0000 0.0000 35.5386
#
#
#
# Elastic Compliance Matrix: (Units=1/GPa)
#
#
# Indices 1 2 3 4 5 6 
#
# 1 0.011941 -0.003950 -0.005274 0.000000 0.000000 0.000000
# 2 -0.003950 0.013120 -0.001624 0.000000 0.000000 0.000000
# 3 -0.005274 -0.001624 0.036183 0.000000 0.000000 0.000000
# 4 0.000000 0.000000 0.000000 0.084600 0.000000 0.000000
# 5 0.000000 0.000000 0.000000 0.000000 0.043850 0.000000
# 6 0.000000 0.000000 0.000000 0.000000 0.000000 0.028138
#
#
# Mechanical properties :
#
#
# Convention : Reuss Voigt Hill
#
# Bulk Modulus (GPa) = 25.28634 37.16698 31.22666
# Shear Modulus (GPa) = 19.78545 24.80967 22.29756
#
# Velocity S-wave (km/s) = 3.22132 3.60721 3.41971
# Velocity P-wave (km/s) = 5.20555 6.06978 5.65420
#
# Compressibility (1/GPa) = 0.03954704
#
# Stress axis : x y z
#
# Youngs Moduli (GPa) = 83.74370 76.22046 27.63733
#
# Poissons Ratio (x) = 0.30109 0.14577
# Poissons Ratio (y) = 0.33081 0.04488
# Poissons Ratio (z) = 0.44169 0.12377
#
# Static dielectric constant tensor:
#      x y z
#    x 3.308380 0.000000 0.000000 
#    y 0.000000 3.426720 0.000000 
#    z 0.000000 0.000000 3.459120 
# 
# 
# High freq. dielectric constant tensor:
#      x y z
#    x 1.735620 0.000000 0.000000 
#    y 0.000000 1.728450 0.000000 
#    z 0.000000 0.000000 1.734890 
# 
# From -- ./inp_files/24276.got.cif
#   From: 2010.03.12/outbox.cif.g09.slc.cpg/sg40_13_cif.got.tgz:24276.got - 2010.04.14 01:38:03.
