data_PCOD8182468
_publ_section_title
;
Structure prediction by ZEFSAII (Michael W. Deem and Ramdas Pophale) SiO2 
 PCOD8182468
Probable space group: A M A 2
;
_chemical_formula_sum "Si O2"
_cell_formula_units_Z 64
_cell_length_a 9.183546
_cell_length_b 18.696519
_cell_length_c 21.322350
_cell_angle_alpha 90.000000
_cell_angle_beta 90.000000
_cell_angle_gamma 90.000000
_cell_volume 3661.054793
_symmetry_space_group_name_H-M "A M A 2"
_symmetry_group_IT_number 40
_symmetry_cell_setting 'orthorhombic'
loop_
_space_group_symop_operation_xyz
x,y,z
-x,-y,z
1/2-x,y,z
1/2+x,-y,z
x,1/2+y,1/2+z
-x,1/2-y,1/2+z
1/2-x,1/2+y,1/2+z
1/2+x,1/2-y,1/2+z
loop_
_atom_site_type_symbol
_atom_site_label
_atom_site_fract_x
_atom_site_fract_y
_atom_site_fract_z
Si Si1 0.925493 0.273669 0.273060
Si Si2 0.421254 0.141246 0.328557
Si Si3 0.414030 0.835174 0.564102
Si Si4 0.924008 0.073957 0.446323
Si Si5 0.415479 0.570393 0.695928
Si Si6 0.417719 0.218911 0.152661
Si Si7 0.591492 0.436476 0.138228
Si Si8 0.590422 0.933427 0.785768
O O1 0.750000 0.266149 0.273420
O O2 0.972866 0.353407 0.296901
O O3 0.000668 0.218022 0.320703
O O4 0.982399 0.261115 0.202559
O O5 0.250000 0.151634 0.343739
O O6 0.503009 0.097641 0.382084
O O7 0.445554 0.093906 0.267029
O O8 0.250000 0.861824 0.574900
O O9 0.462917 0.862020 0.495625
O O10 0.428642 0.750420 0.581063
O O11 0.512557 0.864276 0.619985
O O12 0.750000 0.063737 0.438370
O O13 0.000000 0.000000 0.468353
O O14 0.500000 0.500000 0.676562
O O15 0.250000 0.550017 0.685433
O O16 0.464199 0.635697 0.650468
O O17 0.250000 0.223685 0.177449
O O18 0.500000 0.500000 0.106815
O O19 0.750000 0.438057 0.106975
O O20 0.602755 0.445008 0.211910
O O21 0.750000 0.938470 0.816484
O O22 0.500000 0.000000 0.815132
#
# Coordination Sequence:
#
# PCOD8182468 Si02
#       8
#     8   8   8   8   8   8   8   8
#     4  10  18  31  49  73 100 128 165 210 256 302
#     4  10  21  36  53  73  97 132 172 211 256 304
#     4  10  20  33  49  68  95 132 170 207 249 292
#     4  11  23  37  52  73 100 135 175 215 253 296
#     4   9  18  31  49  73  98 124 156 195 246 299
#     4   9  18  32  48  69  98 131 165 202 246 304
#     4  10  18  28  41  62  91 126 165 199 236 283
#     4   9  18  28  41  65  96 128 161 197 240 292
#
# _framework density 17.481300000000001
#
# number of rings (size 3 to 8) (size 9 to 14) (size 15 to 20)
#    0.000    2.250    1.250    3.000    0.000    7.000 
#    0.000    0.000    0.000    0.000    0.000    0.875 
#    0.000    2.000    0.000    0.000    0.000    0.125 
#
# Total GULP energy -396449.873481 kJ/mol
# GULP energy per Si atom -12389.058546 kJ/mol
# Density = 1.744151 g / cm^3
# Si number density = 17.481300 Si / 1000 Ang^3
#
#
#
# Elastic Constant Matrix: (Units=GPa)
#
#
# Indices 1 2 3 4 5 6 
#
# 1 82.8824 52.6310 24.5125 0.0000 0.0000 0.0000
# 2 52.6310 140.8735 36.7882 0.0000 0.0000 0.0000
# 3 24.5125 36.7882 51.1453 0.0000 0.0000 0.0000
# 4 0.0000 0.0000 0.0000 22.3299 0.0000 0.0000
# 5 0.0000 0.0000 0.0000 0.0000 -134.6108 0.0000
# 6 0.0000 0.0000 0.0000 0.0000 0.0000 31.4276
#
#
#
# Elastic Compliance Matrix: (Units=1/GPa)
#
#
# Indices 1 2 3 4 5 6 
#
# 1 0.016549 -0.005062 -0.004290 0.000000 0.000000 0.000000
# 2 -0.005062 0.010289 -0.004974 0.000000 0.000000 0.000000
# 3 -0.004290 -0.004974 0.025186 0.000000 0.000000 0.000000
# 4 0.000000 0.000000 0.000000 0.044783 0.000000 0.000000
# 5 0.000000 0.000000 0.000000 0.000000 -0.007429 0.000000
# 6 0.000000 0.000000 0.000000 0.000000 0.000000 0.031819
#
#
# Mechanical properties :
#
#
# Convention : Reuss Voigt Hill
#
# Bulk Modulus (GPa) = 42.78949 55.86273 49.32611
# Shear Modulus (GPa) = 31.71762 -5.43937 13.13913
#
# Velocity S-wave (km/s) = 4.26417 -1.76587 2.74453
# Velocity P-wave (km/s) = 6.98388 5.27895 6.19039
#
# Compressibility (1/GPa) = 0.02337023
#
# Stress axis : x y z
#
# Youngs Moduli (GPa) = 60.42770 97.19177 39.70412
#
# Poissons Ratio (x) = 0.49202 0.17033
# Poissons Ratio (y) = 0.30591 0.19751
# Poissons Ratio (z) = 0.25924 0.48348
#
# Static dielectric constant tensor:
#      x y z
#    x 3.994830 0.000000 0.000000 
#    y 0.000000 3.529290 0.000000 
#    z 0.000000 0.000000 2.859150 
# 
# 
# High freq. dielectric constant tensor:
#      x y z
#    x 1.686880 0.000000 0.000000 
#    y 0.000000 1.682870 0.000000 
#    z 0.000000 0.000000 1.622360 
# 
# From -- ./inp_files/24385.got.cif
#   From: 2010.03.12/outbox.cif.g09.slc.cpg/sg40_13_cif.got.tgz:24385.got - 2010.04.14 01:38:03.
