data_PCOD8182049
_publ_section_title
;
Structure prediction by ZEFSAII (Michael W. Deem and Ramdas Pophale) SiO2 
 PCOD8182049
Probable space group: A B M 2
;
_chemical_formula_sum "Si O2"
_cell_formula_units_Z 56
_cell_length_a 14.694240
_cell_length_b 8.875703
_cell_length_c 20.913360
_cell_angle_alpha 90.000000
_cell_angle_beta 90.000000
_cell_angle_gamma 90.000000
_cell_volume 2727.556174
_symmetry_space_group_name_H-M "A B M 2"
_symmetry_group_IT_number 39
_symmetry_cell_setting 'orthorhombic'
loop_
_space_group_symop_operation_xyz
x,y,z
-x,-y,z
-x,1/2+y,z
x,1/2-y,z
x,1/2+y,1/2+z
-x,1/2-y,1/2+z
-x,y,1/2+z
x,-y,1/2+z
loop_
_atom_site_type_symbol
_atom_site_label
_atom_site_fract_x
_atom_site_fract_y
_atom_site_fract_z
Si Si1 0.781054 0.928534 0.818480
Si Si2 0.399998 0.071264 0.998486
Si Si3 0.904012 0.072671 0.201637
Si Si4 0.595639 0.077707 0.264027
Si Si5 0.903644 0.572728 0.557875
Si Si6 0.403537 0.075233 0.623563
Si Si7 0.230582 0.928298 0.946183
O O1 0.792605 0.750000 0.827592
O O2 0.833918 0.984951 0.755328
O O3 0.674729 0.975430 0.811566
O O4 0.818240 0.016302 0.880812
O O5 0.408017 0.250000 0.995147
O O6 0.500000 0.000000 0.988055
O O7 0.329027 0.010439 0.946427
O O8 0.355605 0.015706 0.066201
O O9 0.915641 0.250000 0.205671
O O10 0.871083 0.027080 0.129775
O O11 0.000000 0.000000 0.217697
O O12 0.571677 0.250000 0.274412
O O13 0.641156 0.055758 0.193203
O O14 0.500000 0.000000 0.277884
O O15 0.916332 0.750000 0.552412
O O16 0.829820 0.516900 0.506269
O O17 0.000000 0.500000 0.541048
O O18 0.410435 0.250000 0.603080
O O19 0.500000 0.000000 0.632697
O O20 0.243915 0.750000 0.946233
#
# Coordination Sequence:
#
# PCOD8182049 Si02
#       7
#     8   8   8   8   8   8   8
#     4  10  22  39  58  83 117 159 198 237 293 351
#     4  11  22  37  57  83 116 156 200 246 295 348
#     4   9  19  38  64  89 115 149 190 239 294 352
#     4   9  19  34  55  80 112 154 195 238 287 342
#     4   9  20  39  65  91 117 151 193 241 297 354
#     4   9  16  29  51  78 108 142 186 237 288 341
#     4  11  24  40  59  86 120 159 200 244 295 352
#
# _framework density 20.531199000000001
#
# number of rings (size 3 to 8) (size 9 to 14) (size 15 to 20)
#    0.000    2.286    0.000    3.000    2.000    4.000 
#    0.000    4.286    0.000    0.000    0.000    0.000 
#    0.000    0.000    0.000    0.000    0.000    0.000 
#
# Total GULP energy -347000.786816 kJ/mol
# GULP energy per Si atom -12392.885243 kJ/mol
# Density = 2.048447 g / cm^3
# Si number density = 20.531199 Si / 1000 Ang^3
#
#
#
# Elastic Constant Matrix: (Units=GPa)
#
#
# Indices 1 2 3 4 5 6 
#
# 1 100.0516 41.5428 74.1837 0.0000 0.0000 0.0000
# 2 41.5428 83.9446 48.4281 0.0000 0.0000 0.0000
# 3 74.1837 48.4281 141.2632 0.0000 0.0000 0.0000
# 4 0.0000 0.0000 0.0000 32.0231 0.0000 0.0000
# 5 0.0000 0.0000 0.0000 0.0000 32.1035 0.0000
# 6 0.0000 0.0000 0.0000 0.0000 0.0000 29.2783
#
#
#
# Elastic Compliance Matrix: (Units=1/GPa)
#
#
# Indices 1 2 3 4 5 6 
#
# 1 0.017470 -0.004180 -0.007742 0.000000 0.000000 0.000000
# 2 -0.004180 0.015849 -0.003239 0.000000 0.000000 0.000000
# 3 -0.007742 -0.003239 0.012255 0.000000 0.000000 0.000000
# 4 0.000000 0.000000 0.000000 0.031227 0.000000 0.000000
# 5 0.000000 0.000000 0.000000 0.000000 0.031149 0.000000
# 6 0.000000 0.000000 0.000000 0.000000 0.000000 0.034155
#
#
# Mechanical properties :
#
#
# Convention : Reuss Voigt Hill
#
# Bulk Modulus (GPa) = 65.55315 72.61875 69.08595
# Shear Modulus (GPa) = 28.16731 29.42129 28.79430
#
# Velocity S-wave (km/s) = 3.70797 3.78961 3.74901
# Velocity P-wave (km/s) = 7.09436 7.38884 7.24310
#
# Compressibility (1/GPa) = 0.01525480
#
# Stress axis : x y z
#
# Youngs Moduli (GPa) = 57.23998 63.09378 81.60125
#
# Poissons Ratio (x) = 0.26371 0.63172
# Poissons Ratio (y) = 0.23924 0.26428
# Poissons Ratio (z) = 0.44313 0.20434
#
# Static dielectric constant tensor:
#      x y z
#    x 3.433200 0.000000 0.000000 
#    y 0.000000 3.581460 0.000000 
#    z 0.000000 0.000000 4.526430 
# 
# 
# High freq. dielectric constant tensor:
#      x y z
#    x 1.788540 0.000000 0.000000 
#    y 0.000000 1.793960 0.000000 
#    z 0.000000 0.000000 1.815920 
# 
# From -- ./inp_files/14804.got.cif
#   From: 2010.03.12/outbox.cif.g09.slc.cpg/sg39_8_cif.got.tgz:14804.got - 2010.04.14 02:53:20.
