data_PCOD8182492
_publ_section_title
;
Structure prediction by ZEFSAII (Michael W. Deem and Ramdas Pophale) SiO2 
 PCOD8182492
Probable space group: A M A 2
;
_chemical_formula_sum "Si O2"
_cell_formula_units_Z 64
_cell_length_a 8.744461
_cell_length_b 26.516035
_cell_length_c 18.056982
_cell_angle_alpha 90.000000
_cell_angle_beta 90.000000
_cell_angle_gamma 90.000000
_cell_volume 4186.844138
_symmetry_space_group_name_H-M "A M A 2"
_symmetry_group_IT_number 40
_symmetry_cell_setting 'orthorhombic'
loop_
_space_group_symop_operation_xyz
x,y,z
-x,-y,z
1/2-x,y,z
1/2+x,-y,z
x,1/2+y,1/2+z
-x,1/2-y,1/2+z
1/2-x,1/2+y,1/2+z
1/2+x,1/2-y,1/2+z
loop_
_atom_site_type_symbol
_atom_site_label
_atom_site_fract_x
_atom_site_fract_y
_atom_site_fract_z
Si Si1 0.428821 0.259825 0.978530
Si Si2 0.919433 0.298085 0.198148
Si Si3 0.580038 0.199374 0.098703
Si Si4 0.569622 0.854710 0.556929
Si Si5 0.931044 0.053169 0.478509
Si Si6 0.428058 0.148473 0.226952
Si Si7 0.069182 0.052722 0.320752
Si Si8 0.427353 0.244660 0.322595
O O1 0.250000 0.269815 0.987738
O O2 0.469208 0.247616 0.894207
O O3 0.476664 0.211043 0.027010
O O4 0.518861 0.309676 0.003070
O O5 0.750000 0.308704 0.230207
O O6 0.915901 0.248533 0.148701
O O7 0.970942 0.342994 0.142980
O O8 0.036768 0.290679 0.265883
O O9 0.750000 0.184408 0.072189
O O10 0.512226 0.153988 0.148089
O O11 0.750000 0.862296 0.545654
O O12 0.479301 0.905308 0.538022
O O13 0.750000 0.048835 0.473564
O O14 0.996531 0.068841 0.398673
O O15 0.000000 0.000000 0.504507
O O16 0.250000 0.152669 0.210470
O O17 0.474489 0.094696 0.260595
O O18 0.475407 0.191831 0.285102
O O19 0.250000 0.047739 0.331534
O O20 0.000000 0.000000 0.292499
O O21 0.250000 0.245999 0.344438
#
# Coordination Sequence:
#
# PCOD8182492 Si02
#       8
#     8   8   8   8   8   8   8   8
#     4  11  20  29  43  63  88 116 147 178 212 256
#     4   8  16  29  43  60  83 110 139 174 214 255
#     4   9  17  29  44  61  83 110 141 177 214 254
#     4  10  19  32  47  63  86 114 146 181 217 256
#     4  11  21  32  46  64  87 115 148 183 219 255
#     4   9  18  30  44  61  83 113 145 179 217 256
#     4  10  19  31  45  62  87 116 148 185 221 255
#     4  10  18  28  43  62  86 114 145 179 214 253
#
# _framework density 15.285976
#
# number of rings (size 3 to 8) (size 9 to 14) (size 15 to 20)
#    0.000    2.250    0.000    6.000    0.000    6.000 
#    0.000    0.000    0.000    0.000    0.000    0.000 
#    0.000    1.000    0.000    8.250    0.000    5.250 
#
# Total GULP energy -396779.137650 kJ/mol
# GULP energy per Si atom -12399.348052 kJ/mol
# Density = 1.525118 g / cm^3
# Si number density = 15.285976 Si / 1000 Ang^3
#
#
#
# Elastic Constant Matrix: (Units=GPa)
#
#
# Indices 1 2 3 4 5 6 
#
# 1 82.6398 34.3834 33.4111 0.0000 0.0000 0.0000
# 2 34.3834 79.9087 45.2258 0.0000 0.0000 0.0000
# 3 33.4111 45.2258 74.8456 0.0000 0.0000 0.0000
# 4 0.0000 0.0000 0.0000 25.3024 0.0000 0.0000
# 5 0.0000 0.0000 0.0000 0.0000 27.2808 0.0000
# 6 0.0000 0.0000 0.0000 0.0000 0.0000 23.3464
#
#
#
# Elastic Compliance Matrix: (Units=1/GPa)
#
#
# Indices 1 2 3 4 5 6 
#
# 1 0.015651 -0.004225 -0.004434 0.000000 0.000000 0.000000
# 2 -0.004225 0.020159 -0.010295 0.000000 0.000000 0.000000
# 3 -0.004434 -0.010295 0.021561 0.000000 0.000000 0.000000
# 4 0.000000 0.000000 0.000000 0.039522 0.000000 0.000000
# 5 0.000000 0.000000 0.000000 0.000000 0.036656 0.000000
# 6 0.000000 0.000000 0.000000 0.000000 0.000000 0.042833
#
#
# Mechanical properties :
#
#
# Convention : Reuss Voigt Hill
#
# Bulk Modulus (GPa) = 51.37863 51.49273 51.43568
# Shear Modulus (GPa) = 22.64726 23.47750 23.06238
#
# Velocity S-wave (km/s) = 3.85329 3.92329 3.88845
# Velocity P-wave (km/s) = 7.31312 7.36765 7.34044
#
# Compressibility (1/GPa) = 0.01946335
#
# Stress axis : x y z
#
# Youngs Moduli (GPa) = 63.89313 49.60572 46.38039
#
# Poissons Ratio (x) = 0.20959 0.20563
# Poissons Ratio (y) = 0.26996 0.47749
# Poissons Ratio (z) = 0.28328 0.51069
#
# Static dielectric constant tensor:
#      x y z
#    x 3.068760 0.000000 0.000000 
#    y 0.000000 2.830240 0.000000 
#    z 0.000000 0.000000 2.945980 
# 
# 
# High freq. dielectric constant tensor:
#      x y z
#    x 1.602500 0.000000 0.000000 
#    y 0.000000 1.552540 0.000000 
#    z 0.000000 0.000000 1.571660 
# 
# From -- ./inp_files/15655.got.cif
#   From: 2010.03.12/outbox.cif.g09.slc.cpg/sg40_8_cif.got.tgz:15655.got - 2010.04.14 01:38:03.
