data_PCOD8182073
_publ_section_title
;
Structure prediction by ZEFSAII (Michael W. Deem and Ramdas Pophale) SiO2 
 PCOD8182073
Probable space group: A B M 2
;
_chemical_formula_sum "Si O2"
_cell_formula_units_Z 48
_cell_length_a 26.182673
_cell_length_b 9.002577
_cell_length_c 9.952930
_cell_angle_alpha 90.000000
_cell_angle_beta 90.000000
_cell_angle_gamma 90.000000
_cell_volume 2346.020356
_symmetry_space_group_name_H-M "A B M 2"
_symmetry_group_IT_number 39
_symmetry_cell_setting 'orthorhombic'
loop_
_space_group_symop_operation_xyz
x,y,z
-x,-y,z
-x,1/2+y,z
x,1/2-y,z
x,1/2+y,1/2+z
-x,1/2-y,1/2+z
-x,y,1/2+z
x,-y,1/2+z
loop_
_atom_site_type_symbol
_atom_site_label
_atom_site_fract_x
_atom_site_fract_y
_atom_site_fract_z
Si Si1 0.783441 0.578534 0.873070
Si Si2 0.553505 0.076374 0.430757
Si Si3 0.051891 0.077852 0.127143
Si Si4 0.610609 0.422713 0.699757
Si Si5 0.111004 0.578027 0.895563
Si Si6 0.274222 0.420645 0.141280
O O1 0.798691 0.750000 0.857693
O O2 0.833228 0.488777 0.915950
O O3 0.761417 0.521808 0.732946
O O4 0.740724 0.554425 0.986746
O O5 0.546897 0.250000 0.407896
O O6 0.571528 0.038429 0.580567
O O7 0.500000 0.000000 0.400151
O O8 0.596151 0.018195 0.328755
O O9 0.040789 0.250000 0.099990
O O10 0.094246 0.055648 0.241832
O O11 0.000000 0.000000 0.174765
O O12 0.071105 0.005071 0.990196
O O13 0.607843 0.250000 0.737167
O O14 0.667176 0.469323 0.654828
O O15 0.112040 0.750000 0.936223
O O16 0.265971 0.250000 0.184547
#
# Coordination Sequence:
#
# PCOD8182073 Si02
#       6
#     8   8   8   8   8   8
#     4  11  23  39  61  89 120 155 197 243 291 347
#     4  11  23  39  60  87 118 153 195 241 291 348
#     4  11  24  41  62  89 120 155 197 244 293 348
#     4  10  22  40  61  86 117 153 194 241 291 346
#     4  11  24  41  62  89 121 158 199 243 293 348
#     4  10  22  40  60  86 120 154 193 242 293 347
#
# _framework density 20.460180999999999
#
# number of rings (size 3 to 8) (size 9 to 14) (size 15 to 20)
#    0.000    1.333    0.000    5.000    0.000   14.000 
#    0.000    0.000    0.000    0.000    0.000    0.000 
#    0.000    0.000    0.000    0.000    0.000    0.000 
#
# Total GULP energy -297800.805746 kJ/mol
# GULP energy per Si atom -12408.366906 kJ/mol
# Density = 2.041361 g / cm^3
# Si number density = 20.460181 Si / 1000 Ang^3
#
#
#
# Elastic Constant Matrix: (Units=GPa)
#
#
# Indices 1 2 3 4 5 6 
#
# 1 96.1578 38.8023 4.5554 0.0000 0.0000 0.0000
# 2 38.8023 111.4431 43.6159 0.0000 0.0000 0.0000
# 3 4.5554 43.6159 68.3710 0.0000 0.0000 0.0000
# 4 0.0000 0.0000 0.0000 25.2912 0.0000 0.0000
# 5 0.0000 0.0000 0.0000 0.0000 39.6854 0.0000
# 6 0.0000 0.0000 0.0000 0.0000 0.0000 34.7087
#
#
#
# Elastic Compliance Matrix: (Units=1/GPa)
#
#
# Indices 1 2 3 4 5 6 
#
# 1 0.012431 -0.005336 0.002576 0.000000 0.000000 0.000000
# 2 -0.005336 0.014250 -0.008735 0.000000 0.000000 0.000000
# 3 0.002576 -0.008735 0.020027 0.000000 0.000000 0.000000
# 4 0.000000 0.000000 0.000000 0.039539 0.000000 0.000000
# 5 0.000000 0.000000 0.000000 0.000000 0.025198 0.000000
# 6 0.000000 0.000000 0.000000 0.000000 0.000000 0.028811
#
#
# Mechanical properties :
#
#
# Convention : Reuss Voigt Hill
#
# Bulk Modulus (GPa) = 42.16394 49.99101 46.07747
# Shear Modulus (GPa) = 29.21377 32.53695 30.87536
#
# Velocity S-wave (km/s) = 3.78277 3.99213 3.88886
# Velocity P-wave (km/s) = 6.30331 6.76283 6.53711
#
# Compressibility (1/GPa) = 0.02371695
#
# Stress axis : x y z
#
# Youngs Moduli (GPa) = 80.44468 70.17657 49.93348
#
# Poissons Ratio (x) = 0.37449 -0.12863
# Poissons Ratio (y) = 0.42928 0.43616
# Poissons Ratio (z) = -0.20722 0.61298
#
# Static dielectric constant tensor:
#      x y z
#    x 3.868720 0.000000 0.000000 
#    y 0.000000 3.779010 0.000000 
#    z 0.000000 0.000000 3.669850 
# 
# 
# High freq. dielectric constant tensor:
#      x y z
#    x 1.813130 0.000000 0.000000 
#    y 0.000000 1.807280 0.000000 
#    z 0.000000 0.000000 1.807750 
# 
# From -- ./inp_files/4137.got.cif
#   From: 2010.03.12/outbox.cif.g09.slc.cpg/sg39_3_cif.got.tgz:4137.got - 2010.04.14 02:53:20.
