data_PCOD8182597
_publ_section_title
;
Structure prediction by ZEFSAII (Michael W. Deem and Ramdas Pophale) SiO2 
 PCOD8182597
Probable space group: A M A 2
;
_chemical_formula_sum "Si O2"
_cell_formula_units_Z 64
_cell_length_a 8.641003
_cell_length_b 30.279946
_cell_length_c 14.383047
_cell_angle_alpha 90.000000
_cell_angle_beta 90.000000
_cell_angle_gamma 90.000000
_cell_volume 3763.311364
_symmetry_space_group_name_H-M "A M A 2"
_symmetry_group_IT_number 40
_symmetry_cell_setting 'orthorhombic'
loop_
_space_group_symop_operation_xyz
x,y,z
-x,-y,z
1/2-x,y,z
1/2+x,-y,z
x,1/2+y,1/2+z
-x,1/2-y,1/2+z
1/2-x,1/2+y,1/2+z
1/2+x,1/2-y,1/2+z
loop_
_atom_site_type_symbol
_atom_site_label
_atom_site_fract_x
_atom_site_fract_y
_atom_site_fract_z
Si Si1 0.070540 0.631207 0.914140
Si Si2 0.432093 0.727878 0.593018
Si Si3 0.434417 0.714725 0.798144
Si Si4 0.567349 0.301826 0.395479
Si Si5 0.932842 0.453708 0.172665
Si Si6 0.074156 0.373122 0.270836
Si Si7 0.426260 0.825530 0.580230
Si Si8 0.567683 0.546309 0.970222
O O1 0.250000 0.623324 0.895990
O O2 0.004861 0.670327 0.848830
O O3 0.983540 0.584544 0.897619
O O4 0.039214 0.643812 0.020946
O O5 0.250000 0.732494 0.603543
O O6 0.495642 0.710115 0.691753
O O7 0.477658 0.697618 0.505255
O O8 0.496518 0.776633 0.572506
O O9 0.250000 0.717968 0.804768
O O10 0.501613 0.758363 0.845736
O O11 0.750000 0.301609 0.380623
O O12 0.497203 0.347443 0.358224
O O13 0.750000 0.457089 0.160816
O O14 0.000000 0.500000 0.209572
O O15 0.976199 0.416821 0.248487
O O16 0.006846 0.442039 0.073166
O O17 0.250000 0.387032 0.292829
O O18 0.066422 0.338865 0.186874
O O19 0.250000 0.829417 0.542096
O O20 0.500000 0.500000 0.934255
O O21 0.750000 0.542896 0.974808
#
# Coordination Sequence:
#
# PCOD8182597 Si02
#       8
#     8   8   8   8   8   8   8   8
#     4  11  21  31  49  75 102 133 173 213 253 303
#     4   9  18  34  50  67  97 136 173 211 255 299
#     4  10  20  35  51  70  99 136 174 212 256 305
#     4  11  21  32  50  74  99 132 175 217 254 300
#     4  11  21  34  52  76 104 133 170 208 250 302
#     4  11  21  34  51  72 102 140 173 206 255 305
#     4  10  18  30  49  68  98 138 172 205 249 300
#     4  11  21  34  51  72 103 136 168 206 253 304
#
# _framework density 17.0063
#
# number of rings (size 3 to 8) (size 9 to 14) (size 15 to 20)
#    0.000    1.500    3.750    4.125    0.000    1.000 
#    0.000    1.250    0.000    0.000    0.000    0.875 
#    0.000    4.000    0.000    0.000    0.000    0.000 
#
# Total GULP energy -396751.292318 kJ/mol
# GULP energy per Si atom -12398.477885 kJ/mol
# Density = 1.696759 g / cm^3
# Si number density = 17.006300 Si / 1000 Ang^3
#
#
#
# Elastic Constant Matrix: (Units=GPa)
#
#
# Indices 1 2 3 4 5 6 
#
# 1 88.0451 37.0280 22.7120 0.0000 0.0000 0.0000
# 2 37.0280 116.0389 32.6152 0.0000 0.0000 0.0000
# 3 22.7120 32.6152 71.0137 0.0000 0.0000 0.0000
# 4 0.0000 0.0000 0.0000 26.7023 0.0000 0.0000
# 5 0.0000 0.0000 0.0000 0.0000 16.4572 0.0000
# 6 0.0000 0.0000 0.0000 0.0000 0.0000 29.3137
#
#
#
# Elastic Compliance Matrix: (Units=1/GPa)
#
#
# Indices 1 2 3 4 5 6 
#
# 1 0.013554 -0.003567 -0.002697 0.000000 0.000000 0.000000
# 2 -0.003567 0.010834 -0.003835 0.000000 0.000000 0.000000
# 3 -0.002697 -0.003835 0.016706 0.000000 0.000000 0.000000
# 4 0.000000 0.000000 0.000000 0.037450 0.000000 0.000000
# 5 0.000000 0.000000 0.000000 0.000000 0.060764 0.000000
# 6 0.000000 0.000000 0.000000 0.000000 0.000000 0.034114
#
#
# Mechanical properties :
#
#
# Convention : Reuss Voigt Hill
#
# Bulk Modulus (GPa) = 47.85610 51.08979 49.47294
# Shear Modulus (GPa) = 24.92737 26.67748 25.80242
#
# Velocity S-wave (km/s) = 3.83269 3.96496 3.89939
# Velocity P-wave (km/s) = 6.91284 7.14619 7.03048
#
# Compressibility (1/GPa) = 0.02089598
#
# Stress axis : x y z
#
# Youngs Moduli (GPa) = 73.78148 92.30260 59.86036
#
# Poissons Ratio (x) = 0.32924 0.16141
# Poissons Ratio (y) = 0.26318 0.22956
# Poissons Ratio (z) = 0.19895 0.35398
#
# Static dielectric constant tensor:
#      x y z
#    x 3.169770 0.000000 0.000000 
#    y 0.000000 3.322700 0.000000 
#    z 0.000000 0.000000 3.154340 
# 
# 
# High freq. dielectric constant tensor:
#      x y z
#    x 1.657350 0.000000 0.000000 
#    y 0.000000 1.656830 0.000000 
#    z 0.000000 0.000000 1.623570 
# 
# From -- ./inp_files/15915.got.cif
#   From: 2010.03.12/outbox.cif.g09.slc.cpg/sg40_8_cif.got.tgz:15915.got - 2010.04.14 01:38:03.
