data_PCOD8182896
_publ_section_title
;
Structure prediction by ZEFSAII (Michael W. Deem and Ramdas Pophale) SiO2 
 PCOD8182896
Probable space group: A M A 2
;
_chemical_formula_sum "Si O2"
_cell_formula_units_Z 64
_cell_length_a 8.784104
_cell_length_b 22.515995
_cell_length_c 15.493904
_cell_angle_alpha 90.000000
_cell_angle_beta 90.000000
_cell_angle_gamma 90.000000
_cell_volume 3064.428363
_symmetry_space_group_name_H-M "A M A 2"
_symmetry_group_IT_number 40
_symmetry_cell_setting 'orthorhombic'
loop_
_space_group_symop_operation_xyz
x,y,z
-x,-y,z
1/2-x,y,z
1/2+x,-y,z
x,1/2+y,1/2+z
-x,1/2-y,1/2+z
1/2-x,1/2+y,1/2+z
1/2+x,1/2-y,1/2+z
loop_
_atom_site_type_symbol
_atom_site_label
_atom_site_fract_x
_atom_site_fract_y
_atom_site_fract_z
Si Si1 0.425809 0.564082 0.758090
Si Si2 0.076238 0.874979 0.411980
Si Si3 0.926332 0.260335 0.974584
Si Si4 0.923797 0.562230 0.084152
Si Si5 0.575969 0.937008 0.069831
Si Si6 0.926669 0.325376 0.337717
Si Si7 0.572963 0.817971 0.646179
Si Si8 0.571415 0.064804 0.901736
O O1 0.500000 0.500000 0.756686
O O2 0.250000 0.559947 0.789272
O O3 0.530328 0.603677 0.818071
O O4 0.433588 0.594889 0.662928
O O5 0.250000 0.850685 0.410751
O O6 0.059854 0.928187 0.481019
O O7 0.956670 0.824052 0.433360
O O8 0.750000 0.243145 0.967073
O O9 0.019219 0.212444 0.919807
O O10 0.979311 0.267552 0.075836
O O11 0.750000 0.557456 0.112913
O O12 0.000000 0.500000 0.110807
O O13 0.991976 0.618866 0.133266
O O14 0.750000 0.944441 0.039353
O O15 0.500000 0.000000 0.082651
O O16 0.481861 0.905393 0.993347
O O17 0.750000 0.337786 0.350904
O O18 0.958230 0.294450 0.244098
O O19 0.012430 0.388739 0.330988
O O20 0.750000 0.830274 0.630474
O O21 0.750000 0.058655 0.896975
O O22 0.500000 0.000000 0.887269
#
# Coordination Sequence:
#
# PCOD8182896 Si02
#       8
#     8   8   8   8   8   8   8   8
#     4  10  19  30  48  76 111 152 198 247 299 355
#     4  10  20  34  53  79 112 154 199 247 299 352
#     4  10  21  41  64  87 116 153 197 248 300 352
#     4  10  20  33  54  84 119 157 198 241 295 354
#     4   9  17  31  50  74 108 148 189 235 288 343
#     4  11  23  42  66  92 120 156 198 245 297 356
#     4   9  21  41  64  87 118 156 197 245 298 350
#     4  11  22  38  61  89 120 156 194 240 295 356
#
# _framework density 20.884808
#
# number of rings (size 3 to 8) (size 9 to 14) (size 15 to 20)
#    0.000    2.000    0.000    4.500    0.000    6.000 
#    2.250    0.000    0.000    0.000    0.000    0.000 
#    0.000    0.000    0.000    0.000    0.000    0.000 
#
# Total GULP energy -396557.889582 kJ/mol
# GULP energy per Si atom -12392.434049 kJ/mol
# Density = 2.083727 g / cm^3
# Si number density = 20.884808 Si / 1000 Ang^3
#
#
#
# Elastic Constant Matrix: (Units=GPa)
#
#
# Indices 1 2 3 4 5 6 
#
# 1 118.6487 32.9502 48.5219 0.0000 0.0000 0.0000
# 2 32.9502 67.1439 41.8351 0.0000 0.0000 0.0000
# 3 48.5219 41.8351 122.6309 0.0000 0.0000 0.0000
# 4 0.0000 0.0000 0.0000 24.9098 0.0000 0.0000
# 5 0.0000 0.0000 0.0000 0.0000 -250.8053 0.0000
# 6 0.0000 0.0000 0.0000 0.0000 0.0000 33.5809
#
#
#
# Elastic Compliance Matrix: (Units=1/GPa)
#
#
# Indices 1 2 3 4 5 6 
#
# 1 0.010597 -0.003286 -0.003072 0.000000 0.000000 0.000000
# 2 -0.003286 0.019933 -0.005500 0.000000 0.000000 0.000000
# 3 -0.003072 -0.005500 0.011246 0.000000 0.000000 0.000000
# 4 0.000000 0.000000 0.000000 0.040145 0.000000 0.000000
# 5 0.000000 0.000000 0.000000 0.000000 -0.003987 0.000000
# 6 0.000000 0.000000 0.000000 0.000000 0.000000 0.029779
#
#
# Mechanical properties :
#
#
# Convention : Reuss Voigt Hill
#
# Bulk Modulus (GPa) = 55.37029 61.67090 58.52059
# Shear Modulus (GPa) = 36.37716 -26.12185 5.12765
#
# Velocity S-wave (km/s) = 4.17802 -3.54044 1.56861
# Velocity P-wave (km/s) = 7.06004 3.58890 5.60020
#
# Compressibility (1/GPa) = 0.01806023
#
# Stress axis : x y z
#
# Youngs Moduli (GPa) = 94.36457 50.16850 88.91893
#
# Poissons Ratio (x) = 0.16488 0.27315
# Poissons Ratio (y) = 0.31013 0.48902
# Poissons Ratio (z) = 0.28988 0.27591
#
# Static dielectric constant tensor:
#      x y z
#    x 3.829850 0.000000 0.000000 
#    y 0.000000 3.471470 0.000000 
#    z 0.000000 0.000000 4.375030 
# 
# 
# High freq. dielectric constant tensor:
#      x y z
#    x 1.828170 0.000000 0.000000 
#    y 0.000000 1.786910 0.000000 
#    z 0.000000 0.000000 1.829570 
# 
# From -- ./inp_files/15706.got.cif
#   From: 2010.03.12/outbox.cif.g09.slc.cpg/sg40_8_cif.got.tgz:15706.got - 2010.04.14 01:38:03.
