data_PCOD8182256
_publ_section_title
;
Structure prediction by ZEFSAII (Michael W. Deem and Ramdas Pophale) SiO2 
 PCOD8182256
Probable space group: A B M 2
;
_chemical_formula_sum "Si O2"
_cell_formula_units_Z 48
_cell_length_a 13.457122
_cell_length_b 18.168300
_cell_length_c 9.127828
_cell_angle_alpha 90.000000
_cell_angle_beta 90.000000
_cell_angle_gamma 90.000000
_cell_volume 2231.690322
_symmetry_space_group_name_H-M "A B M 2"
_symmetry_group_IT_number 39
_symmetry_cell_setting 'orthorhombic'
loop_
_space_group_symop_operation_xyz
x,y,z
-x,-y,z
-x,1/2+y,z
x,1/2-y,z
x,1/2+y,1/2+z
-x,1/2-y,1/2+z
-x,y,1/2+z
x,-y,1/2+z
loop_
_atom_site_type_symbol
_atom_site_label
_atom_site_fract_x
_atom_site_fract_y
_atom_site_fract_z
Si Si1 0.774347 0.834894 0.932050
Si Si2 0.940449 0.835526 0.173199
Si Si3 0.579084 0.084625 0.491524
Si Si4 0.863871 0.070340 0.190889
Si Si5 0.178700 0.926220 0.865232
Si Si6 0.600840 0.435058 0.821147
O O1 0.776694 0.750000 0.895571
O O2 0.791941 0.876356 0.780275
O O3 0.862025 0.855022 0.045502
O O4 0.665559 0.854754 0.992159
O O5 0.972867 0.750000 0.173383
O O6 0.888952 0.854659 0.329479
O O7 0.032810 0.889759 0.155699
O O8 0.558022 0.060117 0.657221
O O9 0.474971 0.114131 0.420656
O O10 0.610601 0.016014 0.390780
O O11 0.872028 0.993459 0.276345
O O12 0.814633 0.052957 0.034952
O O13 0.288590 0.902923 0.813806
#
# Coordination Sequence:
#
# PCOD8182256 Si02
#       6
#     8   8   8   8   8   8
#     4  11  24  44  67  95 138 181 224 280 338 398
#     4  11  25  46  66  93 137 181 220 273 340 400
#     4  11  22  40  67  99 130 174 215 276 339 401
#     4  12  25  41  69  98 132 175 228 272 332 401
#     4  12  24  42  68 102 132 169 223 285 326 397
#     4  11  22  39  69  98 131 165 218 277 336 395
#
# _framework density 21.508358999999999
#
# number of rings (size 3 to 8) (size 9 to 14) (size 15 to 20)
#    0.000    0.667    3.333    6.000    2.333    4.000 
#    0.000    1.667    0.000    0.000    0.000    0.000 
#    0.000    0.000    0.000    0.000    0.000    0.000 
#
# Total GULP energy -297554.070157 kJ/mol
# GULP energy per Si atom -12398.086257 kJ/mol
# Density = 2.145940 g / cm^3
# Si number density = 21.508359 Si / 1000 Ang^3
#
#
#
# Elastic Constant Matrix: (Units=GPa)
#
#
# Indices 1 2 3 4 5 6 
#
# 1 137.7324 47.9259 29.0569 0.0000 0.0000 0.0000
# 2 47.9259 65.9951 39.9748 0.0000 0.0000 0.0000
# 3 29.0569 39.9748 160.7387 0.0000 0.0000 0.0000
# 4 0.0000 0.0000 0.0000 27.0468 0.0000 0.0000
# 5 0.0000 0.0000 0.0000 0.0000 36.2717 0.0000
# 6 0.0000 0.0000 0.0000 0.0000 0.0000 27.7818
#
#
#
# Elastic Compliance Matrix: (Units=1/GPa)
#
#
# Indices 1 2 3 4 5 6 
#
# 1 0.009715 -0.007054 -0.000002 0.000000 0.000000 0.000000
# 2 -0.007054 0.022962 -0.004435 0.000000 0.000000 0.000000
# 3 -0.000002 -0.004435 0.007325 0.000000 0.000000 0.000000
# 4 0.000000 0.000000 0.000000 0.036973 0.000000 0.000000
# 5 0.000000 0.000000 0.000000 0.000000 0.027570 0.000000
# 6 0.000000 0.000000 0.000000 0.000000 0.000000 0.035995
#
#
# Mechanical properties :
#
#
# Convention : Reuss Voigt Hill
#
# Bulk Modulus (GPa) = 58.75723 66.48682 62.62203
# Shear Modulus (GPa) = 29.55157 34.72062 32.13610
#
# Velocity S-wave (km/s) = 3.71071 4.02218 3.86958
# Velocity P-wave (km/s) = 6.76290 7.24912 7.01023
#
# Compressibility (1/GPa) = 0.01701918
#
# Stress axis : x y z
#
# Youngs Moduli (GPa) = 102.92838 43.55013 136.52497
#
# Poissons Ratio (x) = 0.30721 0.00026
# Poissons Ratio (y) = 0.72608 0.60553
# Poissons Ratio (z) = 0.00020 0.19316
#
# Static dielectric constant tensor:
#      x y z
#    x 4.328070 0.000000 0.000000 
#    y 0.000000 3.666890 0.000000 
#    z 0.000000 0.000000 4.042020 
# 
# 
# High freq. dielectric constant tensor:
#      x y z
#    x 1.861490 0.000000 0.000000 
#    y 0.000000 1.815080 0.000000 
#    z 0.000000 0.000000 1.859990 
# 
# From -- ./inp_files/3255.got.cif
#   From: 2010.03.12/outbox.cif.g09.slc.cpg/sg39_2_cif.got.tgz:3255.got - 2010.04.14 02:53:20.
