data_PCOD8182852
_publ_section_title
;
Structure prediction by ZEFSAII (Michael W. Deem and Ramdas Pophale) SiO2 
 PCOD8182852
Probable space group: A M A 2
;
_chemical_formula_sum "Si O2"
_cell_formula_units_Z 56
_cell_length_a 8.955419
_cell_length_b 13.659479
_cell_length_c 29.059491
_cell_angle_alpha 90.000000
_cell_angle_beta 90.000000
_cell_angle_gamma 90.000000
_cell_volume 3554.741693
_symmetry_space_group_name_H-M "A M A 2"
_symmetry_group_IT_number 40
_symmetry_cell_setting 'orthorhombic'
loop_
_space_group_symop_operation_xyz
x,y,z
-x,-y,z
1/2-x,y,z
1/2+x,-y,z
x,1/2+y,1/2+z
-x,1/2-y,1/2+z
1/2-x,1/2+y,1/2+z
1/2+x,1/2-y,1/2+z
loop_
_atom_site_type_symbol
_atom_site_label
_atom_site_fract_x
_atom_site_fract_y
_atom_site_fract_z
Si Si1 0.423823 0.604137 0.857390
Si Si2 0.075565 0.399674 0.132504
Si Si3 0.572651 0.107006 0.268204
Si Si4 0.424438 0.100406 0.091079
Si Si5 0.926175 0.706034 0.041169
Si Si6 0.577022 0.895404 0.458930
Si Si7 0.575200 0.295405 0.683830
O O1 0.500000 0.500000 0.861441
O O2 0.250000 0.593990 0.844571
O O3 0.509877 0.657839 0.815370
O O4 0.445104 0.652252 0.907862
O O5 0.250000 0.417496 0.130931
O O6 0.020796 0.367144 0.081747
O O7 0.036971 0.315767 0.169524
O O8 0.000000 0.500000 0.148173
O O9 0.750000 0.096987 0.270169
O O10 0.526073 0.178108 0.227104
O O11 0.500000 0.000000 0.261266
O O12 0.250000 0.084248 0.089204
O O13 0.472272 0.183920 0.054977
O O14 0.470872 0.132284 0.142443
O O15 0.500000 0.000000 0.076318
O O16 0.750000 0.697367 0.033774
O O17 0.009664 0.681918 0.994218
O O18 0.750000 0.912176 0.469579
O O19 0.500000 0.000000 0.464633
O O20 0.750000 0.306748 0.695716
#
# Coordination Sequence:
#
# PCOD8182852 Si02
#       7
#     8   8   8   8   8   8   8
#     4   9  17  29  43  61  87 116 145 177 216 260
#     4   9  18  31  46  64  89 119 149 182 217 255
#     4  11  20  29  44  66  90 117 148 180 217 261
#     4   9  18  31  46  64  88 118 150 183 218 256
#     4   9  18  31  45  64  90 119 149 180 217 259
#     4  10  19  29  44  66  90 118 149 180 216 259
#     4   9  18  32  46  63  89 119 149 180 217 258
#
# _framework density 15.753605
#
# number of rings (size 3 to 8) (size 9 to 14) (size 15 to 20)
#    0.000    2.571    0.000    5.571    0.000    6.286 
#    0.000    2.857    0.000    0.000    0.000    1.000 
#    0.000    6.857    0.000    0.000    0.000    0.000 
#
# Total GULP energy -347062.963331 kJ/mol
# GULP energy per Si atom -12395.105833 kJ/mol
# Density = 1.571775 g / cm^3
# Si number density = 15.753605 Si / 1000 Ang^3
#
#
#
# Elastic Constant Matrix: (Units=GPa)
#
#
# Indices 1 2 3 4 5 6 
#
# 1 88.1543 42.2741 62.1590 0.0000 0.0000 0.0000
# 2 42.2741 93.1057 52.3175 0.0000 0.0000 0.0000
# 3 62.1590 52.3175 129.8409 0.0000 0.0000 0.0000
# 4 0.0000 0.0000 0.0000 20.9833 0.0000 0.0000
# 5 0.0000 0.0000 0.0000 0.0000 39.1418 0.0000
# 6 0.0000 0.0000 0.0000 0.0000 0.0000 26.6180
#
#
#
# Elastic Compliance Matrix: (Units=1/GPa)
#
#
# Indices 1 2 3 4 5 6 
#
# 1 0.018424 -0.004407 -0.007045 0.000000 0.000000 0.000000
# 2 -0.004407 0.014938 -0.003909 0.000000 0.000000 0.000000
# 3 -0.007045 -0.003909 0.012649 0.000000 0.000000 0.000000
# 4 0.000000 0.000000 0.000000 0.047657 0.000000 0.000000
# 5 0.000000 0.000000 0.000000 0.000000 0.025548 0.000000
# 6 0.000000 0.000000 0.000000 0.000000 0.000000 0.037569
#
#
# Mechanical properties :
#
#
# Convention : Reuss Voigt Hill
#
# Bulk Modulus (GPa) = 65.40195 69.40024 67.40109
# Shear Modulus (GPa) = 25.95996 27.63863 26.79929
#
# Velocity S-wave (km/s) = 4.06381 4.19314 4.12898
# Velocity P-wave (km/s) = 7.97653 8.22146 8.09992
#
# Compressibility (1/GPa) = 0.01529006
#
# Stress axis : x y z
#
# Youngs Moduli (GPa) = 54.27598 66.94258 79.05505
#
# Poissons Ratio (x) = 0.29502 0.55691
# Poissons Ratio (y) = 0.23919 0.30905
# Poissons Ratio (z) = 0.38235 0.26170
#
# Static dielectric constant tensor:
#      x y z
#    x 2.930150 0.000000 0.000000 
#    y 0.000000 1.856180 0.000000 
#    z 0.000000 0.000000 3.385230 
# 
# 
# High freq. dielectric constant tensor:
#      x y z
#    x 1.611980 0.000000 0.000000 
#    y 0.000000 1.570730 0.000000 
#    z 0.000000 0.000000 1.607280 
# 
# From -- ./inp_files/26400.got.cif
#   From: 2010.03.12/outbox.cif.g09.slc.cpg/sg40_14_cif.got.tgz:26400.got - 2010.04.14 01:38:03.
