data_PCOD8182063
_publ_section_title
;
Structure prediction by ZEFSAII (Michael W. Deem and Ramdas Pophale) SiO2 
 PCOD8182063
Probable space group: A B M 2
;
_chemical_formula_sum "Si O2"
_cell_formula_units_Z 64
_cell_length_a 8.404002
_cell_length_b 30.540679
_cell_length_c 11.871436
_cell_angle_alpha 90.000000
_cell_angle_beta 90.000000
_cell_angle_gamma 90.000000
_cell_volume 3046.969388
_symmetry_space_group_name_H-M "A B M 2"
_symmetry_group_IT_number 39
_symmetry_cell_setting 'orthorhombic'
loop_
_space_group_symop_operation_xyz
x,y,z
-x,-y,z
-x,1/2+y,z
x,1/2-y,z
x,1/2+y,1/2+z
-x,1/2-y,1/2+z
-x,y,1/2+z
x,-y,1/2+z
loop_
_atom_site_type_symbol
_atom_site_label
_atom_site_fract_x
_atom_site_fract_y
_atom_site_fract_z
Si Si1 0.227712 0.426875 0.859710
Si Si2 0.680145 0.986342 0.447224
Si Si3 0.417278 0.637487 0.497991
Si Si4 0.798152 0.162531 0.683595
Si Si5 0.328507 0.799293 0.903658
Si Si6 0.120319 0.587249 0.836376
Si Si7 0.341391 0.419777 0.629962
Si Si8 0.888863 0.649201 0.550434
O O1 0.223366 0.468458 0.942812
O O2 0.363471 0.431600 0.761650
O O3 0.055086 0.428005 0.799987
O O4 0.269929 0.383156 0.929414
O O5 0.754715 0.951495 0.359268
O O6 0.706124 0.965400 0.570444
O O7 0.500000 0.000000 0.418162
O O8 0.345942 0.668252 0.595385
O O9 0.526233 0.665979 0.413259
O O10 0.509667 0.597544 0.557709
O O11 0.765412 0.196433 0.784816
O O12 0.798995 0.113709 0.734803
O O13 0.962146 0.170006 0.616205
O O14 0.393705 0.750000 0.914029
O O15 0.209789 0.808703 0.007284
O O16 0.080215 0.618041 0.943360
O O17 0.211519 0.380777 0.635565
#
# Coordination Sequence:
#
# PCOD8182063 Si02
#       8
#     8   8   8   8   8   8   8   8
#     4  12  22  39  64  86 127 170 223 274 321 384
#     4  11  24  39  56  91 130 169 212 274 325 380
#     4  11  23  40  66  93 122 176 218 270 328 400
#     4  11  21  40  73  93 121 173 222 260 334 396
#     4  10  24  43  63  99 139 161 207 277 336 407
#     4  10  22  40  60  95 126 167 218 271 315 383
#     4  10  22  40  58  89 125 171 218 264 327 384
#     4   9  19  40  66  90 126 164 214 257 320 392
#
# _framework density 21.004477000000001
#
# number of rings (size 3 to 8) (size 9 to 14) (size 15 to 20)
#    0.000    1.500    3.750    1.875    1.750    2.500 
#    0.000    1.250    0.000    0.000    0.000    0.000 
#    0.000    0.000    0.000    0.000    0.000    0.000 
#
# Total GULP energy -396558.639824 kJ/mol
# GULP energy per Si atom -12392.457494 kJ/mol
# Density = 2.095667 g / cm^3
# Si number density = 21.004477 Si / 1000 Ang^3
#
#
#
# Elastic Constant Matrix: (Units=GPa)
#
#
# Indices 1 2 3 4 5 6 
#
# 1 91.9105 25.3573 26.9511 0.0000 0.0000 0.0000
# 2 25.3573 100.4376 26.4169 0.0000 0.0000 0.0000
# 3 26.9511 26.4169 81.5195 0.0000 0.0000 0.0000
# 4 0.0000 0.0000 0.0000 18.1327 0.0000 0.0000
# 5 0.0000 0.0000 0.0000 0.0000 32.2752 0.0000
# 6 0.0000 0.0000 0.0000 0.0000 0.0000 19.5535
#
#
#
# Elastic Compliance Matrix: (Units=1/GPa)
#
#
# Indices 1 2 3 4 5 6 
#
# 1 0.012501 -0.002262 -0.003400 0.000000 0.000000 0.000000
# 2 -0.002262 0.011293 -0.002912 0.000000 0.000000 0.000000
# 3 -0.003400 -0.002912 0.014335 0.000000 0.000000 0.000000
# 4 0.000000 0.000000 0.000000 0.055149 0.000000 0.000000
# 5 0.000000 0.000000 0.000000 0.000000 0.030984 0.000000
# 6 0.000000 0.000000 0.000000 0.000000 0.000000 0.051142
#
#
# Mechanical properties :
#
#
# Convention : Reuss Voigt Hill
#
# Bulk Modulus (GPa) = 47.66070 47.92425 47.79247
# Shear Modulus (GPa) = 25.05700 27.00176 26.02938
#
# Velocity S-wave (km/s) = 3.45764 3.58931 3.52409
# Velocity P-wave (km/s) = 6.21935 6.32798 6.27390
#
# Compressibility (1/GPa) = 0.02098165
#
# Stress axis : x y z
#
# Youngs Moduli (GPa) = 79.99250 88.54755 69.76074
#
# Poissons Ratio (x) = 0.20028 0.23719
# Poissons Ratio (y) = 0.18093 0.20314
# Poissons Ratio (z) = 0.27198 0.25784
#
# Static dielectric constant tensor:
#      x y z
#    x 3.770230 0.000000 0.000000 
#    y 0.000000 3.539120 0.000000 
#    z 0.000000 0.000000 3.741910 
# 
# 
# High freq. dielectric constant tensor:
#      x y z
#    x 1.822010 0.000000 0.000000 
#    y 0.000000 1.797360 0.000000 
#    z 0.000000 0.000000 1.824540 
# 
# From -- ./inp_files/5385.got.cif
#   From: 2010.03.12/outbox.cif.g09.slc.cpg/sg39_3_cif.got.tgz:5385.got - 2010.04.14 02:53:20.
