data_PCOD8182129
_publ_section_title
;
Structure prediction by ZEFSAII (Michael W. Deem and Ramdas Pophale) SiO2 
 PCOD8182129
Probable space group: A B M 2
;
_chemical_formula_sum "Si O2"
_cell_formula_units_Z 40
_cell_length_a 8.859861
_cell_length_b 19.531079
_cell_length_c 9.829487
_cell_angle_alpha 90.000000
_cell_angle_beta 90.000000
_cell_angle_gamma 90.000000
_cell_volume 1700.920431
_symmetry_space_group_name_H-M "A B M 2"
_symmetry_group_IT_number 39
_symmetry_cell_setting 'orthorhombic'
loop_
_space_group_symop_operation_xyz
x,y,z
-x,-y,z
-x,1/2+y,z
x,1/2-y,z
x,1/2+y,1/2+z
-x,1/2-y,1/2+z
-x,y,1/2+z
x,-y,1/2+z
loop_
_atom_site_type_symbol
_atom_site_label
_atom_site_fract_x
_atom_site_fract_y
_atom_site_fract_z
Si Si1 0.297982 0.946836 0.009750
Si Si2 0.684620 0.561581 0.205291
Si Si3 0.853999 0.826313 0.818389
Si Si4 0.986533 0.103578 0.581164
Si Si5 0.438268 0.170043 0.662442
O O1 0.362882 0.870450 0.035965
O O2 0.118354 0.949332 0.040060
O O3 0.380090 0.002806 0.105588
O O4 0.331264 0.968415 0.856175
O O5 0.860551 0.570390 0.175733
O O6 0.598159 0.634139 0.193268
O O7 0.887227 0.750000 0.866295
O O8 0.674340 0.837389 0.792134
O O9 0.940185 0.837578 0.675423
O O10 0.908413 0.873114 0.941357
O O11 0.463478 0.250000 0.623803
#
# Coordination Sequence:
#
# PCOD8182129 Si02
#       5
#     8   8   8   8   8
#     4  11  27  47  72 106 145 188 244 299 359 434
#     4  12  27  46  75 105 144 190 243 296 367 428
#     4  10  22  43  70 105 148 187 234 293 362 432
#     4  11  23  44  71 106 140 187 240 298 356 428
#     4  10  26  48  73 106 147 190 240 300 361 434
#
# _framework density 23.516677000000001
#
# number of rings (size 3 to 8) (size 9 to 14) (size 15 to 20)
#    0.000    1.200    2.000    1.800    8.400    6.400 
#    0.000    0.000    0.000    0.000    0.000    0.000 
#    0.000    0.000    0.000    0.000    0.000    0.000 
#
# Total GULP energy -247946.481848 kJ/mol
# GULP energy per Si atom -12397.324092 kJ/mol
# Density = 2.346315 g / cm^3
# Si number density = 23.516677 Si / 1000 Ang^3
#
#
#
# Elastic Constant Matrix: (Units=GPa)
#
#
# Indices 1 2 3 4 5 6 
#
# 1 111.6025 45.4630 37.1364 0.0000 0.0000 0.0000
# 2 45.4630 143.4852 53.7261 0.0000 0.0000 0.0000
# 3 37.1364 53.7261 160.6950 0.0000 0.0000 0.0000
# 4 0.0000 0.0000 0.0000 28.9352 0.0000 0.0000
# 5 0.0000 0.0000 0.0000 0.0000 22.3341 0.0000
# 6 0.0000 0.0000 0.0000 0.0000 0.0000 30.9578
#
#
#
# Elastic Compliance Matrix: (Units=1/GPa)
#
#
# Indices 1 2 3 4 5 6 
#
# 1 0.010602 -0.002791 -0.001517 0.000000 0.000000 0.000000
# 2 -0.002791 0.008702 -0.002264 0.000000 0.000000 0.000000
# 3 -0.001517 -0.002264 0.007331 0.000000 0.000000 0.000000
# 4 0.000000 0.000000 0.000000 0.034560 0.000000 0.000000
# 5 0.000000 0.000000 0.000000 0.000000 0.044775 0.000000
# 6 0.000000 0.000000 0.000000 0.000000 0.000000 0.032302
#
#
# Mechanical properties :
#
#
# Convention : Reuss Voigt Hill
#
# Bulk Modulus (GPa) = 74.13172 76.49263 75.31218
# Shear Modulus (GPa) = 32.06934 35.07591 33.57262
#
# Velocity S-wave (km/s) = 3.69682 3.86623 3.78247
# Velocity P-wave (km/s) = 7.05786 7.24761 7.15337
#
# Compressibility (1/GPa) = 0.01348950
#
# Stress axis : x y z
#
# Youngs Moduli (GPa) = 94.31986 114.92185 136.41588
#
# Poissons Ratio (x) = 0.32078 0.20693
# Poissons Ratio (y) = 0.26327 0.30887
# Poissons Ratio (z) = 0.14308 0.26020
#
# Static dielectric constant tensor:
#      x y z
#    x 4.404750 0.000000 0.000000 
#    y 0.000000 4.155970 0.000000 
#    z 0.000000 0.000000 4.052510 
# 
# 
# High freq. dielectric constant tensor:
#      x y z
#    x 1.952780 0.000000 0.000000 
#    y 0.000000 1.923330 0.000000 
#    z 0.000000 0.000000 1.926680 
# 
# From -- ./inp_files/5046.got.cif
#   From: 2010.03.12/outbox.cif.g09.slc.cpg/sg39_3_cif.got.tgz:5046.got - 2010.04.14 02:53:20.
