data_PCOD8182946
_publ_section_title
;
Structure prediction by ZEFSAII (Michael W. Deem and Ramdas Pophale) SiO2 
 PCOD8182946
Probable space group: A M A 2
;
_chemical_formula_sum "Si O2"
_cell_formula_units_Z 64
_cell_length_a 8.829353
_cell_length_b 29.919348
_cell_length_c 14.366976
_cell_angle_alpha 90.000000
_cell_angle_beta 90.000000
_cell_angle_gamma 90.000000
_cell_volume 3795.302284
_symmetry_space_group_name_H-M "A M A 2"
_symmetry_group_IT_number 40
_symmetry_cell_setting 'orthorhombic'
loop_
_space_group_symop_operation_xyz
x,y,z
-x,-y,z
1/2-x,y,z
1/2+x,-y,z
x,1/2+y,1/2+z
-x,1/2-y,1/2+z
1/2-x,1/2+y,1/2+z
1/2+x,1/2-y,1/2+z
loop_
_atom_site_type_symbol
_atom_site_label
_atom_site_fract_x
_atom_site_fract_y
_atom_site_fract_z
Si Si1 0.924220 0.870256 0.492070
Si Si2 0.917840 0.825169 0.301890
Si Si3 0.570989 0.796175 0.635573
Si Si4 0.927992 0.045795 0.413785
Si Si5 0.072508 0.454622 0.702922
Si Si6 0.071353 0.714798 0.520727
Si Si7 0.925025 0.138661 0.131552
Si Si8 0.578890 0.221714 0.822225
O O1 0.750000 0.884868 0.495087
O O2 0.958928 0.837312 0.406799
O O3 0.970081 0.842078 0.582737
O O4 0.023054 0.914810 0.483326
O O5 0.750000 0.843471 0.274417
O O6 0.917907 0.772548 0.291156
O O7 0.047693 0.844585 0.236369
O O8 0.750000 0.788523 0.641336
O O9 0.504696 0.753286 0.582238
O O10 0.501735 0.804016 0.737630
O O11 0.750000 0.040913 0.417131
O O12 0.986860 0.055602 0.308178
O O13 0.000000 0.000000 0.450995
O O14 0.250000 0.461878 0.707426
O O15 0.031477 0.414055 0.632762
O O16 0.000000 0.500000 0.663073
O O17 0.250000 0.721623 0.524967
O O18 0.029529 0.665834 0.560428
O O19 0.016681 0.715591 0.415197
O O20 0.750000 0.146031 0.105472
O O21 0.750000 0.203718 0.837403
#
# Coordination Sequence:
#
# PCOD8182946 Si02
#       8
#     8   8   8   8   8   8   8   8
#     4  10  20  34  51  73 104 140 175 212 258 307
#     4  10  19  31  49  74 104 138 175 214 257 305
#     4  11  22  37  54  76 105 139 177 220 264 310
#     4  10  19  32  49  74 104 136 174 212 257 308
#     4   9  19  32  48  73 102 135 170 211 259 309
#     4  12  24  36  52  76 104 141 181 217 261 309
#     4  11  21  34  51  75 105 139 179 218 258 307
#     4  11  22  38  54  75 104 138 179 222 264 306
#
# _framework density 16.862952
#
# number of rings (size 3 to 8) (size 9 to 14) (size 15 to 20)
#    0.000    1.500    3.750    2.625    0.000    3.000 
#    0.000    0.000    0.000    0.000    0.000    0.875 
#    0.000    2.000    0.000    0.000    0.000    0.000 
#
# Total GULP energy -396806.588949 kJ/mol
# GULP energy per Si atom -12400.205905 kJ/mol
# Density = 1.682457 g / cm^3
# Si number density = 16.862952 Si / 1000 Ang^3
#
#
#
# Elastic Constant Matrix: (Units=GPa)
#
#
# Indices 1 2 3 4 5 6 
#
# 1 75.6615 37.6755 22.9612 0.0000 0.0000 0.0000
# 2 37.6755 90.0918 20.1683 0.0000 0.0000 0.0000
# 3 22.9612 20.1683 62.1909 0.0000 0.0000 0.0000
# 4 0.0000 0.0000 0.0000 19.9854 0.0000 0.0000
# 5 0.0000 0.0000 0.0000 0.0000 26.7371 0.0000
# 6 0.0000 0.0000 0.0000 0.0000 0.0000 27.7534
#
#
#
# Elastic Compliance Matrix: (Units=1/GPa)
#
#
# Indices 1 2 3 4 5 6 
#
# 1 0.017779 -0.006432 -0.004478 0.000000 0.000000 0.000000
# 2 -0.006432 0.014296 -0.002261 0.000000 0.000000 0.000000
# 3 -0.004478 -0.002261 0.018466 0.000000 0.000000 0.000000
# 4 0.000000 0.000000 0.000000 0.050037 0.000000 0.000000
# 5 0.000000 0.000000 0.000000 0.000000 0.037401 0.000000
# 6 0.000000 0.000000 0.000000 0.000000 0.000000 0.036032
#
#
# Mechanical properties :
#
#
# Convention : Reuss Voigt Hill
#
# Bulk Modulus (GPa) = 41.32657 43.28381 42.30519
# Shear Modulus (GPa) = 23.99008 24.70445 24.34726
#
# Velocity S-wave (km/s) = 3.77590 3.83170 3.80390
# Velocity P-wave (km/s) = 6.60079 6.73050 6.66596
#
# Compressibility (1/GPa) = 0.02419751
#
# Stress axis : x y z
#
# Youngs Moduli (GPa) = 56.24696 69.94970 54.15323
#
# Poissons Ratio (x) = 0.44995 0.24250
# Poissons Ratio (y) = 0.36181 0.12245
# Poissons Ratio (z) = 0.25187 0.15817
#
# Static dielectric constant tensor:
#      x y z
#    x 3.248050 0.000000 0.000000 
#    y 0.000000 3.177410 0.000000 
#    z 0.000000 0.000000 3.049880 
# 
# 
# High freq. dielectric constant tensor:
#      x y z
#    x 1.661360 0.000000 0.000000 
#    y 0.000000 1.641030 0.000000 
#    z 0.000000 0.000000 1.623520 
# 
# From -- ./inp_files/15883.got.cif
#   From: 2010.03.12/outbox.cif.g09.slc.cpg/sg40_8_cif.got.tgz:15883.got - 2010.04.14 01:38:03.
