data_PCOD8182643
_publ_section_title
;
Structure prediction by ZEFSAII (Michael W. Deem and Ramdas Pophale) SiO2 
 PCOD8182643
Probable space group: A M A 2
;
_chemical_formula_sum "Si O2"
_cell_formula_units_Z 64
_cell_length_a 8.845491
_cell_length_b 19.666654
_cell_length_c 20.561342
_cell_angle_alpha 90.000000
_cell_angle_beta 90.000000
_cell_angle_gamma 90.000000
_cell_volume 3576.875953
_symmetry_space_group_name_H-M "A M A 2"
_symmetry_group_IT_number 40
_symmetry_cell_setting 'orthorhombic'
loop_
_space_group_symop_operation_xyz
x,y,z
-x,-y,z
1/2-x,y,z
1/2+x,-y,z
x,1/2+y,1/2+z
-x,1/2-y,1/2+z
1/2-x,1/2+y,1/2+z
1/2+x,1/2-y,1/2+z
loop_
_atom_site_type_symbol
_atom_site_label
_atom_site_fract_x
_atom_site_fract_y
_atom_site_fract_z
Si Si1 0.926391 0.566787 0.076960
Si Si2 0.072759 0.069538 0.826578
Si Si3 0.922863 0.712354 0.128826
Si Si4 0.571684 0.204563 0.018060
Si Si5 0.571101 0.287725 0.894130
Si Si6 0.073766 0.799876 0.774830
Si Si7 0.070791 0.068145 0.436833
Si Si8 0.928213 0.429678 0.475849
O O1 0.750000 0.553822 0.064315
O O2 0.955298 0.632003 0.121818
O O3 0.000000 0.500000 0.110952
O O4 0.009505 0.579033 0.009017
O O5 0.250000 0.062631 0.819541
O O6 0.014652 0.129913 0.781512
O O7 0.024148 0.083524 0.901098
O O8 0.000000 0.000000 0.801009
O O9 0.750000 0.728547 0.109353
O O10 0.955324 0.731531 0.203697
O O11 0.032709 0.756563 0.084374
O O12 0.750000 0.194600 0.013404
O O13 0.493639 0.131064 0.019373
O O14 0.506927 0.247569 0.956889
O O15 0.750000 0.284518 0.897395
O O16 0.510772 0.253796 0.827824
O O17 0.518350 0.366322 0.895154
O O18 0.250000 0.815139 0.786124
O O19 0.250000 0.060984 0.439083
O O20 0.000000 0.000000 0.405023
O O21 0.750000 0.433787 0.484830
O O22 0.000000 0.500000 0.500921
#
# Coordination Sequence:
#
# PCOD8182643 Si02
#       8
#     8   8   8   8   8   8   8   8
#     4  10  19  31  47  71 101 136 173 209 252 304
#     4  10  20  33  51  77 108 143 179 219 263 316
#     4  10  22  36  52  76 107 143 179 220 268 319
#     4  11  20  34  57  81 106 140 179 225 269 316
#     4   9  18  32  54  78 101 134 176 218 265 314
#     4  10  20  37  55  74 105 143 182 221 267 322
#     4  10  18  31  50  77 103 131 167 210 261 308
#     4  10  20  34  54  82 112 140 176 222 270 322
#
# _framework density 17.892707999999999
#
# number of rings (size 3 to 8) (size 9 to 14) (size 15 to 20)
#    0.000    2.000    2.500    2.625    0.000    2.500 
#    0.000    2.500    0.000    0.750    0.000    1.750 
#    0.000    0.000    0.000    0.000    0.000    0.000 
#
# Total GULP energy -396841.606786 kJ/mol
# GULP energy per Si atom -12401.300212 kJ/mol
# Density = 1.785198 g / cm^3
# Si number density = 17.892708 Si / 1000 Ang^3
#
#
#
# Elastic Constant Matrix: (Units=GPa)
#
#
# Indices 1 2 3 4 5 6 
#
# 1 72.3941 43.3427 26.5415 0.0000 0.0000 0.0000
# 2 43.3427 132.7838 52.2353 0.0000 0.0000 0.0000
# 3 26.5415 52.2353 83.0965 0.0000 0.0000 0.0000
# 4 0.0000 0.0000 0.0000 23.3080 0.0000 0.0000
# 5 0.0000 0.0000 0.0000 0.0000 19.4117 0.0000
# 6 0.0000 0.0000 0.0000 0.0000 0.0000 31.0345
#
#
#
# Elastic Compliance Matrix: (Units=1/GPa)
#
#
# Indices 1 2 3 4 5 6 
#
# 1 0.017604 -0.004695 -0.002671 0.000000 0.000000 0.000000
# 2 -0.004695 0.011258 -0.005577 0.000000 0.000000 0.000000
# 3 -0.002671 -0.005577 0.016393 0.000000 0.000000 0.000000
# 4 0.000000 0.000000 0.000000 0.042904 0.000000 0.000000
# 5 0.000000 0.000000 0.000000 0.000000 0.051515 0.000000
# 6 0.000000 0.000000 0.000000 0.000000 0.000000 0.032222
#
#
# Mechanical properties :
#
#
# Convention : Reuss Voigt Hill
#
# Bulk Modulus (GPa) = 51.63283 59.16814 55.40049
# Shear Modulus (GPa) = 24.48123 25.82785 25.15454
#
# Velocity S-wave (km/s) = 3.70296 3.80344 3.75354
# Velocity P-wave (km/s) = 6.87038 7.24074 7.05799
#
# Compressibility (1/GPa) = 0.01936752
#
# Stress axis : x y z
#
# Youngs Moduli (GPa) = 56.80619 88.82951 61.00136
#
# Poissons Ratio (x) = 0.41708 0.16295
# Poissons Ratio (y) = 0.26672 0.34020
# Poissons Ratio (z) = 0.15174 0.49539
#
# Static dielectric constant tensor:
#      x y z
#    x 3.225740 0.000000 0.000000 
#    y 0.000000 3.302380 0.000000 
#    z 0.000000 0.000000 3.118150 
# 
# 
# High freq. dielectric constant tensor:
#      x y z
#    x 1.691270 0.000000 0.000000 
#    y 0.000000 1.699880 0.000000 
#    z 0.000000 0.000000 1.661830 
# 
# From -- ./inp_files/19568.got.cif
#   From: 2010.03.12/outbox.cif.g09.slc.cpg/sg40_10_cif.got.tgz:19568.got - 2010.04.14 01:38:03.
