data_PCOD8182786
_publ_section_title
;
Structure prediction by ZEFSAII (Michael W. Deem and Ramdas Pophale) SiO2 
 PCOD8182786
Probable space group: A M A 2
;
_chemical_formula_sum "Si O2"
_cell_formula_units_Z 60
_cell_length_a 13.590963
_cell_length_b 12.408630
_cell_length_c 18.397488
_cell_angle_alpha 90.000000
_cell_angle_beta 90.000000
_cell_angle_gamma 90.000000
_cell_volume 3102.648617
_symmetry_space_group_name_H-M "A M A 2"
_symmetry_group_IT_number 40
_symmetry_cell_setting 'orthorhombic'
loop_
_space_group_symop_operation_xyz
x,y,z
-x,-y,z
1/2-x,y,z
1/2+x,-y,z
x,1/2+y,1/2+z
-x,1/2-y,1/2+z
1/2-x,1/2+y,1/2+z
1/2+x,1/2-y,1/2+z
loop_
_atom_site_type_symbol
_atom_site_label
_atom_site_fract_x
_atom_site_fract_y
_atom_site_fract_z
Si Si1 0.508260 0.855178 0.321790
Si Si2 0.139390 0.411473 0.601121
Si Si3 0.500000 0.000000 0.533276
Si Si4 0.035186 0.672481 0.414670
Si Si5 0.134591 0.008221 0.401037
Si Si6 0.634995 0.369459 0.680328
Si Si7 0.857777 0.031302 0.937716
Si Si8 0.481246 0.762322 0.573745
O O1 0.453386 0.745454 0.343558
O O2 0.599804 0.871077 0.379476
O O3 0.554376 0.847321 0.242365
O O4 0.421180 0.943212 0.335593
O O5 0.250000 0.369808 0.613261
O O6 0.113116 0.507696 0.656248
O O7 0.125085 0.466579 0.523532
O O8 0.070837 0.306829 0.608422
O O9 0.403285 0.984315 0.482349
O O10 0.496816 0.108702 0.583012
O O11 0.127489 0.592487 0.414868
O O12 0.032351 0.742348 0.488176
O O13 0.934782 0.608561 0.399903
O O14 0.250000 0.988784 0.396962
O O15 0.750000 0.357792 0.704117
O O16 0.614996 0.279838 0.617383
O O17 0.750000 0.069883 0.914367
#
# Coordination Sequence:
#
# PCOD8182786 Si02
#       8
#     8   8   4   8   8   8   8   8
#     4  10  22  39  55  86 120 152 194 243 306 359
#     4   9  19  33  56  88 118 152 192 244 306 351
#     4  10  22  40  56  88 126 160 202 254 304 356
#     4  10  18  35  56  81 120 155 190 245 297 345
#     4  10  21  37  59  84 116 155 195 242 297 362
#     4  11  23  38  61  90 120 156 198 252 309 371
#     4   9  18  31  54  87 116 147 194 241 286 348
#     4  11  20  37  58  83 122 159 202 247 298 359
#
# _framework density 19.338315999999999
#
# number of rings (size 3 to 8) (size 9 to 14) (size 15 to 20)
#    0.000    2.133    4.000    0.800    3.733    2.667 
#    0.000    1.333    0.000    0.000    0.000    0.000 
#    0.000    0.000    0.000    0.000    0.000    0.000 
#
# Total GULP energy -371669.514153 kJ/mol
# GULP energy per Si atom -12388.983805 kJ/mol
# Density = 1.929430 g / cm^3
# Si number density = 19.338316 Si / 1000 Ang^3
#
#
#
# Elastic Constant Matrix: (Units=GPa)
#
#
# Indices 1 2 3 4 5 6 
#
# 1 104.4356 17.5438 19.4885 0.0000 0.0000 0.0000
# 2 17.5438 106.4225 25.3246 0.0000 0.0000 0.0000
# 3 19.4885 25.3246 56.5192 0.0000 0.0000 0.0000
# 4 0.0000 0.0000 0.0000 23.3262 0.0000 0.0000
# 5 0.0000 0.0000 0.0000 0.0000 24.9074 0.0000
# 6 0.0000 0.0000 0.0000 0.0000 0.0000 17.1150
#
#
#
# Elastic Compliance Matrix: (Units=1/GPa)
#
#
# Indices 1 2 3 4 5 6 
#
# 1 0.010320 -0.000956 -0.003130 0.000000 0.000000 0.000000
# 2 -0.000956 0.010607 -0.004423 0.000000 0.000000 0.000000
# 3 -0.003130 -0.004423 0.020754 0.000000 0.000000 0.000000
# 4 0.000000 0.000000 0.000000 0.042870 0.000000 0.000000
# 5 0.000000 0.000000 0.000000 0.000000 0.040149 0.000000
# 6 0.000000 0.000000 0.000000 0.000000 0.000000 0.058428
#
#
# Mechanical properties :
#
#
# Convention : Reuss Voigt Hill
#
# Bulk Modulus (GPa) = 40.54738 43.56566 42.05652
# Shear Modulus (GPa) = 23.99614 26.73775 25.36695
#
# Velocity S-wave (km/s) = 3.52641 3.72241 3.62573
# Velocity P-wave (km/s) = 6.13136 6.40720 6.27080
#
# Compressibility (1/GPa) = 0.02466251
#
# Stress axis : x y z
#
# Youngs Moduli (GPa) = 96.89906 94.28068 48.18346
#
# Poissons Ratio (x) = 0.09018 0.15081
# Poissons Ratio (y) = 0.09268 0.21310
# Poissons Ratio (z) = 0.30328 0.41698
#
# Static dielectric constant tensor:
#      x y z
#    x 3.656050 0.000000 0.000000 
#    y 0.000000 3.728240 0.000000 
#    z 0.000000 0.000000 3.198700 
# 
# 
# High freq. dielectric constant tensor:
#      x y z
#    x 1.751820 0.000000 0.000000 
#    y 0.000000 1.746750 0.000000 
#    z 0.000000 0.000000 1.719420 
# 
# From -- ./inp_files/20727.got.cif
#   From: 2010.03.12/outbox.cif.g09.slc.cpg/sg40_11_cif.got.tgz:20727.got - 2010.04.14 01:38:03.
