data_PCOD8182205
_publ_section_title
;
Structure prediction by ZEFSAII (Michael W. Deem and Ramdas Pophale) SiO2 
 PCOD8182205
Probable space group: A B M 2
;
_chemical_formula_sum "Si O2"
_cell_formula_units_Z 64
_cell_length_a 15.385097
_cell_length_b 8.532522
_cell_length_c 23.616320
_cell_angle_alpha 90.000000
_cell_angle_beta 90.000000
_cell_angle_gamma 90.000000
_cell_volume 3100.201202
_symmetry_space_group_name_H-M "A B M 2"
_symmetry_group_IT_number 39
_symmetry_cell_setting 'orthorhombic'
loop_
_space_group_symop_operation_xyz
x,y,z
-x,-y,z
-x,1/2+y,z
x,1/2-y,z
x,1/2+y,1/2+z
-x,1/2-y,1/2+z
-x,y,1/2+z
x,-y,1/2+z
loop_
_atom_site_type_symbol
_atom_site_label
_atom_site_fract_x
_atom_site_fract_y
_atom_site_fract_z
Si Si1 0.743312 0.066422 0.947240
Si Si2 0.407083 0.931865 0.252256
Si Si3 0.089137 0.566537 0.247486
Si Si4 0.665157 0.569603 0.630372
Si Si5 0.244837 0.931412 0.815489
Si Si6 0.590530 0.433887 0.517971
Si Si7 0.909611 0.432549 0.014989
Si Si8 0.147790 0.568510 0.630575
O O1 0.728929 0.250000 0.959774
O O2 0.750450 0.030021 0.881391
O O3 0.829789 0.001175 0.977934
O O4 0.662888 0.969518 0.971362
O O5 0.401634 0.750000 0.268687
O O6 0.393020 0.958062 0.185586
O O7 0.500000 0.000000 0.269758
O O8 0.335783 0.026139 0.287224
O O9 0.082646 0.750000 0.236160
O O10 0.168159 0.535121 0.289730
O O11 0.102435 0.478346 0.188551
O O12 0.000000 0.500000 0.274669
O O13 0.694919 0.750000 0.625139
O O14 0.608903 0.521937 0.576622
O O15 0.750016 0.463182 0.634335
O O16 0.223963 0.750000 0.804033
O O17 0.500000 0.500000 0.493887
O O18 0.584929 0.250000 0.529290
O O19 0.914239 0.250000 0.006457
O O20 0.896599 0.472022 0.080581
O O21 0.000000 0.500000 0.991662
O O22 0.132013 0.750000 0.618226
#
# Coordination Sequence:
#
# PCOD8182205 Si02
#       8
#     8   8   8   8   8   8   8   8
#     4  10  24  45  67  91 125 167 213 267 320 373
#     4  11  24  41  65  95 129 169 210 259 316 378
#     4  12  25  43  66  95 130 170 212 262 318 377
#     4  11  22  39  64  95 132 167 206 256 317 381
#     4  11  24  44  68  94 125 166 215 268 320 377
#     4  12  25  41  66  96 129 169 213 261 317 377
#     4  11  23  41  65  93 130 167 208 259 315 378
#     4  12  23  38  64  97 130 167 209 255 316 382
#
# _framework density 20.643822
#
# number of rings (size 3 to 8) (size 9 to 14) (size 15 to 20)
#    0.000    0.750    2.500    5.625    0.000    5.000 
#    0.000    1.250    0.000    0.000    0.000    0.000 
#    0.000    0.000    0.000    0.000    0.000    0.000 
#
# Total GULP energy -397053.854414 kJ/mol
# GULP energy per Si atom -12407.932950 kJ/mol
# Density = 2.059684 g / cm^3
# Si number density = 20.643822 Si / 1000 Ang^3
#
#
#
# Elastic Constant Matrix: (Units=GPa)
#
#
# Indices 1 2 3 4 5 6 
#
# 1 156.2914 26.1457 40.4283 0.0000 0.0000 0.0000
# 2 26.1457 60.6398 21.0246 0.0000 0.0000 0.0000
# 3 40.4283 21.0246 103.4381 0.0000 0.0000 0.0000
# 4 0.0000 0.0000 0.0000 -18.3973 0.0000 0.0000
# 5 0.0000 0.0000 0.0000 0.0000 14.2821 0.0000
# 6 0.0000 0.0000 0.0000 0.0000 0.0000 38.3655
#
#
#
# Elastic Compliance Matrix: (Units=1/GPa)
#
#
# Indices 1 2 3 4 5 6 
#
# 1 0.007419 -0.002360 -0.002420 0.000000 0.000000 0.000000
# 2 -0.002360 0.018492 -0.002836 0.000000 0.000000 0.000000
# 3 -0.002420 -0.002836 0.011190 0.000000 0.000000 0.000000
# 4 0.000000 0.000000 0.000000 -0.054356 0.000000 0.000000
# 5 0.000000 0.000000 0.000000 0.000000 0.070018 0.000000
# 6 0.000000 0.000000 0.000000 0.000000 0.000000 0.026065
#
#
# Mechanical properties :
#
#
# Convention : Reuss Voigt Hill
#
# Bulk Modulus (GPa) = 45.72788 55.06294 50.39541
# Shear Modulus (GPa) = 49.33418 22.36810 35.85114
#
# Velocity S-wave (km/s) = 4.89384 3.29527 4.17184
# Velocity P-wave (km/s) = 7.35744 6.41943 6.90438
#
# Compressibility (1/GPa) = 0.02186850
#
# Stress axis : x y z
#
# Youngs Moduli (GPa) = 134.78770 54.07845 89.36571
#
# Poissons Ratio (x) = 0.12761 0.21627
# Poissons Ratio (y) = 0.31807 0.25346
# Poissons Ratio (z) = 0.32620 0.15338
#
# Static dielectric constant tensor:
#      x y z
#    x 3.540710 0.000000 0.000000 
#    y 0.000000 3.810890 0.000000 
#    z 0.000000 0.000000 3.684140 
# 
# 
# High freq. dielectric constant tensor:
#      x y z
#    x 1.825230 0.000000 0.000000 
#    y 0.000000 1.818010 0.000000 
#    z 0.000000 0.000000 1.802320 
# 
# From -- ./inp_files/16192.got.cif
#   From: 2010.03.12/outbox.cif.g09.slc.cpg/sg39_9_cif.got.tgz:16192.got - 2010.04.14 02:53:20.
