data_PCOD8182284
_publ_section_title
;
Structure prediction by ZEFSAII (Michael W. Deem and Ramdas Pophale) SiO2 
 PCOD8182284
Probable space group: A B M 2
;
_chemical_formula_sum "Si O2"
_cell_formula_units_Z 40
_cell_length_a 8.522272
_cell_length_b 24.489548
_cell_length_c 8.252663
_cell_angle_alpha 90.000000
_cell_angle_beta 90.000000
_cell_angle_gamma 90.000000
_cell_volume 1722.385147
_symmetry_space_group_name_H-M "A B M 2"
_symmetry_group_IT_number 39
_symmetry_cell_setting 'orthorhombic'
loop_
_space_group_symop_operation_xyz
x,y,z
-x,-y,z
-x,1/2+y,z
x,1/2-y,z
x,1/2+y,1/2+z
-x,1/2-y,1/2+z
-x,y,1/2+z
x,-y,1/2+z
loop_
_atom_site_type_symbol
_atom_site_label
_atom_site_fract_x
_atom_site_fract_y
_atom_site_fract_z
Si Si1 0.763546 0.151124 0.495040
Si Si2 0.855282 0.032937 0.863215
Si Si3 0.407584 0.750000 0.355982
Si Si4 0.081029 0.653310 0.847594
Si Si5 0.730829 0.750000 0.493196
Si Si6 0.344041 0.965239 0.572013
O O1 0.637688 0.197664 0.463215
O O2 0.854184 0.157841 0.665571
O O3 0.662916 0.094595 0.487473
O O4 0.892134 0.160006 0.352569
O O5 0.898135 0.093239 0.922390
O O6 0.693249 0.039183 0.761427
O O7 0.000000 0.000000 0.779085
O O8 0.809321 0.998026 0.017963
O O9 0.596346 0.750000 0.355182
O O10 0.339919 0.750000 0.174460
O O11 0.162435 0.696762 0.966095
O O12 0.500000 0.000000 0.538240
#
# Coordination Sequence:
#
# PCOD8182284 Si02
#       6
#     8   8   4   8   4   8
#     4  11  24  45  70 104 142 185 244 290 360 426
#     4  11  23  43  69 101 141 185 240 289 352 428
#     4  12  27  48  71 104 142 186 230 298 361 434
#     4  11  24  43  71 103 136 189 235 300 347 425
#     4  12  27  48  73 102 144 184 236 296 361 428
#     4  11  25  42  67 103 144 187 232 296 356 428
#
# _framework density 23.223610000000001
#
# number of rings (size 3 to 8) (size 9 to 14) (size 15 to 20)
#    0.000    0.800    2.000    4.800    5.600    1.600 
#    0.000    0.000    0.000    0.000    0.000    0.000 
#    0.000    0.000    0.000    0.000    0.000    0.000 
#
# Total GULP energy -247855.494173 kJ/mol
# GULP energy per Si atom -12392.774709 kJ/mol
# Density = 2.317075 g / cm^3
# Si number density = 23.223610 Si / 1000 Ang^3
#
#
#
# Elastic Constant Matrix: (Units=GPa)
#
#
# Indices 1 2 3 4 5 6 
#
# 1 128.5261 69.5996 16.2301 0.0000 0.0000 0.0000
# 2 69.5996 199.0390 26.3632 0.0000 0.0000 0.0000
# 3 16.2301 26.3632 53.3232 0.0000 0.0000 0.0000
# 4 0.0000 0.0000 0.0000 17.4207 0.0000 0.0000
# 5 0.0000 0.0000 0.0000 0.0000 37.2244 0.0000
# 6 0.0000 0.0000 0.0000 0.0000 0.0000 45.4353
#
#
#
# Elastic Compliance Matrix: (Units=1/GPa)
#
#
# Indices 1 2 3 4 5 6 
#
# 1 0.009690 -0.003208 -0.001363 0.000000 0.000000 0.000000
# 2 -0.003208 0.006438 -0.002207 0.000000 0.000000 0.000000
# 3 -0.001363 -0.002207 0.020260 0.000000 0.000000 0.000000
# 4 0.000000 0.000000 0.000000 0.057403 0.000000 0.000000
# 5 0.000000 0.000000 0.000000 0.000000 0.026864 0.000000
# 6 0.000000 0.000000 0.000000 0.000000 0.000000 0.022009
#
#
# Mechanical properties :
#
#
# Convention : Reuss Voigt Hill
#
# Bulk Modulus (GPa) = 43.79854 67.25269 55.52561
# Shear Modulus (GPa) = 30.51946 37.92910 34.22428
#
# Velocity S-wave (km/s) = 3.62906 4.04569 3.84302
# Velocity P-wave (km/s) = 6.03826 7.13057 6.60703
#
# Compressibility (1/GPa) = 0.02283181
#
# Stress axis : x y z
#
# Youngs Moduli (GPa) = 103.20205 155.32568 49.35947
#
# Poissons Ratio (x) = 0.49824 0.06730
# Poissons Ratio (y) = 0.33104 0.10892
# Poissons Ratio (z) = 0.14070 0.34275
#
# Static dielectric constant tensor:
#      x y z
#    x 4.103820 0.000000 0.000000 
#    y 0.000000 4.399830 0.000000 
#    z 0.000000 0.000000 3.856290 
# 
# 
# High freq. dielectric constant tensor:
#      x y z
#    x 1.923820 0.000000 0.000000 
#    y 0.000000 1.934100 0.000000 
#    z 0.000000 0.000000 1.911490 
# 
# From -- ./inp_files/2127.got.cif
#   From: 2010.03.12/outbox.cif.g09.slc.cpg/sg39_2_cif.got.tgz:2127.got - 2010.04.14 02:53:20.
