data_PCOD8182546
_publ_section_title
;
Structure prediction by ZEFSAII (Michael W. Deem and Ramdas Pophale) SiO2 
 PCOD8182546
Probable space group: A M A 2
;
_chemical_formula_sum "Si O2"
_cell_formula_units_Z 64
_cell_length_a 8.847570
_cell_length_b 28.190582
_cell_length_c 14.423191
_cell_angle_alpha 90.000000
_cell_angle_beta 90.000000
_cell_angle_gamma 90.000000
_cell_volume 3597.405581
_symmetry_space_group_name_H-M "A M A 2"
_symmetry_group_IT_number 40
_symmetry_cell_setting 'orthorhombic'
loop_
_space_group_symop_operation_xyz
x,y,z
-x,-y,z
1/2-x,y,z
1/2+x,-y,z
x,1/2+y,1/2+z
-x,1/2-y,1/2+z
1/2-x,1/2+y,1/2+z
1/2+x,1/2-y,1/2+z
loop_
_atom_site_type_symbol
_atom_site_label
_atom_site_fract_x
_atom_site_fract_y
_atom_site_fract_z
Si Si1 0.925975 0.768618 0.548310
Si Si2 0.579873 0.262193 0.725465
Si Si3 0.924053 0.863467 0.183581
Si Si4 0.571242 0.950563 0.509353
Si Si5 0.079902 0.332322 0.309838
Si Si6 0.428852 0.049001 0.296860
Si Si7 0.428077 0.176186 0.989554
Si Si8 0.429049 0.361371 0.103317
O O1 0.750000 0.772994 0.524311
O O2 0.950941 0.751954 0.653369
O O3 0.001872 0.728921 0.483371
O O4 0.003453 0.820213 0.536972
O O5 0.750000 0.257209 0.680251
O O6 0.554755 0.317503 0.751579
O O7 0.569248 0.225632 0.810424
O O8 0.750000 0.876217 0.171800
O O9 0.999836 0.908920 0.233049
O O10 0.990079 0.851962 0.080713
O O11 0.750000 0.952101 0.523010
O O12 0.525329 0.940471 0.402892
O O13 0.500674 0.910822 0.574537
O O14 0.500000 0.000000 0.542343
O O15 0.250000 0.349150 0.329393
O O16 0.024896 0.352504 0.210907
O O17 0.977964 0.351045 0.395333
O O18 0.250000 0.045310 0.287520
O O19 0.500000 0.000000 0.261479
O O20 0.250000 0.180302 0.994290
O O21 0.250000 0.362235 0.091252
#
# Coordination Sequence:
#
# PCOD8182546 Si02
#       8
#     8   8   8   8   8   8   8   8
#     4  10  18  29  46  68  96 129 166 204 242 289
#     4   8  15  29  46  65  93 128 162 198 241 286
#     4   8  15  30  50  69  93 128 165 198 240 292
#     4  10  20  34  54  78 101 127 160 202 252 305
#     4   9  18  31  48  71 100 133 166 202 246 293
#     4   9  18  33  52  74  99 126 158 198 247 300
#     4  10  19  31  48  70  99 135 172 209 247 290
#     4  10  20  35  53  73 101 134 167 207 252 297
#
# _framework density 17.790599
#
# number of rings (size 3 to 8) (size 9 to 14) (size 15 to 20)
#    0.000    2.750    0.000    3.750    0.000    4.000 
#    0.000    5.625    0.000    0.750    0.000    3.500 
#    0.000    0.000    0.000    0.000    0.000    0.000 
#
# Total GULP energy -396501.853898 kJ/mol
# GULP energy per Si atom -12390.682934 kJ/mol
# Density = 1.775011 g / cm^3
# Si number density = 17.790599 Si / 1000 Ang^3
#
#
#
# Elastic Constant Matrix: (Units=GPa)
#
#
# Indices 1 2 3 4 5 6 
#
# 1 68.8045 37.3876 32.4387 0.0000 0.0000 0.0000
# 2 37.3876 137.5632 58.1491 0.0000 0.0000 0.0000
# 3 32.4387 58.1491 85.8918 0.0000 0.0000 0.0000
# 4 0.0000 0.0000 0.0000 20.6263 0.0000 0.0000
# 5 0.0000 0.0000 0.0000 0.0000 24.0237 0.0000
# 6 0.0000 0.0000 0.0000 0.0000 0.0000 27.2353
#
#
#
# Elastic Compliance Matrix: (Units=1/GPa)
#
#
# Indices 1 2 3 4 5 6 
#
# 1 0.018474 -0.002902 -0.005012 0.000000 0.000000 0.000000
# 2 -0.002902 0.010640 -0.006107 0.000000 0.000000 0.000000
# 3 -0.005012 -0.006107 0.017670 0.000000 0.000000 0.000000
# 4 0.000000 0.000000 0.000000 0.048482 0.000000 0.000000
# 5 0.000000 0.000000 0.000000 0.000000 0.041626 0.000000
# 6 0.000000 0.000000 0.000000 0.000000 0.000000 0.036717
#
#
# Mechanical properties :
#
#
# Convention : Reuss Voigt Hill
#
# Bulk Modulus (GPa) = 53.35978 60.91226 57.13602
# Shear Modulus (GPa) = 24.05025 25.32933 24.68979
#
# Velocity S-wave (km/s) = 3.68074 3.77735 3.72936
# Velocity P-wave (km/s) = 6.93701 7.30324 7.12248
#
# Compressibility (1/GPa) = 0.01874071
#
# Stress axis : x y z
#
# Youngs Moduli (GPa) = 54.12989 93.98805 56.59313
#
# Poissons Ratio (x) = 0.27278 0.28366
# Poissons Ratio (y) = 0.15710 0.34561
# Poissons Ratio (z) = 0.27131 0.57398
#
# Static dielectric constant tensor:
#      x y z
#    x 3.152090 0.000000 0.000000 
#    y 0.000000 3.362270 0.000000 
#    z 0.000000 0.000000 3.237050 
# 
# 
# High freq. dielectric constant tensor:
#      x y z
#    x 1.678980 0.000000 0.000000 
#    y 0.000000 1.673450 0.000000 
#    z 0.000000 0.000000 1.673150 
# 
# From -- ./inp_files/15927.got.cif
#   From: 2010.03.12/outbox.cif.g09.slc.cpg/sg40_8_cif.got.tgz:15927.got - 2010.04.14 01:38:03.
