data_PCOD8182052
_publ_section_title
;
Structure prediction by ZEFSAII (Michael W. Deem and Ramdas Pophale) SiO2 
 PCOD8182052
Probable space group: A B M 2
;
_chemical_formula_sum "Si O2"
_cell_formula_units_Z 64
_cell_length_a 12.139346
_cell_length_b 17.197274
_cell_length_c 14.444854
_cell_angle_alpha 90.000000
_cell_angle_beta 90.000000
_cell_angle_gamma 90.000000
_cell_volume 3015.560580
_symmetry_space_group_name_H-M "A B M 2"
_symmetry_group_IT_number 39
_symmetry_cell_setting 'orthorhombic'
loop_
_space_group_symop_operation_xyz
x,y,z
-x,-y,z
-x,1/2+y,z
x,1/2-y,z
x,1/2+y,1/2+z
-x,1/2-y,1/2+z
-x,y,1/2+z
x,-y,1/2+z
loop_
_atom_site_type_symbol
_atom_site_label
_atom_site_fract_x
_atom_site_fract_y
_atom_site_fract_z
Si Si1 0.548616 0.338701 0.142520
Si Si2 0.615300 0.591391 0.009030
Si Si3 0.845394 0.340163 0.551186
Si Si4 0.514368 0.909903 0.329719
Si Si5 0.086473 0.562305 0.379593
Si Si6 0.013479 0.660344 0.203075
Si Si7 0.275963 0.453832 0.422187
Si Si8 0.785774 0.837438 0.567288
O O1 0.518596 0.250000 0.115201
O O2 0.514420 0.352086 0.247786
O O3 0.677513 0.354758 0.128177
O O4 0.482844 0.400595 0.081357
O O5 0.715976 0.642033 0.049086
O O6 0.568555 0.619321 0.909897
O O7 0.650215 0.501515 0.997006
O O8 0.867877 0.250000 0.540305
O O9 0.902926 0.377854 0.462839
O O10 0.901670 0.366604 0.648993
O O11 0.643208 0.902285 0.358060
O O12 0.500000 0.000000 0.302364
O O13 0.039417 0.604738 0.289045
O O14 0.202406 0.515778 0.363545
O O15 0.000000 0.500000 0.414247
O O16 0.005190 0.750000 0.236740
O O17 0.111390 0.648636 0.131900
O O18 0.200829 0.394235 0.479558
O O19 0.783333 0.750000 0.528106
#
# Coordination Sequence:
#
# PCOD8182052 Si02
#       8
#     8   8   8   8   8   8   8   8
#     4  11  24  37  60  93 124 167 212 262 323 384
#     4  10  22  41  63  94 128 165 218 270 324 391
#     4  10  22  42  68  93 125 172 216 267 331 389
#     4  10  23  38  58  90 126 164 213 266 324 385
#     4  11  24  40  64  97 128 164 220 269 321 392
#     4  10  23  42  63  92 128 167 213 268 324 385
#     4  10  22  40  63  91 126 171 211 266 331 385
#     4  10  22  39  61  88 123 166 213 259 319 384
#
# _framework density 21.223251999999999
#
# number of rings (size 3 to 8) (size 9 to 14) (size 15 to 20)
#    0.000    1.750    1.250    1.500    7.000    5.000 
#    0.000    0.625    0.000    0.000    0.000    0.000 
#    0.000    0.000    0.000    0.000    0.000    0.000 
#
# Total GULP energy -396707.625685 kJ/mol
# GULP energy per Si atom -12397.113303 kJ/mol
# Density = 2.117495 g / cm^3
# Si number density = 21.223252 Si / 1000 Ang^3
#
#
#
# Elastic Constant Matrix: (Units=GPa)
#
#
# Indices 1 2 3 4 5 6 
#
# 1 85.9876 26.0928 17.5435 0.0000 0.0000 0.0000
# 2 26.0928 56.5331 34.1940 0.0000 0.0000 0.0000
# 3 17.5435 34.1940 82.4209 0.0000 0.0000 0.0000
# 4 0.0000 0.0000 0.0000 30.1448 0.0000 0.0000
# 5 0.0000 0.0000 0.0000 0.0000 26.6383 0.0000
# 6 0.0000 0.0000 0.0000 0.0000 0.0000 32.4840
#
#
#
# Elastic Compliance Matrix: (Units=1/GPa)
#
#
# Indices 1 2 3 4 5 6 
#
# 1 0.013533 -0.006013 -0.000386 0.000000 0.000000 0.000000
# 2 -0.006013 0.026286 -0.009625 0.000000 0.000000 0.000000
# 3 -0.000386 -0.009625 0.016208 0.000000 0.000000 0.000000
# 4 0.000000 0.000000 0.000000 0.033173 0.000000 0.000000
# 5 0.000000 0.000000 0.000000 0.000000 0.037540 0.000000
# 6 0.000000 0.000000 0.000000 0.000000 0.000000 0.030784
#
#
# Mechanical properties :
#
#
# Convention : Reuss Voigt Hill
#
# Bulk Modulus (GPa) = 41.70339 42.28914 41.99626
# Shear Modulus (GPa) = 25.30806 27.66084 26.48445
#
# Velocity S-wave (km/s) = 3.45696 3.61408 3.53639
# Velocity P-wave (km/s) = 5.96880 6.11429 6.04198
#
# Compressibility (1/GPa) = 0.02397887
#
# Stress axis : x y z
#
# Youngs Moduli (GPa) = 73.89427 38.04340 61.69666
#
# Poissons Ratio (x) = 0.22874 0.02382
# Poissons Ratio (y) = 0.44429 0.59386
# Poissons Ratio (z) = 0.02853 0.36618
#
# Static dielectric constant tensor:
#      x y z
#    x 4.185640 0.000000 0.000000 
#    y 0.000000 3.836050 0.000000 
#    z 0.000000 0.000000 3.725490 
# 
# 
# High freq. dielectric constant tensor:
#      x y z
#    x 1.848860 0.000000 0.000000 
#    y 0.000000 1.831510 0.000000 
#    z 0.000000 0.000000 1.816770 
# 
# From -- ./inp_files/9452.got.cif
#   From: 2010.03.12/outbox.cif.g09.slc.cpg/sg39_5_cif.got.tgz:9452.got - 2010.04.14 02:53:20.
