data_PCOD8182721
_publ_section_title
;
Structure prediction by ZEFSAII (Michael W. Deem and Ramdas Pophale) SiO2 
 PCOD8182721
Probable space group: A M A 2
;
_chemical_formula_sum "Si O2"
_cell_formula_units_Z 64
_cell_length_a 8.658409
_cell_length_b 14.794665
_cell_length_c 24.278149
_cell_angle_alpha 90.000000
_cell_angle_beta 90.000000
_cell_angle_gamma 90.000000
_cell_volume 3109.988657
_symmetry_space_group_name_H-M "A M A 2"
_symmetry_group_IT_number 40
_symmetry_cell_setting 'orthorhombic'
loop_
_space_group_symop_operation_xyz
x,y,z
-x,-y,z
1/2-x,y,z
1/2+x,-y,z
x,1/2+y,1/2+z
-x,1/2-y,1/2+z
1/2-x,1/2+y,1/2+z
1/2+x,1/2-y,1/2+z
loop_
_atom_site_type_symbol
_atom_site_label
_atom_site_fract_x
_atom_site_fract_y
_atom_site_fract_z
Si Si1 0.570148 0.761978 0.966000
Si Si2 0.067424 0.399705 0.381410
Si Si3 0.067978 0.099009 0.771908
Si Si4 0.433263 0.599650 0.906702
Si Si5 0.566048 0.600194 0.794016
Si Si6 0.572563 0.758732 0.092242
Si Si7 0.429842 0.597411 0.151034
Si Si8 0.932805 0.900837 0.182827
O O1 0.750000 0.755925 0.950940
O O2 0.489528 0.840906 0.932230
O O3 0.490466 0.665287 0.954959
O O4 0.543360 0.787068 0.029581
O O5 0.250000 0.404449 0.381875
O O6 0.000000 0.500000 0.387772
O O7 0.010413 0.351045 0.324228
O O8 0.250000 0.098860 0.781676
O O9 0.023781 0.137939 0.711605
O O10 0.000000 0.000000 0.773564
O O11 0.500000 0.500000 0.917108
O O12 0.250000 0.594015 0.905317
O O13 0.495601 0.643643 0.849402
O O14 0.500000 0.500000 0.791122
O O15 0.750000 0.602752 0.797045
O O16 0.506827 0.646723 0.737574
O O17 0.750000 0.736502 0.103930
O O18 0.479742 0.667734 0.104815
O O19 0.517007 0.840828 0.130761
O O20 0.500000 0.500000 0.138622
O O21 0.250000 0.581899 0.148482
O O22 0.750000 0.907747 0.190417
O O23 0.000000 0.000000 0.172350
#
# Coordination Sequence:
#
# PCOD8182721 Si02
#       8
#     8   8   8   8   8   8   8   8
#     4  11  24  43  61  83 114 152 199 248 289 339
#     4  11  22  38  61  89 119 155 192 237 291 346
#     4   9  17  32  55  86 118 150 187 232 284 344
#     4  11  22  39  62  89 118 153 191 236 291 347
#     4  10  18  32  56  87 119 152 187 231 283 343
#     4  10  24  42  60  82 113 151 196 243 287 336
#     4  10  21  37  61  88 118 152 189 233 285 340
#     4  10  20  37  59  86 117 151 189 236 288 343
#
# _framework density 20.578852999999999
#
# number of rings (size 3 to 8) (size 9 to 14) (size 15 to 20)
#    0.000    1.750    0.000    7.125    0.000    5.500 
#    0.000    3.750    0.000    0.000    0.000    0.000 
#    0.000    0.000    0.000    0.000    0.000    0.000 
#
# Total GULP energy -396718.527284 kJ/mol
# GULP energy per Si atom -12397.453978 kJ/mol
# Density = 2.053201 g / cm^3
# Si number density = 20.578853 Si / 1000 Ang^3
#
#
#
# Elastic Constant Matrix: (Units=GPa)
#
#
# Indices 1 2 3 4 5 6 
#
# 1 120.9808 14.2533 23.4700 0.0000 0.0000 0.0000
# 2 14.2533 52.1159 6.3741 0.0000 0.0000 0.0000
# 3 23.4700 6.3741 71.4785 0.0000 0.0000 0.0000
# 4 0.0000 0.0000 0.0000 37.0401 0.0000 0.0000
# 5 0.0000 0.0000 0.0000 0.0000 28.7343 0.0000
# 6 0.0000 0.0000 0.0000 0.0000 0.0000 29.4071
#
#
#
# Elastic Compliance Matrix: (Units=1/GPa)
#
#
# Indices 1 2 3 4 5 6 
#
# 1 0.009057 -0.002137 -0.002783 0.000000 0.000000 0.000000
# 2 -0.002137 0.019904 -0.001073 0.000000 0.000000 0.000000
# 3 -0.002783 -0.001073 0.015000 0.000000 0.000000 0.000000
# 4 0.000000 0.000000 0.000000 0.026998 0.000000 0.000000
# 5 0.000000 0.000000 0.000000 0.000000 0.034802 0.000000
# 6 0.000000 0.000000 0.000000 0.000000 0.000000 0.034005
#
#
# Mechanical properties :
#
#
# Convention : Reuss Voigt Hill
#
# Bulk Modulus (GPa) = 31.27543 36.97444 34.12494
# Shear Modulus (GPa) = 30.78612 32.40149 31.59380
#
# Velocity S-wave (km/s) = 3.87202 3.97231 3.92248
# Velocity P-wave (km/s) = 5.93472 6.24861 6.09369
#
# Compressibility (1/GPa) = 0.03197398
#
# Stress axis : x y z
#
# Youngs Moduli (GPa) = 110.40580 50.24207 66.66713
#
# Poissons Ratio (x) = 0.10735 0.18557
# Poissons Ratio (y) = 0.23590 0.07156
# Poissons Ratio (z) = 0.30731 0.05393
#
# Static dielectric constant tensor:
#      x y z
#    x 3.760830 0.000000 0.000000 
#    y 0.000000 3.515940 0.000000 
#    z 0.000000 0.000000 4.420250 
# 
# 
# High freq. dielectric constant tensor:
#      x y z
#    x 1.818360 0.000000 0.000000 
#    y 0.000000 1.790230 0.000000 
#    z 0.000000 0.000000 1.814560 
# 
# From -- ./inp_files/24316.got.cif
#   From: 2010.03.12/outbox.cif.g09.slc.cpg/sg40_13_cif.got.tgz:24316.got - 2010.04.14 01:38:03.
