data_PCOD8182354
_publ_section_title
;
Structure prediction by ZEFSAII (Michael W. Deem and Ramdas Pophale) SiO2 
 PCOD8182354
Probable space group: A M A 2
;
_chemical_formula_sum "Si O2"
_cell_formula_units_Z 64
_cell_length_a 8.732292
_cell_length_b 13.481204
_cell_length_c 34.528398
_cell_angle_alpha 90.000000
_cell_angle_beta 90.000000
_cell_angle_gamma 90.000000
_cell_volume 4064.745503
_symmetry_space_group_name_H-M "A M A 2"
_symmetry_group_IT_number 40
_symmetry_cell_setting 'orthorhombic'
loop_
_space_group_symop_operation_xyz
x,y,z
-x,-y,z
1/2-x,y,z
1/2+x,-y,z
x,1/2+y,1/2+z
-x,1/2-y,1/2+z
1/2-x,1/2+y,1/2+z
1/2+x,1/2-y,1/2+z
loop_
_atom_site_type_symbol
_atom_site_label
_atom_site_fract_x
_atom_site_fract_y
_atom_site_fract_z
Si Si1 0.070208 0.299701 0.369560
Si Si2 0.072492 0.607161 0.142325
Si Si3 0.072271 0.108186 0.556926
Si Si4 0.428540 0.799195 0.485026
Si Si5 0.068648 0.608966 0.295860
Si Si6 0.929592 0.399031 0.441849
Si Si7 0.429120 0.101456 0.413095
Si Si8 0.431569 0.390016 0.217517
O O1 0.250000 0.314983 0.362951
O O2 0.029243 0.188592 0.383113
O O3 0.979749 0.317731 0.330034
O O4 0.013269 0.377703 0.401371
O O5 0.250000 0.598030 0.153161
O O6 0.048437 0.656055 0.099950
O O7 0.000000 0.500000 0.138101
O O8 0.987069 0.665349 0.177785
O O9 0.250000 0.096877 0.547296
O O10 0.996066 0.185368 0.527594
O O11 0.000000 0.000000 0.552374
O O12 0.250000 0.820756 0.485320
O O13 0.466115 0.686755 0.472720
O O14 0.503066 0.876286 0.455294
O O15 0.250000 0.600116 0.293159
O O16 0.000000 0.500000 0.303153
O O17 0.002263 0.658188 0.256312
O O18 0.750000 0.409522 0.434041
O O19 0.000000 0.500000 0.459121
O O20 0.250000 0.088975 0.417822
O O21 0.500000 0.000000 0.396571
O O22 0.500000 0.500000 0.214990
O O23 0.250000 0.390367 0.220444
#
# Coordination Sequence:
#
# PCOD8182354 Si02
#       8
#     8   8   8   8   8   8   8   8
#     4  10  20  33  47  65  87 113 145 180 215 255
#     4   9  16  26  39  57  81 111 144 175 209 251
#     4  10  19  29  43  62  87 117 148 181 216 253
#     4  10  20  32  46  64  87 113 146 181 215 256
#     4  11  20  30  44  62  87 117 147 181 215 253
#     4  10  20  33  48  65  85 113 144 179 219 259
#     4  10  20  33  49  65  86 114 144 179 218 257
#     4  10  17  26  40  58  82 112 144 176 210 252
#
# _framework density 15.745144
#
# number of rings (size 3 to 8) (size 9 to 14) (size 15 to 20)
#    0.000    2.000    0.000    6.750    0.000    4.500 
#    0.000    0.000    0.000    0.000    0.000    0.000 
#    0.000    1.000    0.000    5.000    0.000    5.125 
#
# Total GULP energy -396727.955252 kJ/mol
# GULP energy per Si atom -12397.748602 kJ/mol
# Density = 1.570931 g / cm^3
# Si number density = 15.745144 Si / 1000 Ang^3
#
#
#
# Elastic Constant Matrix: (Units=GPa)
#
#
# Indices 1 2 3 4 5 6 
#
# 1 118.3319 36.0064 59.8102 0.0000 0.0000 0.0000
# 2 36.0064 66.1855 38.8626 0.0000 0.0000 0.0000
# 3 59.8102 38.8626 133.0515 0.0000 0.0000 0.0000
# 4 0.0000 0.0000 0.0000 15.4694 0.0000 0.0000
# 5 0.0000 0.0000 0.0000 0.0000 30.0403 0.0000
# 6 0.0000 0.0000 0.0000 0.0000 0.0000 21.8724
#
#
#
# Elastic Compliance Matrix: (Units=1/GPa)
#
#
# Indices 1 2 3 4 5 6 
#
# 1 0.011740 -0.003969 -0.004118 0.000000 0.000000 0.000000
# 2 -0.003969 0.019578 -0.003935 0.000000 0.000000 0.000000
# 3 -0.004118 -0.003935 0.010516 0.000000 0.000000 0.000000
# 4 0.000000 0.000000 0.000000 0.064644 0.000000 0.000000
# 5 0.000000 0.000000 0.000000 0.000000 0.033289 0.000000
# 6 0.000000 0.000000 0.000000 0.000000 0.000000 0.045720
#
#
# Mechanical properties :
#
#
# Convention : Reuss Voigt Hill
#
# Bulk Modulus (GPa) = 56.20573 65.21415 60.70994
# Shear Modulus (GPa) = 23.20614 25.66908 24.43761
#
# Velocity S-wave (km/s) = 3.84325 4.04206 3.94391
# Velocity P-wave (km/s) = 7.44774 7.95568 7.70589
#
# Compressibility (1/GPa) = 0.01779178
#
# Stress axis : x y z
#
# Youngs Moduli (GPa) = 85.17936 51.07673 95.08982
#
# Poissons Ratio (x) = 0.20271 0.39160
# Poissons Ratio (y) = 0.33805 0.37414
# Poissons Ratio (z) = 0.35079 0.20096
#
# Static dielectric constant tensor:
#      x y z
#    x 3.174170 0.000000 0.000000 
#    y 0.000000 2.686320 0.000000 
#    z 0.000000 0.000000 3.637770 
# 
# 
# High freq. dielectric constant tensor:
#      x y z
#    x 1.629890 0.000000 0.000000 
#    y 0.000000 1.550320 0.000000 
#    z 0.000000 0.000000 1.612680 
# 
# From -- ./inp_files/26473.got.cif
#   From: 2010.03.12/outbox.cif.g09.slc.cpg/sg40_14_cif.got.tgz:26473.got - 2010.04.14 01:38:03.
