data_PCOD8182853
_publ_section_title
;
Structure prediction by ZEFSAII (Michael W. Deem and Ramdas Pophale) SiO2 
 PCOD8182853
Probable space group: A M A 2
;
_chemical_formula_sum "Si O2"
_cell_formula_units_Z 56
_cell_length_a 8.922816
_cell_length_b 13.588134
_cell_length_c 29.031018
_cell_angle_alpha 90.000000
_cell_angle_beta 90.000000
_cell_angle_gamma 90.000000
_cell_volume 3519.848924
_symmetry_space_group_name_H-M "A M A 2"
_symmetry_group_IT_number 40
_symmetry_cell_setting 'orthorhombic'
loop_
_space_group_symop_operation_xyz
x,y,z
-x,-y,z
1/2-x,y,z
1/2+x,-y,z
x,1/2+y,1/2+z
-x,1/2-y,1/2+z
1/2-x,1/2+y,1/2+z
1/2+x,1/2-y,1/2+z
loop_
_atom_site_type_symbol
_atom_site_label
_atom_site_fract_x
_atom_site_fract_y
_atom_site_fract_z
Si Si1 0.926966 0.396084 0.776940
Si Si2 0.424494 0.605433 0.411695
Si Si3 0.925004 0.788610 0.817447
Si Si4 0.421531 0.206315 0.182823
Si Si5 0.074894 0.900239 0.736509
Si Si6 0.425385 0.894239 0.000168
Si Si7 0.075954 0.895036 0.101645
O O1 0.750000 0.399865 0.784922
O O2 0.965962 0.365844 0.724642
O O3 0.000000 0.500000 0.788410
O O4 0.996539 0.316777 0.811700
O O5 0.500000 0.500000 0.402140
O O6 0.250000 0.587378 0.419925
O O7 0.454258 0.677730 0.369372
O O8 0.495430 0.660348 0.456970
O O9 0.750000 0.779690 0.805742
O O10 0.997888 0.869323 0.784111
O O11 0.250000 0.190105 0.168953
O O12 0.452105 0.318412 0.197495
O O13 0.521776 0.184019 0.138665
O O14 0.250000 0.915472 0.746220
O O15 0.000000 0.000000 0.718126
O O16 0.250000 0.901866 0.990338
O O17 0.457031 0.848542 0.050831
O O18 0.500000 0.000000 0.000709
O O19 0.250000 0.914223 0.108442
O O20 0.000000 0.000000 0.109678
#
# Coordination Sequence:
#
# PCOD8182853 Si02
#       7
#     8   8   8   8   8   8   8
#     4  10  20  33  48  67  92 121 153 188 225 265
#     4  10  19  29  44  66  91 120 151 183 221 265
#     4  10  20  32  47  68  92 120 154 187 223 267
#     4   9  19  32  46  66  90 118 151 183 219 264
#     4  10  20  33  48  67  91 120 153 187 225 266
#     4   9  17  28  42  62  88 117 148 181 220 265
#     4  10  19  29  44  66  91 120 151 183 221 264
#
# _framework density 15.909772999999999
#
# number of rings (size 3 to 8) (size 9 to 14) (size 15 to 20)
#    0.000    2.286    0.000    5.143    0.000    9.714 
#    0.000    0.000    0.000    0.000    0.000    1.000 
#    0.000    4.571    0.000    0.000    0.000    0.000 
#
# Total GULP energy -347132.512032 kJ/mol
# GULP energy per Si atom -12397.589715 kJ/mol
# Density = 1.587356 g / cm^3
# Si number density = 15.909773 Si / 1000 Ang^3
#
#
#
# Elastic Constant Matrix: (Units=GPa)
#
#
# Indices 1 2 3 4 5 6 
#
# 1 115.5743 49.1315 71.4835 0.0000 0.0000 0.0000
# 2 49.1315 89.3805 47.8368 0.0000 0.0000 0.0000
# 3 71.4835 47.8368 123.2927 0.0000 0.0000 0.0000
# 4 0.0000 0.0000 0.0000 18.6525 0.0000 0.0000
# 5 0.0000 0.0000 0.0000 0.0000 28.6515 0.0000
# 6 0.0000 0.0000 0.0000 0.0000 0.0000 27.0864
#
#
#
# Elastic Compliance Matrix: (Units=1/GPa)
#
#
# Indices 1 2 3 4 5 6 
#
# 1 0.014779 -0.004465 -0.006836 0.000000 0.000000 0.000000
# 2 -0.004465 0.015469 -0.003413 0.000000 0.000000 0.000000
# 3 -0.006836 -0.003413 0.013399 0.000000 0.000000 0.000000
# 4 0.000000 0.000000 0.000000 0.053612 0.000000 0.000000
# 5 0.000000 0.000000 0.000000 0.000000 0.034902 0.000000
# 6 0.000000 0.000000 0.000000 0.000000 0.000000 0.036919
#
#
# Mechanical properties :
#
#
# Convention : Reuss Voigt Hill
#
# Bulk Modulus (GPa) = 70.33397 73.90567 72.11982
# Shear Modulus (GPa) = 24.60052 25.53113 25.06583
#
# Velocity S-wave (km/s) = 3.93651 4.01027 3.97356
# Velocity P-wave (km/s) = 8.06012 8.24602 8.15360
#
# Compressibility (1/GPa) = 0.01421788
#
# Stress axis : x y z
#
# Youngs Moduli (GPa) = 67.66482 64.64443 74.63471
#
# Poissons Ratio (x) = 0.28864 0.51021
# Poissons Ratio (y) = 0.30212 0.25475
# Poissons Ratio (z) = 0.46257 0.22065
#
# Static dielectric constant tensor:
#      x y z
#    x 3.210960 0.000000 0.000000 
#    y 0.000000 2.787660 0.000000 
#    z 0.000000 0.000000 3.415880 
# 
# 
# High freq. dielectric constant tensor:
#      x y z
#    x 1.632740 0.000000 0.000000 
#    y 0.000000 1.577480 0.000000 
#    z 0.000000 0.000000 1.610710 
# 
# From -- ./inp_files/26396.got.cif
#   From: 2010.03.12/outbox.cif.g09.slc.cpg/sg40_14_cif.got.tgz:26396.got - 2010.04.14 01:38:03.
