data_PCOD8182956
_publ_section_title
;
Structure prediction by ZEFSAII (Michael W. Deem and Ramdas Pophale) SiO2 
 PCOD8182956
Probable space group: A M A 2
;
_chemical_formula_sum "Si O2"
_cell_formula_units_Z 56
_cell_length_a 8.966602
_cell_length_b 13.999954
_cell_length_c 22.934122
_cell_angle_alpha 90.000000
_cell_angle_beta 90.000000
_cell_angle_gamma 90.000000
_cell_volume 2878.966559
_symmetry_space_group_name_H-M "A M A 2"
_symmetry_group_IT_number 40
_symmetry_cell_setting 'orthorhombic'
loop_
_space_group_symop_operation_xyz
x,y,z
-x,-y,z
1/2-x,y,z
1/2+x,-y,z
x,1/2+y,1/2+z
-x,1/2-y,1/2+z
1/2-x,1/2+y,1/2+z
1/2+x,1/2-y,1/2+z
loop_
_atom_site_type_symbol
_atom_site_label
_atom_site_fract_x
_atom_site_fract_y
_atom_site_fract_z
Si Si1 0.084465 0.359287 0.466200
Si Si2 0.576630 0.592140 0.891241
Si Si3 0.074006 0.714649 0.121665
Si Si4 0.072754 0.594175 0.581347
Si Si5 0.925110 0.397722 0.235568
Si Si6 0.574459 0.801231 0.855726
Si Si7 0.586845 0.858238 0.501090
O O1 0.250000 0.406837 0.465324
O O2 0.101729 0.250221 0.482418
O O3 0.978798 0.407977 0.513876
O O4 0.008537 0.368154 0.402730
O O5 0.500000 0.500000 0.860747
O O6 0.750000 0.578580 0.884355
O O7 0.522764 0.690342 0.860897
O O8 0.533593 0.590677 0.960039
O O9 0.250000 0.738336 0.121450
O O10 0.020199 0.663562 0.180435
O O11 0.034879 0.641566 0.068675
O O12 0.985007 0.813327 0.115805
O O13 0.250000 0.590098 0.585023
O O14 0.000000 0.500000 0.611202
O O15 0.750000 0.414248 0.232986
O O16 0.972370 0.338408 0.292498
O O17 0.000000 0.500000 0.235816
O O18 0.750000 0.808755 0.867646
O O19 0.750000 0.907476 0.493766
#
# Coordination Sequence:
#
# PCOD8182956 Si02
#       7
#     8   8   8   8   8   8   8
#     4   9  17  31  52  78 108 141 176 219 267 315
#     4  10  19  31  50  76 106 139 175 215 265 321
#     4   9  19  37  57  79 110 145 180 224 274 322
#     4  11  21  34  55  83 114 147 182 222 270 329
#     4  10  22  40  60  80 106 140 182 230 277 325
#     4   9  19  36  55  77 108 147 185 224 271 324
#     4   8  15  29  49  73 102 135 170 208 256 310
#
# _framework density 19.451425
#
# number of rings (size 3 to 8) (size 9 to 14) (size 15 to 20)
#    0.000    2.571    0.000    3.000    0.000    6.286 
#    0.000    3.571    0.000    1.714    0.000    0.000 
#    0.000    0.000    0.000    0.000    0.000    0.000 
#
# Total GULP energy -347094.671181 kJ/mol
# GULP energy per Si atom -12396.238256 kJ/mol
# Density = 1.940715 g / cm^3
# Si number density = 19.451425 Si / 1000 Ang^3
#
#
#
# Elastic Constant Matrix: (Units=GPa)
#
#
# Indices 1 2 3 4 5 6 
#
# 1 88.2031 51.3756 37.2402 0.0000 0.0000 0.0000
# 2 51.3756 116.6983 54.7854 0.0000 0.0000 0.0000
# 3 37.2402 54.7854 135.9247 0.0000 0.0000 0.0000
# 4 0.0000 0.0000 0.0000 18.5148 0.0000 0.0000
# 5 0.0000 0.0000 0.0000 0.0000 23.5423 0.0000
# 6 0.0000 0.0000 0.0000 0.0000 0.0000 33.3353
#
#
#
# Elastic Compliance Matrix: (Units=1/GPa)
#
#
# Indices 1 2 3 4 5 6 
#
# 1 0.015619 -0.006003 -0.001860 0.000000 0.000000 0.000000
# 2 -0.006003 0.012876 -0.003545 0.000000 0.000000 0.000000
# 3 -0.001860 -0.003545 0.009295 0.000000 0.000000 0.000000
# 4 0.000000 0.000000 0.000000 0.054011 0.000000 0.000000
# 5 0.000000 0.000000 0.000000 0.000000 0.042477 0.000000
# 6 0.000000 0.000000 0.000000 0.000000 0.000000 0.029998
#
#
# Mechanical properties :
#
#
# Convention : Reuss Voigt Hill
#
# Bulk Modulus (GPa) = 66.77828 69.73648 68.25738
# Shear Modulus (GPa) = 26.03017 28.24013 27.13515
#
# Velocity S-wave (km/s) = 3.66213 3.81442 3.73905
# Velocity P-wave (km/s) = 7.23097 7.43836 7.33540
#
# Compressibility (1/GPa) = 0.01497493
#
# Stress axis : x y z
#
# Youngs Moduli (GPa) = 64.02313 77.66204 107.57994
#
# Poissons Ratio (x) = 0.46623 0.20006
# Poissons Ratio (y) = 0.38435 0.38138
# Poissons Ratio (z) = 0.11906 0.27532
#
# Static dielectric constant tensor:
#      x y z
#    x 3.584110 0.000000 0.000000 
#    y 0.000000 3.691180 0.000000 
#    z 0.000000 0.000000 3.631210 
# 
# 
# High freq. dielectric constant tensor:
#      x y z
#    x 1.755630 0.000000 0.000000 
#    y 0.000000 1.760250 0.000000 
#    z 0.000000 0.000000 1.736640 
# 
# From -- ./inp_files/22168.got.cif
#   From: 2010.03.12/outbox.cif.g09.slc.cpg/sg40_12_cif.got.tgz:22168.got - 2010.04.14 01:38:03.
