data_PCOD8182740
_publ_section_title
;
Structure prediction by ZEFSAII (Michael W. Deem and Ramdas Pophale) SiO2 
 PCOD8182740
Probable space group: A M A 2
;
_chemical_formula_sum "Si O2"
_cell_formula_units_Z 64
_cell_length_a 15.685500
_cell_length_b 13.308029
_cell_length_c 16.709797
_cell_angle_alpha 90.000000
_cell_angle_beta 90.000000
_cell_angle_gamma 90.000000
_cell_volume 3488.054640
_symmetry_space_group_name_H-M "A M A 2"
_symmetry_group_IT_number 40
_symmetry_cell_setting 'orthorhombic'
loop_
_space_group_symop_operation_xyz
x,y,z
-x,-y,z
1/2-x,y,z
1/2+x,-y,z
x,1/2+y,1/2+z
-x,1/2-y,1/2+z
1/2-x,1/2+y,1/2+z
1/2+x,1/2-y,1/2+z
loop_
_atom_site_type_symbol
_atom_site_label
_atom_site_fract_x
_atom_site_fract_y
_atom_site_fract_z
Si Si1 0.654431 0.382250 0.590090
Si Si2 0.653937 0.715990 0.213977
Si Si3 0.508961 0.214571 0.025636
Si Si4 0.061901 0.916833 0.586039
Si Si5 0.150418 0.021181 0.438001
Si Si6 0.432887 0.913842 0.294387
Si Si7 0.652734 0.612551 0.630433
Si Si8 0.566360 0.780313 0.368136
O O1 0.750000 0.355149 0.557252
O O2 0.640732 0.326611 0.675271
O O3 0.579737 0.346216 0.531599
O O4 0.644952 0.499854 0.599567
O O5 0.750000 0.680834 0.213689
O O6 0.608363 0.630969 0.161890
O O7 0.626613 0.722440 0.306103
O O8 0.491506 0.331986 0.039976
O O9 0.583867 0.179838 0.084774
O O10 0.540039 0.198912 0.934855
O O11 0.122011 0.974244 0.522542
O O12 0.000000 0.000000 0.623353
O O13 0.250000 0.037682 0.441009
O O14 0.125098 0.944166 0.368877
O O15 0.109271 0.127828 0.416018
O O16 0.369241 0.885195 0.223646
O O17 0.484159 0.814545 0.318273
O O18 0.500000 0.000000 0.268144
O O19 0.750000 0.652330 0.617945
#
# Coordination Sequence:
#
# PCOD8182740 Si02
#       8
#     8   8   8   8   8   8   8   8
#     4   9  19  37  61  88 113 147 199 247 301 366
#     4  10  21  36  60  88 117 154 198 253 308 365
#     4  11  21  37  58  82 118 158 199 246 301 355
#     4  11  20  40  57  83 118 159 207 242 300 375
#     4  11  20  33  58  88 120 150 191 253 305 360
#     4  10  18  33  54  83 114 148 183 233 302 364
#     4  11  22  36  57  89 120 154 193 244 307 369
#     4  11  21  36  55  83 119 152 201 244 301 354
#
# _framework density 18.348337000000001
#
# number of rings (size 3 to 8) (size 9 to 14) (size 15 to 20)
#    0.000    1.500    2.500    5.625    0.000    2.500 
#    0.000    1.250    0.000    0.000    0.000    0.000 
#    0.000    0.000    0.000    0.000    0.000    0.000 
#
# Total GULP energy -396715.328945 kJ/mol
# GULP energy per Si atom -12397.354030 kJ/mol
# Density = 1.830658 g / cm^3
# Si number density = 18.348337 Si / 1000 Ang^3
#
#
#
# Elastic Constant Matrix: (Units=GPa)
#
#
# Indices 1 2 3 4 5 6 
#
# 1 108.9783 32.6867 22.1617 0.0000 0.0000 0.0000
# 2 32.6867 44.4274 17.3589 0.0000 0.0000 0.0000
# 3 22.1617 17.3589 57.6780 0.0000 0.0000 0.0000
# 4 0.0000 0.0000 0.0000 18.5296 0.0000 0.0000
# 5 0.0000 0.0000 0.0000 0.0000 26.8345 0.0000
# 6 0.0000 0.0000 0.0000 0.0000 0.0000 17.2788
#
#
#
# Elastic Compliance Matrix: (Units=1/GPa)
#
#
# Indices 1 2 3 4 5 6 
#
# 1 0.012020 -0.007977 -0.002218 0.000000 0.000000 0.000000
# 2 -0.007977 0.030802 -0.006205 0.000000 0.000000 0.000000
# 3 -0.002218 -0.006205 0.020057 0.000000 0.000000 0.000000
# 4 0.000000 0.000000 0.000000 0.053968 0.000000 0.000000
# 5 0.000000 0.000000 0.000000 0.000000 0.037266 0.000000
# 6 0.000000 0.000000 0.000000 0.000000 0.000000 0.057874
#
#
# Mechanical properties :
#
#
# Convention : Reuss Voigt Hill
#
# Bulk Modulus (GPa) = 33.24523 39.49981 36.37252
# Shear Modulus (GPa) = 19.62229 21.78701 20.70465
#
# Velocity S-wave (km/s) = 3.27376 3.44962 3.36284
# Velocity P-wave (km/s) = 5.69634 6.11890 5.91140
#
# Compressibility (1/GPa) = 0.03007950
#
# Stress axis : x y z
#
# Youngs Moduli (GPa) = 83.19723 32.46552 49.85729
#
# Poissons Ratio (x) = 0.25897 0.11056
# Poissons Ratio (y) = 0.66364 0.30938
# Poissons Ratio (z) = 0.18450 0.20146
#
# Static dielectric constant tensor:
#      x y z
#    x 3.718720 0.000000 0.000000 
#    y 0.000000 3.233700 0.000000 
#    z 0.000000 0.000000 3.380830 
# 
# 
# High freq. dielectric constant tensor:
#      x y z
#    x 1.727340 0.000000 0.000000 
#    y 0.000000 1.691200 0.000000 
#    z 0.000000 0.000000 1.704210 
# 
# From -- ./inp_files/20773.got.cif
#   From: 2010.03.12/outbox.cif.g09.slc.cpg/sg40_11_cif.got.tgz:20773.got - 2010.04.14 01:38:03.
