data_PCOD8182293
_publ_section_title
;
Structure prediction by ZEFSAII (Michael W. Deem and Ramdas Pophale) SiO2 
 PCOD8182293
Probable space group: A B M 2
;
_chemical_formula_sum "Si O2"
_cell_formula_units_Z 64
_cell_length_a 23.921962
_cell_length_b 9.183374
_cell_length_c 14.549588
_cell_angle_alpha 90.000000
_cell_angle_beta 90.000000
_cell_angle_gamma 90.000000
_cell_volume 3196.316402
_symmetry_space_group_name_H-M "A B M 2"
_symmetry_group_IT_number 39
_symmetry_cell_setting 'orthorhombic'
loop_
_space_group_symop_operation_xyz
x,y,z
-x,-y,z
-x,1/2+y,z
x,1/2-y,z
x,1/2+y,1/2+z
-x,1/2-y,1/2+z
-x,y,1/2+z
x,-y,1/2+z
loop_
_atom_site_type_symbol
_atom_site_label
_atom_site_fract_x
_atom_site_fract_y
_atom_site_fract_z
Si Si1 0.752673 0.918055 0.539040
Si Si2 0.850047 0.580716 0.768339
Si Si3 0.624222 0.583846 0.208958
Si Si4 0.556904 0.921154 0.852621
Si Si5 0.875721 0.083956 0.059228
Si Si6 0.349985 0.419265 0.999854
Si Si7 0.252748 0.918110 0.729611
Si Si8 0.056950 0.578781 0.415565
O O1 0.736963 0.750000 0.553456
O O2 0.816638 0.933291 0.504392
O O3 0.706385 0.991225 0.472431
O O4 0.750002 0.001287 0.633873
O O5 0.834977 0.750000 0.774891
O O6 0.869656 0.538805 0.665671
O O7 0.793469 0.492316 0.795847
O O8 0.898907 0.536247 0.837253
O O9 0.603101 0.750000 0.216479
O O10 0.578662 0.478806 0.254513
O O11 0.630252 0.538936 0.102473
O O12 0.683245 0.565884 0.263882
O O13 0.546606 0.750000 0.845714
O O14 0.500000 0.000000 0.880296
O O15 0.601140 0.963238 0.930864
O O16 0.897030 0.250000 0.051860
O O17 0.921182 0.978663 0.013644
O O18 0.334679 0.250000 0.993369
O O19 0.236893 0.750000 0.716716
O O20 0.046743 0.750000 0.422262
O O21 0.000000 0.500000 0.388131
#
# Coordination Sequence:
#
# PCOD8182293 Si02
#       8
#     8   8   8   8   8   8   8   8
#     4   9  17  31  55  85 115 145 178 219 269 326
#     4   9  20  38  58  82 113 146 180 222 273 327
#     4   9  19  37  58  82 113 145 179 221 270 324
#     4  11  24  40  57  79 108 144 188 233 274 322
#     4   9  19  37  58  82 113 145 179 221 270 324
#     4   9  20  38  58  82 113 146 180 222 273 327
#     4   9  17  31  55  85 115 145 178 219 269 326
#     4  11  24  40  57  79 108 144 188 233 274 322
#
# _framework density 20.023047999999999
#
# number of rings (size 3 to 8) (size 9 to 14) (size 15 to 20)
#    0.000    2.500    0.000    3.000    0.000    9.000 
#    0.000    7.500    0.000    0.000    0.000    0.000 
#    0.000    0.000    0.000    0.000    0.000    0.000 
#
# Total GULP energy -396720.044183 kJ/mol
# GULP energy per Si atom -12397.501381 kJ/mol
# Density = 1.997747 g / cm^3
# Si number density = 20.023048 Si / 1000 Ang^3
#
#
#
# Elastic Constant Matrix: (Units=GPa)
#
#
# Indices 1 2 3 4 5 6 
#
# 1 78.9233 39.9219 11.3673 0.0000 0.0000 0.0000
# 2 39.9219 79.5022 10.3688 0.0000 0.0000 0.0000
# 3 11.3673 10.3688 42.3258 0.0000 0.0000 0.0000
# 4 0.0000 0.0000 0.0000 21.5787 0.0000 0.0000
# 5 0.0000 0.0000 0.0000 0.0000 28.5945 0.0000
# 6 0.0000 0.0000 0.0000 0.0000 0.0000 42.8015
#
#
#
# Elastic Compliance Matrix: (Units=1/GPa)
#
#
# Indices 1 2 3 4 5 6 
#
# 1 0.017256 -0.008327 -0.002595 0.000000 0.000000 0.000000
# 2 -0.008327 0.017011 -0.001931 0.000000 0.000000 0.000000
# 3 -0.002595 -0.001931 0.024796 0.000000 0.000000 0.000000
# 4 0.000000 0.000000 0.000000 0.046342 0.000000 0.000000
# 5 0.000000 0.000000 0.000000 0.000000 0.034972 0.000000
# 6 0.000000 0.000000 0.000000 0.000000 0.000000 0.023364
#
#
# Mechanical properties :
#
#
# Convention : Reuss Voigt Hill
#
# Bulk Modulus (GPa) = 29.97705 36.00748 32.99227
# Shear Modulus (GPa) = 24.92948 27.86781 26.39865
#
# Velocity S-wave (km/s) = 3.53234 3.73471 3.63493
# Velocity P-wave (km/s) = 5.62497 6.05140 5.84208
#
# Compressibility (1/GPa) = 0.03335885
#
# Stress axis : x y z
#
# Youngs Moduli (GPa) = 57.95025 58.78413 40.32883
#
# Poissons Ratio (x) = 0.48948 0.10464
# Poissons Ratio (y) = 0.48254 0.07788
# Poissons Ratio (z) = 0.15036 0.11352
#
# Static dielectric constant tensor:
#      x y z
#    x -6.812720 0.000000 0.000000 
#    y 0.000000 3.722610 0.000000 
#    z 0.000000 0.000000 3.438360 
# 
# 
# High freq. dielectric constant tensor:
#      x y z
#    x 1.784010 0.000000 0.000000 
#    y 0.000000 1.784760 0.000000 
#    z 0.000000 0.000000 1.765760 
# 
# From -- ./inp_files/10575.got.cif
#   From: 2010.03.12/outbox.cif.g09.slc.cpg/sg39_6_cif.got.tgz:10575.got - 2010.04.14 02:53:20.
