data_PCOD8182830
_publ_section_title
;
Structure prediction by ZEFSAII (Michael W. Deem and Ramdas Pophale) SiO2 
 PCOD8182830
Probable space group: A M A 2
;
_chemical_formula_sum "Si O2"
_cell_formula_units_Z 64
_cell_length_a 8.972809
_cell_length_b 18.459904
_cell_length_c 26.605288
_cell_angle_alpha 90.000000
_cell_angle_beta 90.000000
_cell_angle_gamma 90.000000
_cell_volume 4406.825217
_symmetry_space_group_name_H-M "A M A 2"
_symmetry_group_IT_number 40
_symmetry_cell_setting 'orthorhombic'
loop_
_space_group_symop_operation_xyz
x,y,z
-x,-y,z
1/2-x,y,z
1/2+x,-y,z
x,1/2+y,1/2+z
-x,1/2-y,1/2+z
1/2-x,1/2+y,1/2+z
1/2+x,1/2-y,1/2+z
loop_
_atom_site_type_symbol
_atom_site_label
_atom_site_fract_x
_atom_site_fract_y
_atom_site_fract_z
Si Si1 0.427697 0.422705 0.432320
Si Si2 0.920445 0.850476 0.728824
Si Si3 0.919913 0.573866 0.625669
Si Si4 0.425391 0.924695 0.635723
Si Si5 0.075042 0.336156 0.529697
Si Si6 0.921705 0.714465 0.080034
Si Si7 0.572936 0.423084 0.330474
Si Si8 0.918522 0.217159 0.169876
O O1 0.500000 0.500000 0.444483
O O2 0.250000 0.430833 0.427607
O O3 0.475489 0.368393 0.476510
O O4 0.497569 0.391298 0.380888
O O5 0.750000 0.874301 0.720319
O O6 0.969070 0.868541 0.785472
O O7 0.939775 0.762917 0.721374
O O8 0.016021 0.895571 0.689042
O O9 0.750000 0.552939 0.616688
O O10 0.983244 0.611567 0.574751
O O11 0.939939 0.629922 0.673029
O O12 0.000000 0.500000 0.639510
O O13 0.250000 0.934930 0.641563
O O14 0.463829 0.869853 0.589528
O O15 0.500000 0.000000 0.621105
O O16 0.250000 0.329229 0.533225
O O17 0.010078 0.254505 0.535082
O O18 0.750000 0.723227 0.067244
O O19 0.958481 0.754267 0.131843
O O20 0.500000 0.500000 0.317452
O O21 0.750000 0.431712 0.338074
O O22 0.750000 0.231435 0.148717
#
# Coordination Sequence:
#
# PCOD8182830 Si02
#       8
#     8   8   8   8   8   8   8   8
#     4  10  19  30  43  59  80 106 136 168 201 235
#     4   9  17  29  44  58  76 106 139 168 200 237
#     4   9  16  25  38  56  78 102 129 159 189 227
#     4  10  19  28  40  60  83 107 135 164 196 234
#     4   9  18  30  42  56  76 106 137 161 194 237
#     4   9  17  27  40  59  79 100 130 166 197 228
#     4  10  19  29  41  58  79 104 134 167 202 235
#     4   8  15  28  41  54  76 105 133 161 195 235
#
# _framework density 14.522926
#
# number of rings (size 3 to 8) (size 9 to 14) (size 15 to 20)
#    0.000    2.750    0.000    3.750    0.000    6.500 
#    0.000    0.000    0.000    0.000    0.000    0.000 
#    0.000    1.000    0.000    7.000    0.000    3.500 
#
# Total GULP energy -396476.021552 kJ/mol
# GULP energy per Si atom -12389.875674 kJ/mol
# Density = 1.448987 g / cm^3
# Si number density = 14.522926 Si / 1000 Ang^3
#
#
#
# Elastic Constant Matrix: (Units=GPa)
#
#
# Indices 1 2 3 4 5 6 
#
# 1 54.1687 44.4639 34.2523 0.0000 0.0000 0.0000
# 2 44.4639 116.0422 63.6590 0.0000 0.0000 0.0000
# 3 34.2523 63.6590 93.9311 0.0000 0.0000 0.0000
# 4 0.0000 0.0000 0.0000 28.8362 0.0000 0.0000
# 5 0.0000 0.0000 0.0000 0.0000 16.6954 0.0000
# 6 0.0000 0.0000 0.0000 0.0000 0.0000 23.7285
#
#
#
# Elastic Compliance Matrix: (Units=1/GPa)
#
#
# Indices 1 2 3 4 5 6 
#
# 1 0.028182 -0.008215 -0.004709 0.000000 0.000000 0.000000
# 2 -0.008215 0.016112 -0.007924 0.000000 0.000000 0.000000
# 3 -0.004709 -0.007924 0.017733 0.000000 0.000000 0.000000
# 4 0.000000 0.000000 0.000000 0.034679 0.000000 0.000000
# 5 0.000000 0.000000 0.000000 0.000000 0.059897 0.000000
# 6 0.000000 0.000000 0.000000 0.000000 0.000000 0.042143
#
#
# Mechanical properties :
#
#
# Convention : Reuss Voigt Hill
#
# Bulk Modulus (GPa) = 49.18509 60.98803 55.08656
# Shear Modulus (GPa) = 20.22493 21.96982 21.09737
#
# Velocity S-wave (km/s) = 3.73583 3.89365 3.81556
# Velocity P-wave (km/s) = 7.24909 7.89300 7.57789
#
# Compressibility (1/GPa) = 0.02033136
#
# Stress axis : x y z
#
# Youngs Moduli (GPa) = 35.48396 62.06439 56.39050
#
# Poissons Ratio (x) = 0.50986 0.26554
# Poissons Ratio (y) = 0.29150 0.44684
# Poissons Ratio (z) = 0.16709 0.49180
#
# Static dielectric constant tensor:
#      x y z
#    x 2.900130 0.000000 0.000000 
#    y 0.000000 2.990610 0.000000 
#    z 0.000000 0.000000 2.782110 
# 
# 
# High freq. dielectric constant tensor:
#      x y z
#    x 1.565980 0.000000 0.000000 
#    y 0.000000 1.545980 0.000000 
#    z 0.000000 0.000000 1.520730 
# 
# From -- ./inp_files/25547.got.cif
#   From: 2010.03.12/outbox.cif.g09.slc.cpg/sg40_13_cif.got.tgz:25547.got - 2010.04.14 01:38:03.
