data_PCOD8182610
_publ_section_title
;
Structure prediction by ZEFSAII (Michael W. Deem and Ramdas Pophale) SiO2 
 PCOD8182610
Probable space group: A M A 2
;
_chemical_formula_sum "Si O2"
_cell_formula_units_Z 64
_cell_length_a 8.773384
_cell_length_b 20.925638
_cell_length_c 19.677307
_cell_angle_alpha 90.000000
_cell_angle_beta 90.000000
_cell_angle_gamma 90.000000
_cell_volume 3612.530378
_symmetry_space_group_name_H-M "A M A 2"
_symmetry_group_IT_number 40
_symmetry_cell_setting 'orthorhombic'
loop_
_space_group_symop_operation_xyz
x,y,z
-x,-y,z
1/2-x,y,z
1/2+x,-y,z
x,1/2+y,1/2+z
-x,1/2-y,1/2+z
1/2-x,1/2+y,1/2+z
1/2+x,1/2-y,1/2+z
loop_
_atom_site_type_symbol
_atom_site_label
_atom_site_fract_x
_atom_site_fract_y
_atom_site_fract_z
Si Si1 0.927668 0.240785 0.586980
Si Si2 0.068927 0.933780 0.807062
Si Si3 0.430490 0.687460 0.806028
Si Si4 0.071062 0.375624 0.444112
Si Si5 0.929252 0.121885 0.094480
Si Si6 0.069727 0.066013 0.224255
Si Si7 0.570088 0.268293 0.950512
Si Si8 0.572112 0.189028 0.729438
O O1 0.750000 0.258539 0.582548
O O2 0.959903 0.192337 0.648964
O O3 0.021862 0.304752 0.601682
O O4 0.984359 0.206223 0.517958
O O5 0.250000 0.938723 0.804207
O O6 0.006559 0.919939 0.883732
O O7 0.005204 0.877204 0.758598
O O8 0.000000 0.000000 0.780785
O O9 0.250000 0.688414 0.796865
O O10 0.495090 0.622908 0.771910
O O11 0.474931 0.688381 0.885763
O O12 0.500465 0.749349 0.767659
O O13 0.250000 0.371411 0.434845
O O14 0.028078 0.402970 0.518504
O O15 0.009676 0.303369 0.436077
O O16 0.750000 0.116567 0.108546
O O17 0.019180 0.077583 0.146765
O O18 0.250000 0.061518 0.227339
O O19 0.000000 0.000000 0.251493
O O20 0.750000 0.269637 0.964526
O O21 0.750000 0.189718 0.746206
#
# Coordination Sequence:
#
# PCOD8182610 Si02
#       8
#     8   8   8   8   8   8   8   8
#     4  10  18  30  50  78 106 132 166 210 261 307
#     4  10  19  33  51  71  98 132 170 208 247 294
#     4   9  16  31  56  77  94 130 178 213 250 308
#     4   8  15  28  48  70  96 130 166 201 240 292
#     4  10  19  32  50  75 104 138 175 209 249 301
#     4  11  22  36  53  75 104 138 176 216 262 314
#     4   9  16  30  53  77  98 127 170 213 254 302
#     4   9  16  30  54  75  95 132 174 207 246 302
#
# _framework density 17.716113
#
# number of rings (size 3 to 8) (size 9 to 14) (size 15 to 20)
#    0.000    2.500    2.500    1.875    0.000    0.500 
#    0.000    6.875    0.000    0.750    0.000    5.250 
#    0.000    0.000    0.000    0.000    0.000    0.000 
#
# Total GULP energy -396665.218439 kJ/mol
# GULP energy per Si atom -12395.788076 kJ/mol
# Density = 1.767579 g / cm^3
# Si number density = 17.716113 Si / 1000 Ang^3
#
#
#
# Elastic Constant Matrix: (Units=GPa)
#
#
# Indices 1 2 3 4 5 6 
#
# 1 33.6055 22.9585 24.2710 0.0000 0.0000 0.0000
# 2 22.9585 125.4731 70.0558 0.0000 0.0000 0.0000
# 3 24.2710 70.0558 121.5151 0.0000 0.0000 0.0000
# 4 0.0000 0.0000 0.0000 25.0444 0.0000 0.0000
# 5 0.0000 0.0000 0.0000 0.0000 20.9705 0.0000
# 6 0.0000 0.0000 0.0000 0.0000 0.0000 20.3373
#
#
#
# Elastic Compliance Matrix: (Units=1/GPa)
#
#
# Indices 1 2 3 4 5 6 
#
# 1 0.035955 -0.003789 -0.004997 0.000000 0.000000 0.000000
# 2 -0.003789 0.012152 -0.006249 0.000000 0.000000 0.000000
# 3 -0.004997 -0.006249 0.012830 0.000000 0.000000 0.000000
# 4 0.000000 0.000000 0.000000 0.039929 0.000000 0.000000
# 5 0.000000 0.000000 0.000000 0.000000 0.047686 0.000000
# 6 0.000000 0.000000 0.000000 0.000000 0.000000 0.049171
#
#
# Mechanical properties :
#
#
# Convention : Reuss Voigt Hill
#
# Bulk Modulus (GPa) = 32.39719 57.24049 44.81884
# Shear Modulus (GPa) = 21.00114 24.15767 22.57940
#
# Velocity S-wave (km/s) = 3.44674 3.69670 3.57390
# Velocity P-wave (km/s) = 5.84522 7.11342 6.51027
#
# Compressibility (1/GPa) = 0.03086687
#
# Stress axis : x y z
#
# Youngs Moduli (GPa) = 27.81288 82.28930 77.94008
#
# Poissons Ratio (x) = 0.31177 0.38948
# Poissons Ratio (y) = 0.10538 0.48707
# Poissons Ratio (z) = 0.13899 0.51425
#
# Static dielectric constant tensor:
#      x y z
#    x 2.974300 0.000000 0.000000 
#    y 0.000000 3.226480 0.000000 
#    z 0.000000 0.000000 3.559900 
# 
# 
# High freq. dielectric constant tensor:
#      x y z
#    x 1.654300 0.000000 0.000000 
#    y 0.000000 1.660150 0.000000 
#    z 0.000000 0.000000 1.692450 
# 
# From -- ./inp_files/22429.got.cif
#   From: 2010.03.12/outbox.cif.g09.slc.cpg/sg40_12_cif.got.tgz:22429.got - 2010.04.14 01:38:03.
