data_PCOD8182163
_publ_section_title
;
Structure prediction by ZEFSAII (Michael W. Deem and Ramdas Pophale) SiO2 
 PCOD8182163
Probable space group: A B M 2
;
_chemical_formula_sum "Si O2"
_cell_formula_units_Z 64
_cell_length_a 14.534994
_cell_length_b 8.711118
_cell_length_c 25.112962
_cell_angle_alpha 90.000000
_cell_angle_beta 90.000000
_cell_angle_gamma 90.000000
_cell_volume 3179.703999
_symmetry_space_group_name_H-M "A B M 2"
_symmetry_group_IT_number 39
_symmetry_cell_setting 'orthorhombic'
loop_
_space_group_symop_operation_xyz
x,y,z
-x,-y,z
-x,1/2+y,z
x,1/2-y,z
x,1/2+y,1/2+z
-x,1/2-y,1/2+z
-x,y,1/2+z
x,-y,1/2+z
loop_
_atom_site_type_symbol
_atom_site_label
_atom_site_fract_x
_atom_site_fract_y
_atom_site_fract_z
Si Si1 0.224381 0.431747 0.785030
Si Si2 0.594215 0.930262 0.518295
Si Si3 0.365223 0.579075 0.627564
Si Si4 0.092384 0.433343 0.202830
Si Si5 0.897999 0.068299 0.384048
Si Si6 0.782299 0.433709 0.485819
Si Si7 0.595359 0.932171 0.246675
Si Si8 0.158815 0.580976 0.595933
O O1 0.231302 0.250000 0.785110
O O2 0.178758 0.492725 0.731479
O O3 0.162879 0.490317 0.834555
O O4 0.326515 0.501559 0.786072
O O5 0.595106 0.750000 0.509964
O O6 0.500000 0.000000 0.494371
O O7 0.598009 0.968427 0.581229
O O8 0.679009 0.000787 0.484635
O O9 0.407326 0.750000 0.619084
O O10 0.392097 0.512146 0.685402
O O11 0.256287 0.590078 0.625049
O O12 0.096790 0.250000 0.207521
O O13 0.093388 0.493163 0.141010
O O14 0.000000 0.500000 0.229581
O O15 0.907907 0.250000 0.383826
O O16 0.842870 0.011318 0.436165
O O17 0.000000 0.000000 0.382260
O O18 0.773484 0.250000 0.489304
O O19 0.833414 0.503431 0.538766
O O20 0.596990 0.750000 0.250288
O O21 0.500000 0.000000 0.268458
O O22 0.120602 0.750000 0.583573
#
# Coordination Sequence:
#
# PCOD8182163 Si02
#       8
#     8   8   8   8   8   8   8   8
#     4  11  23  40  60  86 117 153 196 247 296 349
#     4  11  21  33  53  85 120 158 199 239 285 343
#     4   9  17  33  54  79 114 157 198 236 282 338
#     4  11  21  35  54  83 116 153 192 235 291 356
#     4  10  23  42  66  90 114 148 196 246 299 352
#     4   9  19  39  61  83 114 152 192 244 294 344
#     4  11  22  37  58  86 119 158 198 241 291 350
#     4   8  15  31  54  78 111 150 186 227 284 342
#
# _framework density 20.127659000000001
#
# number of rings (size 3 to 8) (size 9 to 14) (size 15 to 20)
#    0.000    2.000    1.250    3.750    0.000    5.000 
#    0.000    1.250    0.000    0.000    0.000    0.000 
#    0.000    0.000    0.000    0.000    0.000    0.000 
#
# Total GULP energy -396629.516254 kJ/mol
# GULP energy per Si atom -12394.672383 kJ/mol
# Density = 2.008185 g / cm^3
# Si number density = 20.127659 Si / 1000 Ang^3
#
#
#
# Elastic Constant Matrix: (Units=GPa)
#
#
# Indices 1 2 3 4 5 6 
#
# 1 149.9781 43.7712 67.8777 0.0000 0.0000 0.0000
# 2 43.7712 71.0437 32.6783 0.0000 0.0000 0.0000
# 3 67.8777 32.6783 112.6540 0.0000 0.0000 0.0000
# 4 0.0000 0.0000 0.0000 21.8977 0.0000 0.0000
# 5 0.0000 0.0000 0.0000 0.0000 26.3606 0.0000
# 6 0.0000 0.0000 0.0000 0.0000 0.0000 33.7235
#
#
#
# Elastic Compliance Matrix: (Units=1/GPa)
#
#
# Indices 1 2 3 4 5 6 
#
# 1 0.010034 -0.003925 -0.004907 0.000000 0.000000 0.000000
# 2 -0.003925 0.017778 -0.002792 0.000000 0.000000 0.000000
# 3 -0.004907 -0.002792 0.012644 0.000000 0.000000 0.000000
# 4 0.000000 0.000000 0.000000 0.045667 0.000000 0.000000
# 5 0.000000 0.000000 0.000000 0.000000 0.037935 0.000000
# 6 0.000000 0.000000 0.000000 0.000000 0.000000 0.029653
#
#
# Mechanical properties :
#
#
# Convention : Reuss Voigt Hill
#
# Bulk Modulus (GPa) = 58.11560 69.14781 63.63170
# Shear Modulus (GPa) = 27.36789 29.01961 28.19375
#
# Velocity S-wave (km/s) = 3.69143 3.80119 3.74672
# Velocity P-wave (km/s) = 6.86331 7.32766 7.09929
#
# Compressibility (1/GPa) = 0.01720708
#
# Stress axis : x y z
#
# Youngs Moduli (GPa) = 99.65983 56.24801 79.09184
#
# Poissons Ratio (x) = 0.22077 0.38813
# Poissons Ratio (y) = 0.39116 0.22084
# Poissons Ratio (z) = 0.48907 0.15706
#
# Static dielectric constant tensor:
#      x y z
#    x 3.743180 0.000000 0.000000 
#    y 0.000000 3.438830 0.000000 
#    z 0.000000 0.000000 3.711120 
# 
# 
# High freq. dielectric constant tensor:
#      x y z
#    x 1.795730 0.000000 0.000000 
#    y 0.000000 1.768670 0.000000 
#    z 0.000000 0.000000 1.770460 
# 
# From -- ./inp_files/16279.got.cif
#   From: 2010.03.12/outbox.cif.g09.slc.cpg/sg39_9_cif.got.tgz:16279.got - 2010.04.14 02:53:20.
