data_PCOD8182545
_publ_section_title
;
Structure prediction by ZEFSAII (Michael W. Deem and Ramdas Pophale) SiO2 
 PCOD8182545
Probable space group: A M A 2
;
_chemical_formula_sum "Si O2"
_cell_formula_units_Z 64
_cell_length_a 9.022741
_cell_length_b 28.043068
_cell_length_c 14.743547
_cell_angle_alpha 90.000000
_cell_angle_beta 90.000000
_cell_angle_gamma 90.000000
_cell_volume 3730.490984
_symmetry_space_group_name_H-M "A M A 2"
_symmetry_group_IT_number 40
_symmetry_cell_setting 'orthorhombic'
loop_
_space_group_symop_operation_xyz
x,y,z
-x,-y,z
1/2-x,y,z
1/2+x,-y,z
x,1/2+y,1/2+z
-x,1/2-y,1/2+z
1/2-x,1/2+y,1/2+z
1/2+x,1/2-y,1/2+z
loop_
_atom_site_type_symbol
_atom_site_label
_atom_site_fract_x
_atom_site_fract_y
_atom_site_fract_z
Si Si1 0.425412 0.217777 0.280740
Si Si2 0.925181 0.548720 0.975860
Si Si3 0.923630 0.048377 0.268299
Si Si4 0.424934 0.864157 0.592676
Si Si5 0.575370 0.221838 0.465376
Si Si6 0.575630 0.173906 0.775572
Si Si7 0.421663 0.858999 0.162959
Si Si8 0.078393 0.820242 0.974209
O O1 0.250000 0.212996 0.288686
O O2 0.499139 0.201822 0.374806
O O3 0.476234 0.271746 0.259768
O O4 0.483446 0.184418 0.201076
O O5 0.750000 0.543353 0.985715
O O6 0.992145 0.590479 0.039554
O O7 0.000000 0.500000 0.008465
O O8 0.968433 0.560464 0.871803
O O9 0.750000 0.040730 0.258333
O O10 0.979667 0.091187 0.203808
O O11 0.000000 0.000000 0.234557
O O12 0.250000 0.871174 0.592575
O O13 0.467040 0.815051 0.543762
O O14 0.490249 0.860060 0.695832
O O15 0.750000 0.225049 0.449109
O O16 0.515424 0.273200 0.495716
O O17 0.750000 0.171643 0.764337
O O18 0.527609 0.157158 0.877047
O O19 0.250000 0.851291 0.189042
O O20 0.444434 0.858985 0.053785
O O21 0.250000 0.804387 0.966478
#
# Coordination Sequence:
#
# PCOD8182545 Si02
#       8
#     8   8   8   8   8   8   8   8
#     4  10  19  30  45  68  97 125 156 193 230 273
#     4   9  17  30  47  66  87 111 142 182 228 276
#     4   9  18  32  48  67  91 117 148 188 235 286
#     4   9  16  27  46  67  87 117 154 185 217 267
#     4  10  18  29  46  68  95 126 158 190 228 274
#     4   8  15  28  44  64  90 120 154 187 217 258
#     4  10  19  31  48  69  94 124 157 193 235 282
#     4   9  18  31  46  67  96 126 156 192 231 270
#
# _framework density 17.155919000000001
#
# number of rings (size 3 to 8) (size 9 to 14) (size 15 to 20)
#    0.000    2.750    0.000    3.000    0.000    4.000 
#    0.000    3.750    0.000    5.250    0.000    0.000 
#    0.000    0.000    0.000    0.000    0.000    0.000 
#
# Total GULP energy -396654.353858 kJ/mol
# GULP energy per Si atom -12395.448558 kJ/mol
# Density = 1.711687 g / cm^3
# Si number density = 17.155919 Si / 1000 Ang^3
#
#
#
# Elastic Constant Matrix: (Units=GPa)
#
#
# Indices 1 2 3 4 5 6 
#
# 1 36.1058 23.1061 27.4277 0.0000 0.0000 0.0000
# 2 23.1061 96.3077 76.7107 0.0000 0.0000 0.0000
# 3 27.4277 76.7107 138.3783 0.0000 0.0000 0.0000
# 4 0.0000 0.0000 0.0000 28.8531 0.0000 0.0000
# 5 0.0000 0.0000 0.0000 0.0000 17.7444 0.0000
# 6 0.0000 0.0000 0.0000 0.0000 0.0000 23.1671
#
#
#
# Elastic Compliance Matrix: (Units=1/GPa)
#
#
# Indices 1 2 3 4 5 6 
#
# 1 0.033888 -0.004979 -0.003957 0.000000 0.000000 0.000000
# 2 -0.004979 0.019325 -0.009726 0.000000 0.000000 0.000000
# 3 -0.003957 -0.009726 0.013403 0.000000 0.000000 0.000000
# 4 0.000000 0.000000 0.000000 0.034658 0.000000 0.000000
# 5 0.000000 0.000000 0.000000 0.000000 0.056356 0.000000
# 6 0.000000 0.000000 0.000000 0.000000 0.000000 0.043165
#
#
# Mechanical properties :
#
#
# Convention : Reuss Voigt Hill
#
# Bulk Modulus (GPa) = 34.13854 58.36454 46.25154
# Shear Modulus (GPa) = 20.17088 23.52272 21.84680
#
# Velocity S-wave (km/s) = 3.43262 3.70687 3.57238
# Velocity P-wave (km/s) = 5.97099 7.23983 6.63581
#
# Compressibility (1/GPa) = 0.02929240
#
# Stress axis : x y z
#
# Youngs Moduli (GPa) = 29.50859 51.74697 74.61280
#
# Poissons Ratio (x) = 0.25763 0.29524
# Poissons Ratio (y) = 0.14691 0.72568
# Poissons Ratio (z) = 0.11676 0.50329
#
# Static dielectric constant tensor:
#      x y z
#    x 2.994750 0.000000 0.000000 
#    y 0.000000 3.126530 0.000000 
#    z 0.000000 0.000000 3.534720 
# 
# 
# High freq. dielectric constant tensor:
#      x y z
#    x 1.639820 0.000000 0.000000 
#    y 0.000000 1.639110 0.000000 
#    z 0.000000 0.000000 1.669230 
# 
# From -- ./inp_files/15898.got.cif
#   From: 2010.03.12/outbox.cif.g09.slc.cpg/sg40_8_cif.got.tgz:15898.got - 2010.04.14 01:38:03.
