data_PCOD8182704
_publ_section_title
;
Structure prediction by ZEFSAII (Michael W. Deem and Ramdas Pophale) SiO2 
 PCOD8182704
Probable space group: A M A 2
;
_chemical_formula_sum "Si O2"
_cell_formula_units_Z 48
_cell_length_a 8.550370
_cell_length_b 9.462096
_cell_length_c 30.753049
_cell_angle_alpha 90.000000
_cell_angle_beta 90.000000
_cell_angle_gamma 90.000000
_cell_volume 2488.057647
_symmetry_space_group_name_H-M "A M A 2"
_symmetry_group_IT_number 40
_symmetry_cell_setting 'orthorhombic'
loop_
_space_group_symop_operation_xyz
x,y,z
-x,-y,z
1/2-x,y,z
1/2+x,-y,z
x,1/2+y,1/2+z
-x,1/2-y,1/2+z
1/2-x,1/2+y,1/2+z
1/2+x,1/2-y,1/2+z
loop_
_atom_site_type_symbol
_atom_site_label
_atom_site_fract_x
_atom_site_fract_y
_atom_site_fract_z
Si Si1 0.567978 0.155637 0.068240
Si Si2 0.065587 0.846426 0.394778
Si Si3 0.566347 0.155877 0.643465
Si Si4 0.934850 0.842560 0.732231
Si Si5 0.934096 0.156161 0.820088
Si Si6 0.431966 0.648715 0.986938
O O1 0.750000 0.151400 0.080573
O O2 0.475091 0.240423 0.104599
O O3 0.500000 0.000000 0.064407
O O4 0.539811 0.231544 0.022427
O O5 0.250000 0.842289 0.388179
O O6 0.984318 0.739246 0.362427
O O7 0.021896 0.801792 0.443721
O O8 0.000000 0.000000 0.384027
O O9 0.750000 0.141334 0.648385
O O10 0.497329 0.227040 0.687609
O O11 0.500000 0.000000 0.634035
O O12 0.750000 0.840115 0.732535
O O13 0.998751 0.768153 0.776195
O O14 0.000000 0.000000 0.732232
O O15 0.750000 0.149834 0.816361
O O16 0.000000 0.000000 0.824652
O O17 0.500000 0.500000 0.004288
O O18 0.250000 0.627313 0.975915
#
# Coordination Sequence:
#
# PCOD8182704 Si02
#       6
#     8   8   8   8   8   8
#     4  11  24  40  58  83 115 149 185 229 283 337
#     4  11  22  38  59  84 114 149 188 231 280 332
#     4  11  21  36  59  85 113 148 190 233 277 328
#     4  10  18  32  54  82 113 146 187 232 277 325
#     4  11  21  36  57  84 116 150 189 232 280 331
#     4  10  21  38  60  84 110 144 188 233 278 331
#
# _framework density 19.292157
#
# number of rings (size 3 to 8) (size 9 to 14) (size 15 to 20)
#    0.000    1.333    0.000   10.500    0.000    4.667 
#    0.000    2.500    0.000    0.000    0.000    0.000 
#    0.000    0.000    0.000    0.000    0.000    0.000 
#
# Total GULP energy -297632.942081 kJ/mol
# GULP energy per Si atom -12401.372587 kJ/mol
# Density = 1.924825 g / cm^3
# Si number density = 19.292157 Si / 1000 Ang^3
#
#
#
# Elastic Constant Matrix: (Units=GPa)
#
#
# Indices 1 2 3 4 5 6 
#
# 1 177.4891 44.1598 54.3352 0.0000 0.0000 0.0000
# 2 44.1598 85.5240 60.7601 0.0000 0.0000 0.0000
# 3 54.3352 60.7601 112.3727 0.0000 0.0000 0.0000
# 4 0.0000 0.0000 0.0000 56.7997 0.0000 0.0000
# 5 0.0000 0.0000 0.0000 0.0000 41.3002 0.0000
# 6 0.0000 0.0000 0.0000 0.0000 0.0000 29.9113
#
#
#
# Elastic Compliance Matrix: (Units=1/GPa)
#
#
# Indices 1 2 3 4 5 6 
#
# 1 0.006800 -0.001908 -0.002256 0.000000 0.000000 0.000000
# 2 -0.001908 0.019521 -0.009633 0.000000 0.000000 0.000000
# 3 -0.002256 -0.009633 0.015198 0.000000 0.000000 0.000000
# 4 0.000000 0.000000 0.000000 0.017606 0.000000 0.000000
# 5 0.000000 0.000000 0.000000 0.000000 0.024213 0.000000
# 6 0.000000 0.000000 0.000000 0.000000 0.000000 0.033432
#
#
# Mechanical properties :
#
#
# Convention : Reuss Voigt Hill
#
# Bulk Modulus (GPa) = 71.81047 77.09956 74.45501
# Shear Modulus (GPa) = 33.55588 40.01095 36.78341
#
# Velocity S-wave (km/s) = 4.17508 4.55900 4.37126
# Velocity P-wave (km/s) = 7.78108 8.23187 8.00964
#
# Compressibility (1/GPa) = 0.01392555
#
# Stress axis : x y z
#
# Youngs Moduli (GPa) = 147.06881 51.22612 65.79738
#
# Poissons Ratio (x) = 0.09774 0.14844
# Poissons Ratio (y) = 0.28062 0.63380
# Poissons Ratio (z) = 0.33179 0.49344
#
# Static dielectric constant tensor:
#      x y z
#    x 3.760170 0.000000 0.000000 
#    y 0.000000 3.281330 0.000000 
#    z 0.000000 0.000000 4.226070 
# 
# 
# High freq. dielectric constant tensor:
#      x y z
#    x 1.777060 0.000000 0.000000 
#    y 0.000000 1.721230 0.000000 
#    z 0.000000 0.000000 1.773230 
# 
# From -- ./inp_files/26155.got.cif
#   From: 2010.03.12/outbox.cif.g09.slc.cpg/sg40_14_cif.got.tgz:26155.got - 2010.04.14 01:38:03.
