data_PCOD8182384
_publ_section_title
;
Structure prediction by ZEFSAII (Michael W. Deem and Ramdas Pophale) SiO2 
 PCOD8182384
Probable space group: A M A 2
;
_chemical_formula_sum "Si O2"
_cell_formula_units_Z 40
_cell_length_a 8.745008
_cell_length_b 20.914991
_cell_length_c 12.663600
_cell_angle_alpha 90.000000
_cell_angle_beta 90.000000
_cell_angle_gamma 90.000000
_cell_volume 2316.194774
_symmetry_space_group_name_H-M "A M A 2"
_symmetry_group_IT_number 40
_symmetry_cell_setting 'orthorhombic'
loop_
_space_group_symop_operation_xyz
x,y,z
-x,-y,z
1/2-x,y,z
1/2+x,-y,z
x,1/2+y,1/2+z
-x,1/2-y,1/2+z
1/2-x,1/2+y,1/2+z
1/2+x,1/2-y,1/2+z
loop_
_atom_site_type_symbol
_atom_site_label
_atom_site_fract_x
_atom_site_fract_y
_atom_site_fract_z
Si Si1 0.430723 0.844538 0.947080
Si Si2 0.929220 0.931637 0.118642
Si Si3 0.571966 0.293757 0.011763
Si Si4 0.429197 0.693540 0.239917
Si Si5 0.071931 0.173706 0.286275
O O1 0.250000 0.849812 0.954955
O O2 0.479538 0.849506 0.824073
O O3 0.503787 0.902481 0.011392
O O4 0.497772 0.777223 0.991381
O O5 0.750000 0.938495 0.104286
O O6 0.972487 0.888450 0.219720
O O7 0.000000 0.000000 0.141387
O O8 0.750000 0.281533 0.026113
O O9 0.513423 0.325552 0.121057
O O10 0.538115 0.339339 0.911072
O O11 0.250000 0.681820 0.256942
O O12 0.465819 0.768554 0.249430
O O13 0.250000 0.192819 0.270847
#
# Coordination Sequence:
#
# PCOD8182384 Si02
#       5
#     8   8   8   8   8
#     4  10  19  33  49  71 103 135 170 209 254 300
#     4  11  22  35  53  74 101 136 175 213 253 302
#     4   8  15  28  48  72 101 131 158 202 254 299
#     4  10  17  28  49  76 103 131 163 203 256 307
#     4   9  18  32  48  71 101 133 168 207 253 302
#
# _framework density 17.269704999999998
#
# number of rings (size 3 to 8) (size 9 to 14) (size 15 to 20)
#    0.000    2.400    2.000    3.000    0.000    0.800 
#    0.000    1.000    0.000    1.200    0.000    2.800 
#    0.000    0.000    0.000    0.000    0.000    0.000 
#
# Total GULP energy -247888.977391 kJ/mol
# GULP energy per Si atom -12394.448870 kJ/mol
# Density = 1.723040 g / cm^3
# Si number density = 17.269705 Si / 1000 Ang^3
#
#
#
# Elastic Constant Matrix: (Units=GPa)
#
#
# Indices 1 2 3 4 5 6 
#
# 1 59.5838 26.6871 33.5785 0.0000 0.0000 0.0000
# 2 26.6871 71.2287 46.8879 0.0000 0.0000 0.0000
# 3 33.5785 46.8879 153.7193 0.0000 0.0000 0.0000
# 4 0.0000 0.0000 0.0000 22.8170 0.0000 0.0000
# 5 0.0000 0.0000 0.0000 0.0000 23.2445 0.0000
# 6 0.0000 0.0000 0.0000 0.0000 0.0000 22.7404
#
#
#
# Elastic Compliance Matrix: (Units=1/GPa)
#
#
# Indices 1 2 3 4 5 6 
#
# 1 0.021053 -0.006082 -0.002744 0.000000 0.000000 0.000000
# 2 -0.006082 0.019323 -0.004566 0.000000 0.000000 0.000000
# 3 -0.002744 -0.004566 0.008497 0.000000 0.000000 0.000000
# 4 0.000000 0.000000 0.000000 0.043827 0.000000 0.000000
# 5 0.000000 0.000000 0.000000 0.000000 0.043021 0.000000
# 6 0.000000 0.000000 0.000000 0.000000 0.000000 0.043975
#
#
# Mechanical properties :
#
#
# Convention : Reuss Voigt Hill
#
# Bulk Modulus (GPa) = 45.26602 55.42654 50.34628
# Shear Modulus (GPa) = 23.38167 25.58560 24.48363
#
# Velocity S-wave (km/s) = 3.68355 3.85324 3.76935
# Velocity P-wave (km/s) = 6.66029 7.20840 6.93976
#
# Compressibility (1/GPa) = 0.02209163
#
# Stress axis : x y z
#
# Youngs Moduli (GPa) = 47.49832 51.75095 117.68426
#
# Poissons Ratio (x) = 0.31474 0.32290
# Poissons Ratio (y) = 0.28888 0.53729
# Poissons Ratio (z) = 0.13033 0.23627
#
# Static dielectric constant tensor:
#      x y z
#    x 3.122570 0.000000 0.000000 
#    y 0.000000 2.874980 0.000000 
#    z 0.000000 0.000000 3.764280 
# 
# 
# High freq. dielectric constant tensor:
#      x y z
#    x 1.661960 0.000000 0.000000 
#    y 0.000000 1.613940 0.000000 
#    z 0.000000 0.000000 1.688830 
# 
# From -- ./inp_files/10013.got.cif
#   From: 2010.03.12/outbox.cif.g09.slc.cpg/sg40_6_cif.got.tgz:10013.got - 2010.04.14 01:38:03.
