data_PCOD8182369
_publ_section_title
;
Structure prediction by ZEFSAII (Michael W. Deem and Ramdas Pophale) SiO2 
 PCOD8182369
Probable space group: A M A 2
;
_chemical_formula_sum "Si O2"
_cell_formula_units_Z 56
_cell_length_a 8.663727
_cell_length_b 13.698033
_cell_length_c 29.268562
_cell_angle_alpha 90.000000
_cell_angle_beta 90.000000
_cell_angle_gamma 90.000000
_cell_volume 3473.476401
_symmetry_space_group_name_H-M "A M A 2"
_symmetry_group_IT_number 40
_symmetry_cell_setting 'orthorhombic'
loop_
_space_group_symop_operation_xyz
x,y,z
-x,-y,z
1/2-x,y,z
1/2+x,-y,z
x,1/2+y,1/2+z
-x,1/2-y,1/2+z
1/2-x,1/2+y,1/2+z
1/2+x,1/2-y,1/2+z
loop_
_atom_site_type_symbol
_atom_site_label
_atom_site_fract_x
_atom_site_fract_y
_atom_site_fract_z
Si Si1 0.567768 0.209832 0.644670
Si Si2 0.932370 0.706711 0.510511
Si Si3 0.069838 0.607574 0.228672
Si Si4 0.932768 0.108345 0.919765
Si Si5 0.432985 0.395729 0.601302
Si Si6 0.933075 0.397063 0.060249
Si Si7 0.571790 0.894352 0.829605
O O1 0.750000 0.212011 0.639161
O O2 0.520796 0.179744 0.695556
O O3 0.499322 0.316978 0.636525
O O4 0.498538 0.130546 0.609809
O O5 0.750000 0.704898 0.508468
O O6 0.000164 0.672534 0.461815
O O7 0.988193 0.632638 0.550144
O O8 0.987384 0.816247 0.523110
O O9 0.250000 0.601905 0.215785
O O10 0.048022 0.653913 0.279722
O O11 0.000000 0.500000 0.224868
O O12 0.750000 0.103208 0.921638
O O13 0.986864 0.159745 0.872105
O O14 0.000000 0.000000 0.923698
O O15 0.500000 0.500000 0.614847
O O16 0.250000 0.396300 0.605463
O O17 0.750000 0.402279 0.064104
O O18 0.000000 0.500000 0.043769
O O19 0.750000 0.903063 0.842511
O O20 0.500000 0.000000 0.825797
#
# Coordination Sequence:
#
# PCOD8182369 Si02
#       7
#     8   8   8   8   8   8   8
#     4  11  21  32  47  68  91 119 154 186 224 269
#     4   8  17  30  45  65  90 120 151 183 219 262
#     4  10  19  31  46  65  91 121 151 185 225 269
#     4  10  17  27  43  64  90 119 148 180 219 261
#     4  10  19  33  49  67  93 122 153 188 224 262
#     4  10  19  33  48  65  91 120 152 188 226 266
#     4   9  17  28  42  62  88 117 147 180 220 265
#
# _framework density 16.122176
#
# number of rings (size 3 to 8) (size 9 to 14) (size 15 to 20)
#    0.000    2.286    0.000    6.000    0.000    1.714 
#    0.000    7.857    0.000    0.000    0.000    1.000 
#    0.000    4.571    0.000    0.000    0.000    0.000 
#
# Total GULP energy -347078.118066 kJ/mol
# GULP energy per Si atom -12395.647074 kJ/mol
# Density = 1.608548 g / cm^3
# Si number density = 16.122176 Si / 1000 Ang^3
#
#
#
# Elastic Constant Matrix: (Units=GPa)
#
#
# Indices 1 2 3 4 5 6 
#
# 1 92.0769 34.2500 38.3501 0.0000 0.0000 0.0000
# 2 34.2500 96.0309 51.9103 0.0000 0.0000 0.0000
# 3 38.3501 51.9103 124.4764 0.0000 0.0000 0.0000
# 4 0.0000 0.0000 0.0000 5.9263 0.0000 0.0000
# 5 0.0000 0.0000 0.0000 0.0000 14.8799 0.0000
# 6 0.0000 0.0000 0.0000 0.0000 0.0000 23.3655
#
#
#
# Elastic Compliance Matrix: (Units=1/GPa)
#
#
# Indices 1 2 3 4 5 6 
#
# 1 0.013196 -0.003239 -0.002715 0.000000 0.000000 0.000000
# 2 -0.003239 0.014239 -0.004940 0.000000 0.000000 0.000000
# 3 -0.002715 -0.004940 0.010930 0.000000 0.000000 0.000000
# 4 0.000000 0.000000 0.000000 0.168740 0.000000 0.000000
# 5 0.000000 0.000000 0.000000 0.000000 0.067205 0.000000
# 6 0.000000 0.000000 0.000000 0.000000 0.000000 0.042798
#
#
# Mechanical properties :
#
#
# Convention : Reuss Voigt Hill
#
# Bulk Modulus (GPa) = 60.32326 62.40056 61.36191
# Shear Modulus (GPa) = 14.51706 21.37257 17.94482
#
# Velocity S-wave (km/s) = 3.00399 3.64492 3.33986
# Velocity P-wave (km/s) = 7.03772 7.51683 7.28122
#
# Compressibility (1/GPa) = 0.01657735
#
# Stress axis : x y z
#
# Youngs Moduli (GPa) = 75.78051 70.22991 91.48892
#
# Poissons Ratio (x) = 0.22747 0.24838
# Poissons Ratio (y) = 0.24544 0.45197
# Poissons Ratio (z) = 0.20573 0.34695
#
# Static dielectric constant tensor:
#      x y z
#    x 3.107800 0.000000 0.000000 
#    y 0.000000 2.958860 0.000000 
#    z 0.000000 0.000000 3.612590 
# 
# 
# High freq. dielectric constant tensor:
#      x y z
#    x 1.630460 0.000000 0.000000 
#    y 0.000000 1.585820 0.000000 
#    z 0.000000 0.000000 1.621970 
# 
# From -- ./inp_files/26416.got.cif
#   From: 2010.03.12/outbox.cif.g09.slc.cpg/sg40_14_cif.got.tgz:26416.got - 2010.04.14 01:38:03.
