data_PCOD8182146
_publ_section_title
;
Structure prediction by ZEFSAII (Michael W. Deem and Ramdas Pophale) SiO2 
 PCOD8182146
Probable space group: A B M 2
;
_chemical_formula_sum "Si O2"
_cell_formula_units_Z 48
_cell_length_a 8.773991
_cell_length_b 8.717252
_cell_length_c 30.237376
_cell_angle_alpha 90.000000
_cell_angle_beta 90.000000
_cell_angle_gamma 90.000000
_cell_volume 2312.708443
_symmetry_space_group_name_H-M "A B M 2"
_symmetry_group_IT_number 39
_symmetry_cell_setting 'orthorhombic'
loop_
_space_group_symop_operation_xyz
x,y,z
-x,-y,z
-x,1/2+y,z
x,1/2-y,z
x,1/2+y,1/2+z
-x,1/2-y,1/2+z
-x,y,1/2+z
x,-y,1/2+z
loop_
_atom_site_type_symbol
_atom_site_label
_atom_site_fract_x
_atom_site_fract_y
_atom_site_fract_z
Si Si1 0.836660 0.431877 0.889170
Si Si2 0.840733 0.428201 0.221673
Si Si3 0.163051 0.430104 0.056275
Si Si4 0.335071 0.428535 0.809986
Si Si5 0.336308 0.069102 0.142369
Si Si6 0.337878 0.932194 0.469589
O O1 0.845575 0.250000 0.890641
O O2 0.787087 0.487019 0.840836
O O3 0.714006 0.491988 0.924085
O O4 0.000000 0.500000 0.901696
O O5 0.864371 0.250000 0.211719
O O6 0.716097 0.454917 0.259765
O O7 0.785841 0.510996 0.177584
O O8 0.000000 0.500000 0.237287
O O9 0.144714 0.250000 0.058444
O O10 0.280874 0.485184 0.093978
O O11 0.000000 0.500000 0.065950
O O12 0.223179 0.482571 0.008482
O O13 0.500000 0.500000 0.817451
O O14 0.339914 0.250000 0.822614
O O15 0.349032 0.250000 0.146038
O O16 0.500000 0.000000 0.152943
O O17 0.347268 0.750000 0.464195
O O18 0.500000 0.000000 0.482828
#
# Coordination Sequence:
#
# PCOD8182146 Si02
#       6
#     8   8   8   8   8   8
#     4  12  25  42  64  91 123 159 201 249 302 359
#     4  11  24  41  63  91 123 160 202 249 301 358
#     4  10  23  40  61  89 121 159 202 249 300 357
#     4  11  24  42  64  91 123 160 202 248 300 357
#     4  11  23  40  62  90 123 160 203 250 302 358
#     4  11  23  41  63  90 123 160 203 249 301 357
#
# _framework density 20.754885000000002
#
# number of rings (size 3 to 8) (size 9 to 14) (size 15 to 20)
#    0.000    1.000    0.000    6.500    0.000   10.667 
#    0.000    0.000    0.000    0.000    0.000    0.000 
#    0.000    0.000    0.000    0.000    0.000    0.000 
#
# Total GULP energy -297796.325067 kJ/mol
# GULP energy per Si atom -12408.180211 kJ/mol
# Density = 2.070765 g / cm^3
# Si number density = 20.754885 Si / 1000 Ang^3
#
#
#
# Elastic Constant Matrix: (Units=GPa)
#
#
# Indices 1 2 3 4 5 6 
#
# 1 107.2752 42.2521 15.9670 0.0000 0.0000 0.0000
# 2 42.2521 122.0588 47.0561 0.0000 0.0000 0.0000
# 3 15.9670 47.0561 96.1063 0.0000 0.0000 0.0000
# 4 0.0000 0.0000 0.0000 30.8146 0.0000 0.0000
# 5 0.0000 0.0000 0.0000 0.0000 46.7761 0.0000
# 6 0.0000 0.0000 0.0000 0.0000 0.0000 42.8597
#
#
#
# Elastic Compliance Matrix: (Units=1/GPa)
#
#
# Indices 1 2 3 4 5 6 
#
# 1 0.010794 -0.003754 0.000045 0.000000 0.000000 0.000000
# 2 -0.003754 0.011404 -0.004960 0.000000 0.000000 0.000000
# 3 0.000045 -0.004960 0.012826 0.000000 0.000000 0.000000
# 4 0.000000 0.000000 0.000000 0.032452 0.000000 0.000000
# 5 0.000000 0.000000 0.000000 0.000000 0.021378 0.000000
# 6 0.000000 0.000000 0.000000 0.000000 0.000000 0.023332
#
#
# Mechanical properties :
#
#
# Convention : Reuss Voigt Hill
#
# Bulk Modulus (GPa) = 56.54204 59.55453 58.04828
# Shear Modulus (GPa) = 36.92201 38.76776 37.84488
#
# Velocity S-wave (km/s) = 4.22234 4.32659 4.27479
# Velocity P-wave (km/s) = 7.14652 7.32910 7.23839
#
# Compressibility (1/GPa) = 0.01768596
#
# Stress axis : x y z
#
# Youngs Moduli (GPa) = 92.64776 87.68560 77.96414
#
# Poissons Ratio (x) = 0.32913 -0.00348
# Poissons Ratio (y) = 0.34775 0.38672
# Poissons Ratio (z) = -0.00413 0.43494
#
# Static dielectric constant tensor:
#      x y z
#    x 3.683440 0.000000 0.000000 
#    y 0.000000 3.844230 0.000000 
#    z 0.000000 0.000000 3.873670 
# 
# 
# High freq. dielectric constant tensor:
#      x y z
#    x 1.826290 0.000000 0.000000 
#    y 0.000000 1.823130 0.000000 
#    z 0.000000 0.000000 1.826820 
# 
# From -- ./inp_files/17593.got.cif
#   From: 2010.03.12/outbox.cif.g09.slc.cpg/sg39_9_cif.got.tgz:17593.got - 2010.04.14 02:53:20.
