data_PCOD8182328
_publ_section_title
;
Structure prediction by ZEFSAII (Michael W. Deem and Ramdas Pophale) SiO2 
 PCOD8182328
Probable space group: A M A 2
;
_chemical_formula_sum "Si O2"
_cell_formula_units_Z 48
_cell_length_a 17.943877
_cell_length_b 13.884948
_cell_length_c 7.753510
_cell_angle_alpha 90.000000
_cell_angle_beta 90.000000
_cell_angle_gamma 90.000000
_cell_volume 1931.785459
_symmetry_space_group_name_H-M "A M A 2"
_symmetry_group_IT_number 40
_symmetry_cell_setting 'orthorhombic'
loop_
_space_group_symop_operation_xyz
x,y,z
-x,-y,z
1/2-x,y,z
1/2+x,-y,z
x,1/2+y,1/2+z
-x,1/2-y,1/2+z
1/2-x,1/2+y,1/2+z
1/2+x,1/2-y,1/2+z
loop_
_atom_site_type_symbol
_atom_site_label
_atom_site_fract_x
_atom_site_fract_y
_atom_site_fract_z
Si Si1 0.335364 0.262555 0.320560
Si Si2 0.333020 0.654200 0.182066
Si Si3 0.066659 0.108439 0.160455
Si Si4 0.335669 0.336437 0.859007
Si Si5 0.080233 0.998339 0.524434
Si Si6 0.903316 0.086210 0.037437
O O1 0.250000 0.279470 0.257051
O O2 0.336058 0.202511 0.494835
O O3 0.380856 0.203781 0.171225
O O4 0.379131 0.363558 0.357035
O O5 0.250000 0.632384 0.239909
O O6 0.367062 0.727442 0.325682
O O7 0.372622 0.552525 0.169420
O O8 0.071822 0.052860 0.342465
O O9 0.980871 0.132574 0.112924
O O10 0.093696 0.030349 0.016157
O O11 0.250000 0.336185 0.920113
O O12 0.338806 0.391987 0.676946
O O13 0.385335 0.391058 0.001864
O O14 0.000000 0.000000 0.613299
#
# Coordination Sequence:
#
# PCOD8182328 Si02
#       6
#     8   8   8   8   8   8
#     4   9  17  26  42  71 104 136 175 218 265 319
#     4   8  15  24  36  59  92 125 160 201 244 294
#     4   9  16  27  42  66 102 135 170 218 263 311
#     4   9  15  24  39  60  91 128 161 201 251 297
#     4  10  15  24  38  60  95 128 155 202 252 291
#     4   9  15  27  42  66 103 137 170 217 265 312
#
# _framework density 24.847479
#
# number of rings (size 3 to 8) (size 9 to 14) (size 15 to 20)
#    0.000    3.000    3.333    2.000    0.000    4.667 
#    0.000    0.000    0.000    0.000    0.000    7.000 
#    0.000   17.333    0.000   11.167    0.000    0.000 
#
# Total GULP energy -297332.617651 kJ/mol
# GULP energy per Si atom -12388.859069 kJ/mol
# Density = 2.479093 g / cm^3
# Si number density = 24.847479 Si / 1000 Ang^3
#
#
#
# Elastic Constant Matrix: (Units=GPa)
#
#
# Indices 1 2 3 4 5 6 
#
# 1 142.2121 90.6687 31.5796 0.0000 0.0000 0.0000
# 2 90.6687 183.2995 39.7372 0.0000 0.0000 0.0000
# 3 31.5796 39.7372 72.0910 0.0000 0.0000 0.0000
# 4 0.0000 0.0000 0.0000 9.6095 0.0000 0.0000
# 5 0.0000 0.0000 0.0000 0.0000 -22.4088 0.0000
# 6 0.0000 0.0000 0.0000 0.0000 0.0000 4.3424
#
#
#
# Elastic Compliance Matrix: (Units=1/GPa)
#
#
# Indices 1 2 3 4 5 6 
#
# 1 0.010513 -0.004772 -0.001975 0.000000 0.000000 0.000000
# 2 -0.004772 0.008362 -0.002519 0.000000 0.000000 0.000000
# 3 -0.001975 -0.002519 0.016125 0.000000 0.000000 0.000000
# 4 0.000000 0.000000 0.000000 0.104063 0.000000 0.000000
# 5 0.000000 0.000000 0.000000 0.000000 -0.044625 0.000000
# 6 0.000000 0.000000 0.000000 0.000000 0.000000 0.230287
#
#
# Mechanical properties :
#
#
# Convention : Reuss Voigt Hill
#
# Bulk Modulus (GPa) = 60.72244 80.17485 70.44865
# Shear Modulus (GPa) = 14.33711 14.01644 14.17677
#
# Velocity S-wave (km/s) = 2.40470 2.37765 2.39121
# Velocity P-wave (km/s) = 5.67461 6.31463 6.00315
#
# Compressibility (1/GPa) = 0.01646838
#
# Stress axis : x y z
#
# Youngs Moduli (GPa) = 95.12331 119.58783 62.01623
#
# Poissons Ratio (x) = 0.57067 0.12247
# Poissons Ratio (y) = 0.45393 0.15621
# Poissons Ratio (z) = 0.18784 0.30123
#
# Static dielectric constant tensor:
#      x y z
#    x 4.625860 0.000000 0.000000 
#    y 0.000000 4.789750 0.000000 
#    z 0.000000 0.000000 4.005350 
# 
# 
# High freq. dielectric constant tensor:
#      x y z
#    x 1.979400 0.000000 0.000000 
#    y 0.000000 1.987380 0.000000 
#    z 0.000000 0.000000 1.973250 
# 
# From -- ./inp_files/7422.got.cif
#   From: 2010.03.12/outbox.cif.g09.slc.cpg/sg40_4_cif.got.tgz:7422.got - 2010.04.14 01:38:03.
