data_PCOD8182355
_publ_section_title
;
Structure prediction by ZEFSAII (Michael W. Deem and Ramdas Pophale) SiO2 
 PCOD8182355
Probable space group: A M A 2
;
_chemical_formula_sum "Si O2"
_cell_formula_units_Z 48
_cell_length_a 8.854231
_cell_length_b 24.503493
_cell_length_c 14.059583
_cell_angle_alpha 90.000000
_cell_angle_beta 90.000000
_cell_angle_gamma 90.000000
_cell_volume 3050.361326
_symmetry_space_group_name_H-M "A M A 2"
_symmetry_group_IT_number 40
_symmetry_cell_setting 'orthorhombic'
loop_
_space_group_symop_operation_xyz
x,y,z
-x,-y,z
1/2-x,y,z
1/2+x,-y,z
x,1/2+y,1/2+z
-x,1/2-y,1/2+z
1/2-x,1/2+y,1/2+z
1/2+x,1/2-y,1/2+z
loop_
_atom_site_type_symbol
_atom_site_label
_atom_site_fract_x
_atom_site_fract_y
_atom_site_fract_z
Si Si1 0.919302 0.837371 0.878400
Si Si2 0.580462 0.274171 0.558010
Si Si3 0.072465 0.944603 0.914434
Si Si4 0.570757 0.167254 0.225853
Si Si5 0.426801 0.444994 0.634351
Si Si6 0.929152 0.270160 0.886702
O O1 0.750000 0.838030 0.834967
O O2 0.002614 0.894109 0.855820
O O3 0.014228 0.786235 0.835483
O O4 0.911896 0.828813 0.992954
O O5 0.750000 0.254584 0.584739
O O6 0.486784 0.287024 0.652253
O O7 0.495041 0.227574 0.494869
O O8 0.250000 0.945771 0.898015
O O9 0.027715 0.937686 0.024539
O O10 0.000000 0.000000 0.873570
O O11 0.750000 0.171277 0.232560
O O12 0.516082 0.107282 0.193632
O O13 0.496030 0.178939 0.328080
O O14 0.500000 0.500000 0.676770
O O15 0.250000 0.451277 0.645041
O O16 0.750000 0.272558 0.888940
#
# Coordination Sequence:
#
# PCOD8182355 Si02
#       6
#     8   8   8   8   8   8
#     4   9  17  29  42  58  83 112 144 183 217 253
#     4   9  18  30  44  62  85 114 146 183 220 259
#     4  10  17  26  40  60  84 116 149 178 214 260
#     4  11  19  30  46  65  88 119 150 182 223 265
#     4   9  18  27  38  56  82 112 144 177 210 251
#     4  10  19  30  44  63  85 115 149 184 222 265
#
# _framework density 15.735841000000001
#
# number of rings (size 3 to 8) (size 9 to 14) (size 15 to 20)
#    1.000    1.333    1.667    3.000    0.000    2.000 
#    0.000    0.000    0.000    0.000    0.000    0.000 
#    0.000    1.333    0.000   11.333    0.000    9.167 
#
# Total GULP energy -297402.550883 kJ/mol
# GULP energy per Si atom -12391.772953 kJ/mol
# Density = 1.570003 g / cm^3
# Si number density = 15.735841 Si / 1000 Ang^3
#
#
#
# Elastic Constant Matrix: (Units=GPa)
#
#
# Indices 1 2 3 4 5 6 
#
# 1 96.0295 25.9777 14.5982 0.0000 0.0000 0.0000
# 2 25.9777 62.2732 14.5231 0.0000 0.0000 0.0000
# 3 14.5982 14.5231 35.4843 0.0000 0.0000 0.0000
# 4 0.0000 0.0000 0.0000 22.8053 0.0000 0.0000
# 5 0.0000 0.0000 0.0000 0.0000 20.6724 0.0000
# 6 0.0000 0.0000 0.0000 0.0000 0.0000 28.3274
#
#
#
# Elastic Compliance Matrix: (Units=1/GPa)
#
#
# Indices 1 2 3 4 5 6 
#
# 1 0.012060 -0.004283 -0.003209 0.000000 0.000000 0.000000
# 2 -0.004283 0.019274 -0.006126 0.000000 0.000000 0.000000
# 3 -0.003209 -0.006126 0.032009 0.000000 0.000000 0.000000
# 4 0.000000 0.000000 0.000000 0.043849 0.000000 0.000000
# 5 0.000000 0.000000 0.000000 0.000000 0.048374 0.000000
# 6 0.000000 0.000000 0.000000 0.000000 0.000000 0.035302
#
#
# Mechanical properties :
#
#
# Convention : Reuss Voigt Hill
#
# Bulk Modulus (GPa) = 27.69546 33.77613 30.73580
# Shear Modulus (GPa) = 21.72613 23.60689 22.66651
#
# Velocity S-wave (km/s) = 3.71978 3.87744 3.79943
# Velocity P-wave (km/s) = 6.00728 6.44648 6.23075
#
# Compressibility (1/GPa) = 0.03610700
#
# Stress axis : x y z
#
# Youngs Moduli (GPa) = 82.92061 51.88464 31.24127
#
# Poissons Ratio (x) = 0.22220 0.10024
# Poissons Ratio (y) = 0.35511 0.19140
# Poissons Ratio (z) = 0.26606 0.31787
#
# Static dielectric constant tensor:
#      x y z
#    x 3.009580 0.000000 0.000000 
#    y 0.000000 2.942050 0.000000 
#    z 0.000000 0.000000 2.550970 
# 
# 
# High freq. dielectric constant tensor:
#      x y z
#    x 1.622310 0.000000 0.000000 
#    y 0.000000 1.586830 0.000000 
#    z 0.000000 0.000000 1.546150 
# 
# From -- ./inp_files/15415.got.cif
#   From: 2010.03.12/outbox.cif.g09.slc.cpg/sg40_8_cif.got.tgz:15415.got - 2010.04.14 01:38:03.
