data_PCOD8182703
_publ_section_title
;
Structure prediction by ZEFSAII (Michael W. Deem and Ramdas Pophale) SiO2 
 PCOD8182703
Probable space group: A M A 2
;
_chemical_formula_sum "Si O2"
_cell_formula_units_Z 52
_cell_length_a 9.400225
_cell_length_b 15.003194
_cell_length_c 19.869667
_cell_angle_alpha 90.000000
_cell_angle_beta 90.000000
_cell_angle_gamma 90.000000
_cell_volume 2802.286680
_symmetry_space_group_name_H-M "A M A 2"
_symmetry_group_IT_number 40
_symmetry_cell_setting 'orthorhombic'
loop_
_space_group_symop_operation_xyz
x,y,z
-x,-y,z
1/2-x,y,z
1/2+x,-y,z
x,1/2+y,1/2+z
-x,1/2-y,1/2+z
1/2-x,1/2+y,1/2+z
1/2+x,1/2-y,1/2+z
loop_
_atom_site_type_symbol
_atom_site_label
_atom_site_fract_x
_atom_site_fract_y
_atom_site_fract_z
Si Si1 0.911478 0.086639 0.866760
Si Si2 0.500000 0.500000 0.840578
Si Si3 0.908655 0.780260 0.794338
Si Si4 0.415357 0.085934 0.082323
Si Si5 0.901879 0.159929 0.423444
Si Si6 0.905948 0.364484 0.732914
Si Si7 0.589791 0.714014 0.494713
O O1 0.750000 0.062019 0.845489
O O2 0.908748 0.150153 0.930807
O O3 0.990938 0.133290 0.803392
O O4 0.000000 0.000000 0.887405
O O5 0.587975 0.562464 0.890762
O O6 0.595057 0.437800 0.792417
O O7 0.750000 0.807280 0.769333
O O8 0.899036 0.733136 0.865586
O O9 0.976743 0.712232 0.740768
O O10 0.250000 0.079939 0.059982
O O11 0.431715 0.087038 0.162503
O O12 0.500000 0.000000 0.054615
O O13 0.487807 0.173974 0.051961
O O14 0.750000 0.163065 0.461818
O O15 0.027919 0.188107 0.474512
O O16 0.750000 0.319380 0.734560
O O17 0.750000 0.727208 0.522462
#
# Coordination Sequence:
#
# PCOD8182703 Si02
#       7
#     8   4   8   8   8   8   8
#     4  10  19  31  49  72  99 131 169 213 258 305
#     4  10  18  32  54  82 110 136 174 216 262 318
#     4   9  18  31  48  71 100 132 166 207 256 308
#     4  11  22  35  52  75 105 141 178 214 254 309
#     4   9  18  31  50  74 102 136 171 213 260 308
#     4  10  20  33  50  75 107 139 170 209 258 312
#     4  10  21  35  50  71 102 139 177 216 258 307
#
# _framework density 18.556274999999999
#
# number of rings (size 3 to 8) (size 9 to 14) (size 15 to 20)
#    0.000    2.154    0.769    2.769    0.000    9.231 
#    0.000    0.000    0.000    0.000    2.000    0.000 
#    0.000    0.000    0.000    0.000    0.000    0.000 
#
# Total GULP energy -322256.995930 kJ/mol
# GULP energy per Si atom -12394.499843 kJ/mol
# Density = 1.851404 g / cm^3
# Si number density = 18.556275 Si / 1000 Ang^3
#
#
#
# Elastic Constant Matrix: (Units=GPa)
#
#
# Indices 1 2 3 4 5 6 
#
# 1 171.8182 43.5018 36.1390 0.0000 0.0000 0.0000
# 2 43.5018 62.5532 24.9719 0.0000 0.0000 0.0000
# 3 36.1390 24.9719 40.4695 0.0000 0.0000 0.0000
# 4 0.0000 0.0000 0.0000 22.3414 0.0000 0.0000
# 5 0.0000 0.0000 0.0000 0.0000 24.9278 0.0000
# 6 0.0000 0.0000 0.0000 0.0000 0.0000 21.6831
#
#
#
# Elastic Compliance Matrix: (Units=1/GPa)
#
#
# Indices 1 2 3 4 5 6 
#
# 1 0.007692 -0.003459 -0.004734 0.000000 0.000000 0.000000
# 2 -0.003459 0.022767 -0.010960 0.000000 0.000000 0.000000
# 3 -0.004734 -0.010960 0.035700 0.000000 0.000000 0.000000
# 4 0.000000 0.000000 0.000000 0.044760 0.000000 0.000000
# 5 0.000000 0.000000 0.000000 0.000000 0.040116 0.000000
# 6 0.000000 0.000000 0.000000 0.000000 0.000000 0.046119
#
#
# Mechanical properties :
#
#
# Convention : Reuss Voigt Hill
#
# Bulk Modulus (GPa) = 35.90240 53.78515 44.84377
# Shear Modulus (GPa) = 20.42952 25.13901 22.78427
#
# Velocity S-wave (km/s) = 3.32166 3.68468 3.50787
# Velocity P-wave (km/s) = 5.83961 6.86661 6.37383
#
# Compressibility (1/GPa) = 0.02785329
#
# Stress axis : x y z
#
# Youngs Moduli (GPa) = 130.01113 43.92286 28.01104
#
# Poissons Ratio (x) = 0.15194 0.13261
# Poissons Ratio (y) = 0.44973 0.30699
# Poissons Ratio (z) = 0.61549 0.48138
#
# Static dielectric constant tensor:
#      x y z
#    x 3.786900 0.000000 0.000000 
#    y 0.000000 3.334840 0.000000 
#    z 0.000000 0.000000 3.056730 
# 
# 
# High freq. dielectric constant tensor:
#      x y z
#    x 1.741240 0.000000 0.000000 
#    y 0.000000 1.702380 0.000000 
#    z 0.000000 0.000000 1.675180 
# 
# From -- ./inp_files/22042.got.cif
#   From: 2010.03.12/outbox.cif.g09.slc.cpg/sg40_12_cif.got.tgz:22042.got - 2010.04.14 01:38:03.
