data_PCOD8182817
_publ_section_title
;
Structure prediction by ZEFSAII (Michael W. Deem and Ramdas Pophale) SiO2 
 PCOD8182817
Probable space group: A M A 2
;
_chemical_formula_sum "Si O2"
_cell_formula_units_Z 44
_cell_length_a 22.095102
_cell_length_b 6.484415
_cell_length_c 14.010640
_cell_angle_alpha 90.000000
_cell_angle_beta 90.000000
_cell_angle_gamma 90.000000
_cell_volume 2007.357785
_symmetry_space_group_name_H-M "A M A 2"
_symmetry_group_IT_number 40
_symmetry_cell_setting 'orthorhombic'
loop_
_space_group_symop_operation_xyz
x,y,z
-x,-y,z
1/2-x,y,z
1/2+x,-y,z
x,1/2+y,1/2+z
-x,1/2-y,1/2+z
1/2-x,1/2+y,1/2+z
1/2+x,1/2-y,1/2+z
loop_
_atom_site_type_symbol
_atom_site_label
_atom_site_fract_x
_atom_site_fract_y
_atom_site_fract_z
Si Si1 0.181021 0.571392 0.387700
Si Si2 0.621208 0.606964 0.754225
Si Si3 0.937149 0.986277 0.665370
Si Si4 0.500000 0.500000 0.500506
Si Si5 0.573779 0.728841 0.350519
Si Si6 0.376357 0.664280 0.582178
O O1 0.250000 0.500315 0.377806
O O2 0.169220 0.753575 0.311231
O O3 0.139208 0.373965 0.370829
O O4 0.169221 0.651774 0.494564
O O5 0.577198 0.753501 0.693560
O O6 0.583618 0.473498 0.832502
O O7 0.651213 0.455881 0.674679
O O8 0.953081 0.126970 0.756582
O O9 0.882105 0.091600 0.606944
O O10 0.000000 0.000000 0.605212
O O11 0.526541 0.687643 0.435808
O O12 0.444513 0.583417 0.562816
#
# Coordination Sequence:
#
# PCOD8182817 Si02
#       6
#     8   8   8   4   8   8
#     4  10  23  42  61  86 118 160 218 268 314 378
#     4  10  22  40  61  86 124 163 206 251 322 381
#     4  10  19  36  57  91 128 161 196 242 305 382
#     4  10  18  38  60  94 128 156 206 258 318 382
#     4   9  20  38  61  90 119 162 203 253 312 372
#     4  10  22  37  59  92 124 161 206 260 318 384
#
# _framework density 21.919360000000001
#
# number of rings (size 3 to 8) (size 9 to 14) (size 15 to 20)
#    0.000    2.182    0.909    1.091    0.000    8.000 
#    0.000    9.091    0.000    0.000    0.000    0.000 
#    0.000    0.000    0.000    0.000    0.000    0.000 
#
# Total GULP energy -272650.803254 kJ/mol
# GULP energy per Si atom -12393.218330 kJ/mol
# Density = 2.186947 g / cm^3
# Si number density = 21.919360 Si / 1000 Ang^3
#
#
#
# Elastic Constant Matrix: (Units=GPa)
#
#
# Indices 1 2 3 4 5 6 
#
# 1 83.0206 17.1569 16.0108 0.0000 0.0000 0.0000
# 2 17.1569 116.6845 22.9579 0.0000 0.0000 0.0000
# 3 16.0108 22.9579 88.5777 0.0000 0.0000 0.0000
# 4 0.0000 0.0000 0.0000 36.7440 0.0000 0.0000
# 5 0.0000 0.0000 0.0000 0.0000 19.1470 0.0000
# 6 0.0000 0.0000 0.0000 0.0000 0.0000 12.8680
#
#
#
# Elastic Compliance Matrix: (Units=1/GPa)
#
#
# Indices 1 2 3 4 5 6 
#
# 1 0.012723 -0.001494 -0.001912 0.000000 0.000000 0.000000
# 2 -0.001494 0.009206 -0.002116 0.000000 0.000000 0.000000
# 3 -0.001912 -0.002116 0.012184 0.000000 0.000000 0.000000
# 4 0.000000 0.000000 0.000000 0.027215 0.000000 0.000000
# 5 0.000000 0.000000 0.000000 0.000000 0.052227 0.000000
# 6 0.000000 0.000000 0.000000 0.000000 0.000000 0.077712
#
#
# Mechanical properties :
#
#
# Convention : Reuss Voigt Hill
#
# Bulk Modulus (GPa) = 43.35186 44.50378 43.92782
# Shear Modulus (GPa) = 23.80928 29.22895 26.51912
#
# Velocity S-wave (km/s) = 3.29936 3.65564 3.48206
# Velocity P-wave (km/s) = 5.85963 6.17785 6.02084
#
# Compressibility (1/GPa) = 0.02306706
#
# Stress axis : x y z
#
# Youngs Moduli (GPa) = 78.59870 108.62274 82.07747
#
# Poissons Ratio (x) = 0.16233 0.15696
# Poissons Ratio (y) = 0.11746 0.17367
# Poissons Ratio (z) = 0.15031 0.22984
#
# Static dielectric constant tensor:
#      x y z
#    x 3.449970 0.000000 0.000000 
#    y 0.000000 4.141030 0.000000 
#    z 0.000000 0.000000 4.115350 
# 
# 
# High freq. dielectric constant tensor:
#      x y z
#    x 1.820990 0.000000 0.000000 
#    y 0.000000 1.865400 0.000000 
#    z 0.000000 0.000000 1.872160 
# 
# From -- ./inp_files/18616.got.cif
#   From: 2010.03.12/outbox.cif.g09.slc.cpg/sg40_10_cif.got.tgz:18616.got - 2010.04.14 01:38:03.
