data_PCOD8182413
_publ_section_title
;
Structure prediction by ZEFSAII (Michael W. Deem and Ramdas Pophale) SiO2 
 PCOD8182413
Probable space group: A M A 2
;
_chemical_formula_sum "Si O2"
_cell_formula_units_Z 44
_cell_length_a 23.518156
_cell_length_b 13.685732
_cell_length_c 7.527230
_cell_angle_alpha 90.000000
_cell_angle_beta 90.000000
_cell_angle_gamma 90.000000
_cell_volume 2422.738186
_symmetry_space_group_name_H-M "A M A 2"
_symmetry_group_IT_number 40
_symmetry_cell_setting 'orthorhombic'
loop_
_space_group_symop_operation_xyz
x,y,z
-x,-y,z
1/2-x,y,z
1/2+x,-y,z
x,1/2+y,1/2+z
-x,1/2-y,1/2+z
1/2-x,1/2+y,1/2+z
1/2+x,1/2-y,1/2+z
loop_
_atom_site_type_symbol
_atom_site_label
_atom_site_fract_x
_atom_site_fract_y
_atom_site_fract_z
Si Si1 0.370957 0.380775 0.425490
Si Si2 0.371651 0.697773 0.121198
Si Si3 0.250000 0.114087 0.621053
Si Si4 0.250000 0.954138 0.913526
Si Si5 0.566859 0.508711 0.121110
Si Si6 0.370954 0.880870 0.316636
Si Si7 0.750000 0.045751 0.328502
O O1 0.385204 0.264479 0.445814
O O2 0.306069 0.393142 0.358502
O O3 0.414683 0.431906 0.294147
O O4 0.377183 0.430801 0.621024
O O5 0.304509 0.682428 0.121180
O O6 0.406767 0.598971 0.121312
O O7 0.385189 0.764559 0.296493
O O8 0.250000 0.052651 0.440882
O O9 0.250000 0.052479 0.801007
O O10 0.250000 0.981255 0.120993
O O11 0.500000 0.500000 0.121126
O O12 0.585319 0.567912 0.947865
O O13 0.306069 0.893279 0.383631
#
# Coordination Sequence:
#
# PCOD8182413 Si02
#       7
#     8   8   4   4   8   8   4
#     4   9  21  41  59  91 122 150 201 256 301 368
#     4  10  22  40  62  88 123 160 188 255 311 357
#     4  12  18  36  66  90 126 156 188 238 324 370
#     4  10  17  34  65  86 120 152 187 248 311 370
#     4  12  24  42  63  85 120 172 214 250 296 346
#     4   9  21  41  59  91 122 150 201 256 301 368
#     4  10  17  34  65  86 120 152 187 248 311 370
#
# _framework density 18.161269000000001
#
# number of rings (size 3 to 8) (size 9 to 14) (size 15 to 20)
#    1.091    0.727    3.636    1.091    0.000    2.182 
#    6.545    0.000    0.000    0.000    0.000    0.000 
#    0.000    0.000    0.000    0.000    0.000    0.000 
#
# Total GULP energy -272585.919582 kJ/mol
# GULP energy per Si atom -12390.269072 kJ/mol
# Density = 1.811993 g / cm^3
# Si number density = 18.161269 Si / 1000 Ang^3
#
#
#
# Elastic Constant Matrix: (Units=GPa)
#
#
# Indices 1 2 3 4 5 6 
#
# 1 143.6741 62.0938 42.4453 0.0000 0.0000 0.0000
# 2 62.0938 147.9756 48.5240 0.0000 0.0000 0.0000
# 3 42.4453 48.5240 74.7126 0.0000 0.0000 0.0000
# 4 0.0000 0.0000 0.0000 -52.3801 0.0000 0.0000
# 5 0.0000 0.0000 0.0000 0.0000 32.5314 0.0000
# 6 0.0000 0.0000 0.0000 0.0000 0.0000 4.7609
#
#
#
# Elastic Compliance Matrix: (Units=1/GPa)
#
#
# Indices 1 2 3 4 5 6 
#
# 1 0.009147 -0.002712 -0.003435 0.000000 0.000000 0.000000
# 2 -0.002712 0.009391 -0.004558 0.000000 0.000000 0.000000
# 3 -0.003435 -0.004558 0.018297 0.000000 0.000000 0.000000
# 4 0.000000 0.000000 0.000000 -0.019091 0.000000 0.000000
# 5 0.000000 0.000000 0.000000 0.000000 0.030740 0.000000
# 6 0.000000 0.000000 0.000000 0.000000 0.000000 0.210044
#
#
# Mechanical properties :
#
#
# Convention : Reuss Voigt Hill
#
# Bulk Modulus (GPa) = 64.83604 74.72095 69.77849
# Shear Modulus (GPa) = 17.53901 11.20238 14.37069
#
# Velocity S-wave (km/s) = 3.11100 2.48630 2.81603
# Velocity P-wave (km/s) = 6.97726 7.03382 7.00559
#
# Compressibility (1/GPa) = 0.01542352
#
# Stress axis : x y z
#
# Youngs Moduli (GPa) = 109.32431 106.48983 54.65435
#
# Poissons Ratio (x) = 0.28878 0.18776
# Poissons Ratio (y) = 0.29647 0.24913
# Poissons Ratio (z) = 0.37557 0.48542
#
# Static dielectric constant tensor:
#      x y z
#    x 3.223030 0.000000 0.000000 
#    y 0.000000 3.281410 0.000000 
#    z 0.000000 0.000000 3.518950 
# 
# 
# High freq. dielectric constant tensor:
#      x y z
#    x 1.698100 0.000000 0.000000 
#    y 0.000000 1.698750 0.000000 
#    z 0.000000 0.000000 1.698070 
# 
# From -- ./inp_files/8703.got.cif
#   From: 2010.03.12/outbox.cif.g09.slc.cpg/sg40_5_cif.got.tgz:8703.got - 2010.04.14 01:38:03.
