data_PCOD8182458
_publ_section_title
;
Structure prediction by ZEFSAII (Michael W. Deem and Ramdas Pophale) SiO2 
 PCOD8182458
Probable space group: A M A 2
;
_chemical_formula_sum "Si O2"
_cell_formula_units_Z 64
_cell_length_a 8.736155
_cell_length_b 26.455427
_cell_length_c 18.487872
_cell_angle_alpha 90.000000
_cell_angle_beta 90.000000
_cell_angle_gamma 90.000000
_cell_volume 4272.893143
_symmetry_space_group_name_H-M "A M A 2"
_symmetry_group_IT_number 40
_symmetry_cell_setting 'orthorhombic'
loop_
_space_group_symop_operation_xyz
x,y,z
-x,-y,z
1/2-x,y,z
1/2+x,-y,z
x,1/2+y,1/2+z
-x,1/2-y,1/2+z
1/2-x,1/2+y,1/2+z
1/2+x,1/2-y,1/2+z
loop_
_atom_site_type_symbol
_atom_site_label
_atom_site_fract_x
_atom_site_fract_y
_atom_site_fract_z
Si Si1 0.570859 0.446690 0.864620
Si Si2 0.568543 0.256606 0.707119
Si Si3 0.929644 0.946357 0.197607
Si Si4 0.582901 0.696322 0.079102
Si Si5 0.069046 0.849752 0.127616
Si Si6 0.419422 0.199187 0.995435
Si Si7 0.929563 0.754704 0.371738
Si Si8 0.566854 0.147981 0.440602
O O1 0.500000 0.500000 0.887002
O O2 0.750000 0.447270 0.880418
O O3 0.535208 0.434150 0.781332
O O4 0.490505 0.405796 0.914879
O O5 0.750000 0.262401 0.693499
O O6 0.501013 0.211206 0.655176
O O7 0.494013 0.309803 0.685900
O O8 0.530548 0.241816 0.788825
O O9 0.750000 0.946876 0.182099
O O10 0.010312 0.904841 0.148601
O O11 0.000000 0.000000 0.175619
O O12 0.750000 0.674510 0.098046
O O13 0.596210 0.747808 0.034684
O O14 0.502757 0.656898 0.023531
O O15 0.250000 0.848175 0.129776
O O16 0.013598 0.839098 0.045904
O O17 0.250000 0.176796 0.980435
O O18 0.505556 0.208514 0.919401
O O19 0.750000 0.759676 0.385198
O O20 0.004365 0.808695 0.388134
O O21 0.750000 0.150729 0.440074
#
# Coordination Sequence:
#
# PCOD8182458 Si02
#       8
#     8   8   8   8   8   8   8   8
#     4  10  20  32  45  61  83 110 142 180 217 253
#     4   9  17  29  43  60  86 117 145 175 212 252
#     4  10  20  33  46  61  83 111 142 177 216 253
#     4   7  13  26  41  56  76 107 141 169 202 245
#     4  11  20  29  44  64  85 112 147 180 211 253
#     4   9  17  30  44  58  82 113 142 175 215 254
#     4  10  18  27  42  64  87 112 145 180 211 250
#     4  10  18  28  43  60  82 114 147 176 211 254
#
# _framework density 14.978142
#
# number of rings (size 3 to 8) (size 9 to 14) (size 15 to 20)
#    0.000    2.500    0.000    5.250    0.000    5.500 
#    0.000    0.625    0.000    0.000    0.000    0.000 
#    0.000    1.000    0.000    5.000    0.000    3.750 
#
# Total GULP energy -396583.286619 kJ/mol
# GULP energy per Si atom -12393.227707 kJ/mol
# Density = 1.494405 g / cm^3
# Si number density = 14.978142 Si / 1000 Ang^3
#
#
#
# Elastic Constant Matrix: (Units=GPa)
#
#
# Indices 1 2 3 4 5 6 
#
# 1 83.3098 40.5112 49.7104 0.0000 0.0000 0.0000
# 2 40.5112 82.2994 63.8928 0.0000 0.0000 0.0000
# 3 49.7104 63.8928 120.2696 0.0000 0.0000 0.0000
# 4 0.0000 0.0000 0.0000 27.1089 0.0000 0.0000
# 5 0.0000 0.0000 0.0000 0.0000 19.9718 0.0000
# 6 0.0000 0.0000 0.0000 0.0000 0.0000 23.6431
#
#
#
# Elastic Compliance Matrix: (Units=1/GPa)
#
#
# Indices 1 2 3 4 5 6 
#
# 1 0.017050 -0.004973 -0.004406 0.000000 0.000000 0.000000
# 2 -0.004973 0.022130 -0.009701 0.000000 0.000000 0.000000
# 3 -0.004406 -0.009701 0.015289 0.000000 0.000000 0.000000
# 4 0.000000 0.000000 0.000000 0.036888 0.000000 0.000000
# 5 0.000000 0.000000 0.000000 0.000000 0.050070 0.000000
# 6 0.000000 0.000000 0.000000 0.000000 0.000000 0.042296
#
#
# Mechanical properties :
#
#
# Convention : Reuss Voigt Hill
#
# Bulk Modulus (GPa) = 61.30915 66.01196 63.66055
# Shear Modulus (GPa) = 21.99548 22.92905 22.46226
#
# Velocity S-wave (km/s) = 3.83627 3.91683 3.87676
# Velocity P-wave (km/s) = 7.78742 8.03886 7.91414
#
# Compressibility (1/GPa) = 0.01631078
#
# Stress axis : x y z
#
# Youngs Moduli (GPa) = 58.65027 45.18773 65.40516
#
# Poissons Ratio (x) = 0.22470 0.28815
# Poissons Ratio (y) = 0.29164 0.63451
# Poissons Ratio (z) = 0.25839 0.43837
#
# Static dielectric constant tensor:
#      x y z
#    x 2.966850 0.000000 0.000000 
#    y 0.000000 2.745650 0.000000 
#    z 0.000000 0.000000 3.140160 
# 
# 
# High freq. dielectric constant tensor:
#      x y z
#    x 1.580540 0.000000 0.000000 
#    y 0.000000 1.540530 0.000000 
#    z 0.000000 0.000000 1.567670 
# 
# From -- ./inp_files/19725.got.cif
#   From: 2010.03.12/outbox.cif.g09.slc.cpg/sg40_10_cif.got.tgz:19725.got - 2010.04.14 01:38:03.
