data_PCOD8182420
_publ_section_title
;
Structure prediction by ZEFSAII (Michael W. Deem and Ramdas Pophale) SiO2 
 PCOD8182420
Probable space group: A M A 2
;
_chemical_formula_sum "Si O2"
_cell_formula_units_Z 36
_cell_length_a 17.415060
_cell_length_b 12.803728
_cell_length_c 8.248091
_cell_angle_alpha 90.000000
_cell_angle_beta 90.000000
_cell_angle_gamma 90.000000
_cell_volume 1839.140289
_symmetry_space_group_name_H-M "A M A 2"
_symmetry_group_IT_number 40
_symmetry_cell_setting 'orthorhombic'
loop_
_space_group_symop_operation_xyz
x,y,z
-x,-y,z
1/2-x,y,z
1/2+x,-y,z
x,1/2+y,1/2+z
-x,1/2-y,1/2+z
1/2-x,1/2+y,1/2+z
1/2+x,1/2-y,1/2+z
loop_
_atom_site_type_symbol
_atom_site_label
_atom_site_fract_x
_atom_site_fract_y
_atom_site_fract_z
Si Si1 0.250000 0.034723 0.113580
Si Si2 0.621115 0.848594 0.275605
Si Si3 0.877588 0.143823 0.582326
Si Si4 0.750000 0.174838 0.323215
Si Si5 0.500000 0.000000 0.418577
Si Si6 0.250000 0.428259 0.294874
Si Si7 0.250000 0.717360 0.995573
O O1 0.325811 0.101250 0.139558
O O2 0.250000 0.933788 0.227396
O O3 0.250000 0.020421 0.921757
O O4 0.593684 0.738130 0.199299
O O5 0.549769 0.924707 0.304239
O O6 0.671591 0.841568 0.441793
O O7 0.827137 0.185511 0.430266
O O8 0.824943 0.063895 0.683172
O O9 0.950783 0.078005 0.528554
O O10 0.750000 0.266768 0.188629
O O11 0.250000 0.320960 0.390699
#
# Coordination Sequence:
#
# PCOD8182420 Si02
#       7
#     4   8   8   4   4   4   4
#     4  10  17  39  67  89 114 159 207 265 307 344
#     4  10  22  42  60  89 127 162 205 258 306 369
#     4  10  22  42  60  91 124 161 209 258 303 371
#     4  10  17  37  71  89 114 160 212 262 309 346
#     4  12  24  42  62  86 142 168 194 248 324 382
#     4   8  18  38  64  89 117 147 218 262 293 361
#     4   8  18  36  68  89 113 156 213 263 299 353
#
# _framework density 19.574362000000001
#
# number of rings (size 3 to 8) (size 9 to 14) (size 15 to 20)
#    0.000    2.222    2.222    2.000    0.000    1.778 
#   16.000    0.000    0.000    0.000    0.000    0.000 
#    0.000    0.000    0.000    0.000    0.000    0.000 
#
# Total GULP energy -223121.273576 kJ/mol
# GULP energy per Si atom -12395.626310 kJ/mol
# Density = 1.952981 g / cm^3
# Si number density = 19.574362 Si / 1000 Ang^3
#
#
#
# Elastic Constant Matrix: (Units=GPa)
#
#
# Indices 1 2 3 4 5 6 
#
# 1 141.3480 63.5506 56.7552 0.0000 0.0000 0.0000
# 2 63.5506 95.1697 49.0929 0.0000 0.0000 0.0000
# 3 56.7552 49.0929 125.1210 0.0000 0.0000 0.0000
# 4 0.0000 0.0000 0.0000 47.4370 0.0000 0.0000
# 5 0.0000 0.0000 0.0000 0.0000 254.1097 0.0000
# 6 0.0000 0.0000 0.0000 0.0000 0.0000 38.7426
#
#
#
# Elastic Compliance Matrix: (Units=1/GPa)
#
#
# Indices 1 2 3 4 5 6 
#
# 1 0.010735 -0.005838 -0.002579 0.000000 0.000000 0.000000
# 2 -0.005838 0.016349 -0.003767 0.000000 0.000000 0.000000
# 3 -0.002579 -0.003767 0.010640 0.000000 0.000000 0.000000
# 4 0.000000 0.000000 0.000000 0.021081 0.000000 0.000000
# 5 0.000000 0.000000 0.000000 0.000000 0.003935 0.000000
# 6 0.000000 0.000000 0.000000 0.000000 0.000000 0.025811
#
#
# Mechanical properties :
#
#
# Convention : Reuss Voigt Hill
#
# Bulk Modulus (GPa) = 74.86747 77.82623 76.34685
# Shear Modulus (GPa) = 42.60015 80.87386 61.73701
#
# Velocity S-wave (km/s) = 4.67017 6.43474 5.62212
# Velocity P-wave (km/s) = 8.21044 9.74954 9.01290
#
# Compressibility (1/GPa) = 0.01335694
#
# Stress axis : x y z
#
# Youngs Moduli (GPa) = 93.15277 61.16575 93.98635
#
# Poissons Ratio (x) = 0.35710 0.24237
# Poissons Ratio (y) = 0.54385 0.35400
# Poissons Ratio (z) = 0.24022 0.23038
#
# Static dielectric constant tensor:
#      x y z
#    x 2.673820 0.000000 0.000000 
#    y 0.000000 3.692580 0.000000 
#    z 0.000000 0.000000 3.738950 
# 
# 
# High freq. dielectric constant tensor:
#      x y z
#    x 1.747540 0.000000 0.000000 
#    y 0.000000 1.769230 0.000000 
#    z 0.000000 0.000000 1.764630 
# 
# From -- ./inp_files/6117.got.cif
#   From: 2010.03.12/outbox.cif.g09.slc.cpg/sg40_4_cif.got.tgz:6117.got - 2010.04.14 01:38:03.
