data_PCOD8182264
_publ_section_title
;
Structure prediction by ZEFSAII (Michael W. Deem and Ramdas Pophale) SiO2 
 PCOD8182264
Probable space group: A B M 2
;
_chemical_formula_sum "Si O2"
_cell_formula_units_Z 40
_cell_length_a 7.422568
_cell_length_b 9.478023
_cell_length_c 25.132553
_cell_angle_alpha 90.000000
_cell_angle_beta 90.000000
_cell_angle_gamma 90.000000
_cell_volume 1768.107027
_symmetry_space_group_name_H-M "A B M 2"
_symmetry_group_IT_number 39
_symmetry_cell_setting 'orthorhombic'
loop_
_space_group_symop_operation_xyz
x,y,z
-x,-y,z
-x,1/2+y,z
x,1/2-y,z
x,1/2+y,1/2+z
-x,1/2-y,1/2+z
-x,y,1/2+z
x,-y,1/2+z
loop_
_atom_site_type_symbol
_atom_site_label
_atom_site_fract_x
_atom_site_fract_y
_atom_site_fract_z
Si Si1 0.034532 0.750000 0.531390
Si Si2 0.334590 0.416494 0.389863
Si Si3 0.000000 0.000000 0.459404
Si Si4 0.699301 0.250000 0.096235
Si Si5 0.788890 0.019148 0.179257
Si Si6 0.312039 0.250000 0.124106
Si Si7 0.185694 0.585142 0.294763
O O1 0.092136 0.615129 0.497327
O O2 0.817296 0.750000 0.542071
O O3 0.133976 0.750000 0.588020
O O4 0.500000 0.500000 0.418935
O O5 0.376762 0.250000 0.380523
O O6 0.316151 0.503315 0.334913
O O7 0.152355 0.428344 0.423615
O O8 0.747845 0.385099 0.129619
O O9 0.484910 0.250000 0.084646
O O10 0.683275 0.877042 0.165892
O O11 0.724118 0.079912 0.236063
O O12 0.000000 0.000000 0.182775
O O13 0.156880 0.750000 0.311358
O O14 0.000000 0.500000 0.295609
#
# Coordination Sequence:
#
# PCOD8182264 Si02
#       7
#     4   8   4   4   8   4   8
#     4  12  26  48  74 102 138 188 242 310 368 420
#     4  12  28  49  78 111 147 187 241 299 368 442
#     4  12  28  50  78  98 144 186 244 308 374 428
#     4  12  24  46  69 105 142 183 239 290 355 426
#     4  11  22  43  70 103 148 191 233 285 353 424
#     4  12  26  42  75 103 142 191 241 294 353 430
#     4  11  24  42  74 109 149 196 241 289 357 437
#
# _framework density 22.623063999999999
#
# number of rings (size 3 to 8) (size 9 to 14) (size 15 to 20)
#    0.000    0.400    5.000    3.000    8.400    3.200 
#    0.000    0.000    0.000    0.000    0.000    0.000 
#    0.000    0.000    0.000    0.000    0.000    0.000 
#
# Total GULP energy -247977.784007 kJ/mol
# GULP energy per Si atom -12398.889200 kJ/mol
# Density = 2.257157 g / cm^3
# Si number density = 22.623064 Si / 1000 Ang^3
#
#
#
# Elastic Constant Matrix: (Units=GPa)
#
#
# Indices 1 2 3 4 5 6 
#
# 1 92.0843 19.4852 13.8172 0.0000 0.0000 0.0000
# 2 19.4852 193.5392 38.0749 0.0000 0.0000 0.0000
# 3 13.8172 38.0749 78.7599 0.0000 0.0000 0.0000
# 4 0.0000 0.0000 0.0000 41.2608 0.0000 0.0000
# 5 0.0000 0.0000 0.0000 0.0000 23.7924 0.0000
# 6 0.0000 0.0000 0.0000 0.0000 0.0000 36.5747
#
#
#
# Elastic Compliance Matrix: (Units=1/GPa)
#
#
# Indices 1 2 3 4 5 6 
#
# 1 0.011271 -0.000824 -0.001579 0.000000 0.000000 0.000000
# 2 -0.000824 0.005770 -0.002645 0.000000 0.000000 0.000000
# 3 -0.001579 -0.002645 0.014252 0.000000 0.000000 0.000000
# 4 0.000000 0.000000 0.000000 0.024236 0.000000 0.000000
# 5 0.000000 0.000000 0.000000 0.000000 0.042030 0.000000
# 6 0.000000 0.000000 0.000000 0.000000 0.000000 0.027341
#
#
# Mechanical properties :
#
#
# Convention : Reuss Voigt Hill
#
# Bulk Modulus (GPa) = 47.17491 56.34866 51.76178
# Shear Modulus (GPa) = 35.19566 39.85932 37.52749
#
# Velocity S-wave (km/s) = 3.94857 4.20204 4.07727
# Velocity P-wave (km/s) = 6.45648 6.96452 6.71531
#
# Compressibility (1/GPa) = 0.02119771
#
# Stress axis : x y z
#
# Youngs Moduli (GPa) = 88.72393 173.30369 70.16339
#
# Poissons Ratio (x) = 0.14282 0.11078
# Poissons Ratio (y) = 0.07312 0.18558
# Poissons Ratio (z) = 0.14009 0.45837
#
# Static dielectric constant tensor:
#      x y z
#    x 3.923010 0.000000 0.000000 
#    y 0.000000 4.251490 0.000000 
#    z 0.000000 0.000000 4.181300 
# 
# 
# High freq. dielectric constant tensor:
#      x y z
#    x 1.891130 0.000000 0.000000 
#    y 0.000000 1.911180 0.000000 
#    z 0.000000 0.000000 1.886840 
# 
# From -- ./inp_files/15492.got.cif
#   From: 2010.03.12/outbox.cif.g09.slc.cpg/sg39_8_cif.got.tgz:15492.got - 2010.04.14 02:53:20.
