data_PCOD8182319
_publ_section_title
;
Structure prediction by ZEFSAII (Michael W. Deem and Ramdas Pophale) SiO2 
 PCOD8182319
Probable space group: A B M 2
;
_chemical_formula_sum "Si O2"
_cell_formula_units_Z 56
_cell_length_a 4.829663
_cell_length_b 16.087422
_cell_length_c 30.516605
_cell_angle_alpha 90.000000
_cell_angle_beta 90.000000
_cell_angle_gamma 90.000000
_cell_volume 2371.043373
_symmetry_space_group_name_H-M "A B M 2"
_symmetry_group_IT_number 39
_symmetry_cell_setting 'orthorhombic'
loop_
_space_group_symop_operation_xyz
x,y,z
-x,-y,z
-x,1/2+y,z
x,1/2-y,z
x,1/2+y,1/2+z
-x,1/2-y,1/2+z
-x,y,1/2+z
x,-y,1/2+z
loop_
_atom_site_type_symbol
_atom_site_label
_atom_site_fract_x
_atom_site_fract_y
_atom_site_fract_z
Si Si1 0.377207 0.407892 0.741460
Si Si2 0.750866 0.559614 0.468416
Si Si3 0.406891 0.093789 0.105268
Si Si4 0.907975 0.654315 0.554843
Si Si5 0.605858 0.154933 0.881988
Si Si6 0.894235 0.593059 0.832116
Si Si7 0.128394 0.655765 0.693704
O O1 0.500000 0.500000 0.744701
O O2 0.234503 0.376947 0.786164
O O3 0.639627 0.349485 0.731718
O O4 0.140705 0.401326 0.703856
O O5 0.500000 0.500000 0.480154
O O6 0.798898 0.618476 0.509592
O O7 0.706470 0.621172 0.428195
O O8 0.000000 0.500000 0.455618
O O9 0.674428 0.148115 0.092512
O O10 0.272206 0.126630 0.149465
O O11 0.177853 0.100758 0.067248
O O12 0.500000 0.000000 0.111521
O O13 0.995087 0.750000 0.549325
O O14 0.509749 0.250000 0.886633
O O15 0.344783 0.098740 0.868439
O O16 0.848253 0.150374 0.845694
O O17 0.000000 0.500000 0.827836
O O18 0.023658 0.750000 0.689507
#
# Coordination Sequence:
#
# PCOD8182319 Si02
#       7
#     8   8   8   8   8   8   8
#     4  12  26  45  70 100 136 182 231 279 338 409
#     4  12  25  44  70  99 137 182 229 274 332 406
#     4  12  26  46  72 102 137 182 230 276 336 410
#     4  12  25  45  71 103 140 177 224 283 342 397
#     4  12  26  44  69 103 138 175 224 283 343 399
#     4  12  25  45  71  98 134 180 228 277 336 408
#     4  12  26  45  70 103 140 178 226 286 346 399
#
# _framework density 23.618295
#
# number of rings (size 3 to 8) (size 9 to 14) (size 15 to 20)
#    0.000    0.000    0.000   12.000    0.000    4.571 
#    0.000    5.000    0.000    0.000    0.000    0.000 
#    0.000    0.000    0.000    0.000    0.000    0.000 
#
# Total GULP energy -347404.352403 kJ/mol
# GULP energy per Si atom -12407.298300 kJ/mol
# Density = 2.356454 g / cm^3
# Si number density = 23.618295 Si / 1000 Ang^3
#
#
#
# Elastic Constant Matrix: (Units=GPa)
#
#
# Indices 1 2 3 4 5 6 
#
# 1 128.8841 25.0248 14.7715 0.0000 0.0000 0.0000
# 2 25.0248 95.6661 44.1059 0.0000 0.0000 0.0000
# 3 14.7715 44.1059 82.6297 0.0000 0.0000 0.0000
# 4 0.0000 0.0000 0.0000-2152.2828 0.0000 0.0000
# 5 0.0000 0.0000 0.0000 0.0000 38.7751 0.0000
# 6 0.0000 0.0000 0.0000 0.0000 0.0000 33.8473
#
#
#
# Elastic Compliance Matrix: (Units=1/GPa)
#
#
# Indices 1 2 3 4 5 6 
#
# 1 0.008185 -0.001945 -0.000425 0.000000 0.000000 0.000000
# 2 -0.001945 0.014327 -0.007300 0.000000 0.000000 0.000000
# 3 -0.000425 -0.007300 0.016075 0.000000 0.000000 0.000000
# 4 0.000000 0.000000 0.000000 -0.000465 0.000000 0.000000
# 5 0.000000 0.000000 0.000000 0.000000 0.025790 0.000000
# 6 0.000000 0.000000 0.000000 0.000000 0.000000 0.029544
#
#
# Mechanical properties :
#
#
# Convention : Reuss Voigt Hill
#
# Bulk Modulus (GPa) = 51.95554 52.77604 52.36579
# Shear Modulus (GPa) = 41.94174 -401.04690 -179.55258
#
# Velocity S-wave (km/s) = 4.21861 -13.04500 -8.72856
# Velocity P-wave (km/s) = 6.76570 14.30043 8.90863
#
# Compressibility (1/GPa) = 0.01924722
#
# Stress axis : x y z
#
# Youngs Moduli (GPa) = 122.17012 69.79619 62.20961
#
# Poissons Ratio (x) = 0.13577 0.02644
# Poissons Ratio (y) = 0.23765 0.45413
# Poissons Ratio (z) = 0.05192 0.50951
#
# Static dielectric constant tensor:
#      x y z
#    x 4.724130 0.000000 0.000000 
#    y 0.000000 10.097950 0.000000 
#    z 0.000000 0.000000 4.372790 
# 
# 
# High freq. dielectric constant tensor:
#      x y z
#    x 1.960380 0.000000 0.000000 
#    y 0.000000 1.934790 0.000000 
#    z 0.000000 0.000000 1.946370 
# 
# From -- ./inp_files/17259.got.cif
#   From: 2010.03.12/outbox.cif.g09.slc.cpg/sg39_9_cif.got.tgz:17259.got - 2010.04.14 02:53:20.
