data_PCOD8182184
_publ_section_title
;
Structure prediction by ZEFSAII (Michael W. Deem and Ramdas Pophale) SiO2 
 PCOD8182184
Probable space group: A B M 2
;
_chemical_formula_sum "Si O2"
_cell_formula_units_Z 40
_cell_length_a 8.464624
_cell_length_b 20.053879
_cell_length_c 10.419149
_cell_angle_alpha 90.000000
_cell_angle_beta 90.000000
_cell_angle_gamma 90.000000
_cell_volume 1768.635388
_symmetry_space_group_name_H-M "A B M 2"
_symmetry_group_IT_number 39
_symmetry_cell_setting 'orthorhombic'
loop_
_space_group_symop_operation_xyz
x,y,z
-x,-y,z
-x,1/2+y,z
x,1/2-y,z
x,1/2+y,1/2+z
-x,1/2-y,1/2+z
-x,y,1/2+z
x,-y,1/2+z
loop_
_atom_site_type_symbol
_atom_site_label
_atom_site_fract_x
_atom_site_fract_y
_atom_site_fract_z
Si Si1 0.584552 0.563851 0.155980
Si Si2 0.159740 0.823299 0.082693
Si Si3 0.760545 0.321753 0.360337
Si Si4 0.086206 0.930947 0.525120
Si Si5 0.562509 0.864996 0.422809
O O1 0.500000 0.500000 0.216652
O O2 0.766294 0.551241 0.115501
O O3 0.585445 0.613487 0.275816
O O4 0.476275 0.579976 0.031491
O O5 0.077887 0.750000 0.075480
O O6 0.267878 0.828704 0.208894
O O7 0.033119 0.882090 0.098402
O O8 0.273878 0.829661 0.959867
O O9 0.845055 0.250000 0.391558
O O10 0.859192 0.386664 0.403452
O O11 0.589907 0.317185 0.428080
O O12 0.000000 0.000000 0.481940
#
# Coordination Sequence:
#
# PCOD8182184 Si02
#       5
#     8   8   8   8   8
#     4  11  24  44  69 104 143 187 238 291 358 426
#     4  11  24  45  69 105 144 185 238 300 362 426
#     4  10  23  45  70 101 140 185 243 297 351 427
#     4  11  26  44  70 104 145 190 232 292 360 432
#     4  11  22  44  71 102 134 185 243 294 354 421
#
# _framework density 22.616308
#
# number of rings (size 3 to 8) (size 9 to 14) (size 15 to 20)
#    0.000    1.200    2.000    3.000    2.800    2.400 
#    0.000    2.000    0.000    0.000    0.000    0.000 
#    0.000    0.000    0.000    0.000    0.000    0.000 
#
# Total GULP energy -247763.217541 kJ/mol
# GULP energy per Si atom -12388.160877 kJ/mol
# Density = 2.256483 g / cm^3
# Si number density = 22.616308 Si / 1000 Ang^3
#
#
#
# Elastic Constant Matrix: (Units=GPa)
#
#
# Indices 1 2 3 4 5 6 
#
# 1 118.0776 57.3375 31.7157 0.0000 0.0000 0.0000
# 2 57.3375 166.2172 37.0010 0.0000 0.0000 0.0000
# 3 31.7157 37.0010 108.6712 0.0000 0.0000 0.0000
# 4 0.0000 0.0000 0.0000 26.2430 0.0000 0.0000
# 5 0.0000 0.0000 0.0000 0.0000 30.1973 0.0000
# 6 0.0000 0.0000 0.0000 0.0000 0.0000 20.7948
#
#
#
# Elastic Compliance Matrix: (Units=1/GPa)
#
#
# Indices 1 2 3 4 5 6 
#
# 1 0.010557 -0.003198 -0.001992 0.000000 0.000000 0.000000
# 2 -0.003198 0.007479 -0.001613 0.000000 0.000000 0.000000
# 3 -0.001992 -0.001613 0.010333 0.000000 0.000000 0.000000
# 4 0.000000 0.000000 0.000000 0.038105 0.000000 0.000000
# 5 0.000000 0.000000 0.000000 0.000000 0.033116 0.000000
# 6 0.000000 0.000000 0.000000 0.000000 0.000000 0.048089
#
#
# Mechanical properties :
#
#
# Convention : Reuss Voigt Hill
#
# Bulk Modulus (GPa) = 67.74300 71.67491 69.70896
# Shear Modulus (GPa) = 30.08327 33.24115 31.66221
#
# Velocity S-wave (km/s) = 3.65109 3.83794 3.74568
# Velocity P-wave (km/s) = 6.91319 7.16939 7.04245
#
# Compressibility (1/GPa) = 0.01476167
#
# Stress axis : x y z
#
# Youngs Moduli (GPa) = 94.72256 133.71608 96.78062
#
# Poissons Ratio (x) = 0.42766 0.19280
# Poissons Ratio (y) = 0.30295 0.15610
# Poissons Ratio (z) = 0.18870 0.21567
#
# Static dielectric constant tensor:
#      x y z
#    x 4.083240 0.000000 0.000000 
#    y 0.000000 4.128610 0.000000 
#    z 0.000000 0.000000 3.921600 
# 
# 
# High freq. dielectric constant tensor:
#      x y z
#    x 1.893060 0.000000 0.000000 
#    y 0.000000 1.894280 0.000000 
#    z 0.000000 0.000000 1.890280 
# 
# From -- ./inp_files/4946.got.cif
#   From: 2010.03.12/outbox.cif.g09.slc.cpg/sg39_3_cif.got.tgz:4946.got - 2010.04.14 02:53:20.
