data_PCOD8182125
_publ_section_title
;
Structure prediction by ZEFSAII (Michael W. Deem and Ramdas Pophale) SiO2 
 PCOD8182125
Probable space group: A B M 2
;
_chemical_formula_sum "Si O2"
_cell_formula_units_Z 48
_cell_length_a 12.908832
_cell_length_b 17.540857
_cell_length_c 8.566325
_cell_angle_alpha 90.000000
_cell_angle_beta 90.000000
_cell_angle_gamma 90.000000
_cell_volume 1939.689898
_symmetry_space_group_name_H-M "A B M 2"
_symmetry_group_IT_number 39
_symmetry_cell_setting 'orthorhombic'
loop_
_space_group_symop_operation_xyz
x,y,z
-x,-y,z
-x,1/2+y,z
x,1/2-y,z
x,1/2+y,1/2+z
-x,1/2-y,1/2+z
-x,y,1/2+z
x,-y,1/2+z
loop_
_atom_site_type_symbol
_atom_site_label
_atom_site_fract_x
_atom_site_fract_y
_atom_site_fract_z
Si Si1 0.327889 0.511106 0.480920
Si Si2 0.970520 0.412510 0.406257
Si Si3 0.135222 0.159651 0.208877
Si Si4 0.338864 0.250000 0.669077
Si Si5 0.629791 0.392888 0.747063
Si Si6 0.221215 0.595627 0.207385
Si Si7 0.477007 0.250000 0.361351
O O1 0.403050 0.558777 0.594729
O O2 0.393540 0.445735 0.396450
O O3 0.280780 0.571660 0.362997
O O4 0.235563 0.469722 0.577615
O O5 0.913357 0.378230 0.555602
O O6 0.899744 0.401131 0.250484
O O7 0.000000 0.500000 0.435116
O O8 0.073804 0.364624 0.365711
O O9 0.135517 0.250000 0.188898
O O10 0.250345 0.129378 0.234057
O O11 0.265343 0.176858 0.649008
O O12 0.427503 0.250000 0.533058
O O13 0.397157 0.250000 0.839589
O O14 0.556864 0.321396 0.758123
#
# Coordination Sequence:
#
# PCOD8182125 Si02
#       7
#     8   8   8   4   8   8   4
#     4  10  22  42  75 101 138 189 237 296 360 430
#     4  12  27  44  70 103 147 196 250 303 361 441
#     4  12  27  42  66 105 146 198 246 305 366 438
#     4  12  30  50  79 112 143 196 243 312 382 456
#     4  11  23  47  72 104 146 195 243 306 370 435
#     4  11  25  46  73 105 147 193 245 300 371 435
#     4  12  28  52  79 108 149 188 249 308 386 454
#
# _framework density 24.746224000000002
#
# number of rings (size 3 to 8) (size 9 to 14) (size 15 to 20)
#    0.000    0.667    4.167    3.000    9.333    0.000 
#    0.000    5.000    0.000    0.000    0.000    0.000 
#    0.000    0.000    0.000    0.000    0.000    0.000 
#
# Total GULP energy -297615.842492 kJ/mol
# GULP energy per Si atom -12400.660104 kJ/mol
# Density = 2.468990 g / cm^3
# Si number density = 24.746224 Si / 1000 Ang^3
#
#
#
# Elastic Constant Matrix: (Units=GPa)
#
#
# Indices 1 2 3 4 5 6 
#
# 1 43.0368 23.5645 -0.2647 0.0000 0.0000 0.0000
# 2 23.5645 181.7331 43.5997 0.0000 0.0000 0.0000
# 3 -0.2647 43.5997 74.4500 0.0000 0.0000 0.0000
# 4 0.0000 0.0000 0.0000 32.0219 0.0000 0.0000
# 5 0.0000 0.0000 0.0000 0.0000 32.6214 0.0000
# 6 0.0000 0.0000 0.0000 0.0000 0.0000 37.4695
#
#
#
# Elastic Compliance Matrix: (Units=1/GPa)
#
#
# Indices 1 2 3 4 5 6 
#
# 1 0.025359 -0.003851 0.002345 0.000000 0.000000 0.000000
# 2 -0.003851 0.006987 -0.004105 0.000000 0.000000 0.000000
# 3 0.002345 -0.004105 0.015844 0.000000 0.000000 0.000000
# 4 0.000000 0.000000 0.000000 0.031229 0.000000 0.000000
# 5 0.000000 0.000000 0.000000 0.000000 0.030655 0.000000
# 6 0.000000 0.000000 0.000000 0.000000 0.000000 0.026688
#
#
# Mechanical properties :
#
#
# Convention : Reuss Voigt Hill
#
# Bulk Modulus (GPa) = 27.05022 48.11321 37.58172
# Shear Modulus (GPa) = 31.19031 35.91059 33.55045
#
# Velocity S-wave (km/s) = 3.55407 3.81353 3.68609
# Velocity P-wave (km/s) = 5.27226 6.23503 5.77375
#
# Compressibility (1/GPa) = 0.03696827
#
# Stress axis : x y z
#
# Youngs Moduli (GPa) = 39.43397 143.12691 63.11399
#
# Poissons Ratio (x) = 0.55116 -0.14802
# Poissons Ratio (y) = 0.15185 0.25910
# Poissons Ratio (z) = -0.09248 0.58758
#
# Static dielectric constant tensor:
#      x y z
#    x 4.355840 0.000000 0.000000 
#    y 0.000000 4.771390 0.000000 
#    z 0.000000 0.000000 4.747190 
# 
# 
# High freq. dielectric constant tensor:
#      x y z
#    x 1.973350 0.000000 0.000000 
#    y 0.000000 2.003390 0.000000 
#    z 0.000000 0.000000 1.999900 
# 
# From -- ./inp_files/3267.got.cif
#   From: 2010.03.12/outbox.cif.g09.slc.cpg/sg39_2_cif.got.tgz:3267.got - 2010.04.14 02:53:20.
