data_PCOD8182366
_publ_section_title
;
Structure prediction by ZEFSAII (Michael W. Deem and Ramdas Pophale) SiO2 
 PCOD8182366
Probable space group: A M A 2
;
_chemical_formula_sum "Si O2"
_cell_formula_units_Z 56
_cell_length_a 8.506547
_cell_length_b 22.555894
_cell_length_c 17.972926
_cell_angle_alpha 90.000000
_cell_angle_beta 90.000000
_cell_angle_gamma 90.000000
_cell_volume 3448.515140
_symmetry_space_group_name_H-M "A M A 2"
_symmetry_group_IT_number 40
_symmetry_cell_setting 'orthorhombic'
loop_
_space_group_symop_operation_xyz
x,y,z
-x,-y,z
1/2-x,y,z
1/2+x,-y,z
x,1/2+y,1/2+z
-x,1/2-y,1/2+z
1/2-x,1/2+y,1/2+z
1/2+x,1/2-y,1/2+z
loop_
_atom_site_type_symbol
_atom_site_label
_atom_site_fract_x
_atom_site_fract_y
_atom_site_fract_z
Si Si1 0.933128 0.307028 0.905470
Si Si2 0.562918 0.348264 0.296032
Si Si3 0.435137 0.849702 0.547613
Si Si4 0.067365 0.184034 0.949182
Si Si5 0.065891 0.783589 0.258622
Si Si6 0.063164 0.565673 0.169545
Si Si7 0.436279 0.219723 0.102920
O O1 0.750000 0.291894 0.912195
O O2 0.042748 0.251091 0.923034
O O3 0.977227 0.324578 0.820283
O O4 0.981795 0.356284 0.966519
O O5 0.750000 0.349380 0.296402
O O6 0.498952 0.357448 0.381978
O O7 0.506381 0.284431 0.265819
O O8 0.497561 0.399353 0.242229
O O9 0.250000 0.854313 0.537167
O O10 0.496144 0.904355 0.595814
O O11 0.485115 0.787931 0.586942
O O12 0.250000 0.171593 0.955248
O O13 0.000029 0.178581 0.033451
O O14 0.250000 0.790541 0.270330
O O15 0.019390 0.805344 0.176306
O O16 0.250000 0.566472 0.166556
O O17 0.000000 0.500000 0.175701
O O18 0.250000 0.214806 0.111962
#
# Coordination Sequence:
#
# PCOD8182366 Si02
#       7
#     8   8   8   8   8   8   8
#     4  10  18  27  41  62  85 112 146 180 218 265
#     4   8  15  28  44  58  80 114 149 182 220 262
#     4  10  19  32  46  61  85 116 149 187 227 266
#     4   8  15  28  42  60  83 112 145 180 218 263
#     4  10  17  27  42  61  87 118 149 177 213 262
#     4  11  21  33  47  66  87 117 157 195 231 267
#     4   9  16  25  41  64  89 112 142 178 218 263
#
# _framework density 16.238873000000002
#
# number of rings (size 3 to 8) (size 9 to 14) (size 15 to 20)
#    0.000    2.571    1.429    4.286    0.000    2.286 
#    0.000    0.714    0.000    0.000    0.000    0.000 
#    0.000    1.143    0.000    8.000    0.000    3.714 
#
# Total GULP energy -346869.720551 kJ/mol
# GULP energy per Si atom -12388.204305 kJ/mol
# Density = 1.620191 g / cm^3
# Si number density = 16.238873 Si / 1000 Ang^3
#
#
#
# Elastic Constant Matrix: (Units=GPa)
#
#
# Indices 1 2 3 4 5 6 
#
# 1 34.3980 11.4660 31.5086 0.0000 0.0000 0.0000
# 2 11.4660 46.6718 47.0399 0.0000 0.0000 0.0000
# 3 31.5086 47.0399 178.7405 0.0000 0.0000 0.0000
# 4 0.0000 0.0000 0.0000 17.5136 0.0000 0.0000
# 5 0.0000 0.0000 0.0000 0.0000 25.7735 0.0000
# 6 0.0000 0.0000 0.0000 0.0000 0.0000 11.9527
#
#
#
# Elastic Compliance Matrix: (Units=1/GPa)
#
#
# Indices 1 2 3 4 5 6 
#
# 1 0.035026 -0.003242 -0.005321 0.000000 0.000000 0.000000
# 2 -0.003242 0.029461 -0.007182 0.000000 0.000000 0.000000
# 3 -0.005321 -0.007182 0.008423 0.000000 0.000000 0.000000
# 4 0.000000 0.000000 0.000000 0.057099 0.000000 0.000000
# 5 0.000000 0.000000 0.000000 0.000000 0.038800 0.000000
# 6 0.000000 0.000000 0.000000 0.000000 0.000000 0.083663
#
#
# Mechanical properties :
#
#
# Convention : Reuss Voigt Hill
#
# Bulk Modulus (GPa) = 24.14270 48.87104 36.50687
# Shear Modulus (GPa) = 16.79156 22.36768 19.57962
#
# Velocity S-wave (km/s) = 3.21913 3.71538 3.47612
# Velocity P-wave (km/s) = 5.35878 6.96892 6.21620
#
# Compressibility (1/GPa) = 0.04142039
#
# Stress axis : x y z
#
# Youngs Moduli (GPa) = 28.54994 33.94284 118.72427
#
# Poissons Ratio (x) = 0.11003 0.63177
# Poissons Ratio (y) = 0.09255 0.85268
# Poissons Ratio (z) = 0.15192 0.24378
#
# Static dielectric constant tensor:
#      x y z
#    x 2.911630 0.000000 0.000000 
#    y 0.000000 2.591660 0.000000 
#    z 0.000000 0.000000 3.781490 
# 
# 
# High freq. dielectric constant tensor:
#      x y z
#    x 1.620500 0.000000 0.000000 
#    y 0.000000 1.541790 0.000000 
#    z 0.000000 0.000000 1.653340 
# 
# From -- ./inp_files/19490.got.cif
#   From: 2010.03.12/outbox.cif.g09.slc.cpg/sg40_10_cif.got.tgz:19490.got - 2010.04.14 01:38:03.
