data_PCOD8182367
_publ_section_title
;
Structure prediction by ZEFSAII (Michael W. Deem and Ramdas Pophale) SiO2 
 PCOD8182367
Probable space group: A M A 2
;
_chemical_formula_sum "Si O2"
_cell_formula_units_Z 64
_cell_length_a 9.008216
_cell_length_b 25.061823
_cell_length_c 19.786683
_cell_angle_alpha 90.000000
_cell_angle_beta 90.000000
_cell_angle_gamma 90.000000
_cell_volume 4467.087359
_symmetry_space_group_name_H-M "A M A 2"
_symmetry_group_IT_number 40
_symmetry_cell_setting 'orthorhombic'
loop_
_space_group_symop_operation_xyz
x,y,z
-x,-y,z
1/2-x,y,z
1/2+x,-y,z
x,1/2+y,1/2+z
-x,1/2-y,1/2+z
1/2-x,1/2+y,1/2+z
1/2+x,1/2-y,1/2+z
loop_
_atom_site_type_symbol
_atom_site_label
_atom_site_fract_x
_atom_site_fract_y
_atom_site_fract_z
Si Si1 0.081249 0.265510 0.401310
Si Si2 0.424421 0.333750 0.934397
Si Si3 0.425452 0.667757 0.295202
Si Si4 0.422723 0.447209 0.970372
Si Si5 0.579997 0.702922 0.164896
Si Si6 0.079868 0.226604 0.541110
Si Si7 0.923888 0.448601 0.250763
Si Si8 0.420558 0.917341 0.620030
O O1 0.250000 0.267396 0.374797
O O2 0.074299 0.273442 0.483435
O O3 0.011530 0.206541 0.383493
O O4 0.985408 0.311991 0.367172
O O5 0.250000 0.321431 0.930795
O O6 0.457308 0.396529 0.921143
O O7 0.484028 0.322616 0.010501
O O8 0.250000 0.674722 0.290337
O O9 0.500488 0.704204 0.237491
O O10 0.472927 0.605882 0.288331
O O11 0.500000 0.500000 0.940967
O O12 0.250000 0.458539 0.971525
O O13 0.477858 0.434288 0.046156
O O14 0.750000 0.720665 0.174016
O O15 0.496210 0.743238 0.112451
O O16 0.561403 0.645381 0.131555
O O17 0.250000 0.209061 0.554004
O O18 0.750000 0.456367 0.254185
O O19 0.000000 0.500000 0.286652
O O20 0.975788 0.447689 0.173159
O O21 0.250000 0.934185 0.631877
#
# Coordination Sequence:
#
# PCOD8182367 Si02
#       8
#     8   8   8   8   8   8   8   8
#     4   9  18  30  45  63  79 102 137 173 211 253
#     4   9  16  29  43  55  75 104 137 170 208 246
#     4  10  20  31  44  62  83 107 140 175 209 250
#     4  10  19  27  36  54  77 104 138 172 206 240
#     4  10  17  27  43  60  82 108 138 175 212 245
#     4   9  17  27  42  61  80 103 136 170 207 250
#     4  10  20  30  39  54  74 103 136 168 205 241
#     4   9  16  27  38  51  72 103 138 171 203 236
#
# _framework density 14.327007999999999
#
# number of rings (size 3 to 8) (size 9 to 14) (size 15 to 20)
#    0.750    1.750    1.250    2.250    0.000    4.500 
#    0.000    0.000    0.000    0.000    0.000    0.000 
#    0.000    0.000    0.000    1.125    0.000   19.000 
#
# Total GULP energy -396430.016280 kJ/mol
# GULP energy per Si atom -12388.438009 kJ/mol
# Density = 1.429440 g / cm^3
# Si number density = 14.327008 Si / 1000 Ang^3
#
#
#
# Elastic Constant Matrix: (Units=GPa)
#
#
# Indices 1 2 3 4 5 6 
#
# 1 69.6246 30.5409 26.2901 0.0000 0.0000 0.0000
# 2 30.5409 64.3928 27.8774 0.0000 0.0000 0.0000
# 3 26.2901 27.8774 45.5245 0.0000 0.0000 0.0000
# 4 0.0000 0.0000 0.0000 17.3221 0.0000 0.0000
# 5 0.0000 0.0000 0.0000 0.0000 21.4779 0.0000
# 6 0.0000 0.0000 0.0000 0.0000 0.0000 22.2983
#
#
#
# Elastic Compliance Matrix: (Units=1/GPa)
#
#
# Indices 1 2 3 4 5 6 
#
# 1 0.019986 -0.006099 -0.007807 0.000000 0.000000 0.000000
# 2 -0.006099 0.022993 -0.010558 0.000000 0.000000 0.000000
# 3 -0.007807 -0.010558 0.032940 0.000000 0.000000 0.000000
# 4 0.000000 0.000000 0.000000 0.057730 0.000000 0.000000
# 5 0.000000 0.000000 0.000000 0.000000 0.046559 0.000000
# 6 0.000000 0.000000 0.000000 0.000000 0.000000 0.044846
#
#
# Mechanical properties :
#
#
# Convention : Reuss Voigt Hill
#
# Bulk Modulus (GPa) = 37.04925 38.77318 37.91122
# Shear Modulus (GPa) = 17.66910 18.54190 18.10550
#
# Velocity S-wave (km/s) = 3.51561 3.60139 3.55876
# Velocity P-wave (km/s) = 6.51116 6.66447 6.58826
#
# Compressibility (1/GPa) = 0.02699110
#
# Stress axis : x y z
#
# Youngs Moduli (GPa) = 50.03476 43.49079 30.35842
#
# Poissons Ratio (x) = 0.26527 0.23700
# Poissons Ratio (y) = 0.30518 0.32052
# Poissons Ratio (z) = 0.39061 0.45917
#
# Static dielectric constant tensor:
#      x y z
#    x 2.865860 0.000000 0.000000 
#    y 0.000000 2.671330 0.000000 
#    z 0.000000 0.000000 2.539500 
# 
# 
# High freq. dielectric constant tensor:
#      x y z
#    x 1.564950 0.000000 0.000000 
#    y 0.000000 1.517430 0.000000 
#    z 0.000000 0.000000 1.505530 
# 
# From -- ./inp_files/22601.got.cif
#   From: 2010.03.12/outbox.cif.g09.slc.cpg/sg40_12_cif.got.tgz:22601.got - 2010.04.14 01:38:03.
