data_PCOD8182130
_publ_section_title
;
Structure prediction by ZEFSAII (Michael W. Deem and Ramdas Pophale) SiO2 
 PCOD8182130
Probable space group: A B M 2
;
_chemical_formula_sum "Si O2"
_cell_formula_units_Z 48
_cell_length_a 12.180179
_cell_length_b 21.396019
_cell_length_c 8.285069
_cell_angle_alpha 90.000000
_cell_angle_beta 90.000000
_cell_angle_gamma 90.000000
_cell_volume 2159.149805
_symmetry_space_group_name_H-M "A B M 2"
_symmetry_group_IT_number 39
_symmetry_cell_setting 'orthorhombic'
loop_
_space_group_symop_operation_xyz
x,y,z
-x,-y,z
-x,1/2+y,z
x,1/2-y,z
x,1/2+y,1/2+z
-x,1/2-y,1/2+z
-x,y,1/2+z
x,-y,1/2+z
loop_
_atom_site_type_symbol
_atom_site_label
_atom_site_fract_x
_atom_site_fract_y
_atom_site_fract_z
Si Si1 0.376542 0.015325 0.046960
Si Si2 0.359762 0.627139 0.760080
Si Si3 0.895914 0.321957 0.326053
Si Si4 0.869490 0.679201 0.204985
Si Si5 0.299503 0.593522 0.247198
Si Si6 0.544485 0.821803 0.582261
O O1 0.381937 0.055024 0.214237
O O2 0.500000 0.000000 0.990489
O O3 0.308887 0.952706 0.091987
O O4 0.312047 0.055557 0.913618
O O5 0.230412 0.638801 0.774007
O O6 0.414486 0.670664 0.619398
O O7 0.420384 0.640172 0.926308
O O8 0.878204 0.250000 0.266102
O O9 0.876108 0.327482 0.514512
O O10 0.815717 0.370124 0.235705
O O11 0.018584 0.344788 0.285883
O O12 0.847596 0.750000 0.258411
O O13 0.393324 0.646959 0.235197
O O14 0.577209 0.750000 0.562493
#
# Coordination Sequence:
#
# PCOD8182130 Si02
#       6
#     8   8   8   8   8   8
#     4  12  25  44  70 101 138 189 237 287 350 421
#     4  12  25  45  69 103 141 185 233 285 354 430
#     4  10  23  44  72 102 136 181 231 291 359 423
#     4  10  22  43  71 102 140 180 228 289 357 429
#     4  12  25  45  70  99 137 185 239 290 348 418
#     4  12  26  42  67 106 145 178 223 291 361 426
#
# _framework density 22.230972999999999
#
# number of rings (size 3 to 8) (size 9 to 14) (size 15 to 20)
#    0.000    0.667    3.333    4.500    2.333    0.000 
#    0.000    0.833    0.000    0.000    0.000    0.000 
#    0.000    0.000    0.000    0.000    0.000    0.000 
#
# Total GULP energy -297654.849578 kJ/mol
# GULP energy per Si atom -12402.285399 kJ/mol
# Density = 2.218037 g / cm^3
# Si number density = 22.230973 Si / 1000 Ang^3
#
#
#
# Elastic Constant Matrix: (Units=GPa)
#
#
# Indices 1 2 3 4 5 6 
#
# 1 160.8126 50.0428 39.6823 0.0000 0.0000 0.0000
# 2 50.0428 102.6764 24.9368 0.0000 0.0000 0.0000
# 3 39.6823 24.9368 55.3882 0.0000 0.0000 0.0000
# 4 0.0000 0.0000 0.0000 32.0484 0.0000 0.0000
# 5 0.0000 0.0000 0.0000 0.0000 31.4063 0.0000
# 6 0.0000 0.0000 0.0000 0.0000 0.0000 42.1063
#
#
#
# Elastic Compliance Matrix: (Units=1/GPa)
#
#
# Indices 1 2 3 4 5 6 
#
# 1 0.008260 -0.002906 -0.004609 0.000000 0.000000 0.000000
# 2 -0.002906 0.011958 -0.003301 0.000000 0.000000 0.000000
# 3 -0.004609 -0.003301 0.022843 0.000000 0.000000 0.000000
# 4 0.000000 0.000000 0.000000 0.031203 0.000000 0.000000
# 5 0.000000 0.000000 0.000000 0.000000 0.031841 0.000000
# 6 0.000000 0.000000 0.000000 0.000000 0.000000 0.023749
#
#
# Mechanical properties :
#
#
# Convention : Reuss Voigt Hill
#
# Bulk Modulus (GPa) = 46.67082 60.91122 53.79102
# Shear Modulus (GPa) = 31.51977 34.72655 33.12316
#
# Velocity S-wave (km/s) = 3.76949 3.95660 3.86418
# Velocity P-wave (km/s) = 6.32334 6.95210 6.64516
#
# Compressibility (1/GPa) = 0.02142666
#
# Stress axis : x y z
#
# Youngs Moduli (GPa) = 121.06090 83.62833 43.77694
#
# Poissons Ratio (x) = 0.24306 0.20179
# Poissons Ratio (y) = 0.35186 0.14452
# Poissons Ratio (z) = 0.55803 0.27608
#
# Static dielectric constant tensor:
#      x y z
#    x 4.053630 0.000000 0.000000 
#    y 0.000000 4.148600 0.000000 
#    z 0.000000 0.000000 3.998910 
# 
# 
# High freq. dielectric constant tensor:
#      x y z
#    x 1.864430 0.000000 0.000000 
#    y 0.000000 1.878210 0.000000 
#    z 0.000000 0.000000 1.885550 
# 
# From -- ./inp_files/2706.got.cif
#   From: 2010.03.12/outbox.cif.g09.slc.cpg/sg39_2_cif.got.tgz:2706.got - 2010.04.14 02:53:20.
