data_PCOD8182647
_publ_section_title
;
Structure prediction by ZEFSAII (Michael W. Deem and Ramdas Pophale) SiO2 
 PCOD8182647
Probable space group: A M A 2
;
_chemical_formula_sum "Si O2"
_cell_formula_units_Z 56
_cell_length_a 9.302985
_cell_length_b 18.768387
_cell_length_c 17.542938
_cell_angle_alpha 90.000000
_cell_angle_beta 90.000000
_cell_angle_gamma 90.000000
_cell_volume 3063.032460
_symmetry_space_group_name_H-M "A M A 2"
_symmetry_group_IT_number 40
_symmetry_cell_setting 'orthorhombic'
loop_
_space_group_symop_operation_xyz
x,y,z
-x,-y,z
1/2-x,y,z
1/2+x,-y,z
x,1/2+y,1/2+z
-x,1/2-y,1/2+z
1/2-x,1/2+y,1/2+z
1/2+x,1/2-y,1/2+z
loop_
_atom_site_type_symbol
_atom_site_label
_atom_site_fract_x
_atom_site_fract_y
_atom_site_fract_z
Si Si1 0.587361 0.808966 0.526310
Si Si2 0.081802 0.925330 0.439543
Si Si3 0.592622 0.436773 0.570978
Si Si4 0.090913 0.564142 0.393757
Si Si5 0.586993 0.679771 0.805415
Si Si6 0.085651 0.793583 0.887045
Si Si7 0.586712 0.187471 0.129207
O O1 0.750000 0.839479 0.522951
O O2 0.479208 0.873060 0.505918
O O3 0.567843 0.743105 0.468703
O O4 0.554135 0.771323 0.608628
O O5 0.250000 0.937666 0.455571
O O6 0.055354 0.890627 0.356150
O O7 0.000000 0.000000 0.442636
O O8 0.500000 0.500000 0.609848
O O9 0.750000 0.435855 0.609867
O O10 0.609449 0.452532 0.482338
O O11 0.518414 0.360924 0.580247
O O12 0.250000 0.568226 0.356184
O O13 0.000000 0.500000 0.355435
O O14 0.008509 0.636701 0.379957
O O15 0.750000 0.705894 0.822402
O O16 0.471879 0.739821 0.823646
O O17 0.564875 0.665345 0.716567
O O18 0.250000 0.812963 0.869308
O O19 0.750000 0.171232 0.103711
#
# Coordination Sequence:
#
# PCOD8182647 Si02
#       7
#     8   8   8   8   8   8   8
#     4   9  18  32  53  77 101 133 172 215 260 307
#     4  10  20  35  55  78 105 137 177 220 263 313
#     4  10  20  31  46  70 102 136 169 205 245 295
#     4  10  19  30  47  71  99 130 165 205 249 297
#     4   9  20  35  52  75 104 139 172 209 260 315
#     4  10  18  31  51  74 100 131 169 213 254 302
#     4  10  19  34  53  75 106 140 174 213 261 313
#
# _framework density 18.282536
#
# number of rings (size 3 to 8) (size 9 to 14) (size 15 to 20)
#    0.000    2.286    1.429    1.714    0.000    4.000 
#    0.000    1.429    0.000    0.857    0.000    4.000 
#    0.000    0.000    0.000    0.000    0.000    0.000 
#
# Total GULP energy -347071.212249 kJ/mol
# GULP energy per Si atom -12395.400437 kJ/mol
# Density = 1.824092 g / cm^3
# Si number density = 18.282536 Si / 1000 Ang^3
#
#
#
# Elastic Constant Matrix: (Units=GPa)
#
#
# Indices 1 2 3 4 5 6 
#
# 1 150.3920 82.7417 21.5009 0.0000 0.0000 0.0000
# 2 82.7417 127.6161 22.4711 0.0000 0.0000 0.0000
# 3 21.5009 22.4711 36.0676 0.0000 0.0000 0.0000
# 4 0.0000 0.0000 0.0000 14.3336 0.0000 0.0000
# 5 0.0000 0.0000 0.0000 0.0000 17.3248 0.0000
# 6 0.0000 0.0000 0.0000 0.0000 0.0000 39.6647
#
#
#
# Elastic Compliance Matrix: (Units=1/GPa)
#
#
# Indices 1 2 3 4 5 6 
#
# 1 0.010499 -0.006408 -0.002266 0.000000 0.000000 0.000000
# 2 -0.006408 0.012713 -0.004100 0.000000 0.000000 0.000000
# 3 -0.002266 -0.004100 0.031631 0.000000 0.000000 0.000000
# 4 0.000000 0.000000 0.000000 0.069766 0.000000 0.000000
# 5 0.000000 0.000000 0.000000 0.000000 0.057721 0.000000
# 6 0.000000 0.000000 0.000000 0.000000 0.000000 0.025211
#
#
# Mechanical properties :
#
#
# Convention : Reuss Voigt Hill
#
# Bulk Modulus (GPa) = 34.13718 63.05589 48.59654
# Shear Modulus (GPa) = 20.58840 26.75540 23.67190
#
# Velocity S-wave (km/s) = 3.35942 3.82964 3.60221
# Velocity P-wave (km/s) = 5.81035 7.35659 6.62871
#
# Compressibility (1/GPa) = 0.02929357
#
# Stress axis : x y z
#
# Youngs Moduli (GPa) = 95.24906 78.66136 31.61420
#
# Poissons Ratio (x) = 0.50406 0.07165
# Poissons Ratio (y) = 0.61035 0.12963
# Poissons Ratio (z) = 0.21586 0.32254
#
# Static dielectric constant tensor:
#      x y z
#    x 3.825590 0.000000 0.000000 
#    y 0.000000 3.260640 0.000000 
#    z 0.000000 0.000000 3.113440 
# 
# 
# High freq. dielectric constant tensor:
#      x y z
#    x 1.725050 0.000000 0.000000 
#    y 0.000000 1.704560 0.000000 
#    z 0.000000 0.000000 1.665090 
# 
# From -- ./inp_files/19499.got.cif
#   From: 2010.03.12/outbox.cif.g09.slc.cpg/sg40_10_cif.got.tgz:19499.got - 2010.04.14 01:38:03.
