data_PCOD8182065
_publ_section_title
;
Structure prediction by ZEFSAII (Michael W. Deem and Ramdas Pophale) SiO2 
 PCOD8182065
Probable space group: A B M 2
;
_chemical_formula_sum "Si O2"
_cell_formula_units_Z 56
_cell_length_a 18.344617
_cell_length_b 14.380708
_cell_length_c 10.217943
_cell_angle_alpha 90.000000
_cell_angle_beta 90.000000
_cell_angle_gamma 90.000000
_cell_volume 2695.581038
_symmetry_space_group_name_H-M "A B M 2"
_symmetry_group_IT_number 39
_symmetry_cell_setting 'orthorhombic'
loop_
_space_group_symop_operation_xyz
x,y,z
-x,-y,z
-x,1/2+y,z
x,1/2-y,z
x,1/2+y,1/2+z
-x,1/2-y,1/2+z
-x,y,1/2+z
x,-y,1/2+z
loop_
_atom_site_type_symbol
_atom_site_label
_atom_site_fract_x
_atom_site_fract_y
_atom_site_fract_z
Si Si1 0.290572 0.351699 0.688530
Si Si2 0.045543 0.412190 0.225853
Si Si3 0.449903 0.639716 0.219571
Si Si4 0.827201 0.996943 0.595171
Si Si5 0.724488 0.351630 0.491813
Si Si6 0.058504 0.148851 0.502505
Si Si7 0.435407 0.860436 0.512225
O O1 0.272592 0.250000 0.623777
O O2 0.372119 0.385093 0.651026
O O3 0.232000 0.428878 0.654749
O O4 0.291892 0.336734 0.841724
O O5 0.129261 0.444053 0.204195
O O6 0.038310 0.343031 0.348912
O O7 0.000000 0.500000 0.271789
O O8 0.012671 0.368870 0.092335
O O9 0.458051 0.750000 0.227173
O O10 0.456181 0.598951 0.367823
O O11 0.512144 0.596762 0.124664
O O12 0.884034 0.934467 0.514659
O O13 0.787756 0.072668 0.505557
O O14 0.748172 0.250000 0.550427
O O15 0.647832 0.385661 0.554783
O O16 0.090652 0.250000 0.543308
O O17 0.443914 0.750000 0.507118
#
# Coordination Sequence:
#
# PCOD8182065 Si02
#       7
#     8   8   8   8   8   8   8
#     4   9  18  34  55  80 110 149 189 225 275 338
#     4  10  22  40  60  84 114 148 184 224 272 328
#     4   8  14  27  50  76 104 140 186 233 275 323
#     4  11  21  36  58  84 116 146 181 230 277 325
#     4   9  19  35  55  78 109 150 191 227 275 336
#     4  11  23  40  62  88 115 145 182 227 276 330
#     4   8  14  28  50  76 104 140 187 234 275 322
#
# _framework density 20.774742
#
# number of rings (size 3 to 8) (size 9 to 14) (size 15 to 20)
#    0.000    2.571    0.000    4.714    0.000    2.286 
#    0.000    6.429    0.000    8.571    0.000    0.000 
#    0.000    0.000    0.000    0.000    0.000    0.000 
#
# Total GULP energy -346919.168149 kJ/mol
# GULP energy per Si atom -12389.970291 kJ/mol
# Density = 2.072746 g / cm^3
# Si number density = 20.774742 Si / 1000 Ang^3
#
#
#
# Elastic Constant Matrix: (Units=GPa)
#
#
# Indices 1 2 3 4 5 6 
#
# 1 109.9911 49.5058 33.3610 0.0000 0.0000 0.0000
# 2 49.5058 91.6595 26.4271 0.0000 0.0000 0.0000
# 3 33.3610 26.4271 82.0233 0.0000 0.0000 0.0000
# 4 0.0000 0.0000 0.0000 12.9974 0.0000 0.0000
# 5 0.0000 0.0000 0.0000 0.0000 20.9347 0.0000
# 6 0.0000 0.0000 0.0000 0.0000 0.0000 -4.9731
#
#
#
# Elastic Compliance Matrix: (Units=1/GPa)
#
#
# Indices 1 2 3 4 5 6 
#
# 1 0.012762 -0.005949 -0.003274 0.000000 0.000000 0.000000
# 2 -0.005949 0.014800 -0.002349 0.000000 0.000000 0.000000
# 3 -0.003274 -0.002349 0.014280 0.000000 0.000000 0.000000
# 4 0.000000 0.000000 0.000000 0.076938 0.000000 0.000000
# 5 0.000000 0.000000 0.000000 0.000000 0.047768 0.000000
# 6 0.000000 0.000000 0.000000 0.000000 0.000000 -0.201083
#
#
# Mechanical properties :
#
#
# Convention : Reuss Voigt Hill
#
# Bulk Modulus (GPa) = 53.47948 55.80686 54.64317
# Shear Modulus (GPa) = -969.44183 17.41714 -476.01235
#
# Velocity S-wave (km/s) = -21.62539 2.89862 -15.15347
# Velocity P-wave (km/s) = 24.44882 6.17445 16.72754
#
# Compressibility (1/GPa) = 0.01869876
#
# Stress axis : x y z
#
# Youngs Moduli (GPa) = 78.35600 67.56633 70.02766
#
# Poissons Ratio (x) = 0.40195 0.22927
# Poissons Ratio (y) = 0.46614 0.16449
# Poissons Ratio (z) = 0.25654 0.15871
#
# Static dielectric constant tensor:
#      x y z
#    x 4.063230 0.000000 0.000000 
#    y 0.000000 4.021770 0.000000 
#    z 0.000000 0.000000 3.628240 
# 
# 
# High freq. dielectric constant tensor:
#      x y z
#    x 1.813950 0.000000 0.000000 
#    y 0.000000 1.808960 0.000000 
#    z 0.000000 0.000000 1.791580 
# 
# From -- ./inp_files/6484.got.cif
#   From: 2010.03.12/outbox.cif.g09.slc.cpg/sg39_4_cif.got.tgz:6484.got - 2010.04.14 02:53:20.
