data_PCOD8182422
_publ_section_title
;
Structure prediction by ZEFSAII (Michael W. Deem and Ramdas Pophale) SiO2 
 PCOD8182422
Probable space group: A M A 2
;
_chemical_formula_sum "Si O2"
_cell_formula_units_Z 40
_cell_length_a 14.314493
_cell_length_b 14.057463
_cell_length_c 10.539734
_cell_angle_alpha 90.000000
_cell_angle_beta 90.000000
_cell_angle_gamma 90.000000
_cell_volume 2120.862777
_symmetry_space_group_name_H-M "A M A 2"
_symmetry_group_IT_number 40
_symmetry_cell_setting 'orthorhombic'
loop_
_space_group_symop_operation_xyz
x,y,z
-x,-y,z
1/2-x,y,z
1/2+x,-y,z
x,1/2+y,1/2+z
-x,1/2-y,1/2+z
1/2-x,1/2+y,1/2+z
1/2+x,1/2-y,1/2+z
loop_
_atom_site_type_symbol
_atom_site_label
_atom_site_fract_x
_atom_site_fract_y
_atom_site_fract_z
Si Si1 0.250000 0.754157 0.906971
Si Si2 0.602416 0.755274 0.188851
Si Si3 0.750000 0.450300 0.936039
Si Si4 0.451629 0.400053 0.747675
Si Si5 0.750000 0.595126 0.624567
Si Si6 0.750000 0.895218 0.137506
Si Si7 0.924391 0.569117 0.027690
O O1 0.343912 0.759193 0.822048
O O2 0.250000 0.657175 0.989555
O O3 0.250000 0.837416 0.005921
O O4 0.501229 0.804392 0.196605
O O5 0.660842 0.830942 0.105606
O O6 0.599356 0.653480 0.122946
O O7 0.750000 0.437178 0.783104
O O8 0.836957 0.506280 0.989434
O O9 0.500000 0.500000 0.701412
O O10 0.342921 0.393083 0.709888
O O11 0.466266 0.389311 0.897974
O O12 0.750000 0.491296 0.555911
O O13 0.000000 0.500000 0.094582
#
# Coordination Sequence:
#
# PCOD8182422 Si02
#       7
#     4   8   4   8   4   4   8
#     4  10  23  39  62  86 131 158 194 249 322 365
#     4  10  22  38  60  87 122 161 193 248 312 364
#     4  10  18  38  59  81 110 154 202 240 277 346
#     4  11  21  38  63  91 116 154 214 253 293 354
#     4  12  22  36  63  95 118 158 200 265 294 361
#     4  10  17  39  60  86 109 154 206 242 287 350
#     4  11  21  37  63  86 115 154 204 246 290 359
#
# _framework density 18.860250000000001
#
# number of rings (size 3 to 8) (size 9 to 14) (size 15 to 20)
#    0.000    1.600    4.000    4.800    5.600    0.000 
#    0.000    3.000    4.400    0.000    0.000    0.000 
#    0.000    0.000    0.000    0.000    0.000    0.000 
#
# Total GULP energy -247804.818117 kJ/mol
# GULP energy per Si atom -12390.240906 kJ/mol
# Density = 1.881732 g / cm^3
# Si number density = 18.860250 Si / 1000 Ang^3
#
#
#
# Elastic Constant Matrix: (Units=GPa)
#
#
# Indices 1 2 3 4 5 6 
#
# 1 137.0624 63.2417 27.0655 0.0000 0.0000 0.0000
# 2 63.2417 177.5505 58.5243 0.0000 0.0000 0.0000
# 3 27.0655 58.5243 44.3092 0.0000 0.0000 0.0000
# 4 0.0000 0.0000 0.0000 44.1310 0.0000 0.0000
# 5 0.0000 0.0000 0.0000 0.0000 11.0311 0.0000
# 6 0.0000 0.0000 0.0000 0.0000 0.0000 35.5738
#
#
#
# Elastic Compliance Matrix: (Units=1/GPa)
#
#
# Indices 1 2 3 4 5 6 
#
# 1 0.008850 -0.002427 -0.002200 0.000000 0.000000 0.000000
# 2 -0.002427 0.010641 -0.012572 0.000000 0.000000 0.000000
# 3 -0.002200 -0.012572 0.040518 0.000000 0.000000 0.000000
# 4 0.000000 0.000000 0.000000 0.022660 0.000000 0.000000
# 5 0.000000 0.000000 0.000000 0.000000 0.090653 0.000000
# 6 0.000000 0.000000 0.000000 0.000000 0.000000 0.028111
#
#
# Mechanical properties :
#
#
# Convention : Reuss Voigt Hill
#
# Bulk Modulus (GPa) = 39.04684 72.95393 56.00039
# Shear Modulus (GPa) = 20.46106 32.15321 26.30714
#
# Velocity S-wave (km/s) = 3.29732 4.13342 3.73881
# Velocity P-wave (km/s) = 5.93672 7.84509 6.95666
#
# Compressibility (1/GPa) = 0.02561027
#
# Stress axis : x y z
#
# Youngs Moduli (GPa) = 112.99002 93.97945 24.68066
#
# Poissons Ratio (x) = 0.22810 0.05430
# Poissons Ratio (y) = 0.27424 0.31028
# Poissons Ratio (z) = 0.24861 1.18148
#
# Static dielectric constant tensor:
#      x y z
#    x 3.682220 0.000000 0.000000 
#    y 0.000000 3.883570 0.000000 
#    z 0.000000 0.000000 3.064770 
# 
# 
# High freq. dielectric constant tensor:
#      x y z
#    x 1.752840 0.000000 0.000000 
#    y 0.000000 1.751500 0.000000 
#    z 0.000000 0.000000 1.681380 
# 
# From -- ./inp_files/11991.got.cif
#   From: 2010.03.12/outbox.cif.g09.slc.cpg/sg40_6_cif.got.tgz:11991.got - 2010.04.14 01:38:03.
