data_PCOD8182438
_publ_section_title
;
Structure prediction by ZEFSAII (Michael W. Deem and Ramdas Pophale) SiO2 
 PCOD8182438
Probable space group: A M A 2
;
_chemical_formula_sum "Si O2"
_cell_formula_units_Z 56
_cell_length_a 9.379815
_cell_length_b 18.115905
_cell_length_c 21.012569
_cell_angle_alpha 90.000000
_cell_angle_beta 90.000000
_cell_angle_gamma 90.000000
_cell_volume 3570.536359
_symmetry_space_group_name_H-M "A M A 2"
_symmetry_group_IT_number 40
_symmetry_cell_setting 'orthorhombic'
loop_
_space_group_symop_operation_xyz
x,y,z
-x,-y,z
1/2-x,y,z
1/2+x,-y,z
x,1/2+y,1/2+z
-x,1/2-y,1/2+z
1/2-x,1/2+y,1/2+z
1/2+x,1/2-y,1/2+z
loop_
_atom_site_type_symbol
_atom_site_label
_atom_site_fract_x
_atom_site_fract_y
_atom_site_fract_z
Si Si1 0.418798 0.573813 0.424430
Si Si2 0.417341 0.575904 0.915793
Si Si3 0.909430 0.699274 0.858860
Si Si4 0.080892 0.576395 0.171820
Si Si5 0.406884 0.218167 0.992212
Si Si6 0.081277 0.154861 0.799660
Si Si7 0.085353 0.659552 0.045784
O O1 0.500000 0.500000 0.443915
O O2 0.250000 0.559446 0.422447
O O3 0.457906 0.634570 0.478353
O O4 0.477008 0.601618 0.355663
O O5 0.500000 0.500000 0.908941
O O6 0.250000 0.564424 0.903366
O O7 0.480587 0.631254 0.862498
O O8 0.447718 0.607223 0.986010
O O9 0.750000 0.671005 0.840403
O O10 0.969484 0.759908 0.808441
O O11 0.901170 0.739687 0.925895
O O12 0.250000 0.562076 0.172129
O O13 0.030424 0.625458 0.231556
O O14 0.030053 0.618100 0.108431
O O15 0.000000 0.500000 0.175763
O O16 0.250000 0.217443 0.023252
O O17 0.509938 0.260943 0.040560
O O18 0.250000 0.155647 0.806016
O O19 0.250000 0.678078 0.051482
#
# Coordination Sequence:
#
# PCOD8182438 Si02
#       7
#     8   8   8   8   8   8   8
#     4   9  16  26  41  63  86 109 136 168 206 247
#     4  10  18  27  40  61  86 110 136 170 208 246
#     4   8  14  27  44  59  77 106 139 171 207 246
#     4  10  19  30  43  62  87 115 144 171 197 234
#     4   8  15  27  42  58  79 107 139 171 207 248
#     4   8  15  28  44  60  83 113 142 168 199 241
#     4   9  18  29  41  59  84 112 143 173 201 236
#
# _framework density 15.683918999999999
#
# number of rings (size 3 to 8) (size 9 to 14) (size 15 to 20)
#    0.000    3.143    0.000    3.000    0.000    1.714 
#    0.000    2.857    0.000    0.000    0.000    1.000 
#    0.000    2.286    0.000    0.000    0.000    0.000 
#
# Total GULP energy -347052.525584 kJ/mol
# GULP energy per Si atom -12394.733057 kJ/mol
# Density = 1.564822 g / cm^3
# Si number density = 15.683919 Si / 1000 Ang^3
#
#
#
# Elastic Constant Matrix: (Units=GPa)
#
#
# Indices 1 2 3 4 5 6 
#
# 1 60.5655 65.4358 32.1147 0.0000 0.0000 0.0000
# 2 65.4358 142.8403 57.5395 0.0000 0.0000 0.0000
# 3 32.1147 57.5395 69.4909 0.0000 0.0000 0.0000
# 4 0.0000 0.0000 0.0000 24.8684 0.0000 0.0000
# 5 0.0000 0.0000 0.0000 0.0000 11.8639 0.0000
# 6 0.0000 0.0000 0.0000 0.0000 0.0000 31.7393
#
#
#
# Elastic Compliance Matrix: (Units=1/GPa)
#
#
# Indices 1 2 3 4 5 6 
#
# 1 0.033474 -0.013659 -0.004160 0.000000 0.000000 0.000000
# 2 -0.013659 0.016078 -0.007000 0.000000 0.000000 0.000000
# 3 -0.004160 -0.007000 0.022109 0.000000 0.000000 0.000000
# 4 0.000000 0.000000 0.000000 0.040212 0.000000 0.000000
# 5 0.000000 0.000000 0.000000 0.000000 0.084290 0.000000
# 6 0.000000 0.000000 0.000000 0.000000 0.000000 0.031507
#
#
# Mechanical properties :
#
#
# Convention : Reuss Voigt Hill
#
# Bulk Modulus (GPa) = 45.40764 64.78629 55.09697
# Shear Modulus (GPa) = 17.56547 21.54808 19.55678
#
# Velocity S-wave (km/s) = 3.35022 3.71063 3.53502
# Velocity P-wave (km/s) = 6.63173 7.73017 7.20192
#
# Compressibility (1/GPa) = 0.02202273
#
# Stress axis : x y z
#
# Youngs Moduli (GPa) = 29.87374 62.19684 45.22968
#
# Poissons Ratio (x) = 0.84954 0.18816
# Poissons Ratio (y) = 0.40804 0.31663
# Poissons Ratio (z) = 0.12428 0.43541
#
# Static dielectric constant tensor:
#      x y z
#    x 3.021140 0.000000 0.000000 
#    y 0.000000 3.157730 0.000000 
#    z 0.000000 0.000000 3.025380 
# 
# 
# High freq. dielectric constant tensor:
#      x y z
#    x 1.591620 0.000000 0.000000 
#    y 0.000000 1.604730 0.000000 
#    z 0.000000 0.000000 1.565590 
# 
# From -- ./inp_files/22295.got.cif
#   From: 2010.03.12/outbox.cif.g09.slc.cpg/sg40_12_cif.got.tgz:22295.got - 2010.04.14 01:38:03.
