data_PCOD8182978
_publ_section_title
;
Structure prediction by ZEFSAII (Michael W. Deem and Ramdas Pophale) SiO2 
 PCOD8182978
Probable space group: A M A 2
;
_chemical_formula_sum "Si O2"
_cell_formula_units_Z 64
_cell_length_a 8.956253
_cell_length_b 26.256785
_cell_length_c 18.388897
_cell_angle_alpha 90.000000
_cell_angle_beta 90.000000
_cell_angle_gamma 90.000000
_cell_volume 4324.377325
_symmetry_space_group_name_H-M "A M A 2"
_symmetry_group_IT_number 40
_symmetry_cell_setting 'orthorhombic'
loop_
_space_group_symop_operation_xyz
x,y,z
-x,-y,z
1/2-x,y,z
1/2+x,-y,z
x,1/2+y,1/2+z
-x,1/2-y,1/2+z
1/2-x,1/2+y,1/2+z
1/2+x,1/2-y,1/2+z
loop_
_atom_site_type_symbol
_atom_site_label
_atom_site_fract_x
_atom_site_fract_y
_atom_site_fract_z
Si Si1 0.925271 0.747570 0.344430
Si Si2 0.573892 0.757431 0.178769
Si Si3 0.582358 0.803537 0.967882
Si Si4 0.574347 0.350363 0.921249
Si Si5 0.926350 0.447134 0.670087
Si Si6 0.927791 0.149520 0.099578
Si Si7 0.424681 0.551818 0.838181
Si Si8 0.914873 0.195754 0.546546
O O1 0.750000 0.740891 0.357228
O O2 0.969633 0.742589 0.260363
O O3 0.979287 0.802890 0.372333
O O4 0.008532 0.702653 0.388271
O O5 0.750000 0.770144 0.170744
O O6 0.483628 0.807175 0.154938
O O7 0.530478 0.708559 0.128608
O O8 0.750000 0.825438 0.959860
O O9 0.483478 0.840925 0.017304
O O10 0.585194 0.748984 0.005223
O O11 0.750000 0.353546 0.922078
O O12 0.508735 0.401820 0.885959
O O13 0.520016 0.344231 0.004693
O O14 0.750000 0.448202 0.654985
O O15 0.962025 0.436577 0.754486
O O16 0.000000 0.500000 0.645427
O O17 0.004194 0.403867 0.623277
O O18 0.750000 0.147675 0.100953
O O19 0.500000 0.500000 0.865353
O O20 0.250000 0.545676 0.850301
O O21 0.750000 0.171677 0.547908
#
# Coordination Sequence:
#
# PCOD8182978 Si02
#       8
#     8   8   8   8   8   8   8   8
#     4   9  16  27  43  61  82 109 139 170 206 250
#     4   9  17  29  43  60  85 114 141 173 212 249
#     4   9  17  29  42  58  82 109 137 172 210 245
#     4   9  16  26  40  57  78 106 137 167 202 241
#     4  10  19  32  46  61  83 109 139 176 215 251
#     4  11  20  29  43  62  83 112 148 177 206 247
#     4   9  18  30  43  59  80 107 138 172 209 245
#     4   8  15  26  39  56  78 106 137 167 201 240
#
# _framework density 14.799818
#
# number of rings (size 3 to 8) (size 9 to 14) (size 15 to 20)
#    0.000    2.750    0.000    3.375    0.000    6.500 
#    0.000    2.500    0.000    0.000    0.000    0.000 
#    0.000    1.000    0.000    6.500    0.000    5.500 
#
# Total GULP energy -396703.766405 kJ/mol
# GULP energy per Si atom -12396.992700 kJ/mol
# Density = 1.476613 g / cm^3
# Si number density = 14.799818 Si / 1000 Ang^3
#
#
#
# Elastic Constant Matrix: (Units=GPa)
#
#
# Indices 1 2 3 4 5 6 
#
# 1 69.0042 41.6971 43.1408 0.0000 0.0000 0.0000
# 2 41.6971 84.8136 58.1794 0.0000 0.0000 0.0000
# 3 43.1408 58.1794 115.3396 0.0000 0.0000 0.0000
# 4 0.0000 0.0000 0.0000 25.1391 0.0000 0.0000
# 5 0.0000 0.0000 0.0000 0.0000 23.8500 0.0000
# 6 0.0000 0.0000 0.0000 0.0000 0.0000 23.3802
#
#
#
# Elastic Compliance Matrix: (Units=1/GPa)
#
#
# Indices 1 2 3 4 5 6 
#
# 1 0.021881 -0.007864 -0.004217 0.000000 0.000000 0.000000
# 2 -0.007864 0.020855 -0.007578 0.000000 0.000000 0.000000
# 3 -0.004217 -0.007578 0.014070 0.000000 0.000000 0.000000
# 4 0.000000 0.000000 0.000000 0.039779 0.000000 0.000000
# 5 0.000000 0.000000 0.000000 0.000000 0.041929 0.000000
# 6 0.000000 0.000000 0.000000 0.000000 0.000000 0.042771
#
#
# Mechanical properties :
#
#
# Convention : Reuss Voigt Hill
#
# Bulk Modulus (GPa) = 57.18732 61.68800 59.43766
# Shear Modulus (GPa) = 22.08159 22.88321 22.48240
#
# Velocity S-wave (km/s) = 3.86685 3.93642 3.90179
# Velocity P-wave (km/s) = 7.65906 7.90143 7.78119
#
# Compressibility (1/GPa) = 0.01748639
#
# Stress axis : x y z
#
# Youngs Moduli (GPa) = 45.70267 47.94919 71.07303
#
# Poissons Ratio (x) = 0.37709 0.29972
# Poissons Ratio (y) = 0.35942 0.53861
# Poissons Ratio (z) = 0.19273 0.36337
#
# Static dielectric constant tensor:
#      x y z
#    x 2.931040 0.000000 0.000000 
#    y 0.000000 2.746960 0.000000 
#    z 0.000000 0.000000 3.026420 
# 
# 
# High freq. dielectric constant tensor:
#      x y z
#    x 1.571420 0.000000 0.000000 
#    y 0.000000 1.532350 0.000000 
#    z 0.000000 0.000000 1.557480 
# 
# From -- ./inp_files/19711.got.cif
#   From: 2010.03.12/outbox.cif.g09.slc.cpg/sg40_10_cif.got.tgz:19711.got - 2010.04.14 01:38:03.
