data_PCOD8182334
_publ_section_title
;
Structure prediction by ZEFSAII (Michael W. Deem and Ramdas Pophale) SiO2 
 PCOD8182334
Probable space group: A M A 2
;
_chemical_formula_sum "Si O2"
_cell_formula_units_Z 60
_cell_length_a 9.191187
_cell_length_b 14.543050
_cell_length_c 24.527034
_cell_angle_alpha 90.000000
_cell_angle_beta 90.000000
_cell_angle_gamma 90.000000
_cell_volume 3278.476934
_symmetry_space_group_name_H-M "A M A 2"
_symmetry_group_IT_number 40
_symmetry_cell_setting 'orthorhombic'
loop_
_space_group_symop_operation_xyz
x,y,z
-x,-y,z
1/2-x,y,z
1/2+x,-y,z
x,1/2+y,1/2+z
-x,1/2-y,1/2+z
1/2-x,1/2+y,1/2+z
1/2+x,1/2-y,1/2+z
loop_
_atom_site_type_symbol
_atom_site_label
_atom_site_fract_x
_atom_site_fract_y
_atom_site_fract_z
Si Si1 0.415265 0.913585 0.929600
Si Si2 0.078158 0.710132 0.940713
Si Si3 0.500000 0.500000 0.221285
Si Si4 0.424829 0.098144 0.544557
Si Si5 0.412909 0.170972 0.656112
Si Si6 0.422580 0.594590 0.835112
Si Si7 0.922699 0.218936 0.256606
Si Si8 0.906355 0.628785 0.308284
O O1 0.250000 0.920873 0.949950
O O2 0.483357 0.814226 0.946318
O O3 0.429650 0.923359 0.864690
O O4 0.500000 0.000000 0.956415
O O5 0.250000 0.715377 0.944344
O O6 0.034094 0.666153 0.882801
O O7 0.018625 0.648478 0.990186
O O8 0.411964 0.570846 0.183936
O O9 0.610971 0.554245 0.260318
O O10 0.250000 0.085896 0.546342
O O11 0.482732 0.159873 0.595924
O O12 0.500000 0.000000 0.546905
O O13 0.250000 0.204177 0.647507
O O14 0.481759 0.249226 0.696246
O O15 0.500000 0.500000 0.850813
O O16 0.250000 0.579860 0.829736
O O17 0.490006 0.629531 0.777447
O O18 0.750000 0.201152 0.257595
O O19 0.960815 0.301976 0.297793
O O20 0.750000 0.683000 0.310850
#
# Coordination Sequence:
#
# PCOD8182334 Si02
#       8
#     8   8   4   8   8   8   8   8
#     4  10  19  33  49  73 101 135 171 210 259 317
#     4   9  19  35  54  74 106 142 177 217 269 317
#     4  10  16  26  42  72 102 134 166 202 254 314
#     4  10  19  35  55  77 104 140 178 219 262 314
#     4   9  18  30  47  73 105 135 170 208 256 315
#     4  11  21  36  55  80 108 142 181 222 266 316
#     4  10  20  33  49  73 104 138 173 211 257 314
#     4  10  18  28  45  68 101 135 164 204 257 309
#
# _framework density 18.301181
#
# number of rings (size 3 to 8) (size 9 to 14) (size 15 to 20)
#    0.000    2.133    2.667    1.600    0.000    1.067 
#    0.000    2.000    0.000    0.800    0.000    1.867 
#    0.000    0.000    0.000    0.000    0.000    0.000 
#
# Total GULP energy -371670.543235 kJ/mol
# GULP energy per Si atom -12389.018108 kJ/mol
# Density = 1.825953 g / cm^3
# Si number density = 18.301181 Si / 1000 Ang^3
#
#
#
# Elastic Constant Matrix: (Units=GPa)
#
#
# Indices 1 2 3 4 5 6 
#
# 1 62.1640 35.1239 23.8023 0.0000 0.0000 0.0000
# 2 35.1239 105.1769 39.7713 0.0000 0.0000 0.0000
# 3 23.8023 39.7713 102.4880 0.0000 0.0000 0.0000
# 4 0.0000 0.0000 0.0000 25.7397 0.0000 0.0000
# 5 0.0000 0.0000 0.0000 0.0000 16.4792 0.0000
# 6 0.0000 0.0000 0.0000 0.0000 0.0000 29.6566
#
#
#
# Elastic Compliance Matrix: (Units=1/GPa)
#
#
# Indices 1 2 3 4 5 6 
#
# 1 0.020338 -0.005867 -0.002447 0.000000 0.000000 0.000000
# 2 -0.005867 0.012835 -0.003618 0.000000 0.000000 0.000000
# 3 -0.002447 -0.003618 0.011730 0.000000 0.000000 0.000000
# 4 0.000000 0.000000 0.000000 0.038850 0.000000 0.000000
# 5 0.000000 0.000000 0.000000 0.000000 0.060682 0.000000
# 6 0.000000 0.000000 0.000000 0.000000 0.000000 0.033719
#
#
# Mechanical properties :
#
#
# Convention : Reuss Voigt Hill
#
# Bulk Modulus (GPa) = 47.52999 51.91376 49.72188
# Shear Modulus (GPa) = 23.91979 25.78387 24.85183
#
# Velocity S-wave (km/s) = 3.61918 3.75756 3.68902
# Velocity P-wave (km/s) = 6.59485 6.87412 6.73593
#
# Compressibility (1/GPa) = 0.02103935
#
# Stress axis : x y z
#
# Youngs Moduli (GPa) = 49.16866 77.91072 85.25443
#
# Poissons Ratio (x) = 0.45708 0.20860
# Poissons Ratio (y) = 0.28846 0.30848
# Poissons Ratio (z) = 0.12031 0.28190
#
# Static dielectric constant tensor:
#      x y z
#    x 3.169420 0.000000 0.000000 
#    y 0.000000 3.428570 0.000000 
#    z 0.000000 0.000000 3.574160 
# 
# 
# High freq. dielectric constant tensor:
#      x y z
#    x 1.686190 0.000000 0.000000 
#    y 0.000000 1.699890 0.000000 
#    z 0.000000 0.000000 1.695800 
# 
# From -- ./inp_files/25469.got.cif
#   From: 2010.03.12/outbox.cif.g09.slc.cpg/sg40_13_cif.got.tgz:25469.got - 2010.04.14 01:38:03.
