data_PCOD8182332
_publ_section_title
;
Structure prediction by ZEFSAII (Michael W. Deem and Ramdas Pophale) SiO2 
 PCOD8182332
Probable space group: A M A 2
;
_chemical_formula_sum "Si O2"
_cell_formula_units_Z 40
_cell_length_a 8.648236
_cell_length_b 9.721100
_cell_length_c 26.527056
_cell_angle_alpha 90.000000
_cell_angle_beta 90.000000
_cell_angle_gamma 90.000000
_cell_volume 2230.139333
_symmetry_space_group_name_H-M "A M A 2"
_symmetry_group_IT_number 40
_symmetry_cell_setting 'orthorhombic'
loop_
_space_group_symop_operation_xyz
x,y,z
-x,-y,z
1/2-x,y,z
1/2+x,-y,z
x,1/2+y,1/2+z
-x,1/2-y,1/2+z
1/2-x,1/2+y,1/2+z
1/2+x,1/2-y,1/2+z
loop_
_atom_site_type_symbol
_atom_site_label
_atom_site_fract_x
_atom_site_fract_y
_atom_site_fract_z
Si Si1 0.569270 0.349670 0.843370
Si Si2 0.066095 0.348282 0.541322
Si Si3 0.933605 0.346939 0.643799
Si Si4 0.432636 0.346459 0.744332
Si Si5 0.069592 0.649896 0.953961
O O1 0.500000 0.500000 0.847632
O O2 0.750000 0.356762 0.831292
O O3 0.485575 0.270449 0.796485
O O4 0.535333 0.283665 0.898424
O O5 0.250000 0.355979 0.544049
O O6 0.004241 0.255131 0.495425
O O7 0.000000 0.500000 0.533253
O O8 0.000575 0.278636 0.592845
O O9 0.750000 0.346853 0.642750
O O10 0.000000 0.500000 0.645275
O O11 0.995324 0.271441 0.694751
O O12 0.500000 0.500000 0.747569
O O13 0.250000 0.348292 0.739443
O O14 0.250000 0.630507 0.961450
O O15 0.000000 0.500000 0.961979
#
# Coordination Sequence:
#
# PCOD8182332 Si02
#       5
#     8   8   8   8   8
#     4   9  15  25  39  59  85 114 144 180 221 266
#     4  10  19  32  47  68  94 123 155 191 228 270
#     4  10  17  26  40  60  85 116 148 184 226 271
#     4  10  16  23  36  57  84 114 143 179 223 270
#     4   9  19  32  48  68  94 123 155 190 228 269
#
# _framework density 17.9361
#
# number of rings (size 3 to 8) (size 9 to 14) (size 15 to 20)
#    0.000    2.400    0.000    8.400    0.000    2.400 
#    0.000    0.000    0.000    0.000    0.000    1.400 
#    0.000    6.400    0.000    0.000    0.000    0.000 
#
# Total GULP energy -247764.200896 kJ/mol
# GULP energy per Si atom -12388.210045 kJ/mol
# Density = 1.789528 g / cm^3
# Si number density = 17.936100 Si / 1000 Ang^3
#
#
#
# Elastic Constant Matrix: (Units=GPa)
#
#
# Indices 1 2 3 4 5 6 
#
# 1 120.3135 16.8912 67.2692 0.0000 0.0000 0.0000
# 2 16.8912 30.3266 42.5842 0.0000 0.0000 0.0000
# 3 67.2692 42.5842 214.9244 0.0000 0.0000 0.0000
# 4 0.0000 0.0000 0.0000 18.4780 0.0000 0.0000
# 5 0.0000 0.0000 0.0000 0.0000 38.8336 0.0000
# 6 0.0000 0.0000 0.0000 0.0000 0.0000 8.8517
#
#
#
# Elastic Compliance Matrix: (Units=1/GPa)
#
#
# Indices 1 2 3 4 5 6 
#
# 1 0.010134 -0.001649 -0.002845 0.000000 0.000000 0.000000
# 2 -0.001649 0.045953 -0.008589 0.000000 0.000000 0.000000
# 3 -0.002845 -0.008589 0.007245 0.000000 0.000000 0.000000
# 4 0.000000 0.000000 0.000000 0.054118 0.000000 0.000000
# 5 0.000000 0.000000 0.000000 0.000000 0.025751 0.000000
# 6 0.000000 0.000000 0.000000 0.000000 0.000000 0.112973
#
#
# Mechanical properties :
#
#
# Convention : Reuss Voigt Hill
#
# Bulk Modulus (GPa) = 26.90645 68.78372 47.84509
# Shear Modulus (GPa) = 16.96473 29.15398 23.05935
#
# Velocity S-wave (km/s) = 3.07879 4.03604 3.58947
# Velocity P-wave (km/s) = 5.26046 7.75578 6.62663
#
# Compressibility (1/GPa) = 0.03716581
#
# Stress axis : x y z
#
# Youngs Moduli (GPa) = 98.67899 21.76124 138.02660
#
# Poissons Ratio (x) = 0.03589 0.39268
# Poissons Ratio (y) = 0.16277 1.18547
# Poissons Ratio (z) = 0.28074 0.18690
#
# Static dielectric constant tensor:
#      x y z
#    x 3.365050 0.000000 0.000000 
#    y 0.000000 2.657340 0.000000 
#    z 0.000000 0.000000 5.405180 
# 
# 
# High freq. dielectric constant tensor:
#      x y z
#    x 1.710740 0.000000 0.000000 
#    y 0.000000 1.595700 0.000000 
#    z 0.000000 0.000000 1.737700 
# 
# From -- ./inp_files/25190.got.cif
#   From: 2010.03.12/outbox.cif.g09.slc.cpg/sg40_13_cif.got.tgz:25190.got - 2010.04.14 01:38:03.
