data_PCOD8182887
_publ_section_title
;
Structure prediction by ZEFSAII (Michael W. Deem and Ramdas Pophale) SiO2 
 PCOD8182887
Probable space group: A M A 2
;
_chemical_formula_sum "Si O2"
_cell_formula_units_Z 64
_cell_length_a 8.825117
_cell_length_b 27.952633
_cell_length_c 14.686063
_cell_angle_alpha 90.000000
_cell_angle_beta 90.000000
_cell_angle_gamma 90.000000
_cell_volume 3622.835221
_symmetry_space_group_name_H-M "A M A 2"
_symmetry_group_IT_number 40
_symmetry_cell_setting 'orthorhombic'
loop_
_space_group_symop_operation_xyz
x,y,z
-x,-y,z
1/2-x,y,z
1/2+x,-y,z
x,1/2+y,1/2+z
-x,1/2-y,1/2+z
1/2-x,1/2+y,1/2+z
1/2+x,1/2-y,1/2+z
loop_
_atom_site_type_symbol
_atom_site_label
_atom_site_fract_x
_atom_site_fract_y
_atom_site_fract_z
Si Si1 0.075121 0.778395 0.515510
Si Si2 0.424422 0.275982 0.810090
Si Si3 0.925550 0.859713 0.201356
Si Si4 0.430819 0.949775 0.512793
Si Si5 0.072251 0.325559 0.322792
Si Si6 0.429709 0.050060 0.319463
Si Si7 0.426763 0.172572 0.007528
Si Si8 0.070871 0.363090 0.133753
O O1 0.250000 0.774694 0.541968
O O2 0.051656 0.795844 0.412020
O O3 0.004522 0.725415 0.529251
O O4 0.996858 0.817391 0.581425
O O5 0.250000 0.264702 0.790499
O O6 0.480151 0.316188 0.741474
O O7 0.515023 0.227053 0.796773
O O8 0.750000 0.848776 0.220292
O O9 0.973688 0.910115 0.244865
O O10 0.958432 0.862338 0.092770
O O11 0.250000 0.953249 0.505564
O O12 0.496916 0.934431 0.415020
O O13 0.487903 0.911845 0.587964
O O14 0.500000 0.000000 0.544135
O O15 0.250000 0.322580 0.335003
O O16 0.026453 0.361169 0.240156
O O17 0.003329 0.347327 0.415610
O O18 0.250000 0.044498 0.331157
O O19 0.500000 0.000000 0.285530
O O20 0.250000 0.177312 0.985433
O O21 0.250000 0.360804 0.120259
#
# Coordination Sequence:
#
# PCOD8182887 Si02
#       8
#     8   8   8   8   8   8   8   8
#     4   8  14  26  44  66  93 125 156 186 227 281
#     4  10  19  30  47  73 103 133 164 197 239 290
#     4  10  20  33  51  72  96 129 167 204 243 289
#     4  10  19  33  52  74 100 129 159 194 241 293
#     4  10  19  32  49  70  97 130 168 206 242 284
#     4  10  20  34  52  76 102 127 156 193 241 293
#     4   9  18  33  49  67  95 129 163 202 247 287
#     4   9  17  29  48  70  93 126 163 196 237 287
#
# _framework density 17.665723
#
# number of rings (size 3 to 8) (size 9 to 14) (size 15 to 20)
#    0.000    2.500    0.000    4.500    0.000    4.500 
#    0.000    2.500    0.000    5.250    0.000    5.250 
#    0.000    0.000    0.000    0.000    0.000    0.000 
#
# Total GULP energy -396698.663207 kJ/mol
# GULP energy per Si atom -12396.833225 kJ/mol
# Density = 1.762551 g / cm^3
# Si number density = 17.665723 Si / 1000 Ang^3
#
#
#
# Elastic Constant Matrix: (Units=GPa)
#
#
# Indices 1 2 3 4 5 6 
#
# 1 61.1981 32.8360 46.5843 0.0000 0.0000 0.0000
# 2 32.8360 98.0381 82.7930 0.0000 0.0000 0.0000
# 3 46.5843 82.7930 140.0974 0.0000 0.0000 0.0000
# 4 0.0000 0.0000 0.0000 33.1376 0.0000 0.0000
# 5 0.0000 0.0000 0.0000 0.0000 23.9832 0.0000
# 6 0.0000 0.0000 0.0000 0.0000 0.0000 14.3200
#
#
#
# Elastic Compliance Matrix: (Units=1/GPa)
#
#
# Indices 1 2 3 4 5 6 
#
# 1 0.022156 -0.002394 -0.005952 0.000000 0.000000 0.000000
# 2 -0.002394 0.020621 -0.011390 0.000000 0.000000 0.000000
# 3 -0.005952 -0.011390 0.015848 0.000000 0.000000 0.000000
# 4 0.000000 0.000000 0.000000 0.030177 0.000000 0.000000
# 5 0.000000 0.000000 0.000000 0.000000 0.041696 0.000000
# 6 0.000000 0.000000 0.000000 0.000000 0.000000 0.069832
#
#
# Mechanical properties :
#
#
# Convention : Reuss Voigt Hill
#
# Bulk Modulus (GPa) = 52.21377 69.30668 60.76023
# Shear Modulus (GPa) = 20.30968 23.42951 21.86959
#
# Velocity S-wave (km/s) = 3.39435 3.64575 3.52229
# Velocity P-wave (km/s) = 6.70693 7.55245 7.14221
#
# Compressibility (1/GPa) = 0.01915203
#
# Stress axis : x y z
#
# Youngs Moduli (GPa) = 45.13490 48.49416 63.09758
#
# Poissons Ratio (x) = 0.11609 0.37558
# Poissons Ratio (y) = 0.10805 0.71870
# Poissons Ratio (z) = 0.26866 0.55237
#
# Static dielectric constant tensor:
#      x y z
#    x 3.127570 0.000000 0.000000 
#    y 0.000000 3.277280 0.000000 
#    z 0.000000 0.000000 3.416860 
# 
# 
# High freq. dielectric constant tensor:
#      x y z
#    x 1.669140 0.000000 0.000000 
#    y 0.000000 1.662710 0.000000 
#    z 0.000000 0.000000 1.686060 
# 
# From -- ./inp_files/15928.got.cif
#   From: 2010.03.12/outbox.cif.g09.slc.cpg/sg40_8_cif.got.tgz:15928.got - 2010.04.14 01:38:03.
