data_PCOD8182120
_publ_section_title
;
Structure prediction by ZEFSAII (Michael W. Deem and Ramdas Pophale) SiO2 
 PCOD8182120
Probable space group: A B M 2
;
_chemical_formula_sum "Si O2"
_cell_formula_units_Z 48
_cell_length_a 8.692429
_cell_length_b 29.162536
_cell_length_c 8.579555
_cell_angle_alpha 90.000000
_cell_angle_beta 90.000000
_cell_angle_gamma 90.000000
_cell_volume 2174.859483
_symmetry_space_group_name_H-M "A B M 2"
_symmetry_group_IT_number 39
_symmetry_cell_setting 'orthorhombic'
loop_
_space_group_symop_operation_xyz
x,y,z
-x,-y,z
-x,1/2+y,z
x,1/2-y,z
x,1/2+y,1/2+z
-x,1/2-y,1/2+z
-x,y,1/2+z
x,-y,1/2+z
loop_
_atom_site_type_symbol
_atom_site_label
_atom_site_fract_x
_atom_site_fract_y
_atom_site_fract_z
Si Si1 0.923762 0.875185 0.044840
Si Si2 0.345913 0.528308 0.816030
Si Si3 0.848974 0.975826 0.033064
Si Si4 0.226394 0.124917 0.381647
Si Si5 0.286474 0.802492 0.392745
Si Si6 0.404829 0.802051 0.052830
O O1 0.873715 0.924076 0.977363
O O2 0.873298 0.870142 0.224272
O O3 0.855318 0.834822 0.937537
O O4 0.108577 0.875669 0.028028
O O5 0.500000 0.500000 0.855618
O O6 0.307750 0.524794 0.634449
O O7 0.343162 0.581148 0.875745
O O8 0.192917 0.505450 0.884191
O O9 0.000000 0.000000 0.109883
O O10 0.329956 0.168920 0.413538
O O11 0.227385 0.750000 0.381955
O O12 0.411938 0.807348 0.530472
O O13 0.358479 0.817971 0.226455
O O14 0.353118 0.750000 0.023177
#
# Coordination Sequence:
#
# PCOD8182120 Si02
#       6
#     8   8   8   8   8   8
#     4  11  24  40  64  96 126 175 222 270 336 393
#     4  11  25  42  64  96 130 172 224 274 334 393
#     4  11  23  43  66  91 131 177 217 273 334 401
#     4  11  24  42  63  97 131 173 224 276 333 397
#     4  10  22  42  68  97 133 174 218 270 333 398
#     4  10  22  42  67  97 133 174 215 270 334 398
#
# _framework density 22.070392999999999
#
# number of rings (size 3 to 8) (size 9 to 14) (size 15 to 20)
#    0.000    1.333    1.667    3.000    4.667    4.000 
#    0.000    0.000    0.000    0.000    0.000    0.000 
#    0.000    0.000    0.000    0.000    0.000    0.000 
#
# Total GULP energy -297464.382581 kJ/mol
# GULP energy per Si atom -12394.349274 kJ/mol
# Density = 2.202016 g / cm^3
# Si number density = 22.070393 Si / 1000 Ang^3
#
#
#
# Elastic Constant Matrix: (Units=GPa)
#
#
# Indices 1 2 3 4 5 6 
#
# 1 99.7289 50.6132 25.7041 0.0000 0.0000 0.0000
# 2 50.6132 126.2872 43.8092 0.0000 0.0000 0.0000
# 3 25.7041 43.8092 50.9285 0.0000 0.0000 0.0000
# 4 0.0000 0.0000 0.0000 30.2982 0.0000 0.0000
# 5 0.0000 0.0000 0.0000 0.0000 36.8626 0.0000
# 6 0.0000 0.0000 0.0000 0.0000 0.0000 37.7252
#
#
#
# Elastic Compliance Matrix: (Units=1/GPa)
#
#
# Indices 1 2 3 4 5 6 
#
# 1 0.012889 -0.004146 -0.002938 0.000000 0.000000 0.000000
# 2 -0.004146 0.012620 -0.008763 0.000000 0.000000 0.000000
# 3 -0.002938 -0.008763 0.028657 0.000000 0.000000 0.000000
# 4 0.000000 0.000000 0.000000 0.033005 0.000000 0.000000
# 5 0.000000 0.000000 0.000000 0.000000 0.027128 0.000000
# 6 0.000000 0.000000 0.000000 0.000000 0.000000 0.026508
#
#
# Mechanical properties :
#
#
# Convention : Reuss Voigt Hill
#
# Bulk Modulus (GPa) = 44.50454 57.46640 50.98547
# Shear Modulus (GPa) = 27.77897 31.43174 29.60535
#
# Velocity S-wave (km/s) = 3.55160 3.77790 3.66649
# Velocity P-wave (km/s) = 6.08499 6.71746 6.40903
#
# Compressibility (1/GPa) = 0.02246962
#
# Stress axis : x y z
#
# Youngs Moduli (GPa) = 77.58698 79.23811 34.89573
#
# Poissons Ratio (x) = 0.32853 0.10254
# Poissons Ratio (y) = 0.32169 0.30581
# Poissons Ratio (z) = 0.22799 0.69440
#
# Static dielectric constant tensor:
#      x y z
#    x 3.759680 0.000000 0.000000 
#    y 0.000000 4.054730 0.000000 
#    z 0.000000 0.000000 3.833900 
# 
# 
# High freq. dielectric constant tensor:
#      x y z
#    x 1.861550 0.000000 0.000000 
#    y 0.000000 1.876360 0.000000 
#    z 0.000000 0.000000 1.869240 
# 
# From -- ./inp_files/2287.got.cif
#   From: 2010.03.12/outbox.cif.g09.slc.cpg/sg39_2_cif.got.tgz:2287.got - 2010.04.14 02:53:20.
