data_PCOD8182700
_publ_section_title
;
Structure prediction by ZEFSAII (Michael W. Deem and Ramdas Pophale) SiO2 
 PCOD8182700
Probable space group: A M A 2
;
_chemical_formula_sum "Si O2"
_cell_formula_units_Z 64
_cell_length_a 9.013968
_cell_length_b 20.739537
_cell_length_c 19.752601
_cell_angle_alpha 90.000000
_cell_angle_beta 90.000000
_cell_angle_gamma 90.000000
_cell_volume 3692.660322
_symmetry_space_group_name_H-M "A M A 2"
_symmetry_group_IT_number 40
_symmetry_cell_setting 'orthorhombic'
loop_
_space_group_symop_operation_xyz
x,y,z
-x,-y,z
1/2-x,y,z
1/2+x,-y,z
x,1/2+y,1/2+z
-x,1/2-y,1/2+z
1/2-x,1/2+y,1/2+z
1/2+x,1/2-y,1/2+z
loop_
_atom_site_type_symbol
_atom_site_label
_atom_site_fract_x
_atom_site_fract_y
_atom_site_fract_z
Si Si1 0.924838 0.768850 0.940780
Si Si2 0.924475 0.688700 0.570324
Si Si3 0.074379 0.377379 0.939628
Si Si4 0.074730 0.683151 0.151235
Si Si5 0.925710 0.064803 0.154152
Si Si6 0.075049 0.736047 0.291525
Si Si7 0.573597 0.565819 0.078000
Si Si8 0.073441 0.879631 0.292294
O O1 0.750000 0.773706 0.952096
O O2 0.982900 0.695586 0.949955
O O3 0.970299 0.792898 0.865016
O O4 0.003797 0.813404 0.996014
O O5 0.750000 0.687080 0.561818
O O6 0.973094 0.752515 0.611110
O O7 0.979979 0.625469 0.609971
O O8 0.250000 0.374913 0.940636
O O9 0.020072 0.405124 0.866558
O O10 0.016526 0.421481 0.001043
O O11 0.250000 0.669936 0.143616
O O12 0.025070 0.690636 0.229751
O O13 0.981234 0.623294 0.125056
O O14 0.750000 0.057437 0.150643
O O15 0.983385 0.075188 0.231501
O O16 0.000000 0.000000 0.125455
O O17 0.250000 0.744409 0.288897
O O18 0.007930 0.807693 0.282015
O O19 0.500000 0.500000 0.103791
O O20 0.750000 0.560600 0.082708
O O21 0.250000 0.876627 0.289360
#
# Coordination Sequence:
#
# PCOD8182700 Si02
#       8
#     8   8   8   8   8   8   8   8
#     4   9  16  29  51  77 100 126 163 206 246 292
#     4  10  19  31  50  75 102 131 164 205 254 297
#     4   8  15  27  46  71  99 130 164 199 238 285
#     4  10  18  32  54  77  98 128 168 210 251 299
#     4  10  20  33  49  71 100 135 170 204 244 291
#     4   8  14  27  51  77  98 125 164 203 245 297
#     4  11  22  35  49  72 103 137 170 206 249 296
#     4   8  13  26  47  70  97 131 166 198 235 287
#
# _framework density 17.331676999999999
#
# number of rings (size 3 to 8) (size 9 to 14) (size 15 to 20)
#    0.000    2.750    2.500    1.875    0.000    1.000 
#    0.000    0.625    0.000    4.500    0.000    1.750 
#    0.000    0.000    0.000    0.000    0.000    0.000 
#
# Total GULP energy -396577.817562 kJ/mol
# GULP energy per Si atom -12393.056799 kJ/mol
# Density = 1.729223 g / cm^3
# Si number density = 17.331677 Si / 1000 Ang^3
#
#
#
# Elastic Constant Matrix: (Units=GPa)
#
#
# Indices 1 2 3 4 5 6 
#
# 1 27.9396 33.1993 32.1780 0.0000 0.0000 0.0000
# 2 33.1993 113.3412 63.8576 0.0000 0.0000 0.0000
# 3 32.1780 63.8576 130.3848 0.0000 0.0000 0.0000
# 4 0.0000 0.0000 0.0000 22.3018 0.0000 0.0000
# 5 0.0000 0.0000 0.0000 0.0000 23.3685 0.0000
# 6 0.0000 0.0000 0.0000 0.0000 0.0000 22.3063
#
#
#
# Elastic Compliance Matrix: (Units=1/GPa)
#
#
# Indices 1 2 3 4 5 6 
#
# 1 0.061379 -0.013044 -0.008760 0.000000 0.000000 0.000000
# 2 -0.013044 0.014957 -0.004106 0.000000 0.000000 0.000000
# 3 -0.008760 -0.004106 0.011843 0.000000 0.000000 0.000000
# 4 0.000000 0.000000 0.000000 0.044839 0.000000 0.000000
# 5 0.000000 0.000000 0.000000 0.000000 0.042793 0.000000
# 6 0.000000 0.000000 0.000000 0.000000 0.000000 0.044830
#
#
# Mechanical properties :
#
#
# Convention : Reuss Voigt Hill
#
# Bulk Modulus (GPa) = 27.50304 58.90392 43.20348
# Shear Modulus (GPa) = 17.56971 23.09068 20.33020
#
# Velocity S-wave (km/s) = 3.18737 3.65400 3.42864
# Velocity P-wave (km/s) = 5.42668 7.20155 6.37618
#
# Compressibility (1/GPa) = 0.03635962
#
# Stress axis : x y z
#
# Youngs Moduli (GPa) = 16.29218 66.85759 84.44098
#
# Poissons Ratio (x) = 0.87206 0.73967
# Poissons Ratio (y) = 0.21251 0.34675
# Poissons Ratio (z) = 0.14271 0.27454
#
# Static dielectric constant tensor:
#      x y z
#    x 2.795250 0.000000 0.000000 
#    y 0.000000 3.061430 0.000000 
#    z 0.000000 0.000000 3.682650 
# 
# 
# High freq. dielectric constant tensor:
#      x y z
#    x 1.630880 0.000000 0.000000 
#    y 0.000000 1.645550 0.000000 
#    z 0.000000 0.000000 1.680090 
# 
# From -- ./inp_files/22548.got.cif
#   From: 2010.03.12/outbox.cif.g09.slc.cpg/sg40_12_cif.got.tgz:22548.got - 2010.04.14 01:38:03.
