data_PCOD8182077
_publ_section_title
;
Structure prediction by ZEFSAII (Michael W. Deem and Ramdas Pophale) SiO2 
 PCOD8182077
Probable space group: A B M 2
;
_chemical_formula_sum "Si O2"
_cell_formula_units_Z 48
_cell_length_a 26.217907
_cell_length_b 9.000482
_cell_length_c 9.952239
_cell_angle_alpha 90.000000
_cell_angle_beta 90.000000
_cell_angle_gamma 90.000000
_cell_volume 2348.467656
_symmetry_space_group_name_H-M "A B M 2"
_symmetry_group_IT_number 39
_symmetry_cell_setting 'orthorhombic'
loop_
_space_group_symop_operation_xyz
x,y,z
-x,-y,z
-x,1/2+y,z
x,1/2-y,z
x,1/2+y,1/2+z
-x,1/2-y,1/2+z
-x,y,1/2+z
x,-y,1/2+z
loop_
_atom_site_type_symbol
_atom_site_label
_atom_site_fract_x
_atom_site_fract_y
_atom_site_fract_z
Si Si1 0.551893 0.578172 0.165070
Si Si2 0.611165 0.578248 0.896716
Si Si3 0.283327 0.421165 0.347844
Si Si4 0.053436 0.923691 0.904193
Si Si5 0.110404 0.077306 0.673167
Si Si6 0.225590 0.420370 0.616721
O O1 0.500000 0.500000 0.118887
O O2 0.540375 0.750000 0.192060
O O3 0.572028 0.506964 0.301665
O O4 0.593886 0.555909 0.049846
O O5 0.611416 0.750000 0.854549
O O6 0.667436 0.514626 0.885581
O O7 0.299519 0.250000 0.332284
O O8 0.240960 0.443778 0.462282
O O9 0.260460 0.475588 0.207847
O O10 0.046822 0.750000 0.881726
O O11 0.096042 0.981594 0.802105
O O12 0.071466 0.962051 0.053905
O O13 0.000000 0.000000 0.873421
O O14 0.107347 0.250000 0.710648
O O15 0.166966 0.031424 0.628273
O O16 0.233690 0.250000 0.661526
#
# Coordination Sequence:
#
# PCOD8182077 Si02
#       6
#     8   8   8   8   8   8
#     4  11  24  41  63  91 121 156 198 243 294 351
#     4  11  24  41  62  89 121 158 199 243 293 348
#     4  11  23  39  61  89 120 155 197 243 291 347
#     4  11  23  39  60  87 118 153 195 241 291 348
#     4  10  22  40  61  87 118 153 195 241 291 348
#     4  10  22  40  61  87 120 155 193 241 294 348
#
# _framework density 20.438859000000001
#
# number of rings (size 3 to 8) (size 9 to 14) (size 15 to 20)
#    0.000    1.333    0.000    5.000    0.000   12.667 
#    0.000    0.000    0.000    0.000    0.000    0.000 
#    0.000    0.000    0.000    0.000    0.000    0.000 
#
# Total GULP energy -297797.352803 kJ/mol
# GULP energy per Si atom -12408.223033 kJ/mol
# Density = 2.039234 g / cm^3
# Si number density = 20.438859 Si / 1000 Ang^3
#
#
#
# Elastic Constant Matrix: (Units=GPa)
#
#
# Indices 1 2 3 4 5 6 
#
# 1 93.6883 34.3049 0.3192 0.0000 0.0000 0.0000
# 2 34.3049 105.4213 41.0647 0.0000 0.0000 0.0000
# 3 0.3192 41.0647 61.3045 0.0000 0.0000 0.0000
# 4 0.0000 0.0000 0.0000 33.5448 0.0000 0.0000
# 5 0.0000 0.0000 0.0000 0.0000 39.9141 0.0000
# 6 0.0000 0.0000 0.0000 0.0000 0.0000 35.5053
#
#
#
# Elastic Compliance Matrix: (Units=1/GPa)
#
#
# Indices 1 2 3 4 5 6 
#
# 1 0.012695 -0.005555 0.003655 0.000000 0.000000 0.000000
# 2 -0.005555 0.015265 -0.010196 0.000000 0.000000 0.000000
# 3 0.003655 -0.010196 0.023123 0.000000 0.000000 0.000000
# 4 0.000000 0.000000 0.000000 0.029811 0.000000 0.000000
# 5 0.000000 0.000000 0.000000 0.000000 0.025054 0.000000
# 6 0.000000 0.000000 0.000000 0.000000 0.000000 0.028165
#
#
# Mechanical properties :
#
#
# Convention : Reuss Voigt Hill
#
# Bulk Modulus (GPa) = 37.18785 45.75462 41.47123
# Shear Modulus (GPa) = 29.89198 34.10785 31.99992
#
# Velocity S-wave (km/s) = 3.82842 4.08950 3.96111
# Velocity P-wave (km/s) = 6.14627 6.68830 6.42300
#
# Compressibility (1/GPa) = 0.02689051
#
# Stress axis : x y z
#
# Youngs Moduli (GPa) = 78.77018 65.50902 43.24701
#
# Poissons Ratio (x) = 0.36388 -0.15806
# Poissons Ratio (y) = 0.43755 0.44096
# Poissons Ratio (z) = -0.28788 0.66795
#
# Static dielectric constant tensor:
#      x y z
#    x 3.856880 0.000000 0.000000 
#    y 0.000000 3.801680 0.000000 
#    z 0.000000 0.000000 3.717210 
# 
# 
# High freq. dielectric constant tensor:
#      x y z
#    x 1.813320 0.000000 0.000000 
#    y 0.000000 1.806730 0.000000 
#    z 0.000000 0.000000 1.807620 
# 
# From -- ./inp_files/4138.got.cif
#   From: 2010.03.12/outbox.cif.g09.slc.cpg/sg39_3_cif.got.tgz:4138.got - 2010.04.14 02:53:20.
