data_PCOD8182308
_publ_section_title
;
Structure prediction by ZEFSAII (Michael W. Deem and Ramdas Pophale) SiO2 
 PCOD8182308
Probable space group: A B M 2
;
_chemical_formula_sum "Si O2"
_cell_formula_units_Z 28
_cell_length_a 5.146522
_cell_length_b 10.283966
_cell_length_c 23.269473
_cell_angle_alpha 90.000000
_cell_angle_beta 90.000000
_cell_angle_gamma 90.000000
_cell_volume 1231.575422
_symmetry_space_group_name_H-M "A B M 2"
_symmetry_group_IT_number 39
_symmetry_cell_setting 'orthorhombic'
loop_
_space_group_symop_operation_xyz
x,y,z
-x,-y,z
-x,1/2+y,z
x,1/2-y,z
x,1/2+y,1/2+z
-x,1/2-y,1/2+z
-x,y,1/2+z
x,-y,1/2+z
loop_
_atom_site_type_symbol
_atom_site_label
_atom_site_fract_x
_atom_site_fract_y
_atom_site_fract_z
Si Si1 0.500000 0.500000 0.831580
Si Si2 0.806296 0.394196 0.729335
Si Si3 0.000000 0.000000 0.560659
Si Si4 0.948104 0.250000 0.984158
Si Si5 0.567568 0.750000 0.908829
Si Si6 0.500000 0.000000 0.637542
O O1 0.734670 0.454124 0.791029
O O2 0.563399 0.621699 0.870811
O O3 0.926211 0.250000 0.737822
O O4 0.571349 0.382813 0.682549
O O5 0.000000 0.500000 0.701060
O O6 0.023615 0.874576 0.521259
O O7 0.255423 0.029400 0.597690
O O8 0.653767 0.250000 0.958801
O O9 0.142317 0.250000 0.931610
#
# Coordination Sequence:
#
# PCOD8182308 Si02
#       6
#     4   8   4   4   4   4
#     4  11  26  43  74 108 146 195 234 301 372 434
#     4  11  26  46  73 116 149 192 246 300 362 468
#     4  12  26  48  74 104 144 192 242 304 366 422
#     4  12  28  48  72 106 140 188 256 302 354 432
#     4  12  26  48  74 104 144 192 242 306 366 424
#     4  11  26  45  76 108 146 189 234 297 370 432
#
# _framework density 22.735105000000001
#
# number of rings (size 3 to 8) (size 9 to 14) (size 15 to 20)
#    0.000    0.571    2.857    3.429   10.000    1.143 
#    0.000    0.000    0.000    0.000    0.000    0.000 
#    0.000    0.000    0.000    0.000    0.000    0.000 
#
# Total GULP energy -173449.048213 kJ/mol
# GULP energy per Si atom -12389.217729 kJ/mol
# Density = 2.268336 g / cm^3
# Si number density = 22.735105 Si / 1000 Ang^3
#
#
#
# Elastic Constant Matrix: (Units=GPa)
#
#
# Indices 1 2 3 4 5 6 
#
# 1 107.6859 39.8274 37.1844 0.0000 0.0000 0.0000
# 2 39.8274 220.2476 66.1657 0.0000 0.0000 0.0000
# 3 37.1844 66.1657 125.9512 0.0000 0.0000 0.0000
# 4 0.0000 0.0000 0.0000 5.3481 0.0000 0.0000
# 5 0.0000 0.0000 0.0000 0.0000 28.3448 0.0000
# 6 0.0000 0.0000 0.0000 0.0000 0.0000 29.1079
#
#
#
# Elastic Compliance Matrix: (Units=1/GPa)
#
#
# Indices 1 2 3 4 5 6 
#
# 1 0.010583 -0.001158 -0.002516 0.000000 0.000000 0.000000
# 2 -0.001158 0.005518 -0.002557 0.000000 0.000000 0.000000
# 3 -0.002516 -0.002557 0.010026 0.000000 0.000000 0.000000
# 4 0.000000 0.000000 0.000000 0.186984 0.000000 0.000000
# 5 0.000000 0.000000 0.000000 0.000000 0.035280 0.000000
# 6 0.000000 0.000000 0.000000 0.000000 0.000000 0.034355
#
#
# Mechanical properties :
#
#
# Convention : Reuss Voigt Hill
#
# Bulk Modulus (GPa) = 73.18011 82.24887 77.71449
# Shear Modulus (GPa) = 16.67987 33.27394 24.97691
#
# Velocity S-wave (km/s) = 2.71156 3.82979 3.31812
# Velocity P-wave (km/s) = 6.48548 7.47074 6.99548
#
# Compressibility (1/GPa) = 0.01366492
#
# Stress axis : x y z
#
# Youngs Moduli (GPa) = 94.48783 181.23042 99.74432
#
# Poissons Ratio (x) = 0.20984 0.25098
# Poissons Ratio (y) = 0.10941 0.25503
# Poissons Ratio (z) = 0.23776 0.46338
#
# Static dielectric constant tensor:
#      x y z
#    x 4.960250 0.000000 0.000000 
#    y 0.000000 4.250060 0.000000 
#    z 0.000000 0.000000 4.403190 
# 
# 
# High freq. dielectric constant tensor:
#      x y z
#    x 1.899070 0.000000 0.000000 
#    y 0.000000 1.902000 0.000000 
#    z 0.000000 0.000000 1.923070 
# 
# From -- ./inp_files/13312.got.cif
#   From: 2010.03.12/outbox.cif.g09.slc.cpg/sg39_7_cif.got.tgz:13312.got - 2010.04.14 02:53:20.
