data_PCOD8182602
_publ_section_title
;
Structure prediction by ZEFSAII (Michael W. Deem and Ramdas Pophale) SiO2 
 PCOD8182602
Probable space group: A M A 2
;
_chemical_formula_sum "Si O2"
_cell_formula_units_Z 56
_cell_length_a 8.926468
_cell_length_b 21.264187
_cell_length_c 14.260612
_cell_angle_alpha 90.000000
_cell_angle_beta 90.000000
_cell_angle_gamma 90.000000
_cell_volume 2706.865015
_symmetry_space_group_name_H-M "A M A 2"
_symmetry_group_IT_number 40
_symmetry_cell_setting 'orthorhombic'
loop_
_space_group_symop_operation_xyz
x,y,z
-x,-y,z
1/2-x,y,z
1/2+x,-y,z
x,1/2+y,1/2+z
-x,1/2-y,1/2+z
1/2-x,1/2+y,1/2+z
1/2+x,1/2-y,1/2+z
loop_
_atom_site_type_symbol
_atom_site_label
_atom_site_fract_x
_atom_site_fract_y
_atom_site_fract_z
Si Si1 0.928245 0.257760 0.465040
Si Si2 0.426779 0.886841 0.460268
Si Si3 0.911293 0.339883 0.627474
Si Si4 0.075141 0.856185 0.836727
Si Si5 0.425161 0.934711 0.662410
Si Si6 0.929699 0.934425 0.276680
Si Si7 0.912423 0.442317 0.473543
O O1 0.750000 0.267822 0.466699
O O2 0.974988 0.185856 0.457290
O O3 0.994621 0.285630 0.565168
O O4 0.990751 0.293552 0.373034
O O5 0.250000 0.894654 0.442571
O O6 0.478106 0.915722 0.558812
O O7 0.519141 0.924583 0.383015
O O8 0.750000 0.313099 0.662718
O O9 0.992970 0.373828 0.716097
O O10 0.880947 0.395011 0.555621
O O11 0.250000 0.843995 0.850808
O O12 0.035151 0.875091 0.729568
O O13 0.022186 0.916089 0.894677
O O14 0.250000 0.947041 0.666081
O O15 0.500000 0.000000 0.694423
O O16 0.750000 0.938122 0.268770
O O17 0.000000 0.000000 0.239953
O O18 0.750000 0.461002 0.430033
O O19 0.000000 0.500000 0.519209
#
# Coordination Sequence:
#
# PCOD8182602 Si02
#       7
#     8   8   8   8   8   8   8
#     4   9  19  38  60  82 112 148 182 220 274 334
#     4  10  22  40  59  80 110 148 188 229 274 325
#     4   8  17  33  54  79 107 142 180 220 270 328
#     4  10  20  34  54  81 110 141 181 227 273 325
#     4  10  22  38  57  81 110 146 185 228 276 326
#     4  11  22  37  58  84 113 145 185 230 276 325
#     4  10  18  30  49  75 108 144 180 220 272 329
#
# _framework density 20.688137999999999
#
# number of rings (size 3 to 8) (size 9 to 14) (size 15 to 20)
#    0.000    2.286    0.000    3.429    0.000    5.714 
#    0.000    9.286    0.000    0.000    0.000    0.000 
#    0.000    0.000    0.000    0.000    0.000    0.000 
#
# Total GULP energy -346895.948621 kJ/mol
# GULP energy per Si atom -12389.141022 kJ/mol
# Density = 2.064105 g / cm^3
# Si number density = 20.688138 Si / 1000 Ang^3
#
#
#
# Elastic Constant Matrix: (Units=GPa)
#
#
# Indices 1 2 3 4 5 6 
#
# 1 40.7709 23.6014 17.0336 0.0000 0.0000 0.0000
# 2 23.6014 84.3917 11.6718 0.0000 0.0000 0.0000
# 3 17.0336 11.6718 95.6007 0.0000 0.0000 0.0000
# 4 0.0000 0.0000 0.0000 -29.9969 0.0000 0.0000
# 5 0.0000 0.0000 0.0000 0.0000 26.7087 0.0000
# 6 0.0000 0.0000 0.0000 0.0000 0.0000 22.8333
#
#
#
# Elastic Compliance Matrix: (Units=1/GPa)
#
#
# Indices 1 2 3 4 5 6 
#
# 1 0.031101 -0.008068 -0.004556 0.000000 0.000000 0.000000
# 2 -0.008068 0.014146 -0.000290 0.000000 0.000000 0.000000
# 3 -0.004556 -0.000290 0.011307 0.000000 0.000000 0.000000
# 4 0.000000 0.000000 0.000000 -0.033337 0.000000 0.000000
# 5 0.000000 0.000000 0.000000 0.000000 0.037441 0.000000
# 6 0.000000 0.000000 0.000000 0.000000 0.000000 0.043796
#
#
# Mechanical properties :
#
#
# Convention : Reuss Voigt Hill
#
# Bulk Modulus (GPa) = 32.54487 36.15300 34.34893
# Shear Modulus (GPa) = 35.58114 15.13947 25.36031
#
# Velocity S-wave (km/s) = 4.15164 2.70811 3.50500
# Velocity P-wave (km/s) = 6.22470 5.22414 5.74624
#
# Compressibility (1/GPa) = 0.03072681
#
# Stress axis : x y z
#
# Youngs Moduli (GPa) = 32.15318 70.69235 88.43787
#
# Poissons Ratio (x) = 0.57032 0.40296
# Poissons Ratio (y) = 0.25940 0.02561
# Poissons Ratio (z) = 0.14650 0.02047
#
# Static dielectric constant tensor:
#      x y z
#    x 3.543590 0.000000 0.000000 
#    y 0.000000 4.691380 0.000000 
#    z 0.000000 0.000000 4.127740 
# 
# 
# High freq. dielectric constant tensor:
#      x y z
#    x 1.786850 0.000000 0.000000 
#    y 0.000000 1.811970 0.000000 
#    z 0.000000 0.000000 1.811070 
# 
# From -- ./inp_files/15268.got.cif
#   From: 2010.03.12/outbox.cif.g09.slc.cpg/sg40_8_cif.got.tgz:15268.got - 2010.04.14 01:38:03.
