data_PCOD8182237
_publ_section_title
;
Structure prediction by ZEFSAII (Michael W. Deem and Ramdas Pophale) SiO2 
 PCOD8182237
Probable space group: A B M 2
;
_chemical_formula_sum "Si O2"
_cell_formula_units_Z 56
_cell_length_a 14.812356
_cell_length_b 20.731525
_cell_length_c 8.217340
_cell_angle_alpha 90.000000
_cell_angle_beta 90.000000
_cell_angle_gamma 90.000000
_cell_volume 2523.403190
_symmetry_space_group_name_H-M "A B M 2"
_symmetry_group_IT_number 39
_symmetry_cell_setting 'orthorhombic'
loop_
_space_group_symop_operation_xyz
x,y,z
-x,-y,z
-x,1/2+y,z
x,1/2-y,z
x,1/2+y,1/2+z
-x,1/2-y,1/2+z
-x,y,1/2+z
x,-y,1/2+z
loop_
_atom_site_type_symbol
_atom_site_label
_atom_site_fract_x
_atom_site_fract_y
_atom_site_fract_z
Si Si1 0.221319 0.626651 0.877580
Si Si2 0.277457 0.826475 0.523614
Si Si3 0.094383 0.131748 0.951773
Si Si4 0.421737 0.918736 0.402212
Si Si5 0.966880 0.250000 0.665881
Si Si6 0.955818 0.067867 0.753271
Si Si7 0.138139 0.250000 0.498967
Si Si8 0.389401 0.556822 0.026527
O O1 0.256451 0.655714 0.709000
O O2 0.133675 0.581048 0.859738
O O3 0.199721 0.686676 0.995794
O O4 0.295952 0.583903 0.962997
O O5 0.280141 0.750000 0.499075
O O6 0.200364 0.860134 0.408583
O O7 0.373504 0.854845 0.469657
O O8 0.030891 0.124633 0.793063
O O9 0.070960 0.068885 0.062926
O O10 0.074018 0.189299 0.074739
O O11 0.400394 0.927923 0.214607
O O12 0.529227 0.910751 0.424657
O O13 0.387753 0.979798 0.506225
O O14 0.076980 0.250000 0.663184
O O15 0.934878 0.250000 0.851848
O O16 0.000000 0.000000 0.797428
#
# Coordination Sequence:
#
# PCOD8182237 Si02
#       8
#     8   8   8   8   4   8   4   8
#     4  11  22  43  65  95 137 181 232 283 339 400
#     4  11  22  42  65  96 134 184 230 277 342 397
#     4  11  21  39  60  84 127 171 221 268 323 389
#     4  11  24  47  75 101 136 175 221 278 346 422
#     4  12  18  42  62  87 119 182 232 267 323 395
#     4  11  24  38  57  90 131 171 219 272 330 383
#     4  12  22  42  64  93 135 186 232 281 333 399
#     4  11  24  47  74 105 132 174 225 275 348 421
#
# _framework density 22.192252
#
# number of rings (size 3 to 8) (size 9 to 14) (size 15 to 20)
#    0.000    0.857    5.714    3.857    2.000    1.143 
#    5.143    0.000    0.000    0.000    0.000    0.000 
#    0.000    0.000    0.000    0.000    0.000    0.000 
#
# Total GULP energy -347224.750671 kJ/mol
# GULP energy per Si atom -12400.883953 kJ/mol
# Density = 2.214174 g / cm^3
# Si number density = 22.192252 Si / 1000 Ang^3
#
#
#
# Elastic Constant Matrix: (Units=GPa)
#
#
# Indices 1 2 3 4 5 6 
#
# 1 121.9532 59.8277 22.3011 0.0000 0.0000 0.0000
# 2 59.8277 105.6862 25.5393 0.0000 0.0000 0.0000
# 3 22.3011 25.5393 42.9128 0.0000 0.0000 0.0000
# 4 0.0000 0.0000 0.0000 16.1488 0.0000 0.0000
# 5 0.0000 0.0000 0.0000 0.0000 34.2194 0.0000
# 6 0.0000 0.0000 0.0000 0.0000 0.0000 37.9544
#
#
#
# Elastic Compliance Matrix: (Units=1/GPa)
#
#
# Indices 1 2 3 4 5 6 
#
# 1 0.011573 -0.005954 -0.002471 0.000000 0.000000 0.000000
# 2 -0.005954 0.014115 -0.005306 0.000000 0.000000 0.000000
# 3 -0.002471 -0.005306 0.027745 0.000000 0.000000 0.000000
# 4 0.000000 0.000000 0.000000 0.061924 0.000000 0.000000
# 5 0.000000 0.000000 0.000000 0.000000 0.029223 0.000000
# 6 0.000000 0.000000 0.000000 0.000000 0.000000 0.026347
#
#
# Mechanical properties :
#
#
# Convention : Reuss Voigt Hill
#
# Bulk Modulus (GPa) = 38.50480 53.98760 46.24620
# Shear Modulus (GPa) = 24.14932 28.52345 26.33639
#
# Velocity S-wave (km/s) = 3.30235 3.58898 3.44864
# Velocity P-wave (km/s) = 5.65057 6.44627 6.06149
#
# Compressibility (1/GPa) = 0.02597079
#
# Stress axis : x y z
#
# Youngs Moduli (GPa) = 86.41094 70.84791 36.04273
#
# Poissons Ratio (x) = 0.42184 0.08905
# Poissons Ratio (y) = 0.51450 0.19124
# Poissons Ratio (z) = 0.21348 0.37592
#
# Static dielectric constant tensor:
#      x y z
#    x 4.407110 0.000000 0.000000 
#    y 0.000000 4.373360 0.000000 
#    z 0.000000 0.000000 3.925410 
# 
# 
# High freq. dielectric constant tensor:
#      x y z
#    x 1.876020 0.000000 0.000000 
#    y 0.000000 1.874240 0.000000 
#    z 0.000000 0.000000 1.872790 
# 
# From -- ./inp_files/3432.got.cif
#   From: 2010.03.12/outbox.cif.g09.slc.cpg/sg39_2_cif.got.tgz:3432.got - 2010.04.14 02:53:20.
