data_PCOD8182329
_publ_section_title
;
Structure prediction by ZEFSAII (Michael W. Deem and Ramdas Pophale) SiO2 
 PCOD8182329
Probable space group: A M A 2
;
_chemical_formula_sum "Si O2"
_cell_formula_units_Z 64
_cell_length_a 19.090834
_cell_length_b 11.603108
_cell_length_c 16.583934
_cell_angle_alpha 90.000000
_cell_angle_beta 90.000000
_cell_angle_gamma 90.000000
_cell_volume 3673.557117
_symmetry_space_group_name_H-M "A M A 2"
_symmetry_group_IT_number 40
_symmetry_cell_setting 'orthorhombic'
loop_
_space_group_symop_operation_xyz
x,y,z
-x,-y,z
1/2-x,y,z
1/2+x,-y,z
x,1/2+y,1/2+z
-x,1/2-y,1/2+z
1/2-x,1/2+y,1/2+z
1/2+x,1/2-y,1/2+z
loop_
_atom_site_type_symbol
_atom_site_label
_atom_site_fract_x
_atom_site_fract_y
_atom_site_fract_z
Si Si1 0.497471 0.844746 0.948690
Si Si2 0.109294 0.446003 0.221391
Si Si3 0.472132 0.157809 0.671231
Si Si4 0.116240 0.489495 0.396922
Si Si5 0.953055 0.594283 0.623372
Si Si6 0.328452 0.553329 0.559890
Si Si7 0.535605 0.112393 0.497587
Si Si8 0.669943 0.179864 0.575602
O O1 0.553392 0.917631 0.897814
O O2 0.418215 0.866164 0.919371
O O3 0.499675 0.880162 0.043192
O O4 0.516662 0.712297 0.934866
O O5 0.092873 0.572310 0.184880
O O6 0.147003 0.471802 0.307232
O O7 0.162238 0.374702 0.164823
O O8 0.036601 0.372569 0.231893
O O9 0.445639 0.290192 0.677564
O O10 0.499434 0.134312 0.582444
O O11 0.172931 0.528547 0.463189
O O12 0.876947 0.539994 0.604803
O O13 0.000000 0.500000 0.671634
O O14 0.250000 0.536331 0.592985
O O15 0.352919 0.685262 0.576340
O O16 0.619752 0.110321 0.513020
O O17 0.500000 0.000000 0.458725
O O18 0.750000 0.166723 0.546433
#
# Coordination Sequence:
#
# PCOD8182329 Si02
#       8
#     8   8   8   8   8   8   8   8
#     4   9  15  25  45  71  94 124 158 200 253 290
#     4  10  18  30  47  73 101 133 161 202 256 307
#     4   9  16  26  45  70  99 126 159 201 252 298
#     4  10  17  29  49  70 102 127 158 209 254 303
#     4  10  15  27  48  70  96 128 164 207 255 295
#     4  10  19  32  50  75  99 130 173 215 258 307
#     4  10  15  27  48  68  95 130 164 205 250 297
#     4  10  19  32  48  72 101 132 171 211 257 311
#
# _framework density 17.421804999999999
#
# number of rings (size 3 to 8) (size 9 to 14) (size 15 to 20)
#    0.000    2.250    6.250    3.000    0.000    0.500 
#    0.000    0.625    0.000    6.000    0.000    0.000 
#    0.000    0.000    0.000    0.000    0.000    0.000 
#
# Total GULP energy -396440.692306 kJ/mol
# GULP energy per Si atom -12388.771635 kJ/mol
# Density = 1.738215 g / cm^3
# Si number density = 17.421805 Si / 1000 Ang^3
#
#
#
# Elastic Constant Matrix: (Units=GPa)
#
#
# Indices 1 2 3 4 5 6 
#
# 1 74.7624 50.0245 8.0708 0.0000 0.0000 0.0000
# 2 50.0245 136.3398 30.1810 0.0000 0.0000 0.0000
# 3 8.0708 30.1810 44.6456 0.0000 0.0000 0.0000
# 4 0.0000 0.0000 0.0000 16.3862 0.0000 0.0000
# 5 0.0000 0.0000 0.0000 0.0000 11.2591 0.0000
# 6 0.0000 0.0000 0.0000 0.0000 0.0000 20.7681
#
#
#
# Elastic Compliance Matrix: (Units=1/GPa)
#
#
# Indices 1 2 3 4 5 6 
#
# 1 0.017803 -0.006844 0.001408 0.000000 0.000000 0.000000
# 2 -0.006844 0.011256 -0.006372 0.000000 0.000000 0.000000
# 3 0.001408 -0.006372 0.026452 0.000000 0.000000 0.000000
# 4 0.000000 0.000000 0.000000 0.061027 0.000000 0.000000
# 5 0.000000 0.000000 0.000000 0.000000 0.088817 0.000000
# 6 0.000000 0.000000 0.000000 0.000000 0.000000 0.048151
#
#
# Mechanical properties :
#
#
# Convention : Reuss Voigt Hill
#
# Bulk Modulus (GPa) = 31.35256 48.03337 39.69296
# Shear Modulus (GPa) = 17.37600 20.84745 19.11172
#
# Velocity S-wave (km/s) = 3.16154 3.46299 3.31569
# Velocity P-wave (km/s) = 5.60021 6.60457 6.12302
#
# Compressibility (1/GPa) = 0.03189533
#
# Stress axis : x y z
#
# Youngs Moduli (GPa) = 56.17034 88.83934 37.80471
#
# Poissons Ratio (x) = 0.60800 -0.05324
# Poissons Ratio (y) = 0.38442 0.24090
# Poissons Ratio (z) = -0.07910 0.56610
#
# Static dielectric constant tensor:
#      x y z
#    x 3.044350 0.000000 0.000000 
#    y 0.000000 3.828190 0.000000 
#    z 0.000000 0.000000 2.921200 
# 
# 
# High freq. dielectric constant tensor:
#      x y z
#    x 1.649830 0.000000 0.000000 
#    y 0.000000 1.678080 0.000000 
#    z 0.000000 0.000000 1.630420 
# 
# From -- ./inp_files/21192.got.cif
#   From: 2010.03.12/outbox.cif.g09.slc.cpg/sg40_11_cif.got.tgz:21192.got - 2010.04.14 01:38:03.
