data_PCOD8182068
_publ_section_title
;
Structure prediction by ZEFSAII (Michael W. Deem and Ramdas Pophale) SiO2 
 PCOD8182068
Probable space group: A B M 2
;
_chemical_formula_sum "Si O2"
_cell_formula_units_Z 64
_cell_length_a 14.400763
_cell_length_b 9.051031
_cell_length_c 24.783296
_cell_angle_alpha 90.000000
_cell_angle_beta 90.000000
_cell_angle_gamma 90.000000
_cell_volume 3230.298229
_symmetry_space_group_name_H-M "A B M 2"
_symmetry_group_IT_number 39
_symmetry_cell_setting 'orthorhombic'
loop_
_space_group_symop_operation_xyz
x,y,z
-x,-y,z
-x,1/2+y,z
x,1/2-y,z
x,1/2+y,1/2+z
-x,1/2-y,1/2+z
-x,y,1/2+z
x,-y,1/2+z
loop_
_atom_site_type_symbol
_atom_site_label
_atom_site_fract_x
_atom_site_fract_y
_atom_site_fract_z
Si Si1 0.228751 0.079115 0.489940
Si Si2 0.223045 0.575769 0.789910
Si Si3 0.099914 0.575958 0.891762
Si Si4 0.157142 0.913149 0.675405
Si Si5 0.592696 0.925826 0.755612
Si Si6 0.913952 0.918166 0.580276
Si Si7 0.407098 0.075235 0.026276
Si Si8 0.367093 0.415212 0.147589
O O1 0.254990 0.250000 0.480672
O O2 0.158614 0.023922 0.443599
O O3 0.179588 0.053772 0.547261
O O4 0.322174 0.983609 0.489981
O O5 0.246802 0.750000 0.789375
O O6 0.160843 0.527924 0.840312
O O7 0.163943 0.532018 0.737009
O O8 0.319900 0.487311 0.789495
O O9 0.082438 0.750000 0.892691
O O10 0.000000 0.500000 0.890546
O O11 0.112046 0.750000 0.672800
O O12 0.257026 0.908620 0.647891
O O13 0.094883 0.025612 0.641649
O O14 0.589007 0.750000 0.760968
O O15 0.500000 0.000000 0.780650
O O16 0.597069 0.970640 0.692455
O O17 0.942077 0.750000 0.581755
O O18 0.000000 0.000000 0.551452
O O19 0.412259 0.250000 0.019696
O O20 0.397495 0.027486 0.088842
O O21 0.500000 0.000000 0.003171
O O22 0.406711 0.250000 0.159628
#
# Coordination Sequence:
#
# PCOD8182068 Si02
#       8
#     8   8   8   8   8   8   8   8
#     4  10  22  40  60  85 116 150 193 243 292 343
#     4   9  20  39  60  84 116 151 191 242 293 343
#     4  10  22  42  67  90 114 148 193 246 298 349
#     4   9  17  33  54  79 114 150 185 228 283 340
#     4  11  21  33  54  84 119 158 198 239 285 342
#     4  11  22  34  53  81 114 150 188 231 284 346
#     4  11  22  36  57  85 118 157 196 238 287 344
#     4   9  18  33  53  80 115 156 196 235 282 337
#
# _framework density 19.812411999999998
#
# number of rings (size 3 to 8) (size 9 to 14) (size 15 to 20)
#    0.000    2.000    1.250    3.375    0.000    6.000 
#    0.000    1.875    0.000    0.000    0.000    0.000 
#    0.000    0.000    0.000    0.000    0.000    0.000 
#
# Total GULP energy -396797.052938 kJ/mol
# GULP energy per Si atom -12399.907904 kJ/mol
# Density = 1.976732 g / cm^3
# Si number density = 19.812412 Si / 1000 Ang^3
#
#
#
# Elastic Constant Matrix: (Units=GPa)
#
#
# Indices 1 2 3 4 5 6 
#
# 1 139.4427 72.0720 56.2422 0.0000 0.0000 0.0000
# 2 72.0720 106.0864 46.0466 0.0000 0.0000 0.0000
# 3 56.2422 46.0466 97.2496 0.0000 0.0000 0.0000
# 4 0.0000 0.0000 0.0000 23.1200 0.0000 0.0000
# 5 0.0000 0.0000 0.0000 0.0000 22.5370 0.0000
# 6 0.0000 0.0000 0.0000 0.0000 0.0000 38.8274
#
#
#
# Elastic Compliance Matrix: (Units=1/GPa)
#
#
# Indices 1 2 3 4 5 6 
#
# 1 0.012134 -0.006542 -0.003920 0.000000 0.000000 0.000000
# 2 -0.006542 0.015392 -0.003504 0.000000 0.000000 0.000000
# 3 -0.003920 -0.003504 0.014209 0.000000 0.000000 0.000000
# 4 0.000000 0.000000 0.000000 0.043253 0.000000 0.000000
# 5 0.000000 0.000000 0.000000 0.000000 0.044371 0.000000
# 6 0.000000 0.000000 0.000000 0.000000 0.000000 0.025755
#
#
# Mechanical properties :
#
#
# Convention : Reuss Voigt Hill
#
# Bulk Modulus (GPa) = 72.45181 76.83337 74.64259
# Shear Modulus (GPa) = 26.64589 28.12474 27.38532
#
# Velocity S-wave (km/s) = 3.67128 3.77178 3.72187
# Velocity P-wave (km/s) = 7.39049 7.60480 7.49841
#
# Compressibility (1/GPa) = 0.01380228
#
# Stress axis : x y z
#
# Youngs Moduli (GPa) = 82.41600 64.96986 70.37778
#
# Poissons Ratio (x) = 0.42502 0.27586
# Poissons Ratio (y) = 0.53915 0.24664
# Poissons Ratio (z) = 0.32305 0.22769
#
# Static dielectric constant tensor:
#      x y z
#    x 3.620530 0.000000 0.000000 
#    y 0.000000 3.514770 0.000000 
#    z 0.000000 0.000000 3.507730 
# 
# 
# High freq. dielectric constant tensor:
#      x y z
#    x 1.780980 0.000000 0.000000 
#    y 0.000000 1.767990 0.000000 
#    z 0.000000 0.000000 1.752150 
# 
# From -- ./inp_files/16199.got.cif
#   From: 2010.03.12/outbox.cif.g09.slc.cpg/sg39_9_cif.got.tgz:16199.got - 2010.04.14 02:53:20.
