data_PCOD8182665
_publ_section_title
;
Structure prediction by ZEFSAII (Michael W. Deem and Ramdas Pophale) SiO2 
 PCOD8182665
Probable space group: A M A 2
;
_chemical_formula_sum "Si O2"
_cell_formula_units_Z 40
_cell_length_a 8.568388
_cell_length_b 9.159988
_cell_length_c 26.090386
_cell_angle_alpha 90.000000
_cell_angle_beta 90.000000
_cell_angle_gamma 90.000000
_cell_volume 2047.738678
_symmetry_space_group_name_H-M "A M A 2"
_symmetry_group_IT_number 40
_symmetry_cell_setting 'orthorhombic'
loop_
_space_group_symop_operation_xyz
x,y,z
-x,-y,z
1/2-x,y,z
1/2+x,-y,z
x,1/2+y,1/2+z
-x,1/2-y,1/2+z
1/2-x,1/2+y,1/2+z
1/2+x,1/2-y,1/2+z
loop_
_atom_site_type_symbol
_atom_site_label
_atom_site_fract_x
_atom_site_fract_y
_atom_site_fract_z
Si Si1 0.935292 0.839174 0.500000
Si Si2 0.066049 0.339532 0.400965
Si Si3 0.434448 0.661828 0.593959
Si Si4 0.435064 0.837517 0.198847
Si Si5 0.064797 0.161897 0.303067
O O1 0.750000 0.840631 0.506347
O O2 0.990626 0.749239 0.450463
O O3 0.012842 0.767560 0.549221
O O4 0.000000 0.000000 0.493072
O O5 0.250000 0.348544 0.399502
O O6 0.003660 0.259476 0.350067
O O7 0.000000 0.500000 0.404102
O O8 0.500000 0.500000 0.584471
O O9 0.250000 0.651371 0.596498
O O10 0.498639 0.734364 0.646810
O O11 0.250000 0.834776 0.197985
O O12 0.498608 0.762534 0.250919
O O13 0.500000 0.000000 0.199855
O O14 0.250000 0.154374 0.300183
O O15 0.000000 0.000000 0.310973
#
# Coordination Sequence:
#
# PCOD8182665 Si02
#       5
#     8   8   8   8   8
#     4  11  23  40  59  84 113 147 187 231 281 336
#     4  10  23  39  58  82 112 146 185 228 277 331
#     4  11  21  36  58  85 115 150 188 233 279 330
#     4  10  18  31  53  82 112 147 186 228 274 328
#     4  10  19  34  55  83 113 146 185 228 274 327
#
# _framework density 19.533742
#
# number of rings (size 3 to 8) (size 9 to 14) (size 15 to 20)
#    0.000    1.600    0.000    8.400    0.000    4.800 
#    0.000    1.000    0.000    2.400    0.000    0.000 
#    0.000    0.000    0.000    0.000    0.000    0.000 
#
# Total GULP energy -248002.605252 kJ/mol
# GULP energy per Si atom -12400.130263 kJ/mol
# Density = 1.948928 g / cm^3
# Si number density = 19.533742 Si / 1000 Ang^3
#
#
#
# Elastic Constant Matrix: (Units=GPa)
#
#
# Indices 1 2 3 4 5 6 
#
# 1 126.9365 37.6408 64.6426 0.0000 0.0000 0.0000
# 2 37.6408 110.2792 80.3467 0.0000 0.0000 0.0000
# 3 64.6426 80.3467 211.4430 0.0000 0.0000 0.0000
# 4 0.0000 0.0000 0.0000 35.9768 0.0000 0.0000
# 5 0.0000 0.0000 0.0000 0.0000 33.2100 0.0000
# 6 0.0000 0.0000 0.0000 0.0000 0.0000 29.2850
#
#
#
# Elastic Compliance Matrix: (Units=1/GPa)
#
#
# Indices 1 2 3 4 5 6 
#
# 1 0.009521 -0.001561 -0.002318 0.000000 0.000000 0.000000
# 2 -0.001561 0.012795 -0.004385 0.000000 0.000000 0.000000
# 3 -0.002318 -0.004385 0.007104 0.000000 0.000000 0.000000
# 4 0.000000 0.000000 0.000000 0.027796 0.000000 0.000000
# 5 0.000000 0.000000 0.000000 0.000000 0.030111 0.000000
# 6 0.000000 0.000000 0.000000 0.000000 0.000000 0.034147
#
#
# Mechanical properties :
#
#
# Convention : Reuss Voigt Hill
#
# Bulk Modulus (GPa) = 77.55906 90.43543 83.99725
# Shear Modulus (GPa) = 35.13698 37.42961 36.28330
#
# Velocity S-wave (km/s) = 4.24581 4.38214 4.31451
# Velocity P-wave (km/s) = 7.98919 8.48538 8.24102
#
# Compressibility (1/GPa) = 0.01289340
#
# Stress axis : x y z
#
# Youngs Moduli (GPa) = 105.02954 78.15249 140.76294
#
# Poissons Ratio (x) = 0.12202 0.32622
# Poissons Ratio (y) = 0.16398 0.61723
# Poissons Ratio (z) = 0.24341 0.34269
#
# Static dielectric constant tensor:
#      x y z
#    x 3.644390 0.000000 0.000000 
#    y 0.000000 3.305700 0.000000 
#    z 0.000000 0.000000 4.553130 
# 
# 
# High freq. dielectric constant tensor:
#      x y z
#    x 1.774690 0.000000 0.000000 
#    y 0.000000 1.731120 0.000000 
#    z 0.000000 0.000000 1.791570 
# 
# From -- ./inp_files/23812.got.cif
#   From: 2010.03.12/outbox.cif.g09.slc.cpg/sg40_12_cif.got.tgz:23812.got - 2010.04.14 01:38:03.
