data_PCOD8182815
_publ_section_title
;
Structure prediction by ZEFSAII (Michael W. Deem and Ramdas Pophale) SiO2 
 PCOD8182815
Probable space group: A M A 2
;
_chemical_formula_sum "Si O2"
_cell_formula_units_Z 56
_cell_length_a 15.313782
_cell_length_b 21.523599
_cell_length_c 8.927211
_cell_angle_alpha 90.000000
_cell_angle_beta 90.000000
_cell_angle_gamma 90.000000
_cell_volume 2942.477511
_symmetry_space_group_name_H-M "A M A 2"
_symmetry_group_IT_number 40
_symmetry_cell_setting 'orthorhombic'
loop_
_space_group_symop_operation_xyz
x,y,z
-x,-y,z
1/2-x,y,z
1/2+x,-y,z
x,1/2+y,1/2+z
-x,1/2-y,1/2+z
1/2-x,1/2+y,1/2+z
1/2+x,1/2-y,1/2+z
loop_
_atom_site_type_symbol
_atom_site_label
_atom_site_fract_x
_atom_site_fract_y
_atom_site_fract_z
Si Si1 0.521028 0.827279 0.846910
Si Si2 0.981631 0.432808 0.111208
Si Si3 0.402343 0.400408 0.854627
Si Si4 0.928459 0.864521 0.179339
Si Si5 0.352470 0.262810 0.245186
Si Si6 0.153053 0.535726 0.851133
Si Si7 0.655060 0.728554 0.897169
O O1 0.545261 0.882761 0.734654
O O2 0.418170 0.808030 0.839624
O O3 0.581050 0.767134 0.807048
O O4 0.553786 0.849751 0.007414
O O5 0.000000 0.500000 0.188035
O O6 0.907931 0.441686 0.985748
O O7 0.068178 0.408365 0.027558
O O8 0.481156 0.384169 0.748180
O O9 0.359185 0.464351 0.801172
O O10 0.337576 0.342154 0.839306
O O11 0.883290 0.807963 0.270737
O O12 0.864006 0.923260 0.201806
O O13 0.250000 0.272476 0.292718
O O14 0.367992 0.276473 0.071570
O O15 0.250000 0.545520 0.910495
O O16 0.750000 0.760298 0.873191
#
# Coordination Sequence:
#
# PCOD8182815 Si02
#       7
#     8   8   8   8   8   8   8
#     4  11  21  37  61  85 123 153 190 246 299 350
#     4   9  20  36  59  83 110 154 201 237 290 339
#     4  10  18  37  59  81 113 154 196 240 282 343
#     4  10  21  35  58  84 119 156 194 231 300 355
#     4  10  20  36  58  84 116 155 193 238 294 352
#     4  10  21  37  58  84 114 157 203 243 283 347
#     4  10  20  34  59  88 115 152 193 237 292 348
#
# _framework density 19.031580999999999
#
# number of rings (size 3 to 8) (size 9 to 14) (size 15 to 20)
#    0.000    2.000    2.857    2.143    0.000    2.286 
#    0.000    1.429    0.000    0.000    0.000    0.000 
#    0.000    0.000    0.000    0.000    0.000    0.000 
#
# Total GULP energy -346968.031796 kJ/mol
# GULP energy per Si atom -12391.715421 kJ/mol
# Density = 1.898826 g / cm^3
# Si number density = 19.031581 Si / 1000 Ang^3
#
#
#
# Elastic Constant Matrix: (Units=GPa)
#
#
# Indices 1 2 3 4 5 6 
#
# 1 119.3206 51.7351 23.9573 0.0000 0.0000 0.0000
# 2 51.7351 142.3255 51.0006 0.0000 0.0000 0.0000
# 3 23.9573 51.0006 50.0728 0.0000 0.0000 0.0000
# 4 0.0000 0.0000 0.0000 25.5022 0.0000 0.0000
# 5 0.0000 0.0000 0.0000 0.0000 19.5307 0.0000
# 6 0.0000 0.0000 0.0000 0.0000 0.0000 26.8530
#
#
#
# Elastic Compliance Matrix: (Units=1/GPa)
#
#
# Indices 1 2 3 4 5 6 
#
# 1 0.010041 -0.003037 -0.001711 0.000000 0.000000 0.000000
# 2 -0.003037 0.011983 -0.010752 0.000000 0.000000 0.000000
# 3 -0.001711 -0.010752 0.031741 0.000000 0.000000 0.000000
# 4 0.000000 0.000000 0.000000 0.039212 0.000000 0.000000
# 5 0.000000 0.000000 0.000000 0.000000 0.051201 0.000000
# 6 0.000000 0.000000 0.000000 0.000000 0.000000 0.037240
#
#
# Mechanical properties :
#
#
# Convention : Reuss Voigt Hill
#
# Bulk Modulus (GPa) = 43.92701 62.78943 53.35822
# Shear Modulus (GPa) = 22.72665 26.71223 24.71944
#
# Velocity S-wave (km/s) = 3.45940 3.75049 3.60789
# Velocity P-wave (km/s) = 6.25203 7.19853 6.74191
#
# Compressibility (1/GPa) = 0.02276504
#
# Stress axis : x y z
#
# Youngs Moduli (GPa) = 99.59158 83.45284 31.50524
#
# Poissons Ratio (x) = 0.25342 0.05391
# Poissons Ratio (y) = 0.30243 0.33874
# Poissons Ratio (z) = 0.17041 0.89728
#
# Static dielectric constant tensor:
#      x y z
#    x 3.516170 0.000000 0.000000 
#    y 0.000000 4.396320 0.000000 
#    z 0.000000 0.000000 3.143220 
# 
# 
# High freq. dielectric constant tensor:
#      x y z
#    x 1.742400 0.000000 0.000000 
#    y 0.000000 1.758040 0.000000 
#    z 0.000000 0.000000 1.702060 
# 
# From -- ./inp_files/6710.got.cif
#   From: 2010.03.12/outbox.cif.g09.slc.cpg/sg40_4_cif.got.tgz:6710.got - 2010.04.14 01:38:03.
