data_PCOD8182185
_publ_section_title
;
Structure prediction by ZEFSAII (Michael W. Deem and Ramdas Pophale) SiO2 
 PCOD8182185
Probable space group: A B M 2
;
_chemical_formula_sum "Si O2"
_cell_formula_units_Z 64
_cell_length_a 11.915845
_cell_length_b 26.076992
_cell_length_c 9.719606
_cell_angle_alpha 90.000000
_cell_angle_beta 90.000000
_cell_angle_gamma 90.000000
_cell_volume 3020.167289
_symmetry_space_group_name_H-M "A B M 2"
_symmetry_group_IT_number 39
_symmetry_cell_setting 'orthorhombic'
loop_
_space_group_symop_operation_xyz
x,y,z
-x,-y,z
-x,1/2+y,z
x,1/2-y,z
x,1/2+y,1/2+z
-x,1/2-y,1/2+z
-x,y,1/2+z
x,-y,1/2+z
loop_
_atom_site_type_symbol
_atom_site_label
_atom_site_fract_x
_atom_site_fract_y
_atom_site_fract_z
Si Si1 0.237763 0.516452 0.706370
Si Si2 0.287918 0.884159 0.865510
Si Si3 0.074801 0.192383 0.107936
Si Si4 0.484633 0.388683 0.004279
Si Si5 0.038912 0.634012 0.883804
Si Si6 0.901164 0.466285 0.441152
Si Si7 0.439985 0.950779 0.247467
Si Si8 0.674311 0.691407 0.127574
O O1 0.302035 0.564152 0.776347
O O2 0.193720 0.536960 0.559148
O O3 0.139481 0.495854 0.804792
O O4 0.321576 0.468582 0.682557
O O5 0.382084 0.881261 0.983228
O O6 0.311913 0.833612 0.776759
O O7 0.163188 0.884047 0.930687
O O8 0.051966 0.250000 0.161684
O O9 0.203495 0.187042 0.056463
O O10 0.044728 0.151206 0.225426
O O11 0.995821 0.181756 0.977922
O O12 0.421078 0.410810 0.870836
O O13 0.476908 0.427337 0.132690
O O14 0.421692 0.335835 0.037634
O O15 0.946067 0.589820 0.901244
O O16 0.000000 0.500000 0.506788
O O17 0.500000 0.000000 0.313786
O O18 0.636215 0.750000 0.146128
#
# Coordination Sequence:
#
# PCOD8182185 Si02
#       8
#     8   8   8   8   8   8   8   8
#     4  12  26  42  63  99 140 180 226 272 326 400
#     4  11  23  44  67  98 135 178 225 273 336 401
#     4  10  23  45  72  99 129 174 227 281 343 400
#     4  12  24  45  65 100 129 173 230 273 336 403
#     4  11  24  41  70  97 137 177 220 279 334 399
#     4  12  26  41  63  96 140 181 223 265 331 397
#     4  12  26  39  68  94 135 177 222 274 330 392
#     4  10  23  45  71  96 133 175 220 285 351 401
#
# _framework density 21.190878999999999
#
# number of rings (size 3 to 8) (size 9 to 14) (size 15 to 20)
#    0.000    0.750    3.750    3.375    7.000    1.000 
#    0.000    0.000    0.000    0.000    0.000    0.000 
#    0.000    0.000    0.000    0.000    0.000    0.000 
#
# Total GULP energy -396853.583625 kJ/mol
# GULP energy per Si atom -12401.674488 kJ/mol
# Density = 2.114265 g / cm^3
# Si number density = 21.190879 Si / 1000 Ang^3
#
#
#
# Elastic Constant Matrix: (Units=GPa)
#
#
# Indices 1 2 3 4 5 6 
#
# 1 106.2577 53.8325 41.2192 0.0000 0.0000 0.0000
# 2 53.8325 130.0229 44.0615 0.0000 0.0000 0.0000
# 3 41.2192 44.0615 84.3744 0.0000 0.0000 0.0000
# 4 0.0000 0.0000 0.0000 31.9639 0.0000 0.0000
# 5 0.0000 0.0000 0.0000 0.0000 42.6355 0.0000
# 6 0.0000 0.0000 0.0000 0.0000 0.0000 40.5378
#
#
#
# Elastic Compliance Matrix: (Units=1/GPa)
#
#
# Indices 1 2 3 4 5 6 
#
# 1 0.013095 -0.003953 -0.004333 0.000000 0.000000 0.000000
# 2 -0.003953 0.010538 -0.003572 0.000000 0.000000 0.000000
# 3 -0.004333 -0.003572 0.015834 0.000000 0.000000 0.000000
# 4 0.000000 0.000000 0.000000 0.031285 0.000000 0.000000
# 5 0.000000 0.000000 0.000000 0.000000 0.023455 0.000000
# 6 0.000000 0.000000 0.000000 0.000000 0.000000 0.024668
#
#
# Mechanical properties :
#
#
# Convention : Reuss Voigt Hill
#
# Bulk Modulus (GPa) = 63.48796 66.54239 65.01518
# Shear Modulus (GPa) = 33.82021 35.13023 34.47522
#
# Velocity S-wave (km/s) = 3.99931 4.07603 4.03785
# Velocity P-wave (km/s) = 7.16596 7.32268 7.24474
#
# Compressibility (1/GPa) = 0.01575102
#
# Stress axis : x y z
#
# Youngs Moduli (GPa) = 76.36746 94.89366 63.15592
#
# Poissons Ratio (x) = 0.37514 0.27363
# Poissons Ratio (y) = 0.30190 0.22559
# Poissons Ratio (z) = 0.33087 0.33895
#
# Static dielectric constant tensor:
#      x y z
#    x 4.003990 0.000000 0.000000 
#    y 0.000000 3.844030 0.000000 
#    z 0.000000 0.000000 3.604130 
# 
# 
# High freq. dielectric constant tensor:
#      x y z
#    x 1.845250 0.000000 0.000000 
#    y 0.000000 1.831560 0.000000 
#    z 0.000000 0.000000 1.816000 
# 
# From -- ./inp_files/2891.got.cif
#   From: 2010.03.12/outbox.cif.g09.slc.cpg/sg39_2_cif.got.tgz:2891.got - 2010.04.14 02:53:20.
