data_PCOD8182856
_publ_section_title
;
Structure prediction by ZEFSAII (Michael W. Deem and Ramdas Pophale) SiO2 
 PCOD8182856
Probable space group: A M A 2
;
_chemical_formula_sum "Si O2"
_cell_formula_units_Z 56
_cell_length_a 9.223977
_cell_length_b 14.090656
_cell_length_c 23.604680
_cell_angle_alpha 90.000000
_cell_angle_beta 90.000000
_cell_angle_gamma 90.000000
_cell_volume 3067.944798
_symmetry_space_group_name_H-M "A M A 2"
_symmetry_group_IT_number 40
_symmetry_cell_setting 'orthorhombic'
loop_
_space_group_symop_operation_xyz
x,y,z
-x,-y,z
1/2-x,y,z
1/2+x,-y,z
x,1/2+y,1/2+z
-x,1/2-y,1/2+z
1/2-x,1/2+y,1/2+z
1/2+x,1/2-y,1/2+z
loop_
_atom_site_type_symbol
_atom_site_label
_atom_site_fract_x
_atom_site_fract_y
_atom_site_fract_z
Si Si1 0.585086 0.772132 0.065840
Si Si2 0.917470 0.593762 0.348346
Si Si3 0.905974 0.081422 0.119487
Si Si4 0.576656 0.400573 0.461218
Si Si5 0.414993 0.276827 0.239971
Si Si6 0.909039 0.585390 0.748794
Si Si7 0.583156 0.597683 0.134279
O O1 0.750000 0.799991 0.078827
O O2 0.488220 0.819170 0.114745
O O3 0.562685 0.659120 0.075836
O O4 0.539251 0.814943 0.005071
O O5 0.750000 0.570975 0.364488
O O6 0.924614 0.668052 0.298433
O O7 0.000000 0.500000 0.327174
O O8 0.004433 0.634220 0.402646
O O9 0.750000 0.086473 0.088716
O O10 0.884021 0.054593 0.184315
O O11 0.000000 0.000000 0.088167
O O12 0.500000 0.500000 0.479028
O O13 0.750000 0.414169 0.455254
O O14 0.250000 0.246120 0.226201
O O15 0.510308 0.184807 0.250855
O O16 0.474286 0.342363 0.188514
O O17 0.750000 0.594240 0.778032
O O18 0.000000 0.500000 0.778736
O O19 0.500000 0.500000 0.126960
O O20 0.750000 0.571756 0.144391
#
# Coordination Sequence:
#
# PCOD8182856 Si02
#       7
#     8   8   8   8   8   8   8
#     4  10  20  34  52  73 102 138 173 211 261 310
#     4  10  20  34  54  80 107 140 177 219 265 310
#     4  10  19  29  45  71 101 134 168 203 248 303
#     4  10  20  34  53  78 106 138 173 215 264 316
#     4  10  20  35  55  77 106 142 177 215 262 313
#     4  10  20  32  49  74 105 139 173 211 256 309
#     4  10  21  36  53  75 105 137 172 216 260 311
#
# _framework density 18.253261999999999
#
# number of rings (size 3 to 8) (size 9 to 14) (size 15 to 20)
#    0.000    2.000    1.429    3.429    0.000    5.714 
#    0.000    0.000    0.000    0.857    0.000    4.000 
#    0.000    0.000    0.000    0.000    0.000    0.000 
#
# Total GULP energy -346966.031162 kJ/mol
# GULP energy per Si atom -12391.643970 kJ/mol
# Density = 1.821172 g / cm^3
# Si number density = 18.253262 Si / 1000 Ang^3
#
#
#
# Elastic Constant Matrix: (Units=GPa)
#
#
# Indices 1 2 3 4 5 6 
#
# 1 123.9774 67.7347 26.9509 0.0000 0.0000 0.0000
# 2 67.7347 127.9473 38.1502 0.0000 0.0000 0.0000
# 3 26.9509 38.1502 67.8602 0.0000 0.0000 0.0000
# 4 0.0000 0.0000 0.0000 22.2692 0.0000 0.0000
# 5 0.0000 0.0000 0.0000 0.0000 -3.4575 0.0000
# 6 0.0000 0.0000 0.0000 0.0000 0.0000 34.9152
#
#
#
# Elastic Compliance Matrix: (Units=1/GPa)
#
#
# Indices 1 2 3 4 5 6 
#
# 1 0.011453 -0.005655 -0.001370 0.000000 0.000000 0.000000
# 2 -0.005655 0.012182 -0.004603 0.000000 0.000000 0.000000
# 3 -0.001370 -0.004603 0.017868 0.000000 0.000000 0.000000
# 4 0.000000 0.000000 0.000000 0.044905 0.000000 0.000000
# 5 0.000000 0.000000 0.000000 0.000000 -0.289228 0.000000
# 6 0.000000 0.000000 0.000000 0.000000 0.000000 0.028641
#
#
# Mechanical properties :
#
#
# Convention : Reuss Voigt Hill
#
# Bulk Modulus (GPa) = 54.79902 65.05074 59.92488
# Shear Modulus (GPa) = -34.52035 23.20865 -5.65585
#
# Velocity S-wave (km/s) = -4.35350 3.56965 -1.76218
# Velocity P-wave (km/s) = 2.19456 7.25983 5.36289
#
# Compressibility (1/GPa) = 0.01824850
#
# Stress axis : x y z
#
# Youngs Moduli (GPa) = 87.31134 82.08987 55.96718
#
# Poissons Ratio (x) = 0.46421 0.07665
# Poissons Ratio (y) = 0.49374 0.25759
# Poissons Ratio (z) = 0.11958 0.37782
#
# Static dielectric constant tensor:
#      x y z
#    x 3.735880 0.000000 0.000000 
#    y 0.000000 3.247500 0.000000 
#    z 0.000000 0.000000 3.227330 
# 
# 
# High freq. dielectric constant tensor:
#      x y z
#    x 1.723660 0.000000 0.000000 
#    y 0.000000 1.697090 0.000000 
#    z 0.000000 0.000000 1.678820 
# 
# From -- ./inp_files/26419.got.cif
#   From: 2010.03.12/outbox.cif.g09.slc.cpg/sg40_14_cif.got.tgz:26419.got - 2010.04.14 01:38:03.
