data_PCOD8182838
_publ_section_title
;
Structure prediction by ZEFSAII (Michael W. Deem and Ramdas Pophale) SiO2 
 PCOD8182838
Probable space group: A M A 2
;
_chemical_formula_sum "Si O2"
_cell_formula_units_Z 64
_cell_length_a 8.891278
_cell_length_b 18.710827
_cell_length_c 21.657318
_cell_angle_alpha 90.000000
_cell_angle_beta 90.000000
_cell_angle_gamma 90.000000
_cell_volume 3602.979956
_symmetry_space_group_name_H-M "A M A 2"
_symmetry_group_IT_number 40
_symmetry_cell_setting 'orthorhombic'
loop_
_space_group_symop_operation_xyz
x,y,z
-x,-y,z
1/2-x,y,z
1/2+x,-y,z
x,1/2+y,1/2+z
-x,1/2-y,1/2+z
1/2-x,1/2+y,1/2+z
1/2+x,1/2-y,1/2+z
loop_
_atom_site_type_symbol
_atom_site_label
_atom_site_fract_x
_atom_site_fract_y
_atom_site_fract_z
Si Si1 0.917708 0.570457 0.247400
Si Si2 0.427546 0.215550 0.734173
Si Si3 0.426410 0.280455 0.607847
Si Si4 0.427523 0.365313 0.784406
Si Si5 0.581068 0.568731 0.101644
Si Si6 0.927813 0.072749 0.156365
Si Si7 0.575542 0.331690 0.016348
Si Si8 0.071404 0.924017 0.413408
O O1 0.750000 0.572538 0.275263
O O2 0.911771 0.563484 0.174310
O O3 0.000000 0.500000 0.274973
O O4 0.000152 0.644449 0.263857
O O5 0.250000 0.202945 0.733031
O O6 0.492497 0.233357 0.665327
O O7 0.473401 0.282033 0.778344
O O8 0.250000 0.280951 0.621222
O O9 0.483794 0.362328 0.612135
O O10 0.459318 0.250246 0.538335
O O11 0.250000 0.370425 0.786455
O O12 0.486352 0.410477 0.725806
O O13 0.493806 0.399635 0.846995
O O14 0.500000 0.500000 0.072554
O O15 0.750000 0.576215 0.073852
O O16 0.471000 0.631327 0.080509
O O17 0.750000 0.064308 0.154788
O O18 0.000000 0.000000 0.131605
O O19 0.750000 0.343359 0.000158
O O20 0.474732 0.361208 0.960915
O O21 0.250000 0.931587 0.413863
O O22 0.000000 0.000000 0.432220
#
# Coordination Sequence:
#
# PCOD8182838 Si02
#       8
#     8   8   8   8   8   8   8   8
#     4  10  19  28  41  65  95 125 155 191 234 284
#     4   9  15  30  51  69  89 122 160 199 242 290
#     4   8  16  29  47  67  92 122 155 190 236 291
#     4   8  17  32  52  71  94 127 164 197 239 286
#     4  10  19  29  41  60  88 122 157 192 228 272
#     4   9  16  30  50  74  97 122 152 190 236 289
#     4  11  20  32  48  66  89 126 165 200 237 279
#     4  11  22  36  50  70  98 132 168 205 236 277
#
# _framework density 17.763074
#
# number of rings (size 3 to 8) (size 9 to 14) (size 15 to 20)
#    0.000    2.500    1.250    3.750    0.000    1.000 
#    0.000    5.625    0.000    0.000    0.000    0.875 
#    0.000    4.000    0.000    0.000    0.000    0.000 
#
# Total GULP energy -396456.082425 kJ/mol
# GULP energy per Si atom -12389.252576 kJ/mol
# Density = 1.772264 g / cm^3
# Si number density = 17.763074 Si / 1000 Ang^3
#
#
#
# Elastic Constant Matrix: (Units=GPa)
#
#
# Indices 1 2 3 4 5 6 
#
# 1 56.1071 35.9395 18.2529 0.0000 0.0000 0.0000
# 2 35.9395 132.8083 33.2332 0.0000 0.0000 0.0000
# 3 18.2529 33.2332 58.9753 0.0000 0.0000 0.0000
# 4 0.0000 0.0000 0.0000 23.0565 0.0000 0.0000
# 5 0.0000 0.0000 0.0000 0.0000 6.6673 0.0000
# 6 0.0000 0.0000 0.0000 0.0000 0.0000 27.5160
#
#
#
# Elastic Compliance Matrix: (Units=1/GPa)
#
#
# Indices 1 2 3 4 5 6 
#
# 1 0.022377 -0.005032 -0.004090 0.000000 0.000000 0.000000
# 2 -0.005032 0.009897 -0.004020 0.000000 0.000000 0.000000
# 3 -0.004090 -0.004020 0.020487 0.000000 0.000000 0.000000
# 4 0.000000 0.000000 0.000000 0.043372 0.000000 0.000000
# 5 0.000000 0.000000 0.000000 0.000000 0.149986 0.000000
# 6 0.000000 0.000000 0.000000 0.000000 0.000000 0.036342
#
#
# Mechanical properties :
#
#
# Convention : Reuss Voigt Hill
#
# Bulk Modulus (GPa) = 37.76759 46.97133 42.36946
# Shear Modulus (GPa) = 15.74447 22.14563 18.94505
#
# Velocity S-wave (km/s) = 2.98041 3.53473 3.26934
# Velocity P-wave (km/s) = 5.75776 6.56960 6.17703
#
# Compressibility (1/GPa) = 0.02647773
#
# Stress axis : x y z
#
# Youngs Moduli (GPa) = 44.68893 101.03809 48.81060
#
# Poissons Ratio (x) = 0.50842 0.19964
# Poissons Ratio (y) = 0.22487 0.19621
# Poissons Ratio (z) = 0.18278 0.40615
#
# Static dielectric constant tensor:
#      x y z
#    x 3.149160 0.000000 0.000000 
#    y 0.000000 3.571610 0.000000 
#    z 0.000000 0.000000 3.084500 
# 
# 
# High freq. dielectric constant tensor:
#      x y z
#    x 1.671350 0.000000 0.000000 
#    y 0.000000 1.694970 0.000000 
#    z 0.000000 0.000000 1.639880 
# 
# From -- ./inp_files/22518.got.cif
#   From: 2010.03.12/outbox.cif.g09.slc.cpg/sg40_12_cif.got.tgz:22518.got - 2010.04.14 01:38:03.
