data_PCOD8182399
_publ_section_title
;
Structure prediction by ZEFSAII (Michael W. Deem and Ramdas Pophale) SiO2 
 PCOD8182399
Probable space group: A M A 2
;
_chemical_formula_sum "Si O2"
_cell_formula_units_Z 64
_cell_length_a 8.810564
_cell_length_b 23.223456
_cell_length_c 18.950501
_cell_angle_alpha 90.000000
_cell_angle_beta 90.000000
_cell_angle_gamma 90.000000
_cell_volume 3877.495086
_symmetry_space_group_name_H-M "A M A 2"
_symmetry_group_IT_number 40
_symmetry_cell_setting 'orthorhombic'
loop_
_space_group_symop_operation_xyz
x,y,z
-x,-y,z
1/2-x,y,z
1/2+x,-y,z
x,1/2+y,1/2+z
-x,1/2-y,1/2+z
1/2-x,1/2+y,1/2+z
1/2+x,1/2-y,1/2+z
loop_
_atom_site_type_symbol
_atom_site_label
_atom_site_fract_x
_atom_site_fract_y
_atom_site_fract_z
Si Si1 0.924242 0.236239 0.697090
Si Si2 0.430182 0.116028 0.347890
Si Si3 0.928326 0.439386 0.991800
Si Si4 0.930371 0.938242 0.202399
Si Si5 0.076408 0.840019 0.570450
Si Si6 0.926757 0.277266 0.492582
Si Si7 0.573804 0.753395 0.354090
Si Si8 0.071650 0.338662 0.618110
O O1 0.750000 0.256856 0.684982
O O2 0.955777 0.178864 0.651381
O O3 0.953500 0.222253 0.778996
O O4 0.031123 0.287917 0.672509
O O5 0.250000 0.116553 0.347390
O O6 0.492981 0.082306 0.416347
O O7 0.491791 0.084695 0.277944
O O8 0.489770 0.181495 0.349470
O O9 0.750000 0.446712 0.988791
O O10 0.000000 0.500000 0.012111
O O11 0.969804 0.393572 0.052290
O O12 0.750000 0.941608 0.201386
O O13 0.987162 0.896652 0.140688
O O14 0.000000 0.000000 0.187380
O O15 0.250000 0.859063 0.560030
O O16 0.035471 0.786849 0.519597
O O17 0.750000 0.291286 0.498982
O O18 0.980684 0.282457 0.411903
O O19 0.017569 0.323243 0.539308
O O20 0.750000 0.753297 0.375554
O O21 0.250000 0.349154 0.618580
#
# Coordination Sequence:
#
# PCOD8182399 Si02
#       8
#     8   8   8   8   8   8   8   8
#     4   9  18  33  52  72 101 133 162 204 256 300
#     4   9  18  31  48  69 100 136 169 203 242 287
#     4  11  21  33  48  68  95 132 171 208 244 284
#     4  11  21  36  52  71 100 137 175 214 254 298
#     4   9  18  32  48  69  95 128 165 202 246 292
#     4  10  20  33  50  73 101 131 164 209 255 298
#     4  10  17  31  52  75 101 134 167 200 248 304
#     4  11  21  33  50  73  98 132 173 211 251 301
#
# _framework density 16.505502
#
# number of rings (size 3 to 8) (size 9 to 14) (size 15 to 20)
#    0.000    2.000    2.500    3.375    0.000    2.500 
#    0.000    1.875    0.000    0.000    0.000    0.875 
#    0.000    2.000    0.000    0.000    0.000    0.000 
#
# Total GULP energy -396874.275225 kJ/mol
# GULP energy per Si atom -12402.321101 kJ/mol
# Density = 1.646793 g / cm^3
# Si number density = 16.505502 Si / 1000 Ang^3
#
#
#
# Elastic Constant Matrix: (Units=GPa)
#
#
# Indices 1 2 3 4 5 6 
#
# 1 66.6780 33.1953 35.2985 0.0000 0.0000 0.0000
# 2 33.1953 89.8976 53.6125 0.0000 0.0000 0.0000
# 3 35.2985 53.6125 114.3942 0.0000 0.0000 0.0000
# 4 0.0000 0.0000 0.0000 20.8013 0.0000 0.0000
# 5 0.0000 0.0000 0.0000 0.0000 25.1772 0.0000
# 6 0.0000 0.0000 0.0000 0.0000 0.0000 25.1397
#
#
#
# Elastic Compliance Matrix: (Units=1/GPa)
#
#
# Indices 1 2 3 4 5 6 
#
# 1 0.019416 -0.004992 -0.003652 0.000000 0.000000 0.000000
# 2 -0.004992 0.016722 -0.006297 0.000000 0.000000 0.000000
# 3 -0.003652 -0.006297 0.012820 0.000000 0.000000 0.000000
# 4 0.000000 0.000000 0.000000 0.048074 0.000000 0.000000
# 5 0.000000 0.000000 0.000000 0.000000 0.039718 0.000000
# 6 0.000000 0.000000 0.000000 0.000000 0.000000 0.039778
#
#
# Mechanical properties :
#
#
# Convention : Reuss Voigt Hill
#
# Bulk Modulus (GPa) = 52.41857 57.24248 54.83053
# Shear Modulus (GPa) = 23.49989 24.14788 23.82389
#
# Velocity S-wave (km/s) = 3.77737 3.82909 3.80332
# Velocity P-wave (km/s) = 7.13105 7.36922 7.25111
#
# Compressibility (1/GPa) = 0.01907721
#
# Stress axis : x y z
#
# Youngs Moduli (GPa) = 51.50484 59.80061 78.00554
#
# Poissons Ratio (x) = 0.29850 0.28485
# Poissons Ratio (y) = 0.25709 0.49119
# Poissons Ratio (z) = 0.18808 0.37656
#
# Static dielectric constant tensor:
#      x y z
#    x 2.994740 0.000000 0.000000 
#    y 0.000000 2.918980 0.000000 
#    z 0.000000 0.000000 3.221400 
# 
# 
# High freq. dielectric constant tensor:
#      x y z
#    x 1.633060 0.000000 0.000000 
#    y 0.000000 1.607530 0.000000 
#    z 0.000000 0.000000 1.632760 
# 
# From -- ./inp_files/19621.got.cif
#   From: 2010.03.12/outbox.cif.g09.slc.cpg/sg40_10_cif.got.tgz:19621.got - 2010.04.14 01:38:03.
