data_PCOD8182276
_publ_section_title
;
Structure prediction by ZEFSAII (Michael W. Deem and Ramdas Pophale) SiO2 
 PCOD8182276
Probable space group: A B M 2
;
_chemical_formula_sum "Si O2"
_cell_formula_units_Z 48
_cell_length_a 14.644433
_cell_length_b 18.034764
_cell_length_c 8.497077
_cell_angle_alpha 90.000000
_cell_angle_beta 90.000000
_cell_angle_gamma 90.000000
_cell_volume 2244.153601
_symmetry_space_group_name_H-M "A B M 2"
_symmetry_group_IT_number 39
_symmetry_cell_setting 'orthorhombic'
loop_
_space_group_symop_operation_xyz
x,y,z
-x,-y,z
-x,1/2+y,z
x,1/2-y,z
x,1/2+y,1/2+z
-x,1/2-y,1/2+z
-x,y,1/2+z
x,-y,1/2+z
loop_
_atom_site_type_symbol
_atom_site_label
_atom_site_fract_x
_atom_site_fract_y
_atom_site_fract_z
Si Si1 0.100113 0.164424 0.629770
Si Si2 0.442076 0.834321 0.373079
Si Si3 0.043810 0.079510 0.323444
Si Si4 0.376694 0.666032 0.725128
Si Si5 0.223442 0.438944 0.136080
Si Si6 0.264274 0.592419 0.276736
O O1 0.082110 0.250000 0.586767
O O2 0.090052 0.111776 0.479189
O O3 0.201782 0.156221 0.699894
O O4 0.030198 0.138121 0.763781
O O5 0.436289 0.750000 0.311560
O O6 0.421748 0.840677 0.555180
O O7 0.545300 0.863626 0.344389
O O8 0.368794 0.881491 0.275245
O O9 0.119140 0.069469 0.187998
O O10 0.000000 0.000000 0.363778
O O11 0.347095 0.750000 0.763707
O O12 0.285726 0.617475 0.736914
O O13 0.259878 0.520731 0.167678
O O14 0.227286 0.423775 0.951210
#
# Coordination Sequence:
#
# PCOD8182276 Si02
#       6
#     8   8   8   8   8   8
#     4  12  26  43  67  98 129 169 220 272 326 393
#     4   9  19  38  62  89 126 169 211 267 328 383
#     4  12  25  44  68  94 130 174 214 270 333 397
#     4   9  20  38  62  91 125 167 216 266 324 388
#     4  11  24  41  65  93 126 173 218 268 330 394
#     4  11  23  41  63  94 130 169 219 268 328 389
#
# _framework density 21.388908000000001
#
# number of rings (size 3 to 8) (size 9 to 14) (size 15 to 20)
#    0.000    1.333    1.667    3.500    0.000    5.333 
#    0.000    5.000    0.000    0.000    0.000    0.000 
#    0.000    0.000    0.000    0.000    0.000    0.000 
#
# Total GULP energy -297717.230522 kJ/mol
# GULP energy per Si atom -12404.884605 kJ/mol
# Density = 2.134023 g / cm^3
# Si number density = 21.388908 Si / 1000 Ang^3
#
#
#
# Elastic Constant Matrix: (Units=GPa)
#
#
# Indices 1 2 3 4 5 6 
#
# 1 71.8669 38.9400 7.8302 0.0000 0.0000 0.0000
# 2 38.9400 116.9640 21.6472 0.0000 0.0000 0.0000
# 3 7.8302 21.6472 60.7000 0.0000 0.0000 0.0000
# 4 0.0000 0.0000 0.0000 23.2614 0.0000 0.0000
# 5 0.0000 0.0000 0.0000 0.0000 34.7337 0.0000
# 6 0.0000 0.0000 0.0000 0.0000 0.0000 39.6626
#
#
#
# Elastic Compliance Matrix: (Units=1/GPa)
#
#
# Indices 1 2 3 4 5 6 
#
# 1 0.016979 -0.005618 -0.000187 0.000000 0.000000 0.000000
# 2 -0.005618 0.011013 -0.003203 0.000000 0.000000 0.000000
# 3 -0.000187 -0.003203 0.017641 0.000000 0.000000 0.000000
# 4 0.000000 0.000000 0.000000 0.042990 0.000000 0.000000
# 5 0.000000 0.000000 0.000000 0.000000 0.028790 0.000000
# 6 0.000000 0.000000 0.000000 0.000000 0.000000 0.025213
#
#
# Mechanical properties :
#
#
# Convention : Reuss Voigt Hill
#
# Bulk Modulus (GPa) = 36.20901 42.92953 39.56927
# Shear Modulus (GPa) = 29.43836 31.60577 30.52207
#
# Velocity S-wave (km/s) = 3.71393 3.84822 3.78167
# Velocity P-wave (km/s) = 5.94614 6.31344 6.13254
#
# Compressibility (1/GPa) = 0.02761743
#
# Stress axis : x y z
#
# Youngs Moduli (GPa) = 58.89601 90.80337 56.68703
#
# Poissons Ratio (x) = 0.51015 0.01058
# Poissons Ratio (y) = 0.33089 0.18155
# Poissons Ratio (z) = 0.01100 0.29082
#
# Static dielectric constant tensor:
#      x y z
#    x 4.067520 0.000000 0.000000 
#    y 0.000000 3.875070 0.000000 
#    z 0.000000 0.000000 3.797740 
# 
# 
# High freq. dielectric constant tensor:
#      x y z
#    x 1.851110 0.000000 0.000000 
#    y 0.000000 1.836220 0.000000 
#    z 0.000000 0.000000 1.842690 
# 
# From -- ./inp_files/3219.got.cif
#   From: 2010.03.12/outbox.cif.g09.slc.cpg/sg39_2_cif.got.tgz:3219.got - 2010.04.14 02:53:20.
