data_PCOD8182701
_publ_section_title
;
Structure prediction by ZEFSAII (Michael W. Deem and Ramdas Pophale) SiO2 
 PCOD8182701
Probable space group: A M A 2
;
_chemical_formula_sum "Si O2"
_cell_formula_units_Z 52
_cell_length_a 9.378374
_cell_length_b 20.822394
_cell_length_c 14.145833
_cell_angle_alpha 90.000000
_cell_angle_beta 90.000000
_cell_angle_gamma 90.000000
_cell_volume 2762.401076
_symmetry_space_group_name_H-M "A M A 2"
_symmetry_group_IT_number 40
_symmetry_cell_setting 'orthorhombic'
loop_
_space_group_symop_operation_xyz
x,y,z
-x,-y,z
1/2-x,y,z
1/2+x,-y,z
x,1/2+y,1/2+z
-x,1/2-y,1/2+z
1/2-x,1/2+y,1/2+z
1/2+x,1/2-y,1/2+z
loop_
_atom_site_type_symbol
_atom_site_label
_atom_site_fract_x
_atom_site_fract_y
_atom_site_fract_z
Si Si1 0.081052 0.935953 0.574710
Si Si2 0.581934 0.654460 0.907793
Si Si3 0.407769 0.603415 0.556798
Si Si4 0.083296 0.702037 0.399971
Si Si5 0.000000 0.500000 0.417880
Si Si6 0.419634 0.434119 0.734559
Si Si7 0.409570 0.893644 0.780736
O O1 0.250000 0.948352 0.568692
O O2 0.029123 0.881169 0.502111
O O3 0.031843 0.915469 0.679079
O O4 0.000000 0.000000 0.544214
O O5 0.750000 0.660249 0.911055
O O6 0.517984 0.726316 0.904615
O O7 0.534215 0.615725 0.815101
O O8 0.250000 0.608523 0.602984
O O9 0.446602 0.668333 0.500650
O O10 0.400516 0.543766 0.484098
O O11 0.528987 0.594137 0.634783
O O12 0.250000 0.701804 0.376150
O O13 0.007814 0.664126 0.315585
O O14 0.094457 0.454025 0.351793
O O15 0.500000 0.500000 0.756859
O O16 0.250000 0.445886 0.730636
O O17 0.250000 0.866746 0.770837
#
# Coordination Sequence:
#
# PCOD8182701 Si02
#       7
#     8   8   8   8   4   8   8
#     4  10  20  36  58  83 110 142 181 226 274 323
#     4   9  20  39  58  77 109 150 185 221 270 323
#     4  10  20  33  55  83 110 142 179 223 271 325
#     4   9  20  38  57  79 110 149 184 218 269 331
#     4  10  18  32  54  80 112 146 172 216 272 330
#     4  11  22  36  57  82 110 144 184 228 271 321
#     4  10  20  33  55  86 113 140 179 227 273 321
#
# _framework density 18.824202
#
# number of rings (size 3 to 8) (size 9 to 14) (size 15 to 20)
#    0.000    2.154    1.538    1.385    0.000    4.923 
#    0.000    4.615    0.000    0.000    0.000    0.000 
#    0.000    0.000    0.000    0.000    0.000    0.000 
#
# Total GULP energy -322404.507089 kJ/mol
# GULP energy per Si atom -12400.173350 kJ/mol
# Density = 1.878136 g / cm^3
# Si number density = 18.824202 Si / 1000 Ang^3
#
#
#
# Elastic Constant Matrix: (Units=GPa)
#
#
# Indices 1 2 3 4 5 6 
#
# 1 60.7799 44.2345 31.6534 0.0000 0.0000 0.0000
# 2 44.2345 166.4963 72.1603 0.0000 0.0000 0.0000
# 3 31.6534 72.1603 122.7895 0.0000 0.0000 0.0000
# 4 0.0000 0.0000 0.0000 25.1421 0.0000 0.0000
# 5 0.0000 0.0000 0.0000 0.0000 22.2591 0.0000
# 6 0.0000 0.0000 0.0000 0.0000 0.0000 24.0646
#
#
#
# Elastic Compliance Matrix: (Units=1/GPa)
#
#
# Indices 1 2 3 4 5 6 
#
# 1 0.021130 -0.004365 -0.002882 0.000000 0.000000 0.000000
# 2 -0.004365 0.008960 -0.004141 0.000000 0.000000 0.000000
# 3 -0.002882 -0.004141 0.011320 0.000000 0.000000 0.000000
# 4 0.000000 0.000000 0.000000 0.039774 0.000000 0.000000
# 5 0.000000 0.000000 0.000000 0.000000 0.044925 0.000000
# 6 0.000000 0.000000 0.000000 0.000000 0.000000 0.041555
#
#
# Mechanical properties :
#
#
# Convention : Reuss Voigt Hill
#
# Bulk Modulus (GPa) = 53.65913 71.79579 62.72746
# Shear Modulus (GPa) = 25.42564 27.76100 26.59332
#
# Velocity S-wave (km/s) = 3.67916 3.84441 3.76269
# Velocity P-wave (km/s) = 6.82756 7.61111 7.22996
#
# Compressibility (1/GPa) = 0.01863616
#
# Stress axis : x y z
#
# Youngs Moduli (GPa) = 47.32534 111.60319 88.33712
#
# Poissons Ratio (x) = 0.48712 0.25459
# Poissons Ratio (y) = 0.20657 0.36577
# Poissons Ratio (z) = 0.13639 0.46210
#
# Static dielectric constant tensor:
#      x y z
#    x 3.198840 0.000000 0.000000 
#    y 0.000000 3.684140 0.000000 
#    z 0.000000 0.000000 3.508440 
# 
# 
# High freq. dielectric constant tensor:
#      x y z
#    x 1.713340 0.000000 0.000000 
#    y 0.000000 1.734600 0.000000 
#    z 0.000000 0.000000 1.736000 
# 
# From -- ./inp_files/15232.got.cif
#   From: 2010.03.12/outbox.cif.g09.slc.cpg/sg40_8_cif.got.tgz:15232.got - 2010.04.14 01:38:03.
