data_PCOD8182955
_publ_section_title
;
Structure prediction by ZEFSAII (Michael W. Deem and Ramdas Pophale) SiO2 
 PCOD8182955
Probable space group: A M A 2
;
_chemical_formula_sum "Si O2"
_cell_formula_units_Z 64
_cell_length_a 8.958929
_cell_length_b 16.334981
_cell_length_c 22.552748
_cell_angle_alpha 90.000000
_cell_angle_beta 90.000000
_cell_angle_gamma 90.000000
_cell_volume 3300.457887
_symmetry_space_group_name_H-M "A M A 2"
_symmetry_group_IT_number 40
_symmetry_cell_setting 'orthorhombic'
loop_
_space_group_symop_operation_xyz
x,y,z
-x,-y,z
1/2-x,y,z
1/2+x,-y,z
x,1/2+y,1/2+z
-x,1/2-y,1/2+z
1/2-x,1/2+y,1/2+z
1/2+x,1/2-y,1/2+z
loop_
_atom_site_type_symbol
_atom_site_label
_atom_site_fract_x
_atom_site_fract_y
_atom_site_fract_z
Si Si1 0.587007 0.797619 0.034720
Si Si2 0.573797 0.921761 0.456078
Si Si3 0.920920 0.577349 0.605397
Si Si4 0.420876 0.268195 0.910174
Si Si5 0.923055 0.261074 0.279607
Si Si6 0.929145 0.415289 0.202292
Si Si7 0.926883 0.083818 0.239727
Si Si8 0.080952 0.383643 0.077558
O O1 0.750000 0.839430 0.043225
O O2 0.453430 0.845996 0.064334
O O3 0.589475 0.712384 0.068266
O O4 0.550277 0.792339 0.964945
O O5 0.750000 0.929512 0.460671
O O6 0.531618 0.844426 0.415977
O O7 0.503214 0.920923 0.521530
O O8 0.500000 0.000000 0.423546
O O9 0.750000 0.558011 0.606435
O O10 0.978991 0.592168 0.671745
O O11 0.000000 0.500000 0.575819
O O12 0.250000 0.300938 0.912345
O O13 0.452201 0.219879 0.849075
O O14 0.750000 0.256423 0.263393
O O15 0.988815 0.336797 0.240915
O O16 0.988900 0.169374 0.267637
O O17 0.750000 0.421325 0.204164
O O18 0.000000 0.500000 0.227977
O O19 0.985612 0.404647 0.135406
O O20 0.750000 0.075969 0.248450
O O21 0.000000 0.000000 0.266672
O O22 0.250000 0.419290 0.083088
#
# Coordination Sequence:
#
# PCOD8182955 Si02
#       8
#     8   8   8   8   8   8   8   8
#     4   9  18  32  52  76 103 134 170 212 264 318
#     4  11  21  34  53  79 110 142 175 216 265 323
#     4  10  19  31  50  75 105 135 168 211 261 316
#     4   9  19  37  56  75 102 139 180 221 265 319
#     4   9  19  37  59  78 106 147 186 222 268 323
#     4  11  22  37  57  82 110 145 187 232 279 329
#     4   9  18  33  53  80 108 138 173 211 258 316
#     4  10  20  35  55  81 111 142 174 217 271 330
#
# _framework density 19.391249999999999
#
# number of rings (size 3 to 8) (size 9 to 14) (size 15 to 20)
#    0.000    2.250    0.000    4.125    0.000    4.500 
#    0.000    5.000    0.000    1.500    0.000    0.000 
#    0.000    0.000    0.000    0.000    0.000    0.000 
#
# Total GULP energy -396603.549478 kJ/mol
# GULP energy per Si atom -12393.860921 kJ/mol
# Density = 1.934711 g / cm^3
# Si number density = 19.391250 Si / 1000 Ang^3
#
#
#
# Elastic Constant Matrix: (Units=GPa)
#
#
# Indices 1 2 3 4 5 6 
#
# 1 76.1310 26.3540 21.9081 0.0000 0.0000 0.0000
# 2 26.3540 95.3451 36.4368 0.0000 0.0000 0.0000
# 3 21.9081 36.4368 71.8586 0.0000 0.0000 0.0000
# 4 0.0000 0.0000 0.0000 -0.0898 0.0000 0.0000
# 5 0.0000 0.0000 0.0000 0.0000 29.1198 0.0000
# 6 0.0000 0.0000 0.0000 0.0000 0.0000 33.6769
#
#
#
# Elastic Compliance Matrix: (Units=1/GPa)
#
#
# Indices 1 2 3 4 5 6 
#
# 1 0.015054 -0.002986 -0.003076 0.000000 0.000000 0.000000
# 2 -0.002986 0.013601 -0.005986 0.000000 0.000000 0.000000
# 3 -0.003076 -0.005986 0.017889 0.000000 0.000000 0.000000
# 4 0.000000 0.000000 0.000000-11.129725 0.000000 0.000000
# 5 0.000000 0.000000 0.000000 0.000000 0.034341 0.000000
# 6 0.000000 0.000000 0.000000 0.000000 0.000000 0.029694
#
#
# Mechanical properties :
#
#
# Convention : Reuss Voigt Hill
#
# Bulk Modulus (GPa) = 44.54529 45.85916 45.20222
# Shear Modulus (GPa) = -0.45506 23.11709 11.33101
#
# Velocity S-wave (km/s) = -0.48496 3.45648 2.41993
# Velocity P-wave (km/s) = 4.76531 6.29527 5.58295
#
# Compressibility (1/GPa) = 0.02244906
#
# Stress axis : x y z
#
# Youngs Moduli (GPa) = 66.42816 73.52295 55.89896
#
# Poissons Ratio (x) = 0.21951 0.17193
# Poissons Ratio (y) = 0.19833 0.33463
# Poissons Ratio (z) = 0.20431 0.44014
#
# Static dielectric constant tensor:
#      x y z
#    x 3.462120 0.000000 0.000000 
#    y 0.000000 3.940640 0.000000 
#    z 0.000000 0.000000 3.499650 
# 
# 
# High freq. dielectric constant tensor:
#      x y z
#    x 1.744370 0.000000 0.000000 
#    y 0.000000 1.754480 0.000000 
#    z 0.000000 0.000000 1.744760 
# 
# From -- ./inp_files/24222.got.cif
#   From: 2010.03.12/outbox.cif.g09.slc.cpg/sg40_13_cif.got.tgz:24222.got - 2010.04.14 01:38:03.
