data_PCOD8182605
_publ_section_title
;
Structure prediction by ZEFSAII (Michael W. Deem and Ramdas Pophale) SiO2 
 PCOD8182605
Probable space group: A M A 2
;
_chemical_formula_sum "Si O2"
_cell_formula_units_Z 48
_cell_length_a 8.493317
_cell_length_b 17.312510
_cell_length_c 18.387478
_cell_angle_alpha 90.000000
_cell_angle_beta 90.000000
_cell_angle_gamma 90.000000
_cell_volume 2703.706450
_symmetry_space_group_name_H-M "A M A 2"
_symmetry_group_IT_number 40
_symmetry_cell_setting 'orthorhombic'
loop_
_space_group_symop_operation_xyz
x,y,z
-x,-y,z
1/2-x,y,z
1/2+x,-y,z
x,1/2+y,1/2+z
-x,1/2-y,1/2+z
1/2-x,1/2+y,1/2+z
1/2+x,1/2-y,1/2+z
loop_
_atom_site_type_symbol
_atom_site_label
_atom_site_fract_x
_atom_site_fract_y
_atom_site_fract_z
Si Si1 0.933207 0.711243 0.732020
Si Si2 0.568302 0.185937 0.842641
Si Si3 0.565988 0.188281 0.445402
Si Si4 0.064652 0.916856 0.967533
Si Si5 0.934829 0.917686 0.335979
Si Si6 0.563457 0.722880 0.566944
O O1 0.750000 0.691055 0.735573
O O2 0.994032 0.717754 0.649803
O O3 0.965626 0.794201 0.771207
O O4 0.027463 0.643742 0.772563
O O5 0.750000 0.181609 0.819542
O O6 0.545137 0.253538 0.901077
O O7 0.514130 0.107731 0.884906
O O8 0.750000 0.204210 0.432132
O O9 0.519721 0.104499 0.412915
O O10 0.519816 0.201935 0.529897
O O11 0.250000 0.919324 0.972448
O O12 0.002815 0.854751 0.026449
O O13 0.000000 0.000000 0.988103
O O14 0.750000 0.922086 0.348352
O O15 0.000000 0.000000 0.310200
O O16 0.750000 0.733329 0.562194
#
# Coordination Sequence:
#
# PCOD8182605 Si02
#       6
#     8   8   8   8   8   8
#     4  10  19  32  51  74  99 128 163 200 241 290
#     4   9  17  31  48  67  94 126 160 200 243 283
#     4  10  18  30  50  73  94 123 166 204 237 285
#     4   9  18  31  47  68  95 126 157 192 235 280
#     4  11  21  34  51  72 101 132 164 202 246 293
#     4   9  19  34  49  70 101 131 158 196 244 289
#
# _framework density 17.753408
#
# number of rings (size 3 to 8) (size 9 to 14) (size 15 to 20)
#    0.000    2.333    0.000    7.000    0.000    5.333 
#    0.000    1.667    0.000    1.000    0.000    2.333 
#    0.000    0.000    0.000    0.000    0.000    0.000 
#
# Total GULP energy -297440.298483 kJ/mol
# GULP energy per Si atom -12393.345770 kJ/mol
# Density = 1.771300 g / cm^3
# Si number density = 17.753408 Si / 1000 Ang^3
#
#
#
# Elastic Constant Matrix: (Units=GPa)
#
#
# Indices 1 2 3 4 5 6 
#
# 1 56.1089 16.9599 34.4812 0.0000 0.0000 0.0000
# 2 16.9599 31.3384 52.5428 0.0000 0.0000 0.0000
# 3 34.4812 52.5428 139.2934 0.0000 0.0000 0.0000
# 4 0.0000 0.0000 0.0000 19.0640 0.0000 0.0000
# 5 0.0000 0.0000 0.0000 0.0000 25.3251 0.0000
# 6 0.0000 0.0000 0.0000 0.0000 0.0000 26.0677
#
#
#
# Elastic Compliance Matrix: (Units=1/GPa)
#
#
# Indices 1 2 3 4 5 6 
#
# 1 0.021637 -0.007426 -0.002555 0.000000 0.000000 0.000000
# 2 -0.007426 0.089363 -0.031870 0.000000 0.000000 0.000000
# 3 -0.002555 -0.031870 0.019833 0.000000 0.000000 0.000000
# 4 0.000000 0.000000 0.000000 0.052455 0.000000 0.000000
# 5 0.000000 0.000000 0.000000 0.000000 0.039486 0.000000
# 6 0.000000 0.000000 0.000000 0.000000 0.000000 0.038362
#
#
# Mechanical properties :
#
#
# Convention : Reuss Voigt Hill
#
# Bulk Modulus (GPa) = 21.21739 48.30096 34.75917
# Shear Modulus (GPa) = 13.86769 22.27516 18.07142
#
# Velocity S-wave (km/s) = 2.79790 3.54601 3.19394
# Velocity P-wave (km/s) = 4.73442 6.63561 5.76394
#
# Compressibility (1/GPa) = 0.04713115
#
# Stress axis : x y z
#
# Youngs Moduli (GPa) = 46.21653 11.19026 50.42002
#
# Poissons Ratio (x) = 0.08310 0.12882
# Poissons Ratio (y) = 0.34321 1.60691
# Poissons Ratio (z) = 0.11808 0.35664
#
# Static dielectric constant tensor:
#      x y z
#    x 3.228700 0.000000 0.000000 
#    y 0.000000 4.911300 0.000000 
#    z 0.000000 0.000000 3.560500 
# 
# 
# High freq. dielectric constant tensor:
#      x y z
#    x 1.692470 0.000000 0.000000 
#    y 0.000000 1.659860 0.000000 
#    z 0.000000 0.000000 1.678110 
# 
# From -- ./inp_files/19307.got.cif
#   From: 2010.03.12/outbox.cif.g09.slc.cpg/sg40_10_cif.got.tgz:19307.got - 2010.04.14 01:38:03.
