data_PCOD8182763
_publ_section_title
;
Structure prediction by ZEFSAII (Michael W. Deem and Ramdas Pophale) SiO2 
 PCOD8182763
Probable space group: A M A 2
;
_chemical_formula_sum "Si O2"
_cell_formula_units_Z 60
_cell_length_a 23.737816
_cell_length_b 15.852764
_cell_length_c 8.279450
_cell_angle_alpha 90.000000
_cell_angle_beta 90.000000
_cell_angle_gamma 90.000000
_cell_volume 3115.639787
_symmetry_space_group_name_H-M "A M A 2"
_symmetry_group_IT_number 40
_symmetry_cell_setting 'orthorhombic'
loop_
_space_group_symop_operation_xyz
x,y,z
-x,-y,z
1/2-x,y,z
1/2+x,-y,z
x,1/2+y,1/2+z
-x,1/2-y,1/2+z
1/2-x,1/2+y,1/2+z
1/2+x,1/2-y,1/2+z
loop_
_atom_site_type_symbol
_atom_site_label
_atom_site_fract_x
_atom_site_fract_y
_atom_site_fract_z
Si Si1 0.476573 0.640882 0.155550
Si Si2 0.183817 0.372765 0.408687
Si Si3 0.597999 0.880666 0.363490
Si Si4 0.610635 0.984164 0.055472
Si Si5 0.687352 0.303392 0.072543
Si Si6 0.380668 0.190133 0.865954
Si Si7 0.101085 0.290427 0.167929
Si Si8 0.000000 0.000000 0.899328
O O1 0.431887 0.706871 0.235751
O O2 0.539819 0.671268 0.142895
O O3 0.473001 0.568827 0.286642
O O4 0.456698 0.608677 0.978980
O O5 0.250000 0.385496 0.362164
O O6 0.162108 0.454068 0.509035
O O7 0.174969 0.292153 0.520694
O O8 0.145140 0.356405 0.248827
O O9 0.607375 0.961026 0.246297
O O10 0.652045 0.873818 0.477874
O O11 0.591335 0.793736 0.268773
O O12 0.616555 0.897317 0.960324
O O13 0.551755 0.031415 0.011613
O O14 0.750000 0.329977 0.032233
O O15 0.676663 0.309629 0.263563
O O16 0.376406 0.267426 0.990508
#
# Coordination Sequence:
#
# PCOD8182763 Si02
#       8
#     8   8   8   8   8   8   8   4
#     4  10  18  34  53  81 116 148 183 232 288 349
#     4  10  21  37  58  81 112 151 188 229 285 336
#     4   9  20  34  56  83 109 145 195 230 285 343
#     4  10  20  38  54  83 114 144 191 232 280 343
#     4   9  19  38  56  77 109 147 188 237 280 329
#     4   9  20  34  56  82 109 145 190 230 285 339
#     4  10  18  35  57  82 111 145 186 239 279 339
#     4  10  20  34  54  78 118 152 174 234 290 336
#
# _framework density 19.257681999999999
#
# number of rings (size 3 to 8) (size 9 to 14) (size 15 to 20)
#    0.000    2.400    1.333    0.800    0.000    2.133 
#    7.200    2.667    0.000    0.000    0.000    0.000 
#    0.000    0.000    0.000    0.000    0.000    0.000 
#
# Total GULP energy -371750.574831 kJ/mol
# GULP energy per Si atom -12391.685828 kJ/mol
# Density = 1.921385 g / cm^3
# Si number density = 19.257682 Si / 1000 Ang^3
#
#
#
# Elastic Constant Matrix: (Units=GPa)
#
#
# Indices 1 2 3 4 5 6 
#
# 1 115.2362 35.0666 53.1526 0.0000 0.0000 0.0000
# 2 35.0666 43.3233 36.8149 0.0000 0.0000 0.0000
# 3 53.1526 36.8149 136.6333 0.0000 0.0000 0.0000
# 4 0.0000 0.0000 0.0000 40.8979 0.0000 0.0000
# 5 0.0000 0.0000 0.0000 0.0000 37.6913 0.0000
# 6 0.0000 0.0000 0.0000 0.0000 0.0000 26.9447
#
#
#
# Elastic Compliance Matrix: (Units=1/GPa)
#
#
# Indices 1 2 3 4 5 6 
#
# 1 0.012244 -0.007604 -0.002714 0.000000 0.000000 0.000000
# 2 -0.007604 0.034659 -0.006381 0.000000 0.000000 0.000000
# 3 -0.002714 -0.006381 0.010094 0.000000 0.000000 0.000000
# 4 0.000000 0.000000 0.000000 0.024451 0.000000 0.000000
# 5 0.000000 0.000000 0.000000 0.000000 0.026531 0.000000
# 6 0.000000 0.000000 0.000000 0.000000 0.000000 0.037113
#
#
# Mechanical properties :
#
#
# Convention : Reuss Voigt Hill
#
# Bulk Modulus (GPa) = 42.37402 60.58458 51.47930
# Shear Modulus (GPa) = 26.83044 32.45069 29.64057
#
# Velocity S-wave (km/s) = 3.73665 4.10942 3.92746
# Velocity P-wave (km/s) = 6.37717 7.35151 6.88160
#
# Compressibility (1/GPa) = 0.02359936
#
# Stress axis : x y z
#
# Youngs Moduli (GPa) = 81.67552 28.85258 99.06939
#
# Poissons Ratio (x) = 0.21939 0.26889
# Poissons Ratio (y) = 0.62104 0.63213
# Poissons Ratio (z) = 0.22168 0.18410
#
# Static dielectric constant tensor:
#      x y z
#    x 2.167730 0.000000 0.000000 
#    y 0.000000 2.607380 0.000000 
#    z 0.000000 0.000000 3.786720 
# 
# 
# High freq. dielectric constant tensor:
#      x y z
#    x 1.752410 0.000000 0.000000 
#    y 0.000000 1.724250 0.000000 
#    z 0.000000 0.000000 1.756930 
# 
# From -- ./inp_files/8871.got.cif
#   From: 2010.03.12/outbox.cif.g09.slc.cpg/sg40_5_cif.got.tgz:8871.got - 2010.04.14 01:38:03.
