data_PCOD8182296
_publ_section_title
;
Structure prediction by ZEFSAII (Michael W. Deem and Ramdas Pophale) SiO2 
 PCOD8182296
Probable space group: A B M 2
;
_chemical_formula_sum "Si O2"
_cell_formula_units_Z 40
_cell_length_a 7.466941
_cell_length_b 22.826902
_cell_length_c 9.287209
_cell_angle_alpha 90.000000
_cell_angle_beta 90.000000
_cell_angle_gamma 90.000000
_cell_volume 1582.978124
_symmetry_space_group_name_H-M "A B M 2"
_symmetry_group_IT_number 39
_symmetry_cell_setting 'orthorhombic'
loop_
_space_group_symop_operation_xyz
x,y,z
-x,-y,z
-x,1/2+y,z
x,1/2-y,z
x,1/2+y,1/2+z
-x,1/2-y,1/2+z
-x,y,1/2+z
x,-y,1/2+z
loop_
_atom_site_type_symbol
_atom_site_label
_atom_site_fract_x
_atom_site_fract_y
_atom_site_fract_z
Si Si1 0.254065 0.250000 0.854250
Si Si2 0.332903 0.627995 0.734467
Si Si3 0.894507 0.060916 0.140597
Si Si4 0.519379 0.935718 0.486615
Si Si5 0.539770 0.750000 0.132001
Si Si6 0.957393 0.130246 0.391366
O O1 0.331440 0.250000 0.688707
O O2 0.128201 0.305520 0.885404
O O3 0.431185 0.250000 0.958545
O O4 0.363382 0.585744 0.595579
O O5 0.360996 0.694393 0.693549
O O6 0.138068 0.622543 0.799540
O O7 0.475180 0.611419 0.858667
O O8 0.706959 0.056898 0.065221
O O9 0.840410 0.082995 0.301728
O O10 0.015156 0.110148 0.055698
O O11 0.000000 0.000000 0.146377
O O12 0.500000 0.000000 0.418464
#
# Coordination Sequence:
#
# PCOD8182296 Si02
#       6
#     4   8   8   8   4   8
#     4  12  27  48  74 102 137 176 226 282 343 418
#     4  11  24  44  70 100 137 182 232 284 343 404
#     4  11  24  42  67  99 139 184 232 286 344 405
#     4  11  24  41  66 101 139 182 233 287 342 404
#     4  12  25  44  72 102 137 178 224 282 341 408
#     4  11  25  45  70 101 137 182 230 282 341 408
#
# _framework density 25.268827999999999
#
# number of rings (size 3 to 8) (size 9 to 14) (size 15 to 20)
#    0.000    0.800    0.000    6.600    0.000   10.400 
#    0.000    1.000    0.000    0.000    0.000    0.000 
#    0.000    0.000    0.000    0.000    0.000    0.000 
#
# Total GULP energy -247882.671372 kJ/mol
# GULP energy per Si atom -12394.133569 kJ/mol
# Density = 2.521131 g / cm^3
# Si number density = 25.268828 Si / 1000 Ang^3
#
#
#
# Elastic Constant Matrix: (Units=GPa)
#
#
# Indices 1 2 3 4 5 6 
#
# 1 42.4056 7.4006 4.0563 0.0000 0.0000 0.0000
# 2 7.4006 158.3015 24.1628 0.0000 0.0000 0.0000
# 3 4.0563 24.1628 120.5170 0.0000 0.0000 0.0000
# 4 0.0000 0.0000 0.0000 37.5016 0.0000 0.0000
# 5 0.0000 0.0000 0.0000 0.0000 34.8963 0.0000
# 6 0.0000 0.0000 0.0000 0.0000 0.0000 28.5622
#
#
#
# Elastic Compliance Matrix: (Units=1/GPa)
#
#
# Indices 1 2 3 4 5 6 
#
# 1 0.023817 -0.001022 -0.000597 0.000000 0.000000 0.000000
# 2 -0.001022 0.006560 -0.001281 0.000000 0.000000 0.000000
# 3 -0.000597 -0.001281 0.008574 0.000000 0.000000 0.000000
# 4 0.000000 0.000000 0.000000 0.026666 0.000000 0.000000
# 5 0.000000 0.000000 0.000000 0.000000 0.028656 0.000000
# 6 0.000000 0.000000 0.000000 0.000000 0.000000 0.035011
#
#
# Mechanical properties :
#
#
# Convention : Reuss Voigt Hill
#
# Bulk Modulus (GPa) = 30.16383 43.60704 36.88543
# Shear Modulus (GPa) = 34.21471 39.23230 36.72350
#
# Velocity S-wave (km/s) = 3.68370 3.94458 3.81637
# Velocity P-wave (km/s) = 5.48233 6.16773 5.83511
#
# Compressibility (1/GPa) = 0.03315229
#
# Stress axis : x y z
#
# Youngs Moduli (GPa) = 41.98628 152.43040 116.62515
#
# Poissons Ratio (x) = 0.15584 0.06958
# Poissons Ratio (y) = 0.04293 0.14938
# Poissons Ratio (z) = 0.02505 0.19525
#
# Static dielectric constant tensor:
#      x y z
#    x 4.729760 0.000000 0.000000 
#    y 0.000000 4.563640 0.000000 
#    z 0.000000 0.000000 5.268810 
# 
# 
# High freq. dielectric constant tensor:
#      x y z
#    x 2.023480 0.000000 0.000000 
#    y 0.000000 2.015820 0.000000 
#    z 0.000000 0.000000 2.025910 
# 
# From -- ./inp_files/2134.got.cif
#   From: 2010.03.12/outbox.cif.g09.slc.cpg/sg39_2_cif.got.tgz:2134.got - 2010.04.14 02:53:20.
