data_PCOD8182311
_publ_section_title
;
Structure prediction by ZEFSAII (Michael W. Deem and Ramdas Pophale) SiO2 
 PCOD8182311
Probable space group: A B M 2
;
_chemical_formula_sum "Si O2"
_cell_formula_units_Z 24
_cell_length_a 4.970132
_cell_length_b 17.870449
_cell_length_c 9.921549
_cell_angle_alpha 90.000000
_cell_angle_beta 90.000000
_cell_angle_gamma 90.000000
_cell_volume 881.217005
_symmetry_space_group_name_H-M "A B M 2"
_symmetry_group_IT_number 39
_symmetry_cell_setting 'orthorhombic'
loop_
_space_group_symop_operation_xyz
x,y,z
-x,-y,z
-x,1/2+y,z
x,1/2-y,z
x,1/2+y,1/2+z
-x,1/2-y,1/2+z
-x,y,1/2+z
x,-y,1/2+z
loop_
_atom_site_type_symbol
_atom_site_label
_atom_site_fract_x
_atom_site_fract_y
_atom_site_fract_z
Si Si1 0.000000 0.500000 0.945811
Si Si2 0.330870 0.123543 0.796622
Si Si3 0.952538 0.250000 0.142386
Si Si4 0.671056 0.250000 0.878568
Si Si5 0.500000 0.500000 0.627826
O O1 0.903931 0.572145 0.860955
O O2 0.752625 0.476120 0.039034
O O3 0.198629 0.175350 0.684859
O O4 0.488221 0.175923 0.904912
O O5 0.555421 0.070615 0.725844
O O6 0.241117 0.250000 0.218977
O O7 0.936020 0.250000 0.976933
#
# Coordination Sequence:
#
# PCOD8182311 Si02
#       5
#     4   8   4   4   4
#     4  12  28  48  86 118 172 226 288 358 440 514
#     4  11  28  51  78 125 171 225 295 364 434 526
#     4  11  28  48  85 114 170 228 294 356 440 517
#     4  11  28  54  83 128 170 234 294 368 438 531
#     4  12  28  48  82 122 172 222 290 358 438 516
#
# _framework density 27.235064000000001
#
# number of rings (size 3 to 8) (size 9 to 14) (size 15 to 20)
#    0.000    0.667    0.000    4.000   18.667    5.333 
#    0.000    0.000    0.000    0.000    0.000    0.000 
#    0.000    0.000    0.000    0.000    0.000    0.000 
#
# Total GULP energy -148714.550760 kJ/mol
# GULP energy per Si atom -12392.879230 kJ/mol
# Density = 2.717308 g / cm^3
# Si number density = 27.235064 Si / 1000 Ang^3
#
#
#
# Elastic Constant Matrix: (Units=GPa)
#
#
# Indices 1 2 3 4 5 6 
#
# 1 141.9486 61.6806 58.6016 0.0000 0.0000 0.0000
# 2 61.6806 212.7373 66.9341 0.0000 0.0000 0.0000
# 3 58.6016 66.9341 124.9513 0.0000 0.0000 0.0000
# 4 0.0000 0.0000 0.0000 12.9715 0.0000 0.0000
# 5 0.0000 0.0000 0.0000 0.0000 48.8190 0.0000
# 6 0.0000 0.0000 0.0000 0.0000 0.0000 59.2856
#
#
#
# Elastic Compliance Matrix: (Units=1/GPa)
#
#
# Indices 1 2 3 4 5 6 
#
# 1 0.009151 -0.001567 -0.003452 0.000000 0.000000 0.000000
# 2 -0.001567 0.005922 -0.002437 0.000000 0.000000 0.000000
# 3 -0.003452 -0.002437 0.010928 0.000000 0.000000 0.000000
# 4 0.000000 0.000000 0.000000 0.077092 0.000000 0.000000
# 5 0.000000 0.000000 0.000000 0.000000 0.020484 0.000000
# 6 0.000000 0.000000 0.000000 0.000000 0.000000 0.016867
#
#
# Mechanical properties :
#
#
# Convention : Reuss Voigt Hill
#
# Bulk Modulus (GPa) = 90.19270 94.89665 92.54468
# Shear Modulus (GPa) = 31.43600 43.70994 37.57297
#
# Velocity S-wave (km/s) = 3.40111 4.01048 3.71830
# Velocity P-wave (km/s) = 6.97221 7.50763 7.24487
#
# Compressibility (1/GPa) = 0.01108737
#
# Stress axis : x y z
#
# Youngs Moduli (GPa) = 109.27818 168.86708 91.50913
#
# Poissons Ratio (x) = 0.26461 0.31592
# Poissons Ratio (y) = 0.17124 0.22304
# Poissons Ratio (z) = 0.37727 0.41158
#
# Static dielectric constant tensor:
#      x y z
#    x 4.798190 0.000000 0.000000 
#    y 0.000000 5.366470 0.000000 
#    z 0.000000 0.000000 5.011730 
# 
# 
# High freq. dielectric constant tensor:
#      x y z
#    x 2.089340 0.000000 0.000000 
#    y 0.000000 2.126000 0.000000 
#    z 0.000000 0.000000 2.087810 
# 
# From -- ./inp_files/4293.got.cif
#   From: 2010.03.12/outbox.cif.g09.slc.cpg/sg39_3_cif.got.tgz:4293.got - 2010.04.14 02:53:20.
