data_PCOD8182559
_publ_section_title
;
Structure prediction by ZEFSAII (Michael W. Deem and Ramdas Pophale) SiO2 
 PCOD8182559
Probable space group: A M A 2
;
_chemical_formula_sum "Si O2"
_cell_formula_units_Z 64
_cell_length_a 9.022255
_cell_length_b 22.164116
_cell_length_c 15.433413
_cell_angle_alpha 90.000000
_cell_angle_beta 90.000000
_cell_angle_gamma 90.000000
_cell_volume 3086.224326
_symmetry_space_group_name_H-M "A M A 2"
_symmetry_group_IT_number 40
_symmetry_cell_setting 'orthorhombic'
loop_
_space_group_symop_operation_xyz
x,y,z
-x,-y,z
1/2-x,y,z
1/2+x,-y,z
x,1/2+y,1/2+z
-x,1/2-y,1/2+z
1/2-x,1/2+y,1/2+z
1/2+x,1/2-y,1/2+z
loop_
_atom_site_type_symbol
_atom_site_label
_atom_site_fract_x
_atom_site_fract_y
_atom_site_fract_z
Si Si1 0.423480 0.437307 0.020970
Si Si2 0.577084 0.678526 0.255350
Si Si3 0.581168 0.770992 0.403748
Si Si4 0.581341 0.438763 0.502887
Si Si5 0.425421 0.064790 0.814993
Si Si6 0.577903 0.315645 0.086957
Si Si7 0.420649 0.563465 0.687385
Si Si8 0.417435 0.883119 0.341227
O O1 0.500000 0.500000 0.051191
O O2 0.250000 0.437548 0.047621
O O3 0.504019 0.380076 0.063877
O O4 0.440402 0.432399 0.916789
O O5 0.750000 0.671608 0.237809
O O6 0.547262 0.710845 0.347994
O O7 0.501038 0.612703 0.252167
O O8 0.502698 0.712270 0.172477
O O9 0.750000 0.792693 0.383768
O O10 0.561813 0.766264 0.508528
O O11 0.457402 0.817788 0.376025
O O12 0.500000 0.500000 0.518487
O O13 0.750000 0.457373 0.492327
O O14 0.533928 0.409121 0.411838
O O15 0.553737 0.402904 0.593257
O O16 0.250000 0.060484 0.797535
O O17 0.500000 0.000000 0.799825
O O18 0.750000 0.327208 0.107335
O O19 0.500000 0.500000 0.696170
O O20 0.250000 0.550001 0.703080
O O21 0.476332 0.607801 0.760413
O O22 0.250000 0.883225 0.307820
#
# Coordination Sequence:
#
# PCOD8182559 Si02
#       8
#     8   8   8   8   8   8   8   8
#     4  10  20  34  54  83 118 155 195 239 293 352
#     4  11  23  41  64  91 120 154 193 239 294 351
#     4   9  21  42  63  82 114 154 193 240 295 345
#     4   8  16  30  48  71 104 144 185 229 279 332
#     4  10  20  37  60  87 118 153 192 238 290 348
#     4  10  21  40  64  88 117 154 196 244 292 344
#     4  10  18  29  47  73 110 151 195 242 293 348
#     4  10  20  33  52  79 111 149 196 245 294 346
#
# _framework density 20.737314000000001
#
# number of rings (size 3 to 8) (size 9 to 14) (size 15 to 20)
#    0.000    2.250    0.000    2.625    0.000    5.500 
#    2.250    2.500    0.000    0.000    0.000    0.000 
#    0.000    0.000    0.000    0.000    0.000    0.000 
#
# Total GULP energy -396429.181132 kJ/mol
# GULP energy per Si atom -12388.411910 kJ/mol
# Density = 2.069011 g / cm^3
# Si number density = 20.737314 Si / 1000 Ang^3
#
#
#
# Elastic Constant Matrix: (Units=GPa)
#
#
# Indices 1 2 3 4 5 6 
#
# 1 108.5842 34.1827 51.0964 0.0000 0.0000 0.0000
# 2 34.1827 59.8155 31.4851 0.0000 0.0000 0.0000
# 3 51.0964 31.4851 115.7483 0.0000 0.0000 0.0000
# 4 0.0000 0.0000 0.0000 23.4828 0.0000 0.0000
# 5 0.0000 0.0000 0.0000 0.0000 33.8855 0.0000
# 6 0.0000 0.0000 0.0000 0.0000 0.0000 25.6927
#
#
#
# Elastic Compliance Matrix: (Units=1/GPa)
#
#
# Indices 1 2 3 4 5 6 
#
# 1 0.012820 -0.005074 -0.004279 0.000000 0.000000 0.000000
# 2 -0.005074 0.021520 -0.003614 0.000000 0.000000 0.000000
# 3 -0.004279 -0.003614 0.011512 0.000000 0.000000 0.000000
# 4 0.000000 0.000000 0.000000 0.042584 0.000000 0.000000
# 5 0.000000 0.000000 0.000000 0.000000 0.029511 0.000000
# 6 0.000000 0.000000 0.000000 0.000000 0.000000 0.038921
#
#
# Mechanical properties :
#
#
# Convention : Reuss Voigt Hill
#
# Bulk Modulus (GPa) = 50.20674 57.51959 53.86317
# Shear Modulus (GPa) = 26.39325 27.77113 27.08219
#
# Velocity S-wave (km/s) = 3.57142 3.66346 3.61773
# Velocity P-wave (km/s) = 6.42418 6.75959 6.59402
#
# Compressibility (1/GPa) = 0.01991764
#
# Stress axis : x y z
#
# Youngs Moduli (GPa) = 78.00019 46.46858 86.86946
#
# Poissons Ratio (x) = 0.23578 0.37174
# Poissons Ratio (y) = 0.39577 0.31393
# Poissons Ratio (z) = 0.33379 0.16793
#
# Static dielectric constant tensor:
#      x y z
#    x 3.792180 0.000000 0.000000 
#    y 0.000000 3.277160 0.000000 
#    z 0.000000 0.000000 4.337340 
# 
# 
# High freq. dielectric constant tensor:
#      x y z
#    x 1.824150 0.000000 0.000000 
#    y 0.000000 1.767110 0.000000 
#    z 0.000000 0.000000 1.832460 
# 
# From -- ./inp_files/15642.got.cif
#   From: 2010.03.12/outbox.cif.g09.slc.cpg/sg40_8_cif.got.tgz:15642.got - 2010.04.14 01:38:03.
