data_PCOD8182476
_publ_section_title
;
Structure prediction by ZEFSAII (Michael W. Deem and Ramdas Pophale) SiO2 
 PCOD8182476
Probable space group: A M A 2
;
_chemical_formula_sum "Si O2"
_cell_formula_units_Z 64
_cell_length_a 8.642279
_cell_length_b 26.260052
_cell_length_c 18.587900
_cell_angle_alpha 90.000000
_cell_angle_beta 90.000000
_cell_angle_gamma 90.000000
_cell_volume 4218.462489
_symmetry_space_group_name_H-M "A M A 2"
_symmetry_group_IT_number 40
_symmetry_cell_setting 'orthorhombic'
loop_
_space_group_symop_operation_xyz
x,y,z
-x,-y,z
1/2-x,y,z
1/2+x,-y,z
x,1/2+y,1/2+z
-x,1/2-y,1/2+z
1/2-x,1/2+y,1/2+z
1/2+x,1/2-y,1/2+z
loop_
_atom_site_type_symbol
_atom_site_label
_atom_site_fract_x
_atom_site_fract_y
_atom_site_fract_z
Si Si1 0.566760 0.742004 0.702410
Si Si2 0.427304 0.643737 0.776185
Si Si3 0.570665 0.243493 0.043314
Si Si4 0.431303 0.445978 0.695986
Si Si5 0.430738 0.355902 0.458352
Si Si6 0.927371 0.291188 0.903693
Si Si7 0.067868 0.554438 0.543570
Si Si8 0.573411 0.302543 0.334300
O O1 0.750000 0.730345 0.704695
O O2 0.476891 0.692887 0.731016
O O3 0.499506 0.752972 0.622239
O O4 0.530629 0.792756 0.750113
O O5 0.250000 0.631007 0.757923
O O6 0.531061 0.595256 0.757075
O O7 0.448051 0.655048 0.862298
O O8 0.750000 0.235129 0.056030
O O9 0.507715 0.191866 0.005731
O O10 0.539786 0.292094 0.990075
O O11 0.500000 0.500000 0.720077
O O12 0.250000 0.451891 0.686636
O O13 0.500966 0.427294 0.620207
O O14 0.250000 0.365799 0.468044
O O15 0.522822 0.405669 0.482282
O O16 0.467752 0.344769 0.373978
O O17 0.750000 0.271123 0.891843
O O18 0.049319 0.252338 0.870374
O O19 0.250000 0.549730 0.550286
O O20 0.000000 0.500000 0.521238
O O21 0.750000 0.319866 0.343146
#
# Coordination Sequence:
#
# PCOD8182476 Si02
#       8
#     8   8   8   8   8   8   8   8
#     4   9  16  26  41  60  83 111 143 177 212 250
#     4  10  18  28  42  60  82 110 143 175 210 250
#     4   8  14  25  41  59  79 107 141 173 205 243
#     4  11  21  33  46  61  83 110 140 173 208 244
#     4  10  18  29  44  60  82 114 146 173 206 246
#     4   8  15  27  41  56  78 108 140 174 210 250
#     4  11  21  33  47  64  85 108 138 174 209 244
#     4   9  16  25  38  58  82 108 139 175 211 247
#
# _framework density 15.171404000000001
#
# number of rings (size 3 to 8) (size 9 to 14) (size 15 to 20)
#    0.000    2.500    0.000    5.625    0.000    2.000 
#    0.000    2.500    0.000    0.000    0.000    0.000 
#    0.000    1.000    0.000    5.500    0.000    2.875 
#
# Total GULP energy -396526.749700 kJ/mol
# GULP energy per Si atom -12391.460928 kJ/mol
# Density = 1.513687 g / cm^3
# Si number density = 15.171404 Si / 1000 Ang^3
#
#
#
# Elastic Constant Matrix: (Units=GPa)
#
#
# Indices 1 2 3 4 5 6 
#
# 1 74.6717 28.0017 25.9270 0.0000 0.0000 0.0000
# 2 28.0017 71.3148 47.8724 0.0000 0.0000 0.0000
# 3 25.9270 47.8724 107.1387 0.0000 0.0000 0.0000
# 4 0.0000 0.0000 0.0000 24.6016 0.0000 0.0000
# 5 0.0000 0.0000 0.0000 0.0000 18.0331 0.0000
# 6 0.0000 0.0000 0.0000 0.0000 0.0000 21.8194
#
#
#
# Elastic Compliance Matrix: (Units=1/GPa)
#
#
# Indices 1 2 3 4 5 6 
#
# 1 0.015873 -0.005220 -0.001509 0.000000 0.000000 0.000000
# 2 -0.005220 0.021747 -0.008454 0.000000 0.000000 0.000000
# 3 -0.001509 -0.008454 0.013476 0.000000 0.000000 0.000000
# 4 0.000000 0.000000 0.000000 0.040648 0.000000 0.000000
# 5 0.000000 0.000000 0.000000 0.000000 0.055454 0.000000
# 6 0.000000 0.000000 0.000000 0.000000 0.000000 0.045831
#
#
# Mechanical properties :
#
#
# Convention : Reuss Voigt Hill
#
# Bulk Modulus (GPa) = 48.23635 50.74747 49.49191
# Shear Modulus (GPa) = 21.71043 22.97909 22.34476
#
# Velocity S-wave (km/s) = 3.78697 3.89605 3.84190
# Velocity P-wave (km/s) = 7.14037 7.33219 7.23691
#
# Compressibility (1/GPa) = 0.02073125
#
# Stress axis : x y z
#
# Youngs Moduli (GPa) = 62.99908 45.98381 74.20440
#
# Poissons Ratio (x) = 0.24002 0.11197
# Poissons Ratio (y) = 0.32883 0.62732
# Poissons Ratio (z) = 0.09506 0.38874
#
# Static dielectric constant tensor:
#      x y z
#    x 2.920910 0.000000 0.000000 
#    y 0.000000 2.711350 0.000000 
#    z 0.000000 0.000000 3.253910 
# 
# 
# High freq. dielectric constant tensor:
#      x y z
#    x 1.587070 0.000000 0.000000 
#    y 0.000000 1.542130 0.000000 
#    z 0.000000 0.000000 1.574240 
# 
# From -- ./inp_files/22574.got.cif
#   From: 2010.03.12/outbox.cif.g09.slc.cpg/sg40_12_cif.got.tgz:22574.got - 2010.04.14 01:38:03.
