data_PCOD8182501
_publ_section_title
;
Structure prediction by ZEFSAII (Michael W. Deem and Ramdas Pophale) SiO2 
 PCOD8182501
Probable space group: A M A 2
;
_chemical_formula_sum "Si O2"
_cell_formula_units_Z 56
_cell_length_a 8.825672
_cell_length_b 13.648380
_cell_length_c 29.637354
_cell_angle_alpha 90.000000
_cell_angle_beta 90.000000
_cell_angle_gamma 90.000000
_cell_volume 3570.000824
_symmetry_space_group_name_H-M "A M A 2"
_symmetry_group_IT_number 40
_symmetry_cell_setting 'orthorhombic'
loop_
_space_group_symop_operation_xyz
x,y,z
-x,-y,z
1/2-x,y,z
1/2+x,-y,z
x,1/2+y,1/2+z
-x,1/2-y,1/2+z
1/2-x,1/2+y,1/2+z
1/2+x,1/2-y,1/2+z
loop_
_atom_site_type_symbol
_atom_site_label
_atom_site_fract_x
_atom_site_fract_y
_atom_site_fract_z
Si Si1 0.925752 0.398478 0.366260
Si Si2 0.574415 0.603742 0.099211
Si Si3 0.570831 0.702597 0.911676
Si Si4 0.069736 0.603536 0.827685
Si Si5 0.928049 0.606040 0.002321
Si Si6 0.070635 0.717104 0.278835
Si Si7 0.929358 0.607809 0.197265
O O1 0.750000 0.417105 0.369124
O O2 0.976409 0.314651 0.401631
O O3 0.972414 0.364968 0.315953
O O4 0.000000 0.500000 0.380062
O O5 0.500000 0.500000 0.099491
O O6 0.750000 0.583155 0.098061
O O7 0.534505 0.654497 0.147214
O O8 0.526984 0.655014 0.051411
O O9 0.750000 0.688210 0.903563
O O10 0.484430 0.630047 0.878018
O O11 0.518235 0.678574 0.962608
O O12 0.250000 0.599202 0.826174
O O13 0.000000 0.500000 0.813467
O O14 0.009471 0.681561 0.791426
O O15 0.750000 0.590724 0.998702
O O16 0.000000 0.500000 0.995571
O O17 0.250000 0.734048 0.276854
O O18 0.007827 0.682508 0.231083
O O19 0.750000 0.600943 0.206627
O O20 0.000000 0.500000 0.202687
#
# Coordination Sequence:
#
# PCOD8182501 Si02
#       7
#     8   8   8   8   8   8   8
#     4   9  18  30  43  60  84 112 142 178 215 254
#     4   8  15  26  40  60  86 115 146 179 217 263
#     4   9  18  31  45  64  89 117 150 184 220 261
#     4  11  21  33  48  66  90 118 147 180 219 262
#     4   9  16  27  43  62  87 117 147 180 218 260
#     4  10  20  33  47  65  88 115 149 184 220 263
#     4  10  18  28  43  65  92 120 150 183 222 267
#
# _framework density 15.68627
#
# number of rings (size 3 to 8) (size 9 to 14) (size 15 to 20)
#    0.000    2.571    0.000    3.857    0.000    6.286 
#    0.000    0.000    0.000    0.000    0.000    1.000 
#    0.000    2.286    0.000    0.000    0.000    0.000 
#
# Total GULP energy -346929.574869 kJ/mol
# GULP energy per Si atom -12390.341960 kJ/mol
# Density = 1.565057 g / cm^3
# Si number density = 15.686270 Si / 1000 Ang^3
#
#
#
# Elastic Constant Matrix: (Units=GPa)
#
#
# Indices 1 2 3 4 5 6 
#
# 1 60.2538 36.7623 42.2846 0.0000 0.0000 0.0000
# 2 36.7623 90.9600 58.2967 0.0000 0.0000 0.0000
# 3 42.2846 58.2967 152.9424 0.0000 0.0000 0.0000
# 4 0.0000 0.0000 0.0000 17.4193 0.0000 0.0000
# 5 0.0000 0.0000 0.0000 0.0000 21.6077 0.0000
# 6 0.0000 0.0000 0.0000 0.0000 0.0000 24.9374
#
#
#
# Elastic Compliance Matrix: (Units=1/GPa)
#
#
# Indices 1 2 3 4 5 6 
#
# 1 0.023606 -0.007090 -0.003824 0.000000 0.000000 0.000000
# 2 -0.007090 0.016677 -0.004397 0.000000 0.000000 0.000000
# 3 -0.003824 -0.004397 0.009272 0.000000 0.000000 0.000000
# 4 0.000000 0.000000 0.000000 0.057408 0.000000 0.000000
# 5 0.000000 0.000000 0.000000 0.000000 0.046280 0.000000
# 6 0.000000 0.000000 0.000000 0.000000 0.000000 0.040100
#
#
# Mechanical properties :
#
#
# Convention : Reuss Voigt Hill
#
# Bulk Modulus (GPa) = 52.81613 64.31593 58.56603
# Shear Modulus (GPa) = 21.71330 23.91371 22.81350
#
# Velocity S-wave (km/s) = 3.72455 3.90872 3.81775
# Velocity P-wave (km/s) = 7.22771 7.83972 7.53993
#
# Compressibility (1/GPa) = 0.01893361
#
# Stress axis : x y z
#
# Youngs Moduli (GPa) = 42.36287 59.96281 107.85723
#
# Poissons Ratio (x) = 0.42511 0.41245
# Poissons Ratio (y) = 0.30033 0.47421
# Poissons Ratio (z) = 0.16200 0.26364
#
# Static dielectric constant tensor:
#      x y z
#    x 3.036950 0.000000 0.000000 
#    y 0.000000 2.838940 0.000000 
#    z 0.000000 0.000000 3.569260 
# 
# 
# High freq. dielectric constant tensor:
#      x y z
#    x 1.610570 0.000000 0.000000 
#    y 0.000000 1.567800 0.000000 
#    z 0.000000 0.000000 1.608970 
# 
# From -- ./inp_files/26412.got.cif
#   From: 2010.03.12/outbox.cif.g09.slc.cpg/sg40_14_cif.got.tgz:26412.got - 2010.04.14 01:38:03.
