data_PCOD8182640
_publ_section_title
;
Structure prediction by ZEFSAII (Michael W. Deem and Ramdas Pophale) SiO2 
 PCOD8182640
Probable space group: A M A 2
;
_chemical_formula_sum "Si O2"
_cell_formula_units_Z 56
_cell_length_a 8.854485
_cell_length_b 18.922841
_cell_length_c 18.228327
_cell_angle_alpha 90.000000
_cell_angle_beta 90.000000
_cell_angle_gamma 90.000000
_cell_volume 3054.192860
_symmetry_space_group_name_H-M "A M A 2"
_symmetry_group_IT_number 40
_symmetry_cell_setting 'orthorhombic'
loop_
_space_group_symop_operation_xyz
x,y,z
-x,-y,z
1/2-x,y,z
1/2+x,-y,z
x,1/2+y,1/2+z
-x,1/2-y,1/2+z
1/2-x,1/2+y,1/2+z
1/2+x,1/2-y,1/2+z
loop_
_atom_site_type_symbol
_atom_site_label
_atom_site_fract_x
_atom_site_fract_y
_atom_site_fract_z
Si Si1 0.418014 0.841912 0.190190
Si Si2 0.925650 0.687844 0.854177
Si Si3 0.927565 0.931760 0.442283
Si Si4 0.918064 0.796525 0.596973
Si Si5 0.923940 0.288724 0.476732
Si Si6 0.928019 0.424226 0.564590
Si Si7 0.927980 0.069196 0.601802
O O1 0.250000 0.875296 0.194054
O O2 0.478725 0.820205 0.270282
O O3 0.412997 0.767994 0.150804
O O4 0.522334 0.896945 0.145542
O O5 0.750000 0.665874 0.863132
O O6 0.946647 0.767296 0.890299
O O7 0.038791 0.636448 0.895149
O O8 0.750000 0.942093 0.453729
O O9 0.011774 0.925112 0.519393
O O10 0.000000 0.000000 0.401460
O O11 0.750000 0.824788 0.579175
O O12 0.991641 0.772807 0.520680
O O13 0.013192 0.858176 0.638251
O O14 0.750000 0.284382 0.499914
O O15 0.980512 0.367506 0.501147
O O16 0.750000 0.434272 0.565043
O O17 0.000000 0.500000 0.545882
O O18 0.750000 0.063610 0.605940
O O19 0.000000 0.000000 0.640811
#
# Coordination Sequence:
#
# PCOD8182640 Si02
#       7
#     8   8   8   8   8   8   8
#     4   9  20  35  53  76 104 138 172 211 258 315
#     4  10  19  34  53  75 104 138 174 211 258 311
#     4  11  21  32  47  71 101 134 167 203 245 293
#     4  10  18  31  50  74 101 130 168 210 254 303
#     4   9  18  32  53  76  99 132 174 217 262 308
#     4  10  20  35  55  79 105 137 177 222 268 316
#     4  11  20  31  48  71  98 129 164 204 248 296
#
# _framework density 18.335450000000002
#
# number of rings (size 3 to 8) (size 9 to 14) (size 15 to 20)
#    0.000    2.000    1.429    4.286    0.000    2.286 
#    0.000    0.000    0.000    0.857    0.000    2.000 
#    0.000    0.000    0.000    0.000    0.000    0.000 
#
# Total GULP energy -346907.974510 kJ/mol
# GULP energy per Si atom -12389.570518 kJ/mol
# Density = 1.829372 g / cm^3
# Si number density = 18.335450 Si / 1000 Ang^3
#
#
#
# Elastic Constant Matrix: (Units=GPa)
#
#
# Indices 1 2 3 4 5 6 
#
# 1 99.3548 41.8534 5.0469 0.0000 0.0000 0.0000
# 2 41.8534 113.2372 21.8780 0.0000 0.0000 0.0000
# 3 5.0469 21.8780 54.2713 0.0000 0.0000 0.0000
# 4 0.0000 0.0000 0.0000 13.8705 0.0000 0.0000
# 5 0.0000 0.0000 0.0000 0.0000 15.9238 0.0000
# 6 0.0000 0.0000 0.0000 0.0000 0.0000 32.3778
#
#
#
# Elastic Compliance Matrix: (Units=1/GPa)
#
#
# Indices 1 2 3 4 5 6 
#
# 1 0.011947 -0.004556 0.000726 0.000000 0.000000 0.000000
# 2 -0.004556 0.011314 -0.004137 0.000000 0.000000 0.000000
# 3 0.000726 -0.004137 0.020026 0.000000 0.000000 0.000000
# 4 0.000000 0.000000 0.000000 0.072095 0.000000 0.000000
# 5 0.000000 0.000000 0.000000 0.000000 0.062799 0.000000
# 6 0.000000 0.000000 0.000000 0.000000 0.000000 0.030885
#
#
# Mechanical properties :
#
#
# Convention : Reuss Voigt Hill
#
# Bulk Modulus (GPa) = 36.55985 44.93554 40.74769
# Shear Modulus (GPa) = 21.35652 25.64011 23.49831
#
# Velocity S-wave (km/s) = 3.41657 3.74356 3.58380
# Velocity P-wave (km/s) = 5.96210 6.57620 6.27666
#
# Compressibility (1/GPa) = 0.02735241
#
# Stress axis : x y z
#
# Youngs Moduli (GPa) = 83.70086 88.38352 49.93419
#
# Poissons Ratio (x) = 0.40268 -0.03623
# Poissons Ratio (y) = 0.38134 0.20660
# Poissons Ratio (z) = -0.06073 0.36568
#
# Static dielectric constant tensor:
#      x y z
#    x 3.590730 0.000000 0.000000 
#    y 0.000000 4.108550 0.000000 
#    z 0.000000 0.000000 3.267160 
# 
# 
# High freq. dielectric constant tensor:
#      x y z
#    x 1.718800 0.000000 0.000000 
#    y 0.000000 1.720990 0.000000 
#    z 0.000000 0.000000 1.669320 
# 
# From -- ./inp_files/19506.got.cif
#   From: 2010.03.12/outbox.cif.g09.slc.cpg/sg40_10_cif.got.tgz:19506.got - 2010.04.14 01:38:03.
