data_PCOD8182567
_publ_section_title
;
Structure prediction by ZEFSAII (Michael W. Deem and Ramdas Pophale) SiO2 
 PCOD8182567
Probable space group: A M A 2
;
_chemical_formula_sum "Si O2"
_cell_formula_units_Z 64
_cell_length_a 9.362964
_cell_length_b 25.406156
_cell_length_c 13.840039
_cell_angle_alpha 90.000000
_cell_angle_beta 90.000000
_cell_angle_gamma 90.000000
_cell_volume 3292.225905
_symmetry_space_group_name_H-M "A M A 2"
_symmetry_group_IT_number 40
_symmetry_cell_setting 'orthorhombic'
loop_
_space_group_symop_operation_xyz
x,y,z
-x,-y,z
1/2-x,y,z
1/2+x,-y,z
x,1/2+y,1/2+z
-x,1/2-y,1/2+z
1/2-x,1/2+y,1/2+z
1/2+x,1/2-y,1/2+z
loop_
_atom_site_type_symbol
_atom_site_label
_atom_site_fract_x
_atom_site_fract_y
_atom_site_fract_z
Si Si1 0.097958 0.826168 0.204780
Si Si2 0.915062 0.748872 0.993451
Si Si3 0.091038 0.089205 0.142424
Si Si4 0.910777 0.732545 0.216270
Si Si5 0.081337 0.840735 0.889282
Si Si6 0.095235 0.859753 0.408690
Si Si7 0.085511 0.050678 0.356354
Si Si8 0.418097 0.552208 0.435625
O O1 0.250000 0.810108 0.157602
O O2 0.123494 0.864659 0.294424
O O3 0.006478 0.858754 0.126432
O O4 0.019206 0.776649 0.252115
O O5 0.750000 0.764700 0.974354
O O6 0.962277 0.698010 0.933178
O O7 0.015960 0.797770 0.964244
O O8 0.939920 0.728179 0.102265
O O9 0.250000 0.112531 0.142578
O O10 0.061583 0.058961 0.241819
O O11 0.067427 0.050804 0.052048
O O12 0.750000 0.751775 0.236282
O O13 0.939945 0.679734 0.278484
O O14 0.250000 0.848971 0.912341
O O15 0.996011 0.895709 0.894762
O O16 0.250000 0.870656 0.460706
O O17 0.973854 0.903268 0.427246
O O18 0.250000 0.043030 0.381407
O O19 0.000000 0.000000 0.389120
O O20 0.500000 0.500000 0.396540
O O21 0.250000 0.551476 0.404953
#
# Coordination Sequence:
#
# PCOD8182567 Si02
#       8
#     8   8   8   8   8   8   8   8
#     4  10  18  29  49  77 107 141 178 220 264 316
#     4  10  20  37  58  81 111 149 188 228 280 337
#     4   9  19  33  50  75 108 145 181 220 272 332
#     4  10  21  35  54  78 110 147 182 223 274 330
#     4  11  23  38  57  85 117 149 188 235 285 340
#     4   9  18  32  50  72 102 138 176 217 263 315
#     4  10  19  31  49  73 104 140 179 221 269 326
#     4  11  23  39  58  79 108 147 189 234 284 338
#
# _framework density 19.439736
#
# number of rings (size 3 to 8) (size 9 to 14) (size 15 to 20)
#    0.000    2.000    1.250    2.625    0.000    6.500 
#    0.000    0.000    0.000    0.750    0.000    0.000 
#    0.000    0.000    0.000    0.000    0.000    0.000 
#
# Total GULP energy -396441.168928 kJ/mol
# GULP energy per Si atom -12388.786529 kJ/mol
# Density = 1.939549 g / cm^3
# Si number density = 19.439736 Si / 1000 Ang^3
#
#
#
# Elastic Constant Matrix: (Units=GPa)
#
#
# Indices 1 2 3 4 5 6 
#
# 1 152.1769 91.2516 28.2972 0.0000 0.0000 0.0000
# 2 91.2516 137.1487 25.5113 0.0000 0.0000 0.0000
# 3 28.2972 25.5113 49.7630 0.0000 0.0000 0.0000
# 4 0.0000 0.0000 0.0000 22.7706 0.0000 0.0000
# 5 0.0000 0.0000 0.0000 0.0000 15.3755 0.0000
# 6 0.0000 0.0000 0.0000 0.0000 0.0000 39.7647
#
#
#
# Elastic Compliance Matrix: (Units=1/GPa)
#
#
# Indices 1 2 3 4 5 6 
#
# 1 0.011285 -0.006980 -0.002838 0.000000 0.000000 0.000000
# 2 -0.006980 0.012378 -0.002376 0.000000 0.000000 0.000000
# 3 -0.002838 -0.002376 0.022928 0.000000 0.000000 0.000000
# 4 0.000000 0.000000 0.000000 0.043916 0.000000 0.000000
# 5 0.000000 0.000000 0.000000 0.000000 0.065038 0.000000
# 6 0.000000 0.000000 0.000000 0.000000 0.000000 0.025148
#
#
# Mechanical properties :
#
#
# Convention : Reuss Voigt Hill
#
# Bulk Modulus (GPa) = 45.04512 69.91209 57.47860
# Shear Modulus (GPa) = 23.53131 28.51739 26.02435
#
# Velocity S-wave (km/s) = 3.48296 3.83425 3.66282
# Velocity P-wave (km/s) = 6.27668 7.45946 6.89348
#
# Compressibility (1/GPa) = 0.02219996
#
# Stress axis : x y z
#
# Youngs Moduli (GPa) = 88.61464 80.79034 43.61574
#
# Poissons Ratio (x) = 0.56394 0.12380
# Poissons Ratio (y) = 0.61856 0.10364
# Poissons Ratio (z) = 0.25153 0.19198
#
# Static dielectric constant tensor:
#      x y z
#    x 3.901160 0.000000 0.000000 
#    y 0.000000 3.429040 0.000000 
#    z 0.000000 0.000000 3.336490 
# 
# 
# High freq. dielectric constant tensor:
#      x y z
#    x 1.771850 0.000000 0.000000 
#    y 0.000000 1.746010 0.000000 
#    z 0.000000 0.000000 1.721700 
# 
# From -- ./inp_files/15624.got.cif
#   From: 2010.03.12/outbox.cif.g09.slc.cpg/sg40_8_cif.got.tgz:15624.got - 2010.04.14 01:38:03.
