data_PCOD8182394
_publ_section_title
;
Structure prediction by ZEFSAII (Michael W. Deem and Ramdas Pophale) SiO2 
 PCOD8182394
Probable space group: A M A 2
;
_chemical_formula_sum "Si O2"
_cell_formula_units_Z 56
_cell_length_a 19.392006
_cell_length_b 17.063539
_cell_length_c 8.655833
_cell_angle_alpha 90.000000
_cell_angle_beta 90.000000
_cell_angle_gamma 90.000000
_cell_volume 2864.182686
_symmetry_space_group_name_H-M "A M A 2"
_symmetry_group_IT_number 40
_symmetry_cell_setting 'orthorhombic'
loop_
_space_group_symop_operation_xyz
x,y,z
-x,-y,z
1/2-x,y,z
1/2+x,-y,z
x,1/2+y,1/2+z
-x,1/2-y,1/2+z
1/2-x,1/2+y,1/2+z
1/2+x,1/2-y,1/2+z
loop_
_atom_site_type_symbol
_atom_site_label
_atom_site_fract_x
_atom_site_fract_y
_atom_site_fract_z
Si Si1 0.080375 0.410812 0.690600
Si Si2 0.073573 0.965885 0.863873
Si Si3 0.886372 0.869941 0.901655
Si Si4 0.980196 0.675204 0.227516
Si Si5 0.578927 0.912770 0.233720
Si Si6 0.328691 0.768269 0.223243
Si Si7 0.920300 0.790200 0.458566
O O1 0.100776 0.413841 0.508173
O O2 0.093958 0.496036 0.761976
O O3 0.126592 0.344353 0.775962
O O4 0.000907 0.388603 0.712280
O O5 0.062642 0.907741 0.716864
O O6 0.122009 0.041620 0.826253
O O7 0.000000 0.000000 0.924350
O O8 0.831530 0.805845 0.841148
O O9 0.959884 0.836382 0.852271
O O10 0.879516 0.879954 0.085575
O O11 0.931840 0.740891 0.301929
O O12 0.010031 0.700703 0.061939
O O13 0.604390 0.873981 0.393294
O O14 0.250000 0.794719 0.207130
O O15 0.357661 0.743019 0.057132
#
# Coordination Sequence:
#
# PCOD8182394 Si02
#       7
#     8   8   8   8   8   8   8
#     4  10  17  34  59  86 119 138 186 242 298 356
#     4   9  14  30  54  80 111 143 172 233 293 351
#     4   9  17  33  57  74 110 145 189 233 287 342
#     4  10  17  30  53  85 118 145 183 230 302 339
#     4  10  18  35  60  93 109 140 182 253 311 346
#     4  11  23  38  55  80 116 164 204 235 279 346
#     4  11  21  32  57  87 120 152 186 241 292 346
#
# _framework density 19.551825999999998
#
# number of rings (size 3 to 8) (size 9 to 14) (size 15 to 20)
#    0.000    2.000    5.714    2.571    0.000    0.000 
#   12.857    4.286    0.000    0.000    0.000    0.000 
#    0.000    0.000    0.000    0.000    0.000    0.000 
#
# Total GULP energy -346882.668679 kJ/mol
# GULP energy per Si atom -12388.666739 kJ/mol
# Density = 1.950732 g / cm^3
# Si number density = 19.551826 Si / 1000 Ang^3
#
#
#
# Elastic Constant Matrix: (Units=GPa)
#
#
# Indices 1 2 3 4 5 6 
#
# 1 61.3554 44.7566 13.4127 0.0000 0.0000 0.0000
# 2 44.7566 126.7907 44.0985 0.0000 0.0000 0.0000
# 3 13.4127 44.0985 63.5329 0.0000 0.0000 0.0000
# 4 0.0000 0.0000 0.0000 36.8538 0.0000 0.0000
# 5 0.0000 0.0000 0.0000 0.0000 10.5147 0.0000
# 6 0.0000 0.0000 0.0000 0.0000 0.0000 14.8458
#
#
#
# Elastic Compliance Matrix: (Units=1/GPa)
#
#
# Indices 1 2 3 4 5 6 
#
# 1 0.021997 -0.008107 0.000983 0.000000 0.000000 0.000000
# 2 -0.008107 0.013385 -0.007579 0.000000 0.000000 0.000000
# 3 0.000983 -0.007579 0.020793 0.000000 0.000000 0.000000
# 4 0.000000 0.000000 0.000000 0.027134 0.000000 0.000000
# 5 0.000000 0.000000 0.000000 0.000000 0.095105 0.000000
# 6 0.000000 0.000000 0.000000 0.000000 0.000000 0.067359
#
#
# Mechanical properties :
#
#
# Convention : Reuss Voigt Hill
#
# Bulk Modulus (GPa) = 37.35601 50.69053 44.02327
# Shear Modulus (GPa) = 17.59930 22.40359 20.00144
#
# Velocity S-wave (km/s) = 3.00348 3.38872 3.20190
# Velocity P-wave (km/s) = 5.58350 6.42602 6.01952
#
# Compressibility (1/GPa) = 0.02676946
#
# Stress axis : x y z
#
# Youngs Moduli (GPa) = 45.46021 74.71216 48.09332
#
# Poissons Ratio (x) = 0.60568 -0.04728
# Poissons Ratio (y) = 0.36854 0.36450
# Poissons Ratio (z) = -0.04469 0.56624
#
# Static dielectric constant tensor:
#      x y z
#    x 2.947540 0.000000 0.000000 
#    y 0.000000 4.152550 0.000000 
#    z 0.000000 0.000000 3.361530 
# 
# 
# High freq. dielectric constant tensor:
#      x y z
#    x 1.681030 0.000000 0.000000 
#    y 0.000000 1.795610 0.000000 
#    z 0.000000 0.000000 1.739600 
# 
# From -- ./inp_files/8404.got.cif
#   From: 2010.03.12/outbox.cif.g09.slc.cpg/sg40_5_cif.got.tgz:8404.got - 2010.04.14 01:38:03.
