data_PCOD8182379
_publ_section_title
;
Structure prediction by ZEFSAII (Michael W. Deem and Ramdas Pophale) SiO2 
 PCOD8182379
Probable space group: A M A 2
;
_chemical_formula_sum "Si O2"
_cell_formula_units_Z 64
_cell_length_a 17.934270
_cell_length_b 8.743607
_cell_length_c 20.896521
_cell_angle_alpha 90.000000
_cell_angle_beta 90.000000
_cell_angle_gamma 90.000000
_cell_volume 3276.787819
_symmetry_space_group_name_H-M "A M A 2"
_symmetry_group_IT_number 40
_symmetry_cell_setting 'orthorhombic'
loop_
_space_group_symop_operation_xyz
x,y,z
-x,-y,z
1/2-x,y,z
1/2+x,-y,z
x,1/2+y,1/2+z
-x,1/2-y,1/2+z
1/2-x,1/2+y,1/2+z
1/2+x,1/2-y,1/2+z
loop_
_atom_site_type_symbol
_atom_site_label
_atom_site_fract_x
_atom_site_fract_y
_atom_site_fract_z
Si Si1 0.834236 0.405716 0.518970
Si Si2 0.578440 0.921530 0.625663
Si Si3 0.336295 0.635162 0.380428
Si Si4 0.414016 0.951472 0.380108
Si Si5 0.419556 0.439211 0.630172
Si Si6 0.332394 0.083141 0.745813
Si Si7 0.663448 0.048400 0.508405
Si Si8 0.166444 0.448044 0.753875
O O1 0.750000 0.436419 0.542524
O O2 0.845266 0.462740 0.445493
O O3 0.890135 0.500024 0.562634
O O4 0.853390 0.226414 0.520517
O O5 0.573044 0.741324 0.628535
O O6 0.609503 0.982328 0.694124
O O7 0.500000 0.000000 0.611228
O O8 0.636040 0.957681 0.569970
O O9 0.250000 0.702174 0.378397
O O10 0.397835 0.769686 0.380533
O O11 0.349758 0.524937 0.318495
O O12 0.377489 0.017312 0.445171
O O13 0.377567 0.017908 0.314842
O O14 0.500000 0.000000 0.380027
O O15 0.500000 0.500000 0.645034
O O16 0.368273 0.504583 0.687056
O O17 0.250000 0.031608 0.723400
O O18 0.335838 0.265350 0.753502
O O19 0.750000 0.016349 0.498814
O O20 0.250000 0.511872 0.757358
#
# Coordination Sequence:
#
# PCOD8182379 Si02
#       8
#     8   8   8   8   8   8   8   8
#     4   9  18  34  57  81 105 137 177 220 263 313
#     4  11  22  35  52  77 109 141 174 219 270 320
#     4   8  15  31  54  77 102 136 180 222 262 312
#     4  10  17  27  48  78 109 138 171 214 262 313
#     4  11  22  35  53  77 106 140 178 222 271 317
#     4   8  15  30  53  77  99 131 175 218 259 311
#     4  10  20  35  55  78 106 142 180 217 262 317
#     4   9  17  31  51  75 102 135 178 220 259 309
#
# _framework density 19.531320999999998
#
# number of rings (size 3 to 8) (size 9 to 14) (size 15 to 20)
#    0.000    2.500    0.000    4.875    0.000    2.500 
#    0.000    0.625    0.000    6.000    0.000    3.500 
#    0.000    0.000    0.000    0.000    0.000    0.000 
#
# Total GULP energy -396588.778023 kJ/mol
# GULP energy per Si atom -12393.399313 kJ/mol
# Density = 1.948687 g / cm^3
# Si number density = 19.531321 Si / 1000 Ang^3
#
#
#
# Elastic Constant Matrix: (Units=GPa)
#
#
# Indices 1 2 3 4 5 6 
#
# 1 137.9570 32.2749 70.6402 0.0000 0.0000 0.0000
# 2 32.2749 33.0775 31.3631 0.0000 0.0000 0.0000
# 3 70.6402 31.3631 173.3679 0.0000 0.0000 0.0000
# 4 0.0000 0.0000 0.0000 -24.2729 0.0000 0.0000
# 5 0.0000 0.0000 0.0000 0.0000 33.0526 0.0000
# 6 0.0000 0.0000 0.0000 0.0000 0.0000 7.3140
#
#
#
# Elastic Compliance Matrix: (Units=1/GPa)
#
#
# Indices 1 2 3 4 5 6 
#
# 1 0.010493 -0.007465 -0.002925 0.000000 0.000000 0.000000
# 2 -0.007465 0.041802 -0.004521 0.000000 0.000000 0.000000
# 3 -0.002925 -0.004521 0.007778 0.000000 0.000000 0.000000
# 4 0.000000 0.000000 0.000000 -0.041198 0.000000 0.000000
# 5 0.000000 0.000000 0.000000 0.000000 0.030255 0.000000
# 6 0.000000 0.000000 0.000000 0.000000 0.000000 0.136724
#
#
# Mechanical properties :
#
#
# Convention : Reuss Voigt Hill
#
# Bulk Modulus (GPa) = 33.05592 68.10652 50.58122
# Shear Modulus (GPa) = 22.14769 17.22703 19.68736
#
# Velocity S-wave (km/s) = 3.37108 2.97311 3.17833
# Velocity P-wave (km/s) = 5.66688 6.83607 6.27875
#
# Compressibility (1/GPa) = 0.03025177
#
# Stress axis : x y z
#
# Youngs Moduli (GPa) = 95.30429 23.92230 128.57332
#
# Poissons Ratio (x) = 0.17857 0.37607
# Poissons Ratio (y) = 0.71143 0.58123
# Poissons Ratio (z) = 0.27876 0.10814
#
# Static dielectric constant tensor:
#      x y z
#    x 3.562880 0.000000 0.000000 
#    y 0.000000 3.034660 0.000000 
#    z 0.000000 0.000000 4.163220 
# 
# 
# High freq. dielectric constant tensor:
#      x y z
#    x 1.761920 0.000000 0.000000 
#    y 0.000000 1.701230 0.000000 
#    z 0.000000 0.000000 1.792330 
# 
# From -- ./inp_files/23393.got.cif
#   From: 2010.03.12/outbox.cif.g09.slc.cpg/sg40_12_cif.got.tgz:23393.got - 2010.04.14 01:38:03.
