data_PCOD8182806
_publ_section_title
;
Structure prediction by ZEFSAII (Michael W. Deem and Ramdas Pophale) SiO2 
 PCOD8182806
Probable space group: A M A 2
;
_chemical_formula_sum "Si O2"
_cell_formula_units_Z 56
_cell_length_a 19.261000
_cell_length_b 15.848594
_cell_length_c 9.541346
_cell_angle_alpha 90.000000
_cell_angle_beta 90.000000
_cell_angle_gamma 90.000000
_cell_volume 2912.589076
_symmetry_space_group_name_H-M "A M A 2"
_symmetry_group_IT_number 40
_symmetry_cell_setting 'orthorhombic'
loop_
_space_group_symop_operation_xyz
x,y,z
-x,-y,z
1/2-x,y,z
1/2+x,-y,z
x,1/2+y,1/2+z
-x,1/2-y,1/2+z
1/2-x,1/2+y,1/2+z
1/2+x,1/2-y,1/2+z
loop_
_atom_site_type_symbol
_atom_site_label
_atom_site_fract_x
_atom_site_fract_y
_atom_site_fract_z
Si Si1 0.455113 0.611133 0.654840
Si Si2 0.587093 0.704631 0.225850
Si Si3 0.671105 0.625386 0.460280
Si Si4 0.398843 0.437957 0.728873
Si Si5 0.470047 0.592581 0.331548
Si Si6 0.826682 0.965098 0.766451
Si Si7 0.670678 0.591255 0.023214
O O1 0.418643 0.696787 0.698407
O O2 0.400579 0.535555 0.679656
O O3 0.523330 0.597022 0.749607
O O4 0.480640 0.612288 0.494531
O O5 0.629129 0.693994 0.370418
O O6 0.511753 0.660817 0.240096
O O7 0.627153 0.666079 0.093414
O O8 0.750000 0.656223 0.467896
O O9 0.641055 0.618757 0.615540
O O10 0.663905 0.535661 0.384830
O O11 0.358044 0.430921 0.872228
O O12 0.500000 0.500000 0.295951
O O13 0.388791 0.601668 0.288765
O O14 0.750000 0.922425 0.780856
O O15 0.834500 0.006335 0.614181
O O16 0.750000 0.622106 0.012931
#
# Coordination Sequence:
#
# PCOD8182806 Si02
#       7
#     8   8   8   8   8   8   8
#     4  11  23  38  60  95 123 150 213 264 304 360
#     4  11  23  38  64  88 123 161 201 260 309 365
#     4  10  18  36  62  86 115 161 203 240 303 367
#     4  11  21  39  63  88 123 160 206 257 304 365
#     4  12  18  40  65  92 115 161 214 256 300 377
#     4   9  18  35  61  87 115 156 205 244 294 369
#     4  10  22  39  59  91 125 158 201 252 312 368
#
# _framework density 19.226880999999999
#
# number of rings (size 3 to 8) (size 9 to 14) (size 15 to 20)
#    0.000    1.429    7.143    1.714    2.000    2.286 
#    0.000    4.286    0.000    1.714    0.000    0.000 
#    0.000    0.000    0.000    0.000    0.000    0.000 
#
# Total GULP energy -347253.111462 kJ/mol
# GULP energy per Si atom -12401.896838 kJ/mol
# Density = 1.918312 g / cm^3
# Si number density = 19.226881 Si / 1000 Ang^3
#
#
#
# Elastic Constant Matrix: (Units=GPa)
#
#
# Indices 1 2 3 4 5 6 
#
# 1 137.1193 40.2113 34.1791 0.0000 0.0000 0.0000
# 2 40.2113 83.9357 19.3995 0.0000 0.0000 0.0000
# 3 34.1791 19.3995 106.2272 0.0000 0.0000 0.0000
# 4 0.0000 0.0000 0.0000 16.0033 0.0000 0.0000
# 5 0.0000 0.0000 0.0000 0.0000 33.0028 0.0000
# 6 0.0000 0.0000 0.0000 0.0000 0.0000 15.5141
#
#
#
# Elastic Compliance Matrix: (Units=1/GPa)
#
#
# Indices 1 2 3 4 5 6 
#
# 1 0.008947 -0.003781 -0.002188 0.000000 0.000000 0.000000
# 2 -0.003781 0.014036 -0.001347 0.000000 0.000000 0.000000
# 3 -0.002188 -0.001347 0.010364 0.000000 0.000000 0.000000
# 4 0.000000 0.000000 0.000000 0.062487 0.000000 0.000000
# 5 0.000000 0.000000 0.000000 0.000000 0.030300 0.000000
# 6 0.000000 0.000000 0.000000 0.000000 0.000000 0.064458
#
#
# Mechanical properties :
#
#
# Convention : Reuss Voigt Hill
#
# Bulk Modulus (GPa) = 53.43126 57.20690 55.31908
# Shear Modulus (GPa) = 23.64486 28.47020 26.05753
#
# Velocity S-wave (km/s) = 3.51063 3.85223 3.68539
# Velocity P-wave (km/s) = 6.65454 7.04304 6.85154
#
# Compressibility (1/GPa) = 0.01871564
#
# Stress axis : x y z
#
# Youngs Moduli (GPa) = 111.76842 71.24369 96.48893
#
# Poissons Ratio (x) = 0.26934 0.21115
# Poissons Ratio (y) = 0.42254 0.12997
# Poissons Ratio (z) = 0.24459 0.09596
#
# Static dielectric constant tensor:
#      x y z
#    x 3.808150 0.000000 0.000000 
#    y 0.000000 3.159020 0.000000 
#    z 0.000000 0.000000 3.466450 
# 
# 
# High freq. dielectric constant tensor:
#      x y z
#    x 1.765000 0.000000 0.000000 
#    y 0.000000 1.708500 0.000000 
#    z 0.000000 0.000000 1.749300 
# 
# From -- ./inp_files/8317.got.cif
#   From: 2010.03.12/outbox.cif.g09.slc.cpg/sg40_5_cif.got.tgz:8317.got - 2010.04.14 01:38:03.
