data_PCOD8182307
_publ_section_title
;
Structure prediction by ZEFSAII (Michael W. Deem and Ramdas Pophale) SiO2 
 PCOD8182307
Probable space group: A B M 2
;
_chemical_formula_sum "Si O2"
_cell_formula_units_Z 48
_cell_length_a 13.538460
_cell_length_b 9.293184
_cell_length_c 17.905723
_cell_angle_alpha 90.000000
_cell_angle_beta 90.000000
_cell_angle_gamma 90.000000
_cell_volume 2252.815699
_symmetry_space_group_name_H-M "A B M 2"
_symmetry_group_IT_number 39
_symmetry_cell_setting 'orthorhombic'
loop_
_space_group_symop_operation_xyz
x,y,z
-x,-y,z
-x,1/2+y,z
x,1/2-y,z
x,1/2+y,1/2+z
-x,1/2-y,1/2+z
-x,y,1/2+z
x,-y,1/2+z
loop_
_atom_site_type_symbol
_atom_site_label
_atom_site_fract_x
_atom_site_fract_y
_atom_site_fract_z
Si Si1 0.411131 0.413096 0.962050
Si Si2 0.848248 0.750000 0.483525
Si Si3 0.892911 0.250000 0.809694
Si Si4 0.599150 0.573309 0.308813
Si Si5 0.050672 0.250000 0.062492
Si Si6 0.214262 0.511397 0.719746
Si Si7 0.068939 0.250000 0.715092
Si Si8 0.778387 0.461634 0.551623
O O1 0.500000 0.500000 0.005162
O O2 0.444455 0.250000 0.937370
O O3 0.388031 0.519840 0.893366
O O4 0.313826 0.389101 0.010814
O O5 0.853085 0.750000 0.393944
O O6 0.787736 0.619590 0.518468
O O7 0.960528 0.750000 0.507104
O O8 0.852899 0.386551 0.767998
O O9 0.012073 0.250000 0.795430
O O10 0.500000 0.500000 0.276082
O O11 0.603006 0.750000 0.302101
O O12 0.684601 0.491614 0.263879
O O13 0.115565 0.112254 0.040315
O O14 0.013149 0.250000 0.148595
O O15 0.144057 0.378176 0.707035
O O16 0.246934 0.561570 0.638167
#
# Coordination Sequence:
#
# PCOD8182307 Si02
#       8
#     8   4   4   8   4   8   4   8
#     4  11  25  45  73 104 144 194 243 308 372 443
#     4  12  28  44  71 107 141 195 240 310 360 448
#     4  12  26  46  71 103 147 185 248 298 378 428
#     4  11  25  46  74 104 148 194 243 307 374 442
#     4  12  24  48  69 103 148 191 248 297 377 426
#     4  12  25  45  72 104 142 192 238 305 363 444
#     4  12  26  44  73 103 146 197 242 301 369 442
#     4  12  25  45  73 102 144 190 241 302 372 441
#
# _framework density 21.30667
#
# number of rings (size 3 to 8) (size 9 to 14) (size 15 to 20)
#    0.000    0.333    5.000    4.000    4.667    4.667 
#    0.000    0.000    0.000    0.000    0.000    0.000 
#    0.000    0.000    0.000    0.000    0.000    0.000 
#
# Total GULP energy -297329.163940 kJ/mol
# GULP energy per Si atom -12388.715164 kJ/mol
# Density = 2.125817 g / cm^3
# Si number density = 21.306670 Si / 1000 Ang^3
#
#
#
# Elastic Constant Matrix: (Units=GPa)
#
#
# Indices 1 2 3 4 5 6 
#
# 1 131.4043 23.2716 31.3109 0.0000 0.0000 0.0000
# 2 23.2716 106.0646 32.9638 0.0000 0.0000 0.0000
# 3 31.3109 32.9638 90.7253 0.0000 0.0000 0.0000
# 4 0.0000 0.0000 0.0000 -104.1865 0.0000 0.0000
# 5 0.0000 0.0000 0.0000 0.0000 49.4744 0.0000
# 6 0.0000 0.0000 0.0000 0.0000 0.0000 27.7096
#
#
#
# Elastic Compliance Matrix: (Units=1/GPa)
#
#
# Indices 1 2 3 4 5 6 
#
# 1 0.008397 -0.001062 -0.002512 0.000000 0.000000 0.000000
# 2 -0.001062 0.010763 -0.003544 0.000000 0.000000 0.000000
# 3 -0.002512 -0.003544 0.013177 0.000000 0.000000 0.000000
# 4 0.000000 0.000000 0.000000 -0.009598 0.000000 0.000000
# 5 0.000000 0.000000 0.000000 0.000000 0.020212 0.000000
# 6 0.000000 0.000000 0.000000 0.000000 0.000000 0.036089
#
#
# Mechanical properties :
#
#
# Convention : Reuss Voigt Hill
#
# Bulk Modulus (GPa) = 55.24653 55.92075 55.58364
# Shear Modulus (GPa) = 50.34827 10.64270 30.49548
#
# Velocity S-wave (km/s) = 4.86637 2.23738 3.78731
# Velocity P-wave (km/s) = 7.58689 5.74257 6.72823
#
# Compressibility (1/GPa) = 0.01810068
#
# Stress axis : x y z
#
# Youngs Moduli (GPa) = 119.09452 92.91436 75.89000
#
# Poissons Ratio (x) = 0.09863 0.19065
# Poissons Ratio (y) = 0.12643 0.26896
# Poissons Ratio (z) = 0.29918 0.32930
#
# Static dielectric constant tensor:
#      x y z
#    x 4.238450 0.000000 0.000000 
#    y 0.000000 5.720060 0.000000 
#    z 0.000000 0.000000 3.943200 
# 
# 
# High freq. dielectric constant tensor:
#      x y z
#    x 1.856930 0.000000 0.000000 
#    y 0.000000 1.851970 0.000000 
#    z 0.000000 0.000000 1.826440 
# 
# From -- ./inp_files/12710.got.cif
#   From: 2010.03.12/outbox.cif.g09.slc.cpg/sg39_7_cif.got.tgz:12710.got - 2010.04.14 02:53:20.
