data_PCOD8182353
_publ_section_title
;
Structure prediction by ZEFSAII (Michael W. Deem and Ramdas Pophale) SiO2 
 PCOD8182353
Probable space group: A M A 2
;
_chemical_formula_sum "Si O2"
_cell_formula_units_Z 56
_cell_length_a 8.897440
_cell_length_b 13.783940
_cell_length_c 29.582064
_cell_angle_alpha 90.000000
_cell_angle_beta 90.000000
_cell_angle_gamma 90.000000
_cell_volume 3627.996959
_symmetry_space_group_name_H-M "A M A 2"
_symmetry_group_IT_number 40
_symmetry_cell_setting 'orthorhombic'
loop_
_space_group_symop_operation_xyz
x,y,z
-x,-y,z
1/2-x,y,z
1/2+x,-y,z
x,1/2+y,1/2+z
-x,1/2-y,1/2+z
1/2-x,1/2+y,1/2+z
1/2+x,1/2-y,1/2+z
loop_
_atom_site_type_symbol
_atom_site_label
_atom_site_fract_x
_atom_site_fract_y
_atom_site_fract_z
Si Si1 0.071749 0.791877 0.201110
Si Si2 0.927741 0.101256 0.289804
Si Si3 0.425770 0.395990 0.613429
Si Si4 0.926185 0.604537 0.514537
Si Si5 0.072096 0.600800 0.247628
Si Si6 0.427962 0.706651 0.336148
Si Si7 0.929109 0.393706 0.426498
O O1 0.250000 0.791465 0.201570
O O2 0.016527 0.866652 0.239834
O O3 0.008841 0.824930 0.152205
O O4 0.016528 0.682878 0.212092
O O5 0.750000 0.089515 0.291031
O O6 0.982259 0.183743 0.325435
O O7 0.000000 0.000000 0.304134
O O8 0.500000 0.500000 0.618413
O O9 0.250000 0.412826 0.620482
O O10 0.455645 0.347181 0.563888
O O11 0.750000 0.596182 0.503975
O O12 0.000000 0.500000 0.517359
O O13 0.008691 0.658138 0.472527
O O14 0.250000 0.589576 0.246778
O O15 0.014596 0.632529 0.297471
O O16 0.000000 0.500000 0.232888
O O17 0.250000 0.705267 0.334798
O O18 0.486962 0.671964 0.384879
O O19 0.750000 0.401629 0.428064
O O20 0.000000 0.500000 0.421214
#
# Coordination Sequence:
#
# PCOD8182353 Si02
#       7
#     8   8   8   8   8   8   8
#     4   8  15  27  42  58  79 108 133 153 189 237
#     4   9  16  28  43  59  80 104 131 160 191 228
#     4   9  16  26  40  58  80 106 132 157 189 230
#     4   9  16  25  37  55  79 103 129 160 193 229
#     4   9  16  28  43  58  79 105 132 161 192 227
#     4   8  16  28  41  57  79 108 133 154 190 237
#     4  10  17  26  40  57  79 106 133 159 191 230
#
# _framework density 15.435515000000001
#
# number of rings (size 3 to 8) (size 9 to 14) (size 15 to 20)
#    0.000    3.143    0.000    4.286    0.000    0.571 
#    0.000    5.714    0.000    0.000    0.000    1.000 
#    0.000    6.857    0.000    0.000    0.000    0.000 
#
# Total GULP energy -346902.311267 kJ/mol
# GULP energy per Si atom -12389.368260 kJ/mol
# Density = 1.540038 g / cm^3
# Si number density = 15.435515 Si / 1000 Ang^3
#
#
#
# Elastic Constant Matrix: (Units=GPa)
#
#
# Indices 1 2 3 4 5 6 
#
# 1 38.9060 23.3104 32.4909 0.0000 0.0000 0.0000
# 2 23.3104 99.5984 63.2268 0.0000 0.0000 0.0000
# 3 32.4909 63.2268 154.8886 0.0000 0.0000 0.0000
# 4 0.0000 0.0000 0.0000 24.5108 0.0000 0.0000
# 5 0.0000 0.0000 0.0000 0.0000 61.4229 0.0000
# 6 0.0000 0.0000 0.0000 0.0000 0.0000 20.2585
#
#
#
# Elastic Compliance Matrix: (Units=1/GPa)
#
#
# Indices 1 2 3 4 5 6 
#
# 1 0.032550 -0.004432 -0.005019 0.000000 0.000000 0.000000
# 2 -0.004432 0.014156 -0.004849 0.000000 0.000000 0.000000
# 3 -0.005019 -0.004849 0.009488 0.000000 0.000000 0.000000
# 4 0.000000 0.000000 0.000000 0.040798 0.000000 0.000000
# 5 0.000000 0.000000 0.000000 0.000000 0.016281 0.000000
# 6 0.000000 0.000000 0.000000 0.000000 0.000000 0.049362
#
#
# Mechanical properties :
#
#
# Convention : Reuss Voigt Hill
#
# Bulk Modulus (GPa) = 36.23899 59.04992 47.64446
# Shear Modulus (GPa) = 24.94612 32.86276 28.90444
#
# Velocity S-wave (km/s) = 4.02450 4.61915 4.33204
# Velocity P-wave (km/s) = 6.71745 8.17237 7.48037
#
# Compressibility (1/GPa) = 0.02759459
#
# Stress axis : x y z
#
# Youngs Moduli (GPa) = 30.72228 70.64291 105.39256
#
# Poissons Ratio (x) = 0.31309 0.52894
# Poissons Ratio (y) = 0.13616 0.51102
# Poissons Ratio (z) = 0.15419 0.34253
#
# Static dielectric constant tensor:
#      x y z
#    x 2.714620 0.000000 0.000000 
#    y 0.000000 2.869120 0.000000 
#    z 0.000000 0.000000 3.752500 
# 
# 
# High freq. dielectric constant tensor:
#      x y z
#    x 1.575040 0.000000 0.000000 
#    y 0.000000 1.558950 0.000000 
#    z 0.000000 0.000000 1.598290 
# 
# From -- ./inp_files/26392.got.cif
#   From: 2010.03.12/outbox.cif.g09.slc.cpg/sg40_14_cif.got.tgz:26392.got - 2010.04.14 01:38:03.
