data_PCOD8182088
_publ_section_title
;
Structure prediction by ZEFSAII (Michael W. Deem and Ramdas Pophale) SiO2 
 PCOD8182088
Probable space group: A B M 2
;
_chemical_formula_sum "Si O2"
_cell_formula_units_Z 64
_cell_length_a 9.986076
_cell_length_b 26.402725
_cell_length_c 12.245163
_cell_angle_alpha 90.000000
_cell_angle_beta 90.000000
_cell_angle_gamma 90.000000
_cell_volume 3228.555005
_symmetry_space_group_name_H-M "A B M 2"
_symmetry_group_IT_number 39
_symmetry_cell_setting 'orthorhombic'
loop_
_space_group_symop_operation_xyz
x,y,z
-x,-y,z
-x,1/2+y,z
x,1/2-y,z
x,1/2+y,1/2+z
-x,1/2-y,1/2+z
-x,y,1/2+z
x,-y,1/2+z
loop_
_atom_site_type_symbol
_atom_site_label
_atom_site_fract_x
_atom_site_fract_y
_atom_site_fract_z
Si Si1 0.119862 0.461335 0.349540
Si Si2 0.380324 0.881450 0.172759
Si Si3 0.621459 0.608593 0.020680
Si Si4 0.774891 0.691607 0.332354
Si Si5 0.874385 0.382233 0.657188
Si Si6 0.866506 0.125377 0.019073
Si Si7 0.538684 0.190807 0.356392
Si Si8 0.627539 0.030989 0.333603
O O1 0.109072 0.428979 0.239338
O O2 0.113737 0.427762 0.458242
O O3 0.257241 0.491152 0.354452
O O4 0.000000 0.500000 0.352841
O O5 0.276020 0.871127 0.077637
O O6 0.394209 0.831300 0.246873
O O7 0.327123 0.928935 0.242333
O O8 0.525051 0.895105 0.124540
O O9 0.600483 0.662454 0.960871
O O10 0.588598 0.561497 0.942582
O O11 0.774538 0.603164 0.059287
O O12 0.807450 0.750000 0.320804
O O13 0.814675 0.666223 0.218476
O O14 0.866906 0.669926 0.429580
O O15 0.619638 0.680712 0.355772
O O16 0.016727 0.366831 0.606681
O O17 0.573510 0.250000 0.364727
O O18 0.500000 0.000000 0.292189
#
# Coordination Sequence:
#
# PCOD8182088 Si02
#       8
#     8   8   8   8   8   8   8   8
#     4  11  24  42  61  87 125 167 209 245 299 370
#     4  11  22  39  62  90 122 160 205 251 305 362
#     4  11  22  39  62  90 122 160 205 251 305 362
#     4  10  22  42  65  91 125 160 200 256 312 364
#     4  11  24  41  64  91 125 163 204 253 306 365
#     4  11  24  41  64  91 125 163 204 253 306 365
#     4  10  22  40  65  94 123 159 207 254 302 372
#     4  11  24  36  57  89 123 155 202 259 301 349
#
# _framework density 19.823108999999999
#
# number of rings (size 3 to 8) (size 9 to 14) (size 15 to 20)
#    0.000    1.250    2.500    3.000    3.500   11.000 
#    0.000    1.250    0.000    0.000    0.000    0.000 
#    0.000    0.000    0.000    0.000    0.000    0.000 
#
# Total GULP energy -397000.009753 kJ/mol
# GULP energy per Si atom -12406.250305 kJ/mol
# Density = 1.977799 g / cm^3
# Si number density = 19.823109 Si / 1000 Ang^3
#
#
#
# Elastic Constant Matrix: (Units=GPa)
#
#
# Indices 1 2 3 4 5 6 
#
# 1 90.6050 30.3153 16.0810 0.0000 0.0000 0.0000
# 2 30.3153 102.1756 33.2512 0.0000 0.0000 0.0000
# 3 16.0810 33.2512 86.5082 0.0000 0.0000 0.0000
# 4 0.0000 0.0000 0.0000 16.8727 0.0000 0.0000
# 5 0.0000 0.0000 0.0000 0.0000 38.9655 0.0000
# 6 0.0000 0.0000 0.0000 0.0000 0.0000 32.2787
#
#
#
# Elastic Compliance Matrix: (Units=1/GPa)
#
#
# Indices 1 2 3 4 5 6 
#
# 1 0.012330 -0.003329 -0.001013 0.000000 0.000000 0.000000
# 2 -0.003329 0.012085 -0.004026 0.000000 0.000000 0.000000
# 3 -0.001013 -0.004026 0.013295 0.000000 0.000000 0.000000
# 4 0.000000 0.000000 0.000000 0.059267 0.000000 0.000000
# 5 0.000000 0.000000 0.000000 0.000000 0.025664 0.000000
# 6 0.000000 0.000000 0.000000 0.000000 0.000000 0.030980
#
#
# Mechanical properties :
#
#
# Convention : Reuss Voigt Hill
#
# Bulk Modulus (GPa) = 47.67508 48.73155 48.20331
# Shear Modulus (GPa) = 28.19291 30.93280 29.56285
#
# Velocity S-wave (km/s) = 3.77533 3.95453 3.86597
# Velocity P-wave (km/s) = 6.56556 6.74445 6.65561
#
# Compressibility (1/GPa) = 0.02097532
#
# Stress axis : x y z
#
# Youngs Moduli (GPa) = 81.10005 82.74689 75.21383
#
# Poissons Ratio (x) = 0.27546 0.07616
# Poissons Ratio (y) = 0.26997 0.30284
# Poissons Ratio (z) = 0.08212 0.33317
#
# Static dielectric constant tensor:
#      x y z
#    x 3.516850 0.000000 0.000000 
#    y 0.000000 3.620890 0.000000 
#    z 0.000000 0.000000 3.674650 
# 
# 
# High freq. dielectric constant tensor:
#      x y z
#    x 1.774960 0.000000 0.000000 
#    y 0.000000 1.777340 0.000000 
#    z 0.000000 0.000000 1.785350 
# 
# From -- ./inp_files/5428.got.cif
#   From: 2010.03.12/outbox.cif.g09.slc.cpg/sg39_3_cif.got.tgz:5428.got - 2010.04.14 02:53:20.
