data_PCOD8182872
_publ_section_title
;
Structure prediction by ZEFSAII (Michael W. Deem and Ramdas Pophale) SiO2 
 PCOD8182872
Probable space group: A M A 2
;
_chemical_formula_sum "Si O2"
_cell_formula_units_Z 56
_cell_length_a 9.347983
_cell_length_b 19.097055
_cell_length_c 17.503019
_cell_angle_alpha 90.000000
_cell_angle_beta 90.000000
_cell_angle_gamma 90.000000
_cell_volume 3124.620495
_symmetry_space_group_name_H-M "A M A 2"
_symmetry_group_IT_number 40
_symmetry_cell_setting 'orthorhombic'
loop_
_space_group_symop_operation_xyz
x,y,z
-x,-y,z
1/2-x,y,z
1/2+x,-y,z
x,1/2+y,1/2+z
-x,1/2-y,1/2+z
1/2-x,1/2+y,1/2+z
1/2+x,1/2-y,1/2+z
loop_
_atom_site_type_symbol
_atom_site_label
_atom_site_fract_x
_atom_site_fract_y
_atom_site_fract_z
Si Si1 0.086849 0.347094 0.913370
Si Si2 0.084306 0.319528 0.741934
Si Si3 0.413251 0.207254 0.629717
Si Si4 0.906423 0.438652 0.492797
Si Si5 0.079457 0.072322 0.541887
Si Si6 0.087416 0.712317 0.507965
Si Si7 0.908456 0.437357 0.672157
O O1 0.250000 0.375961 0.919484
O O2 0.032346 0.339368 0.826772
O O3 0.080489 0.267577 0.940520
O O4 0.982177 0.397258 0.961908
O O5 0.250000 0.340230 0.732419
O O6 0.065313 0.236551 0.716953
O O7 0.988575 0.364440 0.684747
O O8 0.250000 0.213769 0.603837
O O9 0.458967 0.126629 0.611576
O O10 0.499598 0.261351 0.579256
O O11 0.750000 0.443766 0.454757
O O12 0.974207 0.361772 0.476974
O O13 0.895212 0.451028 0.582809
O O14 0.000000 0.500000 0.454398
O O15 0.250000 0.060209 0.533901
O O16 0.000000 0.000000 0.561850
O O17 0.250000 0.699233 0.536361
O O18 0.750000 0.436035 0.709351
O O19 0.000000 0.500000 0.710873
#
# Coordination Sequence:
#
# PCOD8182872 Si02
#       7
#     8   8   8   8   8   8   8
#     4   9  19  33  51  72  97 128 160 198 246 298
#     4  10  19  32  49  72  99 129 162 198 245 295
#     4   9  18  31  50  73  96 123 160 204 246 288
#     4   9  17  27  42  65  90 117 150 185 225 268
#     4  10  20  35  54  76 100 130 168 209 251 295
#     4   9  16  30  48  68  92 120 158 197 235 282
#     4  10  19  30  44  66  95 127 157 189 227 272
#
# _framework density 17.922176
#
# number of rings (size 3 to 8) (size 9 to 14) (size 15 to 20)
#    0.000    2.571    1.429    0.857    0.000    2.857 
#    0.000    0.000    0.000    0.857    0.000    0.000 
#    0.000    0.000    0.000    0.000    0.000    0.000 
#
# Total GULP energy -346885.411917 kJ/mol
# GULP energy per Si atom -12388.764711 kJ/mol
# Density = 1.788138 g / cm^3
# Si number density = 17.922176 Si / 1000 Ang^3
#
#
#
# Elastic Constant Matrix: (Units=GPa)
#
#
# Indices 1 2 3 4 5 6 
#
# 1 75.9710 51.4822 17.0767 0.0000 0.0000 0.0000
# 2 51.4822 135.3952 18.2994 0.0000 0.0000 0.0000
# 3 17.0767 18.2994 36.6076 0.0000 0.0000 0.0000
# 4 0.0000 0.0000 0.0000 15.0314 0.0000 0.0000
# 5 0.0000 0.0000 0.0000 0.0000 13.6954 0.0000
# 6 0.0000 0.0000 0.0000 0.0000 0.0000 29.3664
#
#
#
# Elastic Compliance Matrix: (Units=1/GPa)
#
#
# Indices 1 2 3 4 5 6 
#
# 1 0.018728 -0.006371 -0.005552 0.000000 0.000000 0.000000
# 2 -0.006371 0.010088 -0.002071 0.000000 0.000000 0.000000
# 3 -0.005552 -0.002071 0.030942 0.000000 0.000000 0.000000
# 4 0.000000 0.000000 0.000000 0.066527 0.000000 0.000000
# 5 0.000000 0.000000 0.000000 0.000000 0.073017 0.000000
# 6 0.000000 0.000000 0.000000 0.000000 0.000000 0.034052
#
#
# Mechanical properties :
#
#
# Convention : Reuss Voigt Hill
#
# Bulk Modulus (GPa) = 31.47524 46.85451 39.16487
# Shear Modulus (GPa) = 18.38698 22.35969 20.37334
#
# Velocity S-wave (km/s) = 3.20650 3.53597 3.37526
# Velocity P-wave (km/s) = 5.59546 6.54758 6.09015
#
# Compressibility (1/GPa) = 0.03177101
#
# Stress axis : x y z
#
# Youngs Moduli (GPa) = 53.39611 99.12695 32.31885
#
# Poissons Ratio (x) = 0.63151 0.17942
# Poissons Ratio (y) = 0.34017 0.06693
# Poissons Ratio (z) = 0.29644 0.20529
#
# Static dielectric constant tensor:
#      x y z
#    x 3.524190 0.000000 0.000000 
#    y 0.000000 3.531610 0.000000 
#    z 0.000000 0.000000 3.032510 
# 
# 
# High freq. dielectric constant tensor:
#      x y z
#    x 1.697820 0.000000 0.000000 
#    y 0.000000 1.702280 0.000000 
#    z 0.000000 0.000000 1.646060 
# 
# From -- ./inp_files/15339.got.cif
#   From: 2010.03.12/outbox.cif.g09.slc.cpg/sg40_8_cif.got.tgz:15339.got - 2010.04.14 01:38:03.
