data_PCOD8182544
_publ_section_title
;
Structure prediction by ZEFSAII (Michael W. Deem and Ramdas Pophale) SiO2 
 PCOD8182544
Probable space group: A M A 2
;
_chemical_formula_sum "Si O2"
_cell_formula_units_Z 56
_cell_length_a 9.108897
_cell_length_b 18.834958
_cell_length_c 18.321711
_cell_angle_alpha 90.000000
_cell_angle_beta 90.000000
_cell_angle_gamma 90.000000
_cell_volume 3143.377034
_symmetry_space_group_name_H-M "A M A 2"
_symmetry_group_IT_number 40
_symmetry_cell_setting 'orthorhombic'
loop_
_space_group_symop_operation_xyz
x,y,z
-x,-y,z
1/2-x,y,z
1/2+x,-y,z
x,1/2+y,1/2+z
-x,1/2-y,1/2+z
1/2-x,1/2+y,1/2+z
1/2+x,1/2-y,1/2+z
loop_
_atom_site_type_symbol
_atom_site_label
_atom_site_fract_x
_atom_site_fract_y
_atom_site_fract_z
Si Si1 0.585153 0.566617 0.776010
Si Si2 0.417022 0.431530 0.602940
Si Si3 0.914708 0.163166 0.516655
Si Si4 0.586493 0.796930 0.117052
Si Si5 0.423256 0.798385 0.359637
Si Si6 0.424347 0.075096 0.636085
Si Si7 0.577847 0.292645 0.232135
O O1 0.500000 0.500000 0.809636
O O2 0.750000 0.558031 0.803339
O O3 0.573458 0.567578 0.689651
O O4 0.518253 0.638912 0.807624
O O5 0.500000 0.500000 0.569971
O O6 0.250000 0.431064 0.574499
O O7 0.500703 0.360940 0.577214
O O8 0.750000 0.130371 0.507658
O O9 0.902433 0.235583 0.559038
O O10 0.990520 0.186271 0.439712
O O11 0.015624 0.106499 0.559628
O O12 0.750000 0.822334 0.140143
O O13 0.501361 0.768966 0.187301
O O14 0.250000 0.799425 0.369959
O O15 0.464322 0.723523 0.317768
O O16 0.250000 0.064873 0.629718
O O17 0.465713 0.128620 0.703440
O O18 0.500000 0.000000 0.653643
O O19 0.750000 0.280346 0.219441
#
# Coordination Sequence:
#
# PCOD8182544 Si02
#       7
#     8   8   8   8   8   8   8
#     4   9  17  28  43  64  92 122 152 186 224 269
#     4  10  18  29  46  68  93 123 157 196 235 278
#     4   9  19  33  51  73 100 131 164 202 246 300
#     4  10  18  29  46  71  98 126 159 199 243 289
#     4   9  16  31  51  71  96 129 167 203 243 291
#     4  10  20  34  54  76 102 133 170 213 256 304
#     4   9  17  32  53  73  93 128 170 208 251 294
#
# _framework density 17.815234
#
# number of rings (size 3 to 8) (size 9 to 14) (size 15 to 20)
#    0.000    2.571    1.429    1.286    0.000    2.286 
#    0.000    2.857    0.000    0.857    0.000    2.000 
#    0.000    0.000    0.000    0.000    0.000    0.000 
#
# Total GULP energy -346908.816839 kJ/mol
# GULP energy per Si atom -12389.600601 kJ/mol
# Density = 1.777469 g / cm^3
# Si number density = 17.815234 Si / 1000 Ang^3
#
#
#
# Elastic Constant Matrix: (Units=GPa)
#
#
# Indices 1 2 3 4 5 6 
#
# 1 70.6653 38.8516 11.1703 0.0000 0.0000 0.0000
# 2 38.8516 103.1478 27.0152 0.0000 0.0000 0.0000
# 3 11.1703 27.0152 67.5607 0.0000 0.0000 0.0000
# 4 0.0000 0.0000 0.0000 13.6449 0.0000 0.0000
# 5 0.0000 0.0000 0.0000 0.0000 14.0935 0.0000
# 6 0.0000 0.0000 0.0000 0.0000 0.0000 31.8279
#
#
#
# Elastic Compliance Matrix: (Units=1/GPa)
#
#
# Indices 1 2 3 4 5 6 
#
# 1 0.017852 -0.006647 -0.000294 0.000000 0.000000 0.000000
# 2 -0.006647 0.013304 -0.004221 0.000000 0.000000 0.000000
# 3 -0.000294 -0.004221 0.016538 0.000000 0.000000 0.000000
# 4 0.000000 0.000000 0.000000 0.073288 0.000000 0.000000
# 5 0.000000 0.000000 0.000000 0.000000 0.070955 0.000000
# 6 0.000000 0.000000 0.000000 0.000000 0.000000 0.031419
#
#
# Mechanical properties :
#
#
# Convention : Reuss Voigt Hill
#
# Bulk Modulus (GPa) = 39.41554 43.93866 41.67710
# Shear Modulus (GPa) = 19.67452 22.86904 21.27178
#
# Velocity S-wave (km/s) = 3.32680 3.58673 3.45921
# Velocity P-wave (km/s) = 6.07696 6.47070 6.27692
#
# Compressibility (1/GPa) = 0.02537070
#
# Stress axis : x y z
#
# Youngs Moduli (GPa) = 56.01510 75.16495 60.46756
#
# Poissons Ratio (x) = 0.49965 0.01775
# Poissons Ratio (y) = 0.37235 0.25522
# Poissons Ratio (z) = 0.01645 0.31725
#
# Static dielectric constant tensor:
#      x y z
#    x 3.399660 0.000000 0.000000 
#    y 0.000000 3.432370 0.000000 
#    z 0.000000 0.000000 3.226180 
# 
# 
# High freq. dielectric constant tensor:
#      x y z
#    x 1.681510 0.000000 0.000000 
#    y 0.000000 1.691370 0.000000 
#    z 0.000000 0.000000 1.656430 
# 
# From -- ./inp_files/19489.got.cif
#   From: 2010.03.12/outbox.cif.g09.slc.cpg/sg40_10_cif.got.tgz:19489.got - 2010.04.14 01:38:03.
