data_PCOD8182055
_publ_section_title
;
Structure prediction by ZEFSAII (Michael W. Deem and Ramdas Pophale) SiO2 
 PCOD8182055
Probable space group: A B M 2
;
_chemical_formula_sum "Si O2"
_cell_formula_units_Z 48
_cell_length_a 18.806888
_cell_length_b 8.850596
_cell_length_c 14.858889
_cell_angle_alpha 90.000000
_cell_angle_beta 90.000000
_cell_angle_gamma 90.000000
_cell_volume 2473.294284
_symmetry_space_group_name_H-M "A B M 2"
_symmetry_group_IT_number 39
_symmetry_cell_setting 'orthorhombic'
loop_
_space_group_symop_operation_xyz
x,y,z
-x,-y,z
-x,1/2+y,z
x,1/2-y,z
x,1/2+y,1/2+z
-x,1/2-y,1/2+z
-x,y,1/2+z
x,-y,1/2+z
loop_
_atom_site_type_symbol
_atom_site_label
_atom_site_fract_x
_atom_site_fract_y
_atom_site_fract_z
Si Si1 0.811593 0.575586 0.407820
Si Si2 0.329876 0.926003 0.469324
Si Si3 0.832827 0.425752 0.702844
Si Si4 0.575610 0.074201 0.302992
Si Si5 0.925410 0.427522 0.058722
Si Si6 0.315386 0.928573 0.153740
O O1 0.788557 0.750000 0.419870
O O2 0.743648 0.470494 0.421919
O O3 0.842404 0.544963 0.308766
O O4 0.871225 0.529695 0.479304
O O5 0.326778 0.750000 0.494464
O O6 0.394281 0.961629 0.401614
O O7 0.346023 0.025254 0.556919
O O8 0.833383 0.250000 0.679172
O O9 0.898377 0.505408 0.653163
O O10 0.760162 0.494182 0.666013
O O11 0.565949 0.250000 0.286653
O O12 0.630486 0.010051 0.228969
O O13 0.500000 0.000000 0.289189
O O14 0.934670 0.250000 0.069538
O O15 0.000000 0.500000 0.032251
O O16 0.304603 0.750000 0.159595
#
# Coordination Sequence:
#
# PCOD8182055 Si02
#       6
#     8   8   8   8   8   8
#     4  10  22  39  62  91 123 159 202 249 302 361
#     4  11  22  38  62  92 121 158 206 251 300 363
#     4  11  22  38  63  94 122 159 205 251 303 363
#     4  10  24  42  61  88 125 162 202 251 309 363
#     4  11  24  42  62  89 126 164 202 253 309 360
#     4  11  22  39  61  90 123 160 204 253 303 360
#
# _framework density 19.407314
#
# number of rings (size 3 to 8) (size 9 to 14) (size 15 to 20)
#    0.000    1.333    3.333    2.000    0.000    5.333 
#    0.000    5.000    0.000    0.000    0.000    0.000 
#    0.000    0.000    0.000    0.000    0.000    0.000 
#
# Total GULP energy -297745.601918 kJ/mol
# GULP energy per Si atom -12406.066747 kJ/mol
# Density = 1.936314 g / cm^3
# Si number density = 19.407314 Si / 1000 Ang^3
#
#
#
# Elastic Constant Matrix: (Units=GPa)
#
#
# Indices 1 2 3 4 5 6 
#
# 1 86.0950 29.9600 14.0252 0.0000 0.0000 0.0000
# 2 29.9600 69.9540 25.8714 0.0000 0.0000 0.0000
# 3 14.0252 25.8714 92.3012 0.0000 0.0000 0.0000
# 4 0.0000 0.0000 0.0000 31.3786 0.0000 0.0000
# 5 0.0000 0.0000 0.0000 0.0000 30.0416 0.0000
# 6 0.0000 0.0000 0.0000 0.0000 0.0000 37.5154
#
#
#
# Elastic Compliance Matrix: (Units=1/GPa)
#
#
# Indices 1 2 3 4 5 6 
#
# 1 0.013669 -0.005674 -0.000487 0.000000 0.000000 0.000000
# 2 -0.005674 0.018304 -0.004268 0.000000 0.000000 0.000000
# 3 -0.000487 -0.004268 0.012104 0.000000 0.000000 0.000000
# 4 0.000000 0.000000 0.000000 0.031869 0.000000 0.000000
# 5 0.000000 0.000000 0.000000 0.000000 0.033287 0.000000
# 6 0.000000 0.000000 0.000000 0.000000 0.000000 0.026656
#
#
# Mechanical properties :
#
#
# Convention : Reuss Voigt Hill
#
# Bulk Modulus (GPa) = 43.06796 43.11815 43.09306
# Shear Modulus (GPa) = 30.39764 31.68670 31.04217
#
# Velocity S-wave (km/s) = 3.96194 4.04508 4.00372
# Velocity P-wave (km/s) = 6.57032 6.63947 6.60499
#
# Compressibility (1/GPa) = 0.02321912
#
# Stress axis : x y z
#
# Youngs Moduli (GPa) = 73.15879 54.63340 82.61467
#
# Poissons Ratio (x) = 0.31000 0.04020
# Poissons Ratio (y) = 0.41512 0.35262
# Poissons Ratio (z) = 0.03560 0.23319
#
# Static dielectric constant tensor:
#      x y z
#    x 3.484380 0.000000 0.000000 
#    y 0.000000 3.578540 0.000000 
#    z 0.000000 0.000000 3.807590 
# 
# 
# High freq. dielectric constant tensor:
#      x y z
#    x 1.750180 0.000000 0.000000 
#    y 0.000000 1.762610 0.000000 
#    z 0.000000 0.000000 1.772220 
# 
# From -- ./inp_files/10027.got.cif
#   From: 2010.03.12/outbox.cif.g09.slc.cpg/sg39_6_cif.got.tgz:10027.got - 2010.04.14 02:53:20.
