data_PCOD8182851
_publ_section_title
;
Structure prediction by ZEFSAII (Michael W. Deem and Ramdas Pophale) SiO2 
 PCOD8182851
Probable space group: A M A 2
;
_chemical_formula_sum "Si O2"
_cell_formula_units_Z 48
_cell_length_a 9.350791
_cell_length_b 13.725134
_cell_length_c 23.459606
_cell_angle_alpha 90.000000
_cell_angle_beta 90.000000
_cell_angle_gamma 90.000000
_cell_volume 3010.825997
_symmetry_space_group_name_H-M "A M A 2"
_symmetry_group_IT_number 40
_symmetry_cell_setting 'orthorhombic'
loop_
_space_group_symop_operation_xyz
x,y,z
-x,-y,z
1/2-x,y,z
1/2+x,-y,z
x,1/2+y,1/2+z
-x,1/2-y,1/2+z
1/2-x,1/2+y,1/2+z
1/2+x,1/2-y,1/2+z
loop_
_atom_site_type_symbol
_atom_site_label
_atom_site_fract_x
_atom_site_fract_y
_atom_site_fract_z
Si Si1 0.417571 0.400745 0.477920
Si Si2 0.084098 0.097820 0.182893
Si Si3 0.084599 0.403580 0.348278
Si Si4 0.416255 0.904106 0.633557
Si Si5 0.581068 0.211940 0.740844
Si Si6 0.913219 0.790024 0.067781
O O1 0.500000 0.500000 0.492724
O O2 0.250000 0.416187 0.490115
O O3 0.446347 0.369371 0.412582
O O4 0.479324 0.314310 0.516446
O O5 0.250000 0.076268 0.193275
O O6 0.023842 0.179712 0.226869
O O7 0.056963 0.135212 0.119023
O O8 0.000000 0.000000 0.195133
O O9 0.250000 0.428530 0.339307
O O10 0.035875 0.318509 0.304749
O O11 0.000000 0.500000 0.332277
O O12 0.250000 0.930536 0.637244
O O13 0.476080 0.866639 0.694754
O O14 0.443694 0.820324 0.586832
O O15 0.500000 0.000000 0.614292
O O16 0.750000 0.216328 0.731766
O O17 0.750000 0.800905 0.046694
#
# Coordination Sequence:
#
# PCOD8182851 Si02
#       6
#     8   8   8   8   8   8
#     4  10  19  29  44  66  89 115 146 178 214 256
#     4   9  17  29  45  64  86 113 143 175 213 255
#     4   9  17  29  45  65  88 114 142 173 211 254
#     4   9  17  29  46  67  89 114 143 176 216 258
#     4   8  15  29  46  63  87 116 141 170 213 259
#     4   9  18  31  45  63  89 118 145 176 215 256
#
# _framework density 15.942468999999999
#
# number of rings (size 3 to 8) (size 9 to 14) (size 15 to 20)
#    0.000    3.000    0.000    3.500    0.000    3.333 
#    0.000    3.333    0.000    1.000    0.000    4.667 
#    0.000    0.000    0.000    0.000    0.000    0.000 
#
# Total GULP energy -297535.055875 kJ/mol
# GULP energy per Si atom -12397.293995 kJ/mol
# Density = 1.590618 g / cm^3
# Si number density = 15.942469 Si / 1000 Ang^3
#
#
#
# Elastic Constant Matrix: (Units=GPa)
#
#
# Indices 1 2 3 4 5 6 
#
# 1 63.7589 55.3061 48.0051 0.0000 0.0000 0.0000
# 2 55.3061 124.8548 62.2094 0.0000 0.0000 0.0000
# 3 48.0051 62.2094 96.2440 0.0000 0.0000 0.0000
# 4 0.0000 0.0000 0.0000 23.4643 0.0000 0.0000
# 5 0.0000 0.0000 0.0000 0.0000 -22.0906 0.0000
# 6 0.0000 0.0000 0.0000 0.0000 0.0000 29.8931
#
#
#
# Elastic Compliance Matrix: (Units=1/GPa)
#
#
# Indices 1 2 3 4 5 6 
#
# 1 0.030440 -0.008730 -0.009540 0.000000 0.000000 0.000000
# 2 -0.008730 0.014318 -0.004900 0.000000 0.000000 0.000000
# 3 -0.009540 -0.004900 0.018316 0.000000 0.000000 0.000000
# 4 0.000000 0.000000 0.000000 0.042618 0.000000 0.000000
# 5 0.000000 0.000000 0.000000 0.000000 -0.045268 0.000000
# 6 0.000000 0.000000 0.000000 0.000000 0.000000 0.033453
#
#
# Mechanical properties :
#
#
# Convention : Reuss Voigt Hill
#
# Bulk Modulus (GPa) = 59.76251 68.43322 64.09787
# Shear Modulus (GPa) = 34.29481 14.20916 24.25198
#
# Velocity S-wave (km/s) = 4.64309 2.98867 3.90451
# Velocity P-wave (km/s) = 8.14323 7.41133 7.78588
#
# Compressibility (1/GPa) = 0.01673290
#
# Stress axis : x y z
#
# Youngs Moduli (GPa) = 32.85180 69.84157 54.59731
#
# Poissons Ratio (x) = 0.60975 0.52085
# Poissons Ratio (y) = 0.28681 0.26754
# Poissons Ratio (z) = 0.31340 0.34224
#
# Static dielectric constant tensor:
#      x y z
#    x 2.877470 0.000000 0.000000 
#    y 0.000000 2.962760 0.000000 
#    z 0.000000 0.000000 3.031900 
# 
# 
# High freq. dielectric constant tensor:
#      x y z
#    x 1.601080 0.000000 0.000000 
#    y 0.000000 1.603580 0.000000 
#    z 0.000000 0.000000 1.603990 
# 
# From -- ./inp_files/21994.got.cif
#   From: 2010.03.12/outbox.cif.g09.slc.cpg/sg40_11_cif.got.tgz:21994.got - 2010.04.14 01:38:03.
