data_PCOD8182855
_publ_section_title
;
Structure prediction by ZEFSAII (Michael W. Deem and Ramdas Pophale) SiO2 
 PCOD8182855
Probable space group: A M A 2
;
_chemical_formula_sum "Si O2"
_cell_formula_units_Z 56
_cell_length_a 9.063115
_cell_length_b 18.190898
_cell_length_c 20.429622
_cell_angle_alpha 90.000000
_cell_angle_beta 90.000000
_cell_angle_gamma 90.000000
_cell_volume 3368.154157
_symmetry_space_group_name_H-M "A M A 2"
_symmetry_group_IT_number 40
_symmetry_cell_setting 'orthorhombic'
loop_
_space_group_symop_operation_xyz
x,y,z
-x,-y,z
1/2-x,y,z
1/2+x,-y,z
x,1/2+y,1/2+z
-x,1/2-y,1/2+z
1/2-x,1/2+y,1/2+z
1/2+x,1/2-y,1/2+z
loop_
_atom_site_type_symbol
_atom_site_label
_atom_site_fract_x
_atom_site_fract_y
_atom_site_fract_z
Si Si1 0.580069 0.346733 0.750000
Si Si2 0.425608 0.921601 0.369940
Si Si3 0.423776 0.151322 0.489919
Si Si4 0.086041 0.218913 0.693505
Si Si5 0.587943 0.701763 0.555201
Si Si6 0.081940 0.576064 0.611519
Si Si7 0.923983 0.424030 0.124163
O O1 0.750000 0.345816 0.772900
O O2 0.477824 0.386051 0.802514
O O3 0.526255 0.262450 0.740748
O O4 0.558801 0.392224 0.683792
O O5 0.250000 0.930390 0.369124
O O6 0.475947 0.870281 0.429099
O O7 0.500000 0.000000 0.379521
O O8 0.250000 0.140425 0.475099
O O9 0.460786 0.237170 0.502408
O O10 0.472919 0.102176 0.551934
O O11 0.250000 0.217935 0.725374
O O12 0.095927 0.258800 0.624518
O O13 0.028967 0.136041 0.679237
O O14 0.750000 0.671033 0.537387
O O15 0.476145 0.633590 0.557234
O O16 0.250000 0.561024 0.595371
O O17 0.000000 0.500000 0.604516
O O18 0.750000 0.434513 0.125547
O O19 0.000000 0.500000 0.142877
#
# Coordination Sequence:
#
# PCOD8182855 Si02
#       7
#     8   8   8   8   8   8   8
#     4  10  20  33  48  67  91 122 158 194 230 272
#     4  12  24  35  48  67  93 126 160 194 227 265
#     4   9  18  33  49  67  93 125 158 191 227 270
#     4   8  15  29  46  65  90 120 152 187 229 276
#     4   8  15  29  48  66  89 120 151 186 230 275
#     4  10  19  29  45  69  95 121 152 190 232 275
#     4   9  17  28  45  69  96 124 153 188 231 273
#
# _framework density 16.626318000000001
#
# number of rings (size 3 to 8) (size 9 to 14) (size 15 to 20)
#    0.000    2.571    0.000    4.714    0.000    5.714 
#    0.000    2.857    0.000    0.000    0.000    1.000 
#    0.000    2.286    0.000    0.000    0.000    0.000 
#
# Total GULP energy -347114.633174 kJ/mol
# GULP energy per Si atom -12396.951185 kJ/mol
# Density = 1.658848 g / cm^3
# Si number density = 16.626318 Si / 1000 Ang^3
#
#
#
# Elastic Constant Matrix: (Units=GPa)
#
#
# Indices 1 2 3 4 5 6 
#
# 1 113.4409 71.3087 42.0857 0.0000 0.0000 0.0000
# 2 71.3087 126.0637 32.2341 0.0000 0.0000 0.0000
# 3 42.0857 32.2341 42.6121 0.0000 0.0000 0.0000
# 4 0.0000 0.0000 0.0000 23.7380 0.0000 0.0000
# 5 0.0000 0.0000 0.0000 0.0000 19.9479 0.0000
# 6 0.0000 0.0000 0.0000 0.0000 0.0000 32.0310
#
#
#
# Elastic Compliance Matrix: (Units=1/GPa)
#
#
# Indices 1 2 3 4 5 6 
#
# 1 0.017683 -0.006865 -0.012272 0.000000 0.000000 0.000000
# 2 -0.006865 0.012500 -0.002676 0.000000 0.000000 0.000000
# 3 -0.012272 -0.002676 0.037612 0.000000 0.000000 0.000000
# 4 0.000000 0.000000 0.000000 0.042127 0.000000 0.000000
# 5 0.000000 0.000000 0.000000 0.000000 0.050131 0.000000
# 6 0.000000 0.000000 0.000000 0.000000 0.000000 0.031220
#
#
# Mechanical properties :
#
#
# Convention : Reuss Voigt Hill
#
# Bulk Modulus (GPa) = 41.37303 63.70820 52.54061
# Shear Modulus (GPa) = 20.58017 24.24257 22.41137
#
# Velocity S-wave (km/s) = 3.52206 3.82263 3.67542
# Velocity P-wave (km/s) = 6.44034 7.60817 7.04848
#
# Compressibility (1/GPa) = 0.02417034
#
# Stress axis : x y z
#
# Youngs Moduli (GPa) = 56.55145 80.00220 26.58745
#
# Poissons Ratio (x) = 0.54919 0.32628
# Poissons Ratio (y) = 0.38821 0.07114
# Poissons Ratio (z) = 0.69399 0.21405
#
# Static dielectric constant tensor:
#      x y z
#    x 3.277980 0.000000 0.000000 
#    y 0.000000 3.380560 0.000000 
#    z 0.000000 0.000000 2.893770 
# 
# 
# High freq. dielectric constant tensor:
#      x y z
#    x 1.645660 0.000000 0.000000 
#    y 0.000000 1.644850 0.000000 
#    z 0.000000 0.000000 1.599480 
# 
# From -- ./inp_files/22298.got.cif
#   From: 2010.03.12/outbox.cif.g09.slc.cpg/sg40_12_cif.got.tgz:22298.got - 2010.04.14 01:38:03.
