data_PCOD8182973
_publ_section_title
;
Structure prediction by ZEFSAII (Michael W. Deem and Ramdas Pophale) SiO2 
 PCOD8182973
Probable space group: A M A 2
;
_chemical_formula_sum "Si O2"
_cell_formula_units_Z 56
_cell_length_a 26.961735
_cell_length_b 19.591486
_cell_length_c 5.263386
_cell_angle_alpha 90.000000
_cell_angle_beta 90.000000
_cell_angle_gamma 90.000000
_cell_volume 2780.228141
_symmetry_space_group_name_H-M "A M A 2"
_symmetry_group_IT_number 40
_symmetry_cell_setting 'orthorhombic'
loop_
_space_group_symop_operation_xyz
x,y,z
-x,-y,z
1/2-x,y,z
1/2+x,-y,z
x,1/2+y,1/2+z
-x,1/2-y,1/2+z
1/2-x,1/2+y,1/2+z
1/2+x,1/2-y,1/2+z
loop_
_atom_site_type_symbol
_atom_site_label
_atom_site_fract_x
_atom_site_fract_y
_atom_site_fract_z
Si Si1 0.305220 0.594240 0.164560
Si Si2 0.057897 0.485592 0.640235
Si Si3 0.861721 0.906613 0.164892
Si Si4 0.193931 0.256352 0.663682
Si Si5 0.536515 0.064446 0.640431
Si Si6 0.021501 0.785252 0.665506
Si Si7 0.364406 0.255021 0.163961
O O1 0.250000 0.563733 0.157721
O O2 0.331102 0.568247 0.420663
O O3 0.303322 0.675357 0.162458
O O4 0.333821 0.567689 0.916818
O O5 0.084932 0.558064 0.657356
O O6 0.072521 0.443803 0.385171
O O7 0.000000 0.500000 0.615719
O O8 0.069809 0.437941 0.884021
O O9 0.870171 0.826246 0.164704
O O10 0.250000 0.286252 0.663445
O O11 0.164944 0.281334 0.412427
O O12 0.165181 0.281048 0.915916
O O13 0.505513 0.135144 0.654590
O O14 0.500000 0.000000 0.619042
O O15 0.080907 0.786010 0.662219
O O16 0.999253 0.746766 0.423575
#
# Coordination Sequence:
#
# PCOD8182973 Si02
#       7
#     8   8   8   8   8   8   8
#     4   9  17  30  49  80 117 145 182 235 304 353
#     4  10  21  36  56  79 111 149 205 237 276 343
#     4  10  19  31  54  82 111 150 189 242 290 345
#     4   9  17  33  54  82 116 152 187 241 298 358
#     4  10  23  39  59  80 112 162 202 241 282 349
#     4  12  26  40  60  87 125 164 199 254 305 348
#     4  10  21  33  54  86 118 150 194 242 299 354
#
# _framework density 20.142233000000001
#
# number of rings (size 3 to 8) (size 9 to 14) (size 15 to 20)
#    0.000    2.000    0.000    3.429    8.000    3.429 
#    0.000    0.000    0.000    0.000    0.000   20.000 
#    0.000    0.000    0.000    0.000    0.000    0.000 
#
# Total GULP energy -347110.271107 kJ/mol
# GULP energy per Si atom -12396.795397 kJ/mol
# Density = 2.009639 g / cm^3
# Si number density = 20.142233 Si / 1000 Ang^3
#
#
#
# Elastic Constant Matrix: (Units=GPa)
#
#
# Indices 1 2 3 4 5 6 
#
# 1 121.2185 3.3898 28.2205 0.0000 0.0000 0.0000
# 2 3.3898 59.2467 2.0110 0.0000 0.0000 0.0000
# 3 28.2205 2.0110 167.2192 0.0000 0.0000 0.0000
# 4 0.0000 0.0000 0.0000 15.8950 0.0000 0.0000
# 5 0.0000 0.0000 0.0000 0.0000 35.5573 0.0000
# 6 0.0000 0.0000 0.0000 0.0000 0.0000 24.2239
#
#
#
# Elastic Compliance Matrix: (Units=1/GPa)
#
#
# Indices 1 2 3 4 5 6 
#
# 1 0.008599 -0.000443 -0.001446 0.000000 0.000000 0.000000
# 2 -0.000443 0.016908 -0.000129 0.000000 0.000000 0.000000
# 3 -0.001446 -0.000129 0.006226 0.000000 0.000000 0.000000
# 4 0.000000 0.000000 0.000000 0.062913 0.000000 0.000000
# 5 0.000000 0.000000 0.000000 0.000000 0.028124 0.000000
# 6 0.000000 0.000000 0.000000 0.000000 0.000000 0.041281
#
#
# Mechanical properties :
#
#
# Convention : Reuss Voigt Hill
#
# Bulk Modulus (GPa) = 36.10369 46.10298 41.10334
# Shear Modulus (GPa) = 28.19795 36.07278 32.13536
#
# Velocity S-wave (km/s) = 3.74564 4.23650 3.99861
# Velocity P-wave (km/s) = 6.05555 6.84609 6.46292
#
# Compressibility (1/GPa) = 0.02769800
#
# Stress axis : x y z
#
# Youngs Moduli (GPa) = 116.29880 59.14257 160.62401
#
# Poissons Ratio (x) = 0.02619 0.23223
# Poissons Ratio (y) = 0.05151 0.02066
# Poissons Ratio (z) = 0.16814 0.00761
#
# Static dielectric constant tensor:
#      x y z
#    x 3.580420 0.000000 0.000000 
#    y 0.000000 3.224330 0.000000 
#    z 0.000000 0.000000 6.582870 
# 
# 
# High freq. dielectric constant tensor:
#      x y z
#    x 1.773770 0.000000 0.000000 
#    y 0.000000 1.740070 0.000000 
#    z 0.000000 0.000000 1.822680 
# 
# From -- ./inp_files/3199.got.cif
#   From: 2010.03.12/outbox.cif.g09.slc.cpg/sg40_2_cif.got.tgz:3199.got - 2010.04.14 01:38:03.
