data_PCOD8182756
_publ_section_title
;
Structure prediction by ZEFSAII (Michael W. Deem and Ramdas Pophale) SiO2 
 PCOD8182756
Probable space group: A M A 2
;
_chemical_formula_sum "Si O2"
_cell_formula_units_Z 64
_cell_length_a 22.863341
_cell_length_b 15.547170
_cell_length_c 9.064443
_cell_angle_alpha 90.000000
_cell_angle_beta 90.000000
_cell_angle_gamma 90.000000
_cell_volume 3222.049169
_symmetry_space_group_name_H-M "A M A 2"
_symmetry_group_IT_number 40
_symmetry_cell_setting 'orthorhombic'
loop_
_space_group_symop_operation_xyz
x,y,z
-x,-y,z
1/2-x,y,z
1/2+x,-y,z
x,1/2+y,1/2+z
-x,1/2-y,1/2+z
1/2-x,1/2+y,1/2+z
1/2+x,1/2-y,1/2+z
loop_
_atom_site_type_symbol
_atom_site_label
_atom_site_fract_x
_atom_site_fract_y
_atom_site_fract_z
Si Si1 0.619157 0.201299 0.922430
Si Si2 0.317828 0.284500 0.730579
Si Si3 0.684393 0.555275 0.261385
Si Si4 0.976442 0.649605 0.984187
Si Si5 0.377182 0.614363 0.276259
Si Si6 0.144980 0.934123 0.439810
Si Si7 0.495455 0.687708 0.313878
Si Si8 0.897238 0.391304 0.935294
O O1 0.658609 0.145199 0.815863
O O2 0.551961 0.166903 0.915335
O O3 0.619461 0.299867 0.860360
O O4 0.641991 0.197355 0.088798
O O5 0.250000 0.272836 0.685284
O O6 0.339719 0.199668 0.819639
O O7 0.323577 0.367959 0.832979
O O8 0.750000 0.548420 0.319209
O O9 0.650623 0.474300 0.335196
O O10 0.684381 0.555312 0.084531
O O11 0.987035 0.693845 0.142697
O O12 0.919596 0.591414 0.994419
O O13 0.966261 0.722279 0.860900
O O14 0.032799 0.594028 0.935350
O O15 0.443960 0.617363 0.336504
O O16 0.374498 0.612017 0.101142
O O17 0.135899 0.027561 0.359307
#
# Coordination Sequence:
#
# PCOD8182756 Si02
#       8
#     8   8   8   8   8   8   8   8
#     4  10  21  39  59  85 117 156 195 244 298 357
#     4  11  22  39  59  83 119 162 201 240 298 361
#     4  11  22  38  59  86 115 151 202 248 291 351
#     4  10  18  33  58  89 121 152 187 243 294 362
#     4   9  19  36  60  85 112 150 196 244 295 352
#     4  11  20  36  59  88 115 151 199 246 291 341
#     4  10  19  35  59  91 120 152 194 239 305 360
#     4   8  19  34  58  84 116 148 192 233 294 357
#
# _framework density 19.863135
#
# number of rings (size 3 to 8) (size 9 to 14) (size 15 to 20)
#    0.000    2.000    2.500    2.250    0.000    0.500 
#    0.000    5.625    2.750    0.000    0.000    0.000 
#    0.000    0.000    0.000    0.000    0.000    0.000 
#
# Total GULP energy -396634.537751 kJ/mol
# GULP energy per Si atom -12394.829305 kJ/mol
# Density = 1.981793 g / cm^3
# Si number density = 19.863135 Si / 1000 Ang^3
#
#
#
# Elastic Constant Matrix: (Units=GPa)
#
#
# Indices 1 2 3 4 5 6 
#
# 1 124.6247 59.7003 22.6295 0.0000 0.0000 0.0000
# 2 59.7003 116.1023 25.7635 0.0000 0.0000 0.0000
# 3 22.6295 25.7635 39.7287 0.0000 0.0000 0.0000
# 4 0.0000 0.0000 0.0000 27.6192 0.0000 0.0000
# 5 0.0000 0.0000 0.0000 0.0000 27.3773 0.0000
# 6 0.0000 0.0000 0.0000 0.0000 0.0000 27.2041
#
#
#
# Elastic Compliance Matrix: (Units=1/GPa)
#
#
# Indices 1 2 3 4 5 6 
#
# 1 0.010948 -0.004960 -0.003020 0.000000 0.000000 0.000000
# 2 -0.004960 0.012307 -0.005156 0.000000 0.000000 0.000000
# 3 -0.003020 -0.005156 0.030235 0.000000 0.000000 0.000000
# 4 0.000000 0.000000 0.000000 0.036207 0.000000 0.000000
# 5 0.000000 0.000000 0.000000 0.000000 0.036527 0.000000
# 6 0.000000 0.000000 0.000000 0.000000 0.000000 0.036759
#
#
# Mechanical properties :
#
#
# Convention : Reuss Voigt Hill
#
# Bulk Modulus (GPa) = 36.73920 55.18248 45.96084
# Shear Modulus (GPa) = 25.21086 27.93097 26.57092
#
# Velocity S-wave (km/s) = 3.56649 3.75396 3.66143
# Velocity P-wave (km/s) = 5.95786 6.82871 6.40810
#
# Compressibility (1/GPa) = 0.02721888
#
# Stress axis : x y z
#
# Youngs Moduli (GPa) = 91.33870 81.25133 33.07462
#
# Poissons Ratio (x) = 0.40297 0.09988
# Poissons Ratio (y) = 0.45299 0.17054
# Poissons Ratio (z) = 0.27584 0.41896
#
# Static dielectric constant tensor:
#      x y z
#    x 3.739240 0.000000 0.000000 
#    y 0.000000 3.976930 0.000000 
#    z 0.000000 0.000000 3.200280 
# 
# 
# High freq. dielectric constant tensor:
#      x y z
#    x 1.785610 0.000000 0.000000 
#    y 0.000000 1.781140 0.000000 
#    z 0.000000 0.000000 1.730990 
# 
# From -- ./inp_files/8947.got.cif
#   From: 2010.03.12/outbox.cif.g09.slc.cpg/sg40_5_cif.got.tgz:8947.got - 2010.04.14 01:38:03.
