data_PCOD8182948
_publ_section_title
;
Structure prediction by ZEFSAII (Michael W. Deem and Ramdas Pophale) SiO2 
 PCOD8182948
Probable space group: A M A 2
;
_chemical_formula_sum "Si O2"
_cell_formula_units_Z 64
_cell_length_a 9.126310
_cell_length_b 16.082323
_cell_length_c 22.469652
_cell_angle_alpha 90.000000
_cell_angle_beta 90.000000
_cell_angle_gamma 90.000000
_cell_volume 3297.921723
_symmetry_space_group_name_H-M "A M A 2"
_symmetry_group_IT_number 40
_symmetry_cell_setting 'orthorhombic'
loop_
_space_group_symop_operation_xyz
x,y,z
-x,-y,z
1/2-x,y,z
1/2+x,-y,z
x,1/2+y,1/2+z
-x,1/2-y,1/2+z
1/2-x,1/2+y,1/2+z
1/2+x,1/2-y,1/2+z
loop_
_atom_site_type_symbol
_atom_site_label
_atom_site_fract_x
_atom_site_fract_y
_atom_site_fract_z
Si Si1 0.587554 0.386372 0.823990
Si Si2 0.918341 0.422114 0.358383
Si Si3 0.591164 0.199726 0.786731
Si Si4 0.083300 0.235037 0.162191
Si Si5 0.075392 0.585160 0.959783
Si Si6 0.922001 0.916839 0.993970
Si Si7 0.077432 0.920799 0.207202
Si Si8 0.920274 0.732812 0.031044
O O1 0.750000 0.425033 0.812468
O O2 0.598570 0.288812 0.816412
O O3 0.532996 0.406551 0.890423
O O4 0.471047 0.420295 0.776576
O O5 0.750000 0.440822 0.355114
O O6 0.970252 0.407142 0.425583
O O7 0.000000 0.500000 0.329701
O O8 0.956625 0.343949 0.318374
O O9 0.750000 0.156078 0.797426
O O10 0.557539 0.201511 0.716361
O O11 0.250000 0.199931 0.164370
O O12 0.055383 0.284913 0.101135
O O13 0.973166 0.158562 0.169709
O O14 0.250000 0.580892 0.969527
O O15 0.000000 0.500000 0.983983
O O16 0.014438 0.666174 0.994295
O O17 0.750000 0.930345 0.002667
O O18 0.972269 0.829042 0.022607
O O19 0.000000 0.000000 0.021039
O O20 0.250000 0.928678 0.203213
O O21 0.000000 0.000000 0.176508
O O22 0.750000 0.723655 0.012063
#
# Coordination Sequence:
#
# PCOD8182948 Si02
#       8
#     8   8   8   8   8   8   8   8
#     4   9  19  35  55  81 112 143 175 217 273 333
#     4  10  19  31  49  75 105 134 167 210 261 317
#     4   9  17  32  53  76 103 134 169 212 264 319
#     4   9  20  38  56  75 104 141 180 222 270 323
#     4  11  23  38  58  84 113 147 188 234 283 336
#     4   9  19  34  54  82 113 143 176 216 265 323
#     4  11  21  33  53  80 111 144 178 219 267 324
#     4  10  21  39  60  81 110 148 188 232 279 327
#
# _framework density 19.40616
#
# number of rings (size 3 to 8) (size 9 to 14) (size 15 to 20)
#    0.000    2.250    0.000    3.750    0.000    6.000 
#    0.000    1.875    0.000    0.000    0.000    0.000 
#    0.000    0.000    0.000    0.000    0.000    0.000 
#
# Total GULP energy -396659.180510 kJ/mol
# GULP energy per Si atom -12395.599391 kJ/mol
# Density = 1.936199 g / cm^3
# Si number density = 19.406160 Si / 1000 Ang^3
#
#
#
# Elastic Constant Matrix: (Units=GPa)
#
#
# Indices 1 2 3 4 5 6 
#
# 1 88.1383 31.3005 29.2664 0.0000 0.0000 0.0000
# 2 31.3005 77.7126 26.7753 0.0000 0.0000 0.0000
# 3 29.2664 26.7753 67.9366 0.0000 0.0000 0.0000
# 4 0.0000 0.0000 0.0000 6.5887 0.0000 0.0000
# 5 0.0000 0.0000 0.0000 0.0000 20.9906 0.0000
# 6 0.0000 0.0000 0.0000 0.0000 0.0000 37.0791
#
#
#
# Elastic Compliance Matrix: (Units=1/GPa)
#
#
# Indices 1 2 3 4 5 6 
#
# 1 0.014344 -0.004222 -0.004516 0.000000 0.000000 0.000000
# 2 -0.004222 0.016132 -0.004539 0.000000 0.000000 0.000000
# 3 -0.004516 -0.004539 0.018454 0.000000 0.000000 0.000000
# 4 0.000000 0.000000 0.000000 0.151775 0.000000 0.000000
# 5 0.000000 0.000000 0.000000 0.000000 0.047640 0.000000
# 6 0.000000 0.000000 0.000000 0.000000 0.000000 0.026969
#
#
# Mechanical properties :
#
#
# Convention : Reuss Voigt Hill
#
# Bulk Modulus (GPa) = 44.68817 45.38577 45.03697
# Shear Modulus (GPa) = 16.16407 22.69471 19.42939
#
# Velocity S-wave (km/s) = 2.88919 3.42345 3.16760
# Velocity P-wave (km/s) = 5.84874 6.25018 6.05279
#
# Compressibility (1/GPa) = 0.02237729
#
# Stress axis : x y z
#
# Youngs Moduli (GPa) = 69.71333 61.98725 54.18900
#
# Poissons Ratio (x) = 0.26169 0.24469
# Poissons Ratio (y) = 0.29431 0.24599
# Poissons Ratio (z) = 0.31479 0.28139
#
# Static dielectric constant tensor:
#      x y z
#    x 3.641070 0.000000 0.000000 
#    y 0.000000 3.631960 0.000000 
#    z 0.000000 0.000000 3.558180 
# 
# 
# High freq. dielectric constant tensor:
#      x y z
#    x 1.754070 0.000000 0.000000 
#    y 0.000000 1.749350 0.000000 
#    z 0.000000 0.000000 1.747170 
# 
# From -- ./inp_files/24278.got.cif
#   From: 2010.03.12/outbox.cif.g09.slc.cpg/sg40_13_cif.got.tgz:24278.got - 2010.04.14 01:38:03.
