data_PCOD8182656
_publ_section_title
;
Structure prediction by ZEFSAII (Michael W. Deem and Ramdas Pophale) SiO2 
 PCOD8182656
Probable space group: A M A 2
;
_chemical_formula_sum "Si O2"
_cell_formula_units_Z 48
_cell_length_a 8.602039
_cell_length_b 9.580291
_cell_length_c 30.874808
_cell_angle_alpha 90.000000
_cell_angle_beta 90.000000
_cell_angle_gamma 90.000000
_cell_volume 2544.394064
_symmetry_space_group_name_H-M "A M A 2"
_symmetry_group_IT_number 40
_symmetry_cell_setting 'orthorhombic'
loop_
_space_group_symop_operation_xyz
x,y,z
-x,-y,z
1/2-x,y,z
1/2+x,-y,z
x,1/2+y,1/2+z
-x,1/2-y,1/2+z
1/2-x,1/2+y,1/2+z
1/2+x,1/2-y,1/2+z
loop_
_atom_site_type_symbol
_atom_site_label
_atom_site_fract_x
_atom_site_fract_y
_atom_site_fract_z
Si Si1 0.065438 0.344887 0.620120
Si Si2 0.565705 0.845142 0.784122
Si Si3 0.067134 0.853318 0.360525
Si Si4 0.065894 0.154963 0.208934
Si Si5 0.066384 0.353747 0.957408
Si Si6 0.065625 0.653525 0.532706
O O1 0.250000 0.342727 0.622079
O O2 0.000000 0.500000 0.618061
O O3 0.996295 0.277475 0.663867
O O4 0.004416 0.271765 0.575994
O O5 0.750000 0.847518 0.777807
O O6 0.515664 0.771675 0.829059
O O7 0.488590 0.758809 0.745850
O O8 0.500000 0.000000 0.784560
O O9 0.250000 0.870334 0.360596
O O10 0.004774 0.818784 0.408924
O O11 0.000000 0.000000 0.343435
O O12 0.250000 0.144821 0.207771
O O13 0.000000 0.000000 0.217064
O O14 0.250000 0.362345 0.957674
O O15 0.000000 0.500000 0.973633
O O16 0.007240 0.237440 0.990753
O O17 0.250000 0.649308 0.536875
O O18 0.000000 0.500000 0.526632
#
# Coordination Sequence:
#
# PCOD8182656 Si02
#       6
#     8   8   8   8   8   8
#     4  10  18  31  52  78 106 137 177 220 263 310
#     4  11  23  38  55  79 111 143 177 219 270 322
#     4   9  19  36  57  79 104 137 178 220 261 311
#     4  11  21  36  58  82 108 140 180 222 266 316
#     4   9  19  35  54  77 106 139 176 218 262 311
#     4  10  19  32  51  77 108 140 176 217 263 312
#
# _framework density 18.865003000000002
#
# number of rings (size 3 to 8) (size 9 to 14) (size 15 to 20)
#    0.000    2.000    0.000    6.500    0.000    4.667 
#    0.000    0.833    0.000    2.000    0.000    0.000 
#    0.000    0.000    0.000    0.000    0.000    0.000 
#
# Total GULP energy -297548.864911 kJ/mol
# GULP energy per Si atom -12397.869371 kJ/mol
# Density = 1.882206 g / cm^3
# Si number density = 18.865003 Si / 1000 Ang^3
#
#
#
# Elastic Constant Matrix: (Units=GPa)
#
#
# Indices 1 2 3 4 5 6 
#
# 1 107.5867 44.4917 61.6932 0.0000 0.0000 0.0000
# 2 44.4917 109.3252 85.6333 0.0000 0.0000 0.0000
# 3 61.6932 85.6333 163.1679 0.0000 0.0000 0.0000
# 4 0.0000 0.0000 0.0000 33.5272 0.0000 0.0000
# 5 0.0000 0.0000 0.0000 0.0000 29.1094 0.0000
# 6 0.0000 0.0000 0.0000 0.0000 0.0000 29.2948
#
#
#
# Elastic Compliance Matrix: (Units=1/GPa)
#
#
# Indices 1 2 3 4 5 6 
#
# 1 0.012198 -0.002295 -0.003407 0.000000 0.000000 0.000000
# 2 -0.002295 0.015964 -0.007510 0.000000 0.000000 0.000000
# 3 -0.003407 -0.007510 0.011359 0.000000 0.000000 0.000000
# 4 0.000000 0.000000 0.000000 0.029827 0.000000 0.000000
# 5 0.000000 0.000000 0.000000 0.000000 0.034353 0.000000
# 6 0.000000 0.000000 0.000000 0.000000 0.000000 0.034136
#
#
# Mechanical properties :
#
#
# Convention : Reuss Voigt Hill
#
# Bulk Modulus (GPa) = 76.36803 84.85735 80.61269
# Shear Modulus (GPa) = 29.65138 30.93706 30.29422
#
# Velocity S-wave (km/s) = 3.96885 4.05398 4.01164
# Velocity P-wave (km/s) = 7.84676 8.18487 8.01759
#
# Compressibility (1/GPa) = 0.01309449
#
# Stress axis : x y z
#
# Youngs Moduli (GPa) = 81.98141 62.64178 88.03939
#
# Poissons Ratio (x) = 0.14377 0.29999
# Poissons Ratio (y) = 0.18815 0.66120
# Poissons Ratio (z) = 0.27935 0.47046
#
# Static dielectric constant tensor:
#      x y z
#    x 3.509100 0.000000 0.000000 
#    y 0.000000 3.260890 0.000000 
#    z 0.000000 0.000000 4.495640 
# 
# 
# High freq. dielectric constant tensor:
#      x y z
#    x 1.742720 0.000000 0.000000 
#    y 0.000000 1.703100 0.000000 
#    z 0.000000 0.000000 1.756630 
# 
# From -- ./inp_files/26148.got.cif
#   From: 2010.03.12/outbox.cif.g09.slc.cpg/sg40_14_cif.got.tgz:26148.got - 2010.04.14 01:38:03.
