data_PCOD8182816
_publ_section_title
;
Structure prediction by ZEFSAII (Michael W. Deem and Ramdas Pophale) SiO2 
 PCOD8182816
Probable space group: A M A 2
;
_chemical_formula_sum "Si O2"
_cell_formula_units_Z 64
_cell_length_a 17.511146
_cell_length_b 16.216785
_cell_length_c 12.076106
_cell_angle_alpha 90.000000
_cell_angle_beta 90.000000
_cell_angle_gamma 90.000000
_cell_volume 3429.306040
_symmetry_space_group_name_H-M "A M A 2"
_symmetry_group_IT_number 40
_symmetry_cell_setting 'orthorhombic'
loop_
_space_group_symop_operation_xyz
x,y,z
-x,-y,z
1/2-x,y,z
1/2+x,-y,z
x,1/2+y,1/2+z
-x,1/2-y,1/2+z
1/2-x,1/2+y,1/2+z
1/2+x,1/2-y,1/2+z
loop_
_atom_site_type_symbol
_atom_site_label
_atom_site_fract_x
_atom_site_fract_y
_atom_site_fract_z
Si Si1 0.410836 0.507359 0.542890
Si Si2 0.661646 0.357033 0.393067
Si Si3 0.336684 0.536312 0.192839
Si Si4 0.339887 0.561883 0.761231
Si Si5 0.840683 0.754773 0.234857
Si Si6 0.337515 0.395249 0.371245
Si Si7 0.339067 0.811931 0.498748
Si Si8 0.411703 0.985680 0.472662
O O1 0.500000 0.500000 0.555261
O O2 0.388041 0.591260 0.480020
O O3 0.375497 0.505647 0.665165
O O4 0.383711 0.426448 0.476982
O O5 0.750000 0.379726 0.418611
O O6 0.641601 0.383378 0.266915
O O7 0.647495 0.259525 0.407001
O O8 0.250000 0.542627 0.148750
O O9 0.346906 0.455914 0.267594
O O10 0.392960 0.529571 0.089190
O O11 0.250000 0.562540 0.744066
O O12 0.374055 0.654432 0.754778
O O13 0.359911 0.526726 0.880023
O O14 0.750000 0.755820 0.237612
O O15 0.870221 0.693299 0.331559
O O16 0.867506 0.723208 0.115570
O O17 0.250000 0.389080 0.407971
O O18 0.250000 0.838988 0.502229
O O19 0.392165 0.889030 0.470999
O O20 0.500000 0.000000 0.445449
#
# Coordination Sequence:
#
# PCOD8182816 Si02
#       8
#     8   8   8   8   8   8   8   8
#     4  11  21  34  55  88 125 148 183 235 309 356
#     4   9  18  35  63  91 112 145 203 252 279 331
#     4   9  17  33  58  86 114 146 189 243 288 336
#     4  11  22  40  61  80 109 157 203 247 288 346
#     4   9  17  33  60  86 107 143 204 247 273 327
#     4   9  17  33  58  87 111 143 193 243 277 335
#     4  10  18  37  64  87 109 151 210 247 272 342
#     4  12  25  39  54  85 123 159 193 236 307 367
#
# _framework density 18.662668
#
# number of rings (size 3 to 8) (size 9 to 14) (size 15 to 20)
#    0.000    2.000    2.500    3.375    0.000    2.000 
#    2.250    1.250    0.000    3.000    0.000    0.000 
#    0.000    0.000    0.000    0.000    0.000    0.000 
#
# Total GULP energy -396806.899381 kJ/mol
# GULP energy per Si atom -12400.215606 kJ/mol
# Density = 1.862019 g / cm^3
# Si number density = 18.662668 Si / 1000 Ang^3
#
#
#
# Elastic Constant Matrix: (Units=GPa)
#
#
# Indices 1 2 3 4 5 6 
#
# 1 75.0928 33.1031 35.6807 0.0000 0.0000 0.0000
# 2 33.1031 115.6207 58.0458 0.0000 0.0000 0.0000
# 3 35.6807 58.0458 100.3009 0.0000 0.0000 0.0000
# 4 0.0000 0.0000 0.0000 25.2309 0.0000 0.0000
# 5 0.0000 0.0000 0.0000 0.0000 14.8703 0.0000
# 6 0.0000 0.0000 0.0000 0.0000 0.0000 30.4979
#
#
#
# Elastic Compliance Matrix: (Units=1/GPa)
#
#
# Indices 1 2 3 4 5 6 
#
# 1 0.016526 -0.002509 -0.004427 0.000000 0.000000 0.000000
# 2 -0.002509 0.012572 -0.006383 0.000000 0.000000 0.000000
# 3 -0.004427 -0.006383 0.015239 0.000000 0.000000 0.000000
# 4 0.000000 0.000000 0.000000 0.039634 0.000000 0.000000
# 5 0.000000 0.000000 0.000000 0.000000 0.067248 0.000000
# 6 0.000000 0.000000 0.000000 0.000000 0.000000 0.032789
#
#
# Mechanical properties :
#
#
# Convention : Reuss Voigt Hill
#
# Bulk Modulus (GPa) = 56.50063 60.51929 58.50996
# Shear Modulus (GPa) = 23.08978 25.06547 24.07763
#
# Velocity S-wave (km/s) = 3.52123 3.66878 3.59576
# Velocity P-wave (km/s) = 6.84635 7.10247 6.97558
#
# Compressibility (1/GPa) = 0.01769892
#
# Stress axis : x y z
#
# Youngs Moduli (GPa) = 60.50907 79.54294 65.62223
#
# Poissons Ratio (x) = 0.19959 0.29051
# Poissons Ratio (y) = 0.15183 0.41886
# Poissons Ratio (z) = 0.26787 0.50772
#
# Static dielectric constant tensor:
#      x y z
#    x 3.152770 0.000000 0.000000 
#    y 0.000000 3.672010 0.000000 
#    z 0.000000 0.000000 3.426040 
# 
# 
# High freq. dielectric constant tensor:
#      x y z
#    x 1.699640 0.000000 0.000000 
#    y 0.000000 1.723600 0.000000 
#    z 0.000000 0.000000 1.722910 
# 
# From -- ./inp_files/12448.got.cif
#   From: 2010.03.12/outbox.cif.g09.slc.cpg/sg40_7_cif.got.tgz:12448.got - 2010.04.14 01:38:03.
