data_PCOD8182228
_publ_section_title
;
Structure prediction by ZEFSAII (Michael W. Deem and Ramdas Pophale) SiO2 
 PCOD8182228
Probable space group: A B M 2
;
_chemical_formula_sum "Si O2"
_cell_formula_units_Z 64
_cell_length_a 11.746824
_cell_length_b 17.076853
_cell_length_c 15.311798
_cell_angle_alpha 90.000000
_cell_angle_beta 90.000000
_cell_angle_gamma 90.000000
_cell_volume 3071.528100
_symmetry_space_group_name_H-M "A B M 2"
_symmetry_group_IT_number 39
_symmetry_cell_setting 'orthorhombic'
loop_
_space_group_symop_operation_xyz
x,y,z
-x,-y,z
-x,1/2+y,z
x,1/2-y,z
x,1/2+y,1/2+z
-x,1/2-y,1/2+z
-x,y,1/2+z
x,-y,1/2+z
loop_
_atom_site_type_symbol
_atom_site_label
_atom_site_fract_x
_atom_site_fract_y
_atom_site_fract_z
Si Si1 0.836125 0.095626 0.983660
Si Si2 0.774035 0.578231 0.934777
Si Si3 0.449044 0.581216 0.335034
Si Si4 0.747767 0.342014 0.603662
Si Si5 0.587817 0.660668 0.486687
Si Si6 0.479252 0.591660 0.655705
Si Si7 0.007157 0.407283 0.836803
Si Si8 0.995786 0.407367 0.641389
O O1 0.721381 0.144012 0.989379
O O2 0.898693 0.121725 0.893453
O O3 0.809189 0.002754 0.982406
O O4 0.912217 0.118803 0.068504
O O5 0.681088 0.566447 0.859825
O O6 0.881989 0.618779 0.890081
O O7 0.718601 0.639420 0.002644
O O8 0.500000 0.500000 0.303794
O O9 0.526526 0.611948 0.412174
O O10 0.460681 0.627142 0.243200
O O11 0.742647 0.250000 0.623512
O O12 0.655949 0.388608 0.662468
O O13 0.872550 0.376610 0.616159
O O14 0.566400 0.750000 0.463830
O O15 0.533408 0.641628 0.578908
O O16 0.500000 0.500000 0.635310
O O17 0.000000 0.500000 0.830155
O O18 0.016733 0.371936 0.738876
O O19 0.000000 0.500000 0.645366
#
# Coordination Sequence:
#
# PCOD8182228 Si02
#       8
#     8   8   8   8   8   8   8   8
#     4  11  21  41  65  96 129 172 224 272 331 399
#     4  11  20  42  69  91 129 171 220 285 327 403
#     4  11  24  42  71  99 126 170 230 281 340 408
#     4  12  25  43  67  96 135 180 225 277 347 418
#     4  12  26  42  63  95 137 175 215 278 347 413
#     4  11  26  44  70  99 129 175 232 288 337 414
#     4   9  21  36  63  99 124 159 221 272 322 388
#     4  11  22  39  70  97 127 175 220 276 336 400
#
# _framework density 20.836535000000001
#
# number of rings (size 3 to 8) (size 9 to 14) (size 15 to 20)
#    0.000    1.000    5.000    1.875    3.500    3.500 
#    0.000    0.625    0.000    0.000    0.000    0.000 
#    0.000    0.000    0.000    0.000    0.000    0.000 
#
# Total GULP energy -396694.678944 kJ/mol
# GULP energy per Si atom -12396.708717 kJ/mol
# Density = 2.078911 g / cm^3
# Si number density = 20.836535 Si / 1000 Ang^3
#
#
#
# Elastic Constant Matrix: (Units=GPa)
#
#
# Indices 1 2 3 4 5 6 
#
# 1 121.1884 22.2932 29.1516 0.0000 0.0000 0.0000
# 2 22.2932 62.8345 5.1859 0.0000 0.0000 0.0000
# 3 29.1516 5.1859 132.0183 0.0000 0.0000 0.0000
# 4 0.0000 0.0000 0.0000 -60.8160 0.0000 0.0000
# 5 0.0000 0.0000 0.0000 0.0000 16.2860 0.0000
# 6 0.0000 0.0000 0.0000 0.0000 0.0000 13.9187
#
#
#
# Elastic Compliance Matrix: (Units=1/GPa)
#
#
# Indices 1 2 3 4 5 6 
#
# 1 0.009293 -0.003138 -0.001929 0.000000 0.000000 0.000000
# 2 -0.003138 0.017026 0.000024 0.000000 0.000000 0.000000
# 3 -0.001929 0.000024 0.008000 0.000000 0.000000 0.000000
# 4 0.000000 0.000000 0.000000 -0.016443 0.000000 0.000000
# 5 0.000000 0.000000 0.000000 0.000000 0.061403 0.000000
# 6 0.000000 0.000000 0.000000 0.000000 0.000000 0.071846
#
#
# Mechanical properties :
#
#
# Convention : Reuss Voigt Hill
#
# Bulk Modulus (GPa) = 41.26506 47.70029 44.48267
# Shear Modulus (GPa) = 29.53572 11.17176 20.35374
#
# Velocity S-wave (km/s) = 3.76905 2.31803 3.12882
# Velocity P-wave (km/s) = 6.22801 5.48695 5.86919
#
# Compressibility (1/GPa) = 0.02423358
#
# Stress axis : x y z
#
# Youngs Moduli (GPa) = 107.61036 58.73328 125.00546
#
# Poissons Ratio (x) = 0.18430 0.24110
# Poissons Ratio (y) = 0.33766 -0.00301
# Poissons Ratio (z) = 0.20755 -0.00141
#
# Static dielectric constant tensor:
#      x y z
#    x 4.011530 0.000000 0.000000 
#    y 0.000000 3.652040 0.000000 
#    z 0.000000 0.000000 4.203360 
# 
# 
# High freq. dielectric constant tensor:
#      x y z
#    x 1.832390 0.000000 0.000000 
#    y 0.000000 1.779040 0.000000 
#    z 0.000000 0.000000 1.833980 
# 
# From -- ./inp_files/9441.got.cif
#   From: 2010.03.12/outbox.cif.g09.slc.cpg/sg39_5_cif.got.tgz:9441.got - 2010.04.14 02:53:20.
