data_PCOD8182477
_publ_section_title
;
Structure prediction by ZEFSAII (Michael W. Deem and Ramdas Pophale) SiO2 
 PCOD8182477
Probable space group: A M A 2
;
_chemical_formula_sum "Si O2"
_cell_formula_units_Z 64
_cell_length_a 9.002490
_cell_length_b 18.357491
_cell_length_c 25.958270
_cell_angle_alpha 90.000000
_cell_angle_beta 90.000000
_cell_angle_gamma 90.000000
_cell_volume 4289.944928
_symmetry_space_group_name_H-M "A M A 2"
_symmetry_group_IT_number 40
_symmetry_cell_setting 'orthorhombic'
loop_
_space_group_symop_operation_xyz
x,y,z
-x,-y,z
1/2-x,y,z
1/2+x,-y,z
x,1/2+y,1/2+z
-x,1/2-y,1/2+z
1/2-x,1/2+y,1/2+z
1/2+x,1/2-y,1/2+z
loop_
_atom_site_type_symbol
_atom_site_label
_atom_site_fract_x
_atom_site_fract_y
_atom_site_fract_z
Si Si1 0.920597 0.426280 0.977640
Si Si2 0.075211 0.841763 0.384955
Si Si3 0.925106 0.924377 0.298231
Si Si4 0.582257 0.159629 0.097200
Si Si5 0.922527 0.577075 0.491314
Si Si6 0.920240 0.797659 0.943031
Si Si7 0.077740 0.073926 0.179885
Si Si8 0.917213 0.283631 0.028429
O O1 0.750000 0.442343 0.963449
O O2 0.000000 0.500000 0.994793
O O3 0.997896 0.391813 0.927835
O O4 0.932143 0.371297 0.026901
O O5 0.250000 0.859511 0.384564
O O6 0.047396 0.755155 0.394183
O O7 0.000336 0.859579 0.330309
O O8 0.750000 0.928631 0.308837
O O9 0.961297 0.907563 0.238740
O O10 0.000000 0.000000 0.315433
O O11 0.750000 0.141979 0.114192
O O12 0.475477 0.140270 0.144307
O O13 0.562316 0.246333 0.084651
O O14 0.540004 0.113912 0.046129
O O15 0.750000 0.565011 0.483081
O O16 0.000000 0.500000 0.487845
O O17 0.981194 0.629089 0.444872
O O18 0.750000 0.822050 0.944813
O O19 0.955842 0.748090 0.992200
O O20 0.250000 0.061718 0.171656
O O21 0.000000 0.000000 0.161304
O O22 0.750000 0.261549 0.008440
#
# Coordination Sequence:
#
# PCOD8182477 Si02
#       8
#     8   8   8   8   8   8   8   8
#     4  10  18  28  42  60  84 111 139 170 203 241
#     4  10  19  30  44  61  81 108 141 172 205 244
#     4  10  20  32  44  59  81 108 139 173 207 242
#     4   9  17  29  44  60  79 107 140 170 202 240
#     4  10  19  29  42  61  85 112 141 170 202 241
#     4   9  17  28  42  60  81 105 135 170 204 241
#     4  10  20  31  43  60  81 107 138 172 207 241
#     4   8  16  29  42  57  79 108 138 167 201 242
#
# _framework density 14.918607
#
# number of rings (size 3 to 8) (size 9 to 14) (size 15 to 20)
#    0.000    2.500    0.000    3.750    0.000    7.000 
#    0.000    0.000    0.000    0.000    0.000    0.000 
#    0.000    1.000    0.000    4.500    0.000    4.500 
#
# Total GULP energy -396625.916216 kJ/mol
# GULP energy per Si atom -12394.559882 kJ/mol
# Density = 1.488465 g / cm^3
# Si number density = 14.918607 Si / 1000 Ang^3
#
#
#
# Elastic Constant Matrix: (Units=GPa)
#
#
# Indices 1 2 3 4 5 6 
#
# 1 90.5514 51.2950 40.7259 0.0000 0.0000 0.0000
# 2 51.2950 98.7999 43.5341 0.0000 0.0000 0.0000
# 3 40.7259 43.5341 63.1224 0.0000 0.0000 0.0000
# 4 0.0000 0.0000 0.0000 23.8154 0.0000 0.0000
# 5 0.0000 0.0000 0.0000 0.0000 22.0213 0.0000
# 6 0.0000 0.0000 0.0000 0.0000 0.0000 25.3033
#
#
#
# Elastic Compliance Matrix: (Units=1/GPa)
#
#
# Indices 1 2 3 4 5 6 
#
# 1 0.017717 -0.005978 -0.007307 0.000000 0.000000 0.000000
# 2 -0.005978 0.016557 -0.007562 0.000000 0.000000 0.000000
# 3 -0.007307 -0.007562 0.025772 0.000000 0.000000 0.000000
# 4 0.000000 0.000000 0.000000 0.041990 0.000000 0.000000
# 5 0.000000 0.000000 0.000000 0.000000 0.045411 0.000000
# 6 0.000000 0.000000 0.000000 0.000000 0.000000 0.039521
#
#
# Mechanical properties :
#
#
# Convention : Reuss Voigt Hill
#
# Bulk Modulus (GPa) = 54.49418 58.17598 56.33508
# Shear Modulus (GPa) = 21.29658 22.02257 21.65957
#
# Velocity S-wave (km/s) = 3.78235 3.84628 3.81445
# Velocity P-wave (km/s) = 7.46203 7.66847 7.56595
#
# Compressibility (1/GPa) = 0.01835058
#
# Stress axis : x y z
#
# Youngs Moduli (GPa) = 56.44453 60.39621 38.80128
#
# Poissons Ratio (x) = 0.36106 0.28354
# Poissons Ratio (y) = 0.33744 0.29342
# Poissons Ratio (z) = 0.41247 0.45672
#
# Static dielectric constant tensor:
#      x y z
#    x 3.025160 0.000000 0.000000 
#    y 0.000000 3.012290 0.000000 
#    z 0.000000 0.000000 2.696000 
# 
# 
# High freq. dielectric constant tensor:
#      x y z
#    x 1.590630 0.000000 0.000000 
#    y 0.000000 1.562650 0.000000 
#    z 0.000000 0.000000 1.529990 
# 
# From -- ./inp_files/24394.got.cif
#   From: 2010.03.12/outbox.cif.g09.slc.cpg/sg40_13_cif.got.tgz:24394.got - 2010.04.14 01:38:03.
