data_PCOD8182426
_publ_section_title
;
Structure prediction by ZEFSAII (Michael W. Deem and Ramdas Pophale) SiO2 
 PCOD8182426
Probable space group: A M A 2
;
_chemical_formula_sum "Si O2"
_cell_formula_units_Z 64
_cell_length_a 9.007662
_cell_length_b 26.500908
_cell_length_c 18.525283
_cell_angle_alpha 90.000000
_cell_angle_beta 90.000000
_cell_angle_gamma 90.000000
_cell_volume 4422.192942
_symmetry_space_group_name_H-M "A M A 2"
_symmetry_group_IT_number 40
_symmetry_cell_setting 'orthorhombic'
loop_
_space_group_symop_operation_xyz
x,y,z
-x,-y,z
1/2-x,y,z
1/2+x,-y,z
x,1/2+y,1/2+z
-x,1/2-y,1/2+z
1/2-x,1/2+y,1/2+z
1/2+x,1/2-y,1/2+z
loop_
_atom_site_type_symbol
_atom_site_label
_atom_site_fract_x
_atom_site_fract_y
_atom_site_fract_z
Si Si1 0.928156 0.753946 0.079820
Si Si2 0.087990 0.303773 0.948235
Si Si3 0.574913 0.249415 0.229733
Si Si4 0.587420 0.802458 0.870486
Si Si5 0.423463 0.949738 0.066328
Si Si6 0.924754 0.655272 0.499518
Si Si7 0.574691 0.050583 0.231325
Si Si8 0.572246 0.149686 0.309851
O O1 0.750000 0.757117 0.076652
O O2 0.984006 0.737966 0.157997
O O3 0.989922 0.710188 0.024457
O O4 0.992763 0.807786 0.055260
O O5 0.250000 0.326119 0.966361
O O6 0.104807 0.252179 0.904627
O O7 0.007064 0.342355 0.892100
O O8 0.750000 0.248626 0.213086
O O9 0.535245 0.293465 0.287695
O O10 0.519635 0.194793 0.257610
O O11 0.750000 0.828899 0.871930
O O12 0.471543 0.835803 0.916205
O O13 0.250000 0.959046 0.062002
O O14 0.473682 0.940145 0.148789
O O15 0.500000 0.000000 0.034841
O O16 0.471497 0.901612 0.019353
O O17 0.750000 0.663898 0.508382
O O18 0.750000 0.045716 0.239022
O O19 0.512718 0.097122 0.278467
O O20 0.500000 0.000000 0.262030
O O21 0.750000 0.151008 0.313930
#
# Coordination Sequence:
#
# PCOD8182426 Si02
#       8
#     8   8   8   8   8   8   8   8
#     4  10  18  26  38  58  82 105 132 164 196 231
#     4   7  12  23  37  53  72  96 127 158 185 219
#     4   9  16  27  42  58  78 104 134 163 192 231
#     4   8  15  27  41  57  77 101 128 160 197 235
#     4   9  18  29  40  56  77 102 132 165 197 229
#     4  10  18  28  42  58  78 105 136 165 195 234
#     4   9  16  26  39  54  73  97 127 160 191 221
#     4   8  13  24  41  54  69 100 134 157 182 224
#
# _framework density 14.472459000000001
#
# number of rings (size 3 to 8) (size 9 to 14) (size 15 to 20)
#    0.000    3.250    0.000    3.750    0.000    3.500 
#    0.000    3.125    0.000    3.750    0.000    0.000 
#    0.000    1.000    0.000    7.000    0.000    3.500 
#
# Total GULP energy -396441.941455 kJ/mol
# GULP energy per Si atom -12388.810670 kJ/mol
# Density = 1.443952 g / cm^3
# Si number density = 14.472459 Si / 1000 Ang^3
#
#
#
# Elastic Constant Matrix: (Units=GPa)
#
#
# Indices 1 2 3 4 5 6 
#
# 1 36.6395 25.1140 31.4045 0.0000 0.0000 0.0000
# 2 25.1140 79.9802 52.5793 0.0000 0.0000 0.0000
# 3 31.4045 52.5793 113.9021 0.0000 0.0000 0.0000
# 4 0.0000 0.0000 0.0000 23.5901 0.0000 0.0000
# 5 0.0000 0.0000 0.0000 0.0000 16.1831 0.0000
# 6 0.0000 0.0000 0.0000 0.0000 0.0000 17.9511
#
#
#
# Elastic Compliance Matrix: (Units=1/GPa)
#
#
# Indices 1 2 3 4 5 6 
#
# 1 0.038525 -0.007342 -0.007233 0.000000 0.000000 0.000000
# 2 -0.007342 0.019350 -0.006908 0.000000 0.000000 0.000000
# 3 -0.007233 -0.006908 0.013962 0.000000 0.000000 0.000000
# 4 0.000000 0.000000 0.000000 0.042391 0.000000 0.000000
# 5 0.000000 0.000000 0.000000 0.000000 0.061793 0.000000
# 6 0.000000 0.000000 0.000000 0.000000 0.000000 0.055707
#
#
# Mechanical properties :
#
#
# Convention : Reuss Voigt Hill
#
# Bulk Modulus (GPa) = 34.63598 49.85750 42.24674
# Shear Modulus (GPa) = 17.58605 19.63980 18.61292
#
# Velocity S-wave (km/s) = 3.48967 3.68781 3.59010
# Velocity P-wave (km/s) = 6.34203 7.25658 6.81466
#
# Compressibility (1/GPa) = 0.02887171
#
# Stress axis : x y z
#
# Youngs Moduli (GPa) = 25.95737 51.67998 71.62092
#
# Poissons Ratio (x) = 0.37944 0.51800
# Poissons Ratio (y) = 0.19058 0.49475
# Poissons Ratio (z) = 0.18774 0.35700
#
# Static dielectric constant tensor:
#      x y z
#    x 2.631890 0.000000 0.000000 
#    y 0.000000 2.733420 0.000000 
#    z 0.000000 0.000000 3.074420 
# 
# 
# High freq. dielectric constant tensor:
#      x y z
#    x 1.535720 0.000000 0.000000 
#    y 0.000000 1.519980 0.000000 
#    z 0.000000 0.000000 1.548940 
# 
# From -- ./inp_files/19762.got.cif
#   From: 2010.03.12/outbox.cif.g09.slc.cpg/sg40_10_cif.got.tgz:19762.got - 2010.04.14 01:38:03.
