data_PCOD8182147
_publ_section_title
;
Structure prediction by ZEFSAII (Michael W. Deem and Ramdas Pophale) SiO2 
 PCOD8182147
Probable space group: A B M 2
;
_chemical_formula_sum "Si O2"
_cell_formula_units_Z 64
_cell_length_a 15.203700
_cell_length_b 24.146110
_cell_length_c 9.025401
_cell_angle_alpha 90.000000
_cell_angle_beta 90.000000
_cell_angle_gamma 90.000000
_cell_volume 3313.316880
_symmetry_space_group_name_H-M "A B M 2"
_symmetry_group_IT_number 39
_symmetry_cell_setting 'orthorhombic'
loop_
_space_group_symop_operation_xyz
x,y,z
-x,-y,z
-x,1/2+y,z
x,1/2-y,z
x,1/2+y,1/2+z
-x,1/2-y,1/2+z
-x,y,1/2+z
x,-y,1/2+z
loop_
_atom_site_type_symbol
_atom_site_label
_atom_site_fract_x
_atom_site_fract_y
_atom_site_fract_z
Si Si1 0.697982 0.493306 0.953140
Si Si2 0.408084 0.688620 0.921340
Si Si3 0.580855 0.532342 0.194083
Si Si4 0.257041 0.883233 0.414948
Si Si5 0.256666 0.619538 0.068950
Si Si6 0.912580 0.812920 0.571196
Si Si7 0.424178 0.151862 0.099811
Si Si8 0.089946 0.186704 0.918467
O O1 0.668766 0.470536 0.793257
O O2 0.752196 0.550777 0.943021
O O3 0.606957 0.503715 0.039735
O O4 0.755358 0.445608 0.032441
O O5 0.379946 0.750000 0.974838
O O6 0.411420 0.690863 0.742474
O O7 0.338674 0.643720 0.978450
O O8 0.503683 0.675285 0.987798
O O9 0.500000 0.500000 0.268268
O O10 0.545530 0.593753 0.168821
O O11 0.274937 0.871230 0.242413
O O12 0.334497 0.855522 0.508615
O O13 0.168097 0.853710 0.469263
O O14 0.168110 0.649691 0.016203
O O15 0.892819 0.750000 0.521897
O O16 0.925869 0.817667 0.745056
O O17 0.001612 0.834727 0.496467
O O18 0.112252 0.250000 0.965214
#
# Coordination Sequence:
#
# PCOD8182147 Si02
#       8
#     8   8   8   8   8   8   8   8
#     4  11  21  37  57  86 118 153 198 249 298 353
#     4  12  25  40  57  83 120 160 205 249 297 355
#     4  11  22  35  58  83 111 153 202 251 295 346
#     4  10  23  40  62  86 121 159 196 247 303 359
#     4  11  21  40  61  86 120 158 197 247 304 354
#     4   9  19  37  62  89 114 149 194 244 296 356
#     4  11  25  39  57  85 118 158 203 247 298 355
#     4   9  19  38  63  90 117 148 194 244 298 358
#
# _framework density 19.315991
#
# number of rings (size 3 to 8) (size 9 to 14) (size 15 to 20)
#    0.000    1.500    2.500    2.625    3.500    2.500 
#    0.000    1.875    0.000    3.000    0.000    0.000 
#    0.000    0.000    0.000    0.000    0.000    0.000 
#
# Total GULP energy -396845.921742 kJ/mol
# GULP energy per Si atom -12401.435054 kJ/mol
# Density = 1.927203 g / cm^3
# Si number density = 19.315991 Si / 1000 Ang^3
#
#
#
# Elastic Constant Matrix: (Units=GPa)
#
#
# Indices 1 2 3 4 5 6 
#
# 1 119.7939 57.1236 40.2369 0.0000 0.0000 0.0000
# 2 57.1236 116.3609 24.3774 0.0000 0.0000 0.0000
# 3 40.2369 24.3774 73.0522 0.0000 0.0000 0.0000
# 4 0.0000 0.0000 0.0000 27.7768 0.0000 0.0000
# 5 0.0000 0.0000 0.0000 0.0000 33.7263 0.0000
# 6 0.0000 0.0000 0.0000 0.0000 0.0000 33.4540
#
#
#
# Elastic Compliance Matrix: (Units=1/GPa)
#
#
# Indices 1 2 3 4 5 6 
#
# 1 0.012502 -0.005048 -0.005202 0.000000 0.000000 0.000000
# 2 -0.005048 0.011278 -0.000983 0.000000 0.000000 0.000000
# 3 -0.005202 -0.000983 0.016882 0.000000 0.000000 0.000000
# 4 0.000000 0.000000 0.000000 0.036001 0.000000 0.000000
# 5 0.000000 0.000000 0.000000 0.000000 0.029650 0.000000
# 6 0.000000 0.000000 0.000000 0.000000 0.000000 0.029892
#
#
# Mechanical properties :
#
#
# Convention : Reuss Voigt Hill
#
# Bulk Modulus (GPa) = 54.95457 61.40921 58.18189
# Shear Modulus (GPa) = 30.35170 31.48935 30.92053
#
# Velocity S-wave (km/s) = 3.96829 4.04198 4.00531
# Velocity P-wave (km/s) = 7.03623 7.32423 7.18168
#
# Compressibility (1/GPa) = 0.01819685
#
# Stress axis : x y z
#
# Youngs Moduli (GPa) = 79.98889 88.66907 59.23496
#
# Poissons Ratio (x) = 0.44757 0.30811
# Poissons Ratio (y) = 0.40375 0.05824
# Poissons Ratio (z) = 0.41607 0.08718
#
# Static dielectric constant tensor:
#      x y z
#    x 3.339200 0.000000 0.000000 
#    y 0.000000 3.650240 0.000000 
#    z 0.000000 0.000000 3.563800 
# 
# 
# High freq. dielectric constant tensor:
#      x y z
#    x 1.732220 0.000000 0.000000 
#    y 0.000000 1.757790 0.000000 
#    z 0.000000 0.000000 1.761470 
# 
# From -- ./inp_files/3522.got.cif
#   From: 2010.03.12/outbox.cif.g09.slc.cpg/sg39_2_cif.got.tgz:3522.got - 2010.04.14 02:53:20.
