data_PCOD8182487
_publ_section_title
;
Structure prediction by ZEFSAII (Michael W. Deem and Ramdas Pophale) SiO2 
 PCOD8182487
Probable space group: A M A 2
;
_chemical_formula_sum "Si O2"
_cell_formula_units_Z 64
_cell_length_a 8.595126
_cell_length_b 26.510587
_cell_length_c 18.265187
_cell_angle_alpha 90.000000
_cell_angle_beta 90.000000
_cell_angle_gamma 90.000000
_cell_volume 4161.939037
_symmetry_space_group_name_H-M "A M A 2"
_symmetry_group_IT_number 40
_symmetry_cell_setting 'orthorhombic'
loop_
_space_group_symop_operation_xyz
x,y,z
-x,-y,z
1/2-x,y,z
1/2+x,-y,z
x,1/2+y,1/2+z
-x,1/2-y,1/2+z
1/2-x,1/2+y,1/2+z
1/2+x,1/2-y,1/2+z
loop_
_atom_site_type_symbol
_atom_site_label
_atom_site_fract_x
_atom_site_fract_y
_atom_site_fract_z
Si Si1 0.070274 0.201346 0.150130
Si Si2 0.430188 0.240313 0.771111
Si Si3 0.571714 0.741766 0.425472
Si Si4 0.065622 0.054477 0.772011
Si Si5 0.929853 0.793291 0.567921
Si Si6 0.068386 0.852381 0.023773
Si Si7 0.566333 0.053307 0.928963
Si Si8 0.066349 0.853420 0.686359
O O1 0.250000 0.195470 0.168871
O O2 0.978979 0.209031 0.226795
O O3 0.038404 0.250276 0.101441
O O4 0.014363 0.153067 0.102895
O O5 0.250000 0.228906 0.759948
O O6 0.463744 0.250260 0.855936
O O7 0.523953 0.191806 0.741853
O O8 0.750000 0.736341 0.399637
O O9 0.551922 0.790250 0.479827
O O10 0.516798 0.691170 0.467193
O O11 0.250000 0.053380 0.769785
O O12 0.010530 0.070178 0.852932
O O13 0.001269 0.094202 0.714327
O O14 0.000000 0.000000 0.750191
O O15 0.750000 0.783360 0.589463
O O16 0.990789 0.844803 0.605258
O O17 0.250000 0.847392 0.038394
O O18 0.021538 0.906194 0.990570
O O19 0.750000 0.049620 0.916448
O O20 0.500000 0.000000 0.956179
O O21 0.250000 0.857493 0.679419
#
# Coordination Sequence:
#
# PCOD8182487 Si02
#       8
#     8   8   8   8   8   8   8   8
#     4  10  18  28  43  61  83 110 142 179 215 254
#     4  11  20  29  43  63  88 116 147 179 213 256
#     4   9  17  29  44  62  86 114 145 179 215 255
#     4  11  21  33  47  64  87 114 147 183 219 255
#     4   9  17  30  45  61  84 112 141 175 214 255
#     4   9  18  31  45  60  83 115 146 178 216 255
#     4  10  19  31  46  64  88 116 146 182 220 255
#     4  11  20  31  46  63  86 115 148 181 215 255
#
# _framework density 15.377447999999999
#
# number of rings (size 3 to 8) (size 9 to 14) (size 15 to 20)
#    0.000    2.000    0.000    9.000    0.000    4.500 
#    0.000    0.000    0.000    0.000    0.000    0.000 
#    0.000    1.000    0.000    7.000    0.000    4.875 
#
# Total GULP energy -396703.335108 kJ/mol
# GULP energy per Si atom -12396.979222 kJ/mol
# Density = 1.534245 g / cm^3
# Si number density = 15.377448 Si / 1000 Ang^3
#
#
#
# Elastic Constant Matrix: (Units=GPa)
#
#
# Indices 1 2 3 4 5 6 
#
# 1 89.7845 34.9547 36.7456 0.0000 0.0000 0.0000
# 2 34.9547 78.7159 47.8082 0.0000 0.0000 0.0000
# 3 36.7456 47.8082 88.6993 0.0000 0.0000 0.0000
# 4 0.0000 0.0000 0.0000 27.7646 0.0000 0.0000
# 5 0.0000 0.0000 0.0000 0.0000 24.9632 0.0000
# 6 0.0000 0.0000 0.0000 0.0000 0.0000 18.2903
#
#
#
# Elastic Compliance Matrix: (Units=1/GPa)
#
#
# Indices 1 2 3 4 5 6 
#
# 1 0.014239 -0.004074 -0.003703 0.000000 0.000000 0.000000
# 2 -0.004074 0.020052 -0.009120 0.000000 0.000000 0.000000
# 3 -0.003703 -0.009120 0.017724 0.000000 0.000000 0.000000
# 4 0.000000 0.000000 0.000000 0.036017 0.000000 0.000000
# 5 0.000000 0.000000 0.000000 0.000000 0.040059 0.000000
# 6 0.000000 0.000000 0.000000 0.000000 0.000000 0.054674
#
#
# Mechanical properties :
#
#
# Convention : Reuss Voigt Hill
#
# Bulk Modulus (GPa) = 54.88256 55.13518 55.00887
# Shear Modulus (GPa) = 22.45840 23.38301 22.92071
#
# Velocity S-wave (km/s) = 3.82576 3.90372 3.86494
# Velocity P-wave (km/s) = 7.43526 7.50008 7.46774
#
# Compressibility (1/GPa) = 0.01822072
#
# Stress axis : x y z
#
# Youngs Moduli (GPa) = 70.22740 49.86975 56.42113
#
# Poissons Ratio (x) = 0.20318 0.20893
# Poissons Ratio (y) = 0.28611 0.51457
# Poissons Ratio (z) = 0.26006 0.45482
#
# Static dielectric constant tensor:
#      x y z
#    x 3.032410 0.000000 0.000000 
#    y 0.000000 2.861200 0.000000 
#    z 0.000000 0.000000 3.107050 
# 
# 
# High freq. dielectric constant tensor:
#      x y z
#    x 1.606900 0.000000 0.000000 
#    y 0.000000 1.554190 0.000000 
#    z 0.000000 0.000000 1.578840 
# 
# From -- ./inp_files/19779.got.cif
#   From: 2010.03.12/outbox.cif.g09.slc.cpg/sg40_10_cif.got.tgz:19779.got - 2010.04.14 01:38:03.
