data_PCOD8182584
_publ_section_title
;
Structure prediction by ZEFSAII (Michael W. Deem and Ramdas Pophale) SiO2 
 PCOD8182584
Probable space group: A M A 2
;
_chemical_formula_sum "Si O2"
_cell_formula_units_Z 56
_cell_length_a 8.416909
_cell_length_b 18.465373
_cell_length_c 20.996250
_cell_angle_alpha 90.000000
_cell_angle_beta 90.000000
_cell_angle_gamma 90.000000
_cell_volume 3263.265818
_symmetry_space_group_name_H-M "A M A 2"
_symmetry_group_IT_number 40
_symmetry_cell_setting 'orthorhombic'
loop_
_space_group_symop_operation_xyz
x,y,z
-x,-y,z
1/2-x,y,z
1/2+x,-y,z
x,1/2+y,1/2+z
-x,1/2-y,1/2+z
1/2-x,1/2+y,1/2+z
1/2+x,1/2-y,1/2+z
loop_
_atom_site_type_symbol
_atom_site_label
_atom_site_fract_x
_atom_site_fract_y
_atom_site_fract_z
Si Si1 0.936059 0.158912 0.862200
Si Si2 0.567357 0.205858 0.048879
Si Si3 0.938187 0.920576 0.479965
Si Si4 0.434862 0.784039 0.430196
Si Si5 0.061526 0.152554 0.609427
Si Si6 0.065452 0.577863 0.483824
Si Si7 0.438759 0.580935 0.238357
O O1 0.750000 0.171979 0.860207
O O2 0.025271 0.236981 0.867240
O O3 0.977401 0.105972 0.920812
O O4 0.991765 0.123125 0.797534
O O5 0.750000 0.183847 0.058737
O O6 0.508849 0.262384 0.103634
O O7 0.548872 0.249634 0.983423
O O8 0.465236 0.132000 0.043868
O O9 0.750000 0.918129 0.474879
O O10 0.001362 0.894597 0.549485
O O11 0.015298 0.868312 0.425656
O O12 0.000000 0.000000 0.465476
O O13 0.250000 0.775550 0.447614
O O14 0.250000 0.149145 0.608455
O O15 0.994078 0.119267 0.674498
O O16 0.250000 0.573475 0.468366
O O17 0.000000 0.500000 0.503644
O O18 0.500000 0.500000 0.239487
O O19 0.250000 0.581956 0.240826
#
# Coordination Sequence:
#
# PCOD8182584 Si02
#       7
#     8   8   8   8   8   8   8
#     4  11  21  34  48  66  92 125 159 196 234 277
#     4   9  16  30  48  68  92 121 153 191 233 278
#     4  10  18  30  47  71  98 126 156 193 235 278
#     4  10  18  30  47  68  91 121 155 192 234 281
#     4   8  17  31  48  67  94 127 159 191 229 272
#     4  11  20  31  47  70  95 123 154 192 236 281
#     4  11  21  34  48  68  95 127 162 195 227 269
#
# _framework density 17.160723999999998
#
# number of rings (size 3 to 8) (size 9 to 14) (size 15 to 20)
#    0.000    2.000    0.000    8.571    0.000    0.000 
#    0.000    7.857    0.000    0.000    0.000    1.000 
#    0.000    2.286    0.000    0.000    0.000    0.000 
#
# Total GULP energy -347063.516035 kJ/mol
# GULP energy per Si atom -12395.125573 kJ/mol
# Density = 1.712166 g / cm^3
# Si number density = 17.160724 Si / 1000 Ang^3
#
#
#
# Elastic Constant Matrix: (Units=GPa)
#
#
# Indices 1 2 3 4 5 6 
#
# 1 80.1431 35.8535 22.1936 0.0000 0.0000 0.0000
# 2 35.8535 165.2104 62.2008 0.0000 0.0000 0.0000
# 3 22.1936 62.2008 68.8790 0.0000 0.0000 0.0000
# 4 0.0000 0.0000 0.0000 28.8305 0.0000 0.0000
# 5 0.0000 0.0000 0.0000 0.0000 8.8516 0.0000
# 6 0.0000 0.0000 0.0000 0.0000 0.0000 31.0319
#
#
#
# Elastic Compliance Matrix: (Units=1/GPa)
#
#
# Indices 1 2 3 4 5 6 
#
# 1 0.014144 -0.002051 -0.002705 0.000000 0.000000 0.000000
# 2 -0.002051 0.009468 -0.007889 0.000000 0.000000 0.000000
# 3 -0.002705 -0.007889 0.022514 0.000000 0.000000 0.000000
# 4 0.000000 0.000000 0.000000 0.034686 0.000000 0.000000
# 5 0.000000 0.000000 0.000000 0.000000 0.112974 0.000000
# 6 0.000000 0.000000 0.000000 0.000000 0.000000 0.032225
#
#
# Mechanical properties :
#
#
# Convention : Reuss Voigt Hill
#
# Bulk Modulus (GPa) = 47.99486 61.63647 54.81567
# Shear Modulus (GPa) = 19.36119 26.67511 23.01815
#
# Velocity S-wave (km/s) = 3.36255 3.94690 3.66639
# Velocity P-wave (km/s) = 6.56538 7.53431 7.06647
#
# Compressibility (1/GPa) = 0.02083556
#
# Stress axis : x y z
#
# Youngs Moduli (GPa) = 70.69928 105.61510 44.41595
#
# Poissons Ratio (x) = 0.21662 0.12016
# Poissons Ratio (y) = 0.14501 0.35042
# Poissons Ratio (z) = 0.19126 0.83325
#
# Static dielectric constant tensor:
#      x y z
#    x 3.198330 0.000000 0.000000 
#    y 0.000000 3.659340 0.000000 
#    z 0.000000 0.000000 3.164000 
# 
# 
# High freq. dielectric constant tensor:
#      x y z
#    x 1.670720 0.000000 0.000000 
#    y 0.000000 1.673730 0.000000 
#    z 0.000000 0.000000 1.614090 
# 
# From -- ./inp_files/24349.got.cif
#   From: 2010.03.12/outbox.cif.g09.slc.cpg/sg40_13_cif.got.tgz:24349.got - 2010.04.14 01:38:03.
