data_PCOD8182168
_publ_section_title
;
Structure prediction by ZEFSAII (Michael W. Deem and Ramdas Pophale) SiO2 
 PCOD8182168
Probable space group: A B M 2
;
_chemical_formula_sum "Si O2"
_cell_formula_units_Z 48
_cell_length_a 12.187175
_cell_length_b 15.305516
_cell_length_c 11.334418
_cell_angle_alpha 90.000000
_cell_angle_beta 90.000000
_cell_angle_gamma 90.000000
_cell_volume 2114.220346
_symmetry_space_group_name_H-M "A B M 2"
_symmetry_group_IT_number 39
_symmetry_cell_setting 'orthorhombic'
loop_
_space_group_symop_operation_xyz
x,y,z
-x,-y,z
-x,1/2+y,z
x,1/2-y,z
x,1/2+y,1/2+z
-x,1/2-y,1/2+z
-x,y,1/2+z
x,-y,1/2+z
loop_
_atom_site_type_symbol
_atom_site_label
_atom_site_fract_x
_atom_site_fract_y
_atom_site_fract_z
Si Si1 0.651619 0.151787 0.376720
Si Si2 0.848381 0.151788 0.520684
Si Si3 0.088881 0.646867 0.971414
Si Si4 0.588881 0.646867 0.425990
Si Si5 0.728155 0.407583 0.138295
Si Si6 0.228155 0.592419 0.759109
O O1 0.643706 0.250000 0.424532
O O2 0.750000 0.102660 0.448702
O O3 0.533399 0.109102 0.404106
O O4 0.677407 0.154098 0.238407
O O5 0.856294 0.250000 0.472871
O O6 0.822593 0.154098 0.658997
O O7 0.966601 0.109103 0.493298
O O8 0.092896 0.750000 0.941227
O O9 0.140560 0.590193 0.865578
O O10 0.157103 0.630896 0.091343
O O11 0.592896 0.750000 0.456180
O O12 0.640560 0.590192 0.531826
O O13 0.657104 0.630899 0.306062
O O14 0.749999 0.500001 0.198702
#
# Coordination Sequence:
#
# PCOD8182168 Si02
#       6
#     8   8   8   8   8   8
#     4  10  23  42  68  98 128 170 228 276 323 396
#     4  10  23  42  68  98 128 170 228 276 323 396
#     4  10  23  46  72  94 130 181 226 273 329 400
#     4  10  23  46  72  94 130 181 226 273 329 400
#     4  11  24  42  65  99 134 174 217 273 340 399
#     4  11  24  42  65  99 134 174 217 273 340 399
#
# _framework density 22.703403999999999
#
# number of rings (size 3 to 8) (size 9 to 14) (size 15 to 20)
#    0.000    1.667    0.000    4.000    9.333    1.333 
#    0.000    0.000    0.000    0.000    0.000    0.000 
#    0.000    0.000    0.000    0.000    0.000    0.000 
#
# Total GULP energy -297538.346336 kJ/mol
# GULP energy per Si atom -12397.431097 kJ/mol
# Density = 2.265173 g / cm^3
# Si number density = 22.703404 Si / 1000 Ang^3
#
#
#
# Elastic Constant Matrix: (Units=GPa)
#
#
# Indices 1 2 3 4 5 6 
#
# 1 255.4686 28.8672 100.8561 0.0000 0.0000 0.0000
# 2 28.8672 73.8403 29.0182 0.0000 0.0000 0.0000
# 3 100.8561 29.0182 145.2815 0.0000 0.0000 0.0000
# 4 0.0000 0.0000 0.0000 41.4704 0.0000 0.0000
# 5 0.0000 0.0000 0.0000 0.0000 36.4547 0.0000
# 6 0.0000 0.0000 0.0000 0.0000 0.0000 16.2680
#
#
#
# Elastic Compliance Matrix: (Units=1/GPa)
#
#
# Indices 1 2 3 4 5 6 
#
# 1 0.005425 -0.000695 -0.003627 0.000000 0.000000 0.000000
# 2 -0.000695 0.014785 -0.002470 0.000000 0.000000 0.000000
# 3 -0.003627 -0.002470 0.009895 0.000000 0.000000 0.000000
# 4 0.000000 0.000000 0.000000 0.024114 0.000000 0.000000
# 5 0.000000 0.000000 0.000000 0.000000 0.027431 0.000000
# 6 0.000000 0.000000 0.000000 0.000000 0.000000 0.061470
#
#
# Mechanical properties :
#
#
# Convention : Reuss Voigt Hill
#
# Bulk Modulus (GPa) = 60.53631 88.00815 74.27223
# Shear Modulus (GPa) = 30.82376 39.89521 35.35948
#
# Velocity S-wave (km/s) = 3.68866 4.19649 3.95074
# Velocity P-wave (km/s) = 6.69802 7.89488 7.32095
#
# Compressibility (1/GPa) = 0.01651901
#
# Stress axis : x y z
#
# Youngs Moduli (GPa) = 184.33494 67.63400 101.06491
#
# Poissons Ratio (x) = 0.04703 0.36658
# Poissons Ratio (y) = 0.12819 0.24968
# Poissons Ratio (z) = 0.66861 0.16709
#
# Static dielectric constant tensor:
#      x y z
#    x 4.545130 0.000000 0.000000 
#    y 0.000000 3.747000 0.000000 
#    z 0.000000 0.000000 4.208550 
# 
# 
# High freq. dielectric constant tensor:
#      x y z
#    x 1.911930 0.000000 0.000000 
#    y 0.000000 1.879660 0.000000 
#    z 0.000000 0.000000 1.899010 
# 
# From -- ./inp_files/5808.got.cif
#   From: 2010.03.12/outbox.cif.g09.slc.cpg/sg39_3_cif.got.tgz:5808.got - 2010.04.14 02:53:20.
