data_PCOD8182755
_publ_section_title
;
Structure prediction by ZEFSAII (Michael W. Deem and Ramdas Pophale) SiO2 
 PCOD8182755
Probable space group: A M A 2
;
_chemical_formula_sum "Si O2"
_cell_formula_units_Z 64
_cell_length_a 16.587379
_cell_length_b 12.121708
_cell_length_c 16.273914
_cell_angle_alpha 90.000000
_cell_angle_beta 90.000000
_cell_angle_gamma 90.000000
_cell_volume 3272.153002
_symmetry_space_group_name_H-M "A M A 2"
_symmetry_group_IT_number 40
_symmetry_cell_setting 'orthorhombic'
loop_
_space_group_symop_operation_xyz
x,y,z
-x,-y,z
1/2-x,y,z
1/2+x,-y,z
x,1/2+y,1/2+z
-x,1/2-y,1/2+z
1/2-x,1/2+y,1/2+z
1/2+x,1/2-y,1/2+z
loop_
_atom_site_type_symbol
_atom_site_label
_atom_site_fract_x
_atom_site_fract_y
_atom_site_fract_z
Si Si1 0.843142 0.351824 0.746000
Si Si2 0.657254 0.539110 0.510791
Si Si3 0.344503 0.375336 0.980768
Si Si4 0.154829 0.907624 0.290800
Si Si5 0.654553 0.725232 0.397188
Si Si6 0.655413 0.386553 0.039363
Si Si7 0.907244 0.201574 0.138405
Si Si8 0.414212 0.676326 0.575601
O O1 0.750000 0.360265 0.768582
O O2 0.879828 0.472291 0.764793
O O3 0.879936 0.257446 0.807001
O O4 0.853362 0.316819 0.652192
O O5 0.750000 0.501285 0.500490
O O6 0.623553 0.606470 0.430837
O O7 0.653071 0.620526 0.589167
O O8 0.601622 0.432564 0.521867
O O9 0.250000 0.348401 0.992244
O O10 0.366333 0.386181 0.885278
O O11 0.368907 0.486109 0.029618
O O12 0.400284 0.280384 0.017558
O O13 0.250000 0.897204 0.275120
O O14 0.107523 0.817870 0.235262
O O15 0.750000 0.716420 0.397749
O O16 0.626630 0.822701 0.457853
O O17 0.750000 0.375311 0.052583
O O18 0.611604 0.329759 0.117500
O O19 0.997341 0.171255 0.112841
#
# Coordination Sequence:
#
# PCOD8182755 Si02
#       8
#     8   8   8   8   8   8   8   8
#     4  10  18  33  58  86 114 148 194 247 290 340
#     4  10  19  35  59  82 110 152 198 242 282 342
#     4  10  21  39  62  89 118 152 198 251 299 348
#     4  10  19  36  63  88 112 146 200 256 289 337
#     4   8  15  30  55  85 107 135 189 243 281 326
#     4   9  17  35  61  85 110 148 199 243 284 348
#     4  11  22  36  55  86 119 155 196 238 295 355
#     4  12  24  36  53  88 128 156 183 238 310 364
#
# _framework density 19.558987999999999
#
# number of rings (size 3 to 8) (size 9 to 14) (size 15 to 20)
#    0.000    2.000    2.500    3.375    0.000    0.500 
#    4.500    2.500    0.000    3.000    0.000    0.000 
#    0.000    0.000    0.000    0.000    0.000    0.000 
#
# Total GULP energy -396716.053570 kJ/mol
# GULP energy per Si atom -12397.376674 kJ/mol
# Density = 1.951447 g / cm^3
# Si number density = 19.558988 Si / 1000 Ang^3
#
#
#
# Elastic Constant Matrix: (Units=GPa)
#
#
# Indices 1 2 3 4 5 6 
#
# 1 50.3726 32.7623 22.5707 0.0000 0.0000 0.0000
# 2 32.7623 126.4605 69.8972 0.0000 0.0000 0.0000
# 3 22.5707 69.8972 114.3913 0.0000 0.0000 0.0000
# 4 0.0000 0.0000 0.0000 37.1058 0.0000 0.0000
# 5 0.0000 0.0000 0.0000 0.0000 17.5136 0.0000
# 6 0.0000 0.0000 0.0000 0.0000 0.0000 16.9685
#
#
#
# Elastic Compliance Matrix: (Units=1/GPa)
#
#
# Indices 1 2 3 4 5 6 
#
# 1 0.024026 -0.005442 -0.001415 0.000000 0.000000 0.000000
# 2 -0.005442 0.013173 -0.006975 0.000000 0.000000 0.000000
# 3 -0.001415 -0.006975 0.013283 0.000000 0.000000 0.000000
# 4 0.000000 0.000000 0.000000 0.026950 0.000000 0.000000
# 5 0.000000 0.000000 0.000000 0.000000 0.057099 0.000000
# 6 0.000000 0.000000 0.000000 0.000000 0.000000 0.058933
#
#
# Mechanical properties :
#
#
# Convention : Reuss Voigt Hill
#
# Bulk Modulus (GPa) = 43.82766 60.18720 52.00743
# Shear Modulus (GPa) = 21.85943 25.38385 23.62164
#
# Velocity S-wave (km/s) = 3.34670 3.60642 3.47899
# Velocity P-wave (km/s) = 6.11478 6.94123 6.54107
#
# Compressibility (1/GPa) = 0.02281664
#
# Stress axis : x y z
#
# Youngs Moduli (GPa) = 41.62191 75.91319 75.28232
#
# Poissons Ratio (x) = 0.41314 0.10654
# Poissons Ratio (y) = 0.22652 0.52512
# Poissons Ratio (z) = 0.05890 0.52952
#
# Static dielectric constant tensor:
#      x y z
#    x 3.247270 0.000000 0.000000 
#    y 0.000000 3.639250 0.000000 
#    z 0.000000 0.000000 3.668610 
# 
# 
# High freq. dielectric constant tensor:
#      x y z
#    x 1.738610 0.000000 0.000000 
#    y 0.000000 1.754710 0.000000 
#    z 0.000000 0.000000 1.753070 
# 
# From -- ./inp_files/20791.got.cif
#   From: 2010.03.12/outbox.cif.g09.slc.cpg/sg40_11_cif.got.tgz:20791.got - 2010.04.14 01:38:03.
