data_PCOD8182101
_publ_section_title
;
Structure prediction by ZEFSAII (Michael W. Deem and Ramdas Pophale) SiO2 
 PCOD8182101
Probable space group: A B M 2
;
_chemical_formula_sum "Si O2"
_cell_formula_units_Z 48
_cell_length_a 26.034321
_cell_length_b 8.135691
_cell_length_c 10.259549
_cell_angle_alpha 90.000000
_cell_angle_beta 90.000000
_cell_angle_gamma 90.000000
_cell_volume 2173.046255
_symmetry_space_group_name_H-M "A B M 2"
_symmetry_group_IT_number 39
_symmetry_cell_setting 'orthorhombic'
loop_
_space_group_symop_operation_xyz
x,y,z
-x,-y,z
-x,1/2+y,z
x,1/2-y,z
x,1/2+y,1/2+z
-x,1/2-y,1/2+z
-x,y,1/2+z
x,-y,1/2+z
loop_
_atom_site_type_symbol
_atom_site_label
_atom_site_fract_x
_atom_site_fract_y
_atom_site_fract_z
Si Si1 0.207472 0.939389 0.563300
Si Si2 0.977093 0.250000 0.110831
Si Si3 0.268183 0.444711 0.319377
Si Si4 0.103398 0.429375 0.469583
Si Si5 0.383894 0.443356 0.310177
Si Si6 0.943468 0.750000 0.888028
Si Si7 0.442322 0.943621 0.561321
O O1 0.191602 0.750000 0.572089
O O2 0.234421 0.998326 0.695776
O O3 0.246587 0.964831 0.445404
O O4 0.156240 0.045416 0.546220
O O5 0.943567 0.087727 0.073224
O O6 0.984726 0.250000 0.268499
O O7 0.029563 0.250000 0.029175
O O8 0.266773 0.250000 0.341333
O O9 0.325957 0.510362 0.297263
O O10 0.107501 0.250000 0.394539
O O11 0.091605 0.585211 0.376007
O O12 0.383143 0.250000 0.295176
O O13 0.406635 0.492130 0.447488
O O14 0.419400 0.518174 0.195319
O O15 0.440804 0.750000 0.562336
O O16 0.500000 0.000000 0.539815
#
# Coordination Sequence:
#
# PCOD8182101 Si02
#       7
#     8   4   8   8   8   4   8
#     4  11  23  42  66  96 132 174 220 273 332 393
#     4  10  28  46  76 102 138 180 230 268 347 400
#     4  10  23  41  65  94 129 171 216 274 334 392
#     4  10  25  44  69 104 134 180 222 278 333 403
#     4  10  22  41  62  91 128 165 216 271 328 390
#     4  12  24  54  70 106 140 180 224 284 331 406
#     4  11  23  39  62  91 126 168 216 266 327 392
#
# _framework density 22.088806000000002
#
# number of rings (size 3 to 8) (size 9 to 14) (size 15 to 20)
#    0.500    1.000    0.833    3.000    2.333    8.667 
#    1.500    0.000    0.000    0.000    0.000    0.000 
#    0.000    0.000    0.000    0.000    0.000    0.000 
#
# Total GULP energy -297537.547430 kJ/mol
# GULP energy per Si atom -12397.397810 kJ/mol
# Density = 2.203853 g / cm^3
# Si number density = 22.088806 Si / 1000 Ang^3
#
#
#
# Elastic Constant Matrix: (Units=GPa)
#
#
# Indices 1 2 3 4 5 6 
#
# 1 93.7770 4.4313 -8.2326 0.0000 0.0000 0.0000
# 2 4.4313 132.6733 20.4711 0.0000 0.0000 0.0000
# 3 -8.2326 20.4711 88.2766 0.0000 0.0000 0.0000
# 4 0.0000 0.0000 0.0000 23.6977 0.0000 0.0000
# 5 0.0000 0.0000 0.0000 0.0000 38.6192 0.0000
# 6 0.0000 0.0000 0.0000 0.0000 0.0000 21.9147
#
#
#
# Elastic Compliance Matrix: (Units=1/GPa)
#
#
# Indices 1 2 3 4 5 6 
#
# 1 0.010788 -0.000535 0.001130 0.000000 0.000000 0.000000
# 2 -0.000535 0.007844 -0.001869 0.000000 0.000000 0.000000
# 3 0.001130 -0.001869 0.011867 0.000000 0.000000 0.000000
# 4 0.000000 0.000000 0.000000 0.042198 0.000000 0.000000
# 5 0.000000 0.000000 0.000000 0.000000 0.025894 0.000000
# 6 0.000000 0.000000 0.000000 0.000000 0.000000 0.045631
#
#
# Mechanical properties :
#
#
# Convention : Reuss Voigt Hill
#
# Bulk Modulus (GPa) = 35.77608 38.67406 37.22507
# Shear Modulus (GPa) = 32.03364 36.71678 34.37521
#
# Velocity S-wave (km/s) = 3.81231 4.08147 3.94918
# Velocity P-wave (km/s) = 5.96740 6.30537 6.13871
#
# Compressibility (1/GPa) = 0.02795163
#
# Stress axis : x y z
#
# Youngs Moduli (GPa) = 92.69495 127.49390 84.26886
#
# Poissons Ratio (x) = 0.06817 -0.09523
# Poissons Ratio (y) = 0.04956 0.15748
# Poissons Ratio (z) = -0.10475 0.23825
#
# Static dielectric constant tensor:
#      x y z
#    x 4.183090 0.000000 0.000000 
#    y 0.000000 3.994180 0.000000 
#    z 0.000000 0.000000 3.783710 
# 
# 
# High freq. dielectric constant tensor:
#      x y z
#    x 1.881190 0.000000 0.000000 
#    y 0.000000 1.870410 0.000000 
#    z 0.000000 0.000000 1.860780 
# 
# From -- ./inp_files/4147.got.cif
#   From: 2010.03.12/outbox.cif.g09.slc.cpg/sg39_3_cif.got.tgz:4147.got - 2010.04.14 02:53:20.
