data_PCOD8182035
_publ_section_title
;
Structure prediction by ZEFSAII (Michael W. Deem and Ramdas Pophale) SiO2 
 PCOD8182035
Probable space group: A B M 2
;
_chemical_formula_sum "Si O2"
_cell_formula_units_Z 48
_cell_length_a 8.608528
_cell_length_b 15.152728
_cell_length_c 18.876783
_cell_angle_alpha 90.000000
_cell_angle_beta 90.000000
_cell_angle_gamma 90.000000
_cell_volume 2462.338226
_symmetry_space_group_name_H-M "A B M 2"
_symmetry_group_IT_number 39
_symmetry_cell_setting 'orthorhombic'
loop_
_space_group_symop_operation_xyz
x,y,z
-x,-y,z
-x,1/2+y,z
x,1/2-y,z
x,1/2+y,1/2+z
-x,1/2-y,1/2+z
-x,y,1/2+z
x,-y,1/2+z
loop_
_atom_site_type_symbol
_atom_site_label
_atom_site_fract_x
_atom_site_fract_y
_atom_site_fract_z
Si Si1 0.657218 0.648075 0.672460
Si Si2 0.219117 0.653165 0.022408
Si Si3 0.816125 0.511214 0.776890
Si Si4 0.816321 0.506511 0.933259
Si Si5 0.906114 0.909895 0.064190
Si Si6 0.703236 0.649079 0.196312
O O1 0.704578 0.750000 0.686013
O O2 0.694023 0.618667 0.592637
O O3 0.757084 0.587789 0.725314
O O4 0.475906 0.632343 0.680798
O O5 0.278984 0.750000 0.000348
O O6 0.035690 0.660362 0.040729
O O7 0.255107 0.587955 0.956943
O O8 0.754269 0.535536 0.856245
O O9 0.745989 0.415405 0.760164
O O10 0.000000 0.500000 0.771559
O O11 0.000000 0.500000 0.926466
O O12 0.786433 0.575173 0.997816
O O13 0.807073 0.874207 0.128749
O O14 0.000000 0.000000 0.084095
O O15 0.734877 0.750000 0.218943
#
# Coordination Sequence:
#
# PCOD8182035 Si02
#       6
#     8   8   8   8   8   8
#     4  10  22  38  55  78 108 142 179 220 265 311
#     4   9  16  31  55  77 100 132 173 220 264 310
#     4  11  21  36  56  79 109 142 178 219 263 313
#     4   8  18  33  50  76 105 133 169 216 267 311
#     4   9  17  33  54  79 105 133 175 220 264 312
#     4  11  22  35  54  81 111 142 177 217 262 315
#
# _framework density 19.493666999999999
#
# number of rings (size 3 to 8) (size 9 to 14) (size 15 to 20)
#    0.000    2.667    0.000    4.500    0.000    3.333 
#    0.000   10.833    0.000    4.000    0.000    0.000 
#    0.000    0.000    0.000    0.000    0.000    0.000 
#
# Total GULP energy -297392.506758 kJ/mol
# GULP energy per Si atom -12391.354448 kJ/mol
# Density = 1.944930 g / cm^3
# Si number density = 19.493667 Si / 1000 Ang^3
#
#
#
# Elastic Constant Matrix: (Units=GPa)
#
#
# Indices 1 2 3 4 5 6 
#
# 1 62.2948 28.2960 22.2537 0.0000 0.0000 0.0000
# 2 28.2960 89.6492 34.3123 0.0000 0.0000 0.0000
# 3 22.2537 34.3123 76.8307 0.0000 0.0000 0.0000
# 4 0.0000 0.0000 0.0000 18.4832 0.0000 0.0000
# 5 0.0000 0.0000 0.0000 0.0000 -9.8301 0.0000
# 6 0.0000 0.0000 0.0000 0.0000 0.0000 24.4085
#
#
#
# Elastic Compliance Matrix: (Units=1/GPa)
#
#
# Indices 1 2 3 4 5 6 
#
# 1 0.019487 -0.004813 -0.003495 0.000000 0.000000 0.000000
# 2 -0.004813 0.014643 -0.005145 0.000000 0.000000 0.000000
# 3 -0.003495 -0.005145 0.016326 0.000000 0.000000 0.000000
# 4 0.000000 0.000000 0.000000 0.054103 0.000000 0.000000
# 5 0.000000 0.000000 0.000000 0.000000 -0.101728 0.000000
# 6 0.000000 0.000000 0.000000 0.000000 0.000000 0.040969
#
#
# Mechanical properties :
#
#
# Convention : Reuss Voigt Hill
#
# Bulk Modulus (GPa) = 42.46398 44.27763 43.37081
# Shear Modulus (GPa) = 63.64731 16.20649 39.92690
#
# Velocity S-wave (km/s) = 5.72024 2.88648 4.53061
# Velocity P-wave (km/s) = 8.09067 5.81998 7.04738
#
# Compressibility (1/GPa) = 0.02354937
#
# Stress axis : x y z
#
# Youngs Moduli (GPa) = 51.31497 68.29127 61.25249
#
# Poissons Ratio (x) = 0.32870 0.21407
# Poissons Ratio (y) = 0.24699 0.31517
# Poissons Ratio (z) = 0.17934 0.35139
#
# Static dielectric constant tensor:
#      x y z
#    x 3.437740 0.000000 0.000000 
#    y 0.000000 3.641230 0.000000 
#    z 0.000000 0.000000 4.021870 
# 
# 
# High freq. dielectric constant tensor:
#      x y z
#    x 1.741280 0.000000 0.000000 
#    y 0.000000 1.758860 0.000000 
#    z 0.000000 0.000000 1.758410 
# 
# From -- ./inp_files/13933.got.cif
#   From: 2010.03.12/outbox.cif.g09.slc.cpg/sg39_7_cif.got.tgz:13933.got - 2010.04.14 02:53:20.
