data_PCOD8182532
_publ_section_title
;
Structure prediction by ZEFSAII (Michael W. Deem and Ramdas Pophale) SiO2 
 PCOD8182532
Probable space group: A M A 2
;
_chemical_formula_sum "Si O2"
_cell_formula_units_Z 64
_cell_length_a 8.603255
_cell_length_b 26.536861
_cell_length_c 18.332183
_cell_angle_alpha 90.000000
_cell_angle_beta 90.000000
_cell_angle_gamma 90.000000
_cell_volume 4185.299380
_symmetry_space_group_name_H-M "A M A 2"
_symmetry_group_IT_number 40
_symmetry_cell_setting 'orthorhombic'
loop_
_space_group_symop_operation_xyz
x,y,z
-x,-y,z
1/2-x,y,z
1/2+x,-y,z
x,1/2+y,1/2+z
-x,1/2-y,1/2+z
1/2-x,1/2+y,1/2+z
1/2+x,1/2-y,1/2+z
loop_
_atom_site_type_symbol
_atom_site_label
_atom_site_fract_x
_atom_site_fract_y
_atom_site_fract_z
Si Si1 0.066875 0.947449 0.340640
Si Si2 0.434211 0.446869 0.674185
Si Si3 0.570952 0.256851 0.841144
Si Si4 0.071047 0.207803 0.543580
Si Si5 0.928037 0.742878 0.688076
Si Si6 0.432507 0.149953 0.103282
Si Si7 0.427442 0.202104 0.961934
Si Si8 0.566682 0.650004 0.925434
O O1 0.250000 0.950735 0.344098
O O2 0.012672 0.937748 0.257601
O O3 0.004112 0.901760 0.390091
O O4 0.000000 0.000000 0.370790
O O5 0.500000 0.500000 0.646409
O O6 0.250000 0.444834 0.665053
O O7 0.514078 0.405425 0.623925
O O8 0.750000 0.270478 0.848920
O O9 0.532522 0.245110 0.757610
O O10 0.531640 0.206486 0.888748
O O11 0.473229 0.304270 0.870617
O O12 0.250000 0.220409 0.523481
O O13 0.049542 0.210449 0.631098
O O14 0.953359 0.247770 0.509107
O O15 0.019230 0.155599 0.504583
O O16 0.750000 0.738417 0.713076
O O17 0.974029 0.690127 0.651473
O O18 0.250000 0.157973 0.117529
O O19 0.471209 0.156315 0.016596
O O20 0.250000 0.198611 0.936488
O O21 0.750000 0.647904 0.937268
#
# Coordination Sequence:
#
# PCOD8182532 Si02
#       8
#     8   8   8   8   8   8   8   8
#     4   9  19  31  43  60  81 109 141 174 210 244
#     4  10  19  31  45  61  85 114 145 181 216 249
#     4  11  20  28  42  63  85 111 144 176 208 249
#     4   9  17  28  42  60  81 108 141 173 206 246
#     4  10  19  30  43  60  85 114 143 175 211 249
#     4  10  19  30  45  64  84 111 146 177 211 254
#     4   9  17  29  43  59  83 111 138 172 210 249
#     4  10  18  29  44  61  84 112 141 172 211 252
#
# _framework density 15.291619000000001
#
# number of rings (size 3 to 8) (size 9 to 14) (size 15 to 20)
#    0.000    2.250    0.000    5.625    0.000    5.500 
#    0.000    0.000    0.000    0.000    0.000    0.000 
#    0.000    1.000    0.000    7.000    0.000    5.125 
#
# Total GULP energy -396638.743235 kJ/mol
# GULP energy per Si atom -12394.960726 kJ/mol
# Density = 1.525681 g / cm^3
# Si number density = 15.291619 Si / 1000 Ang^3
#
#
#
# Elastic Constant Matrix: (Units=GPa)
#
#
# Indices 1 2 3 4 5 6 
#
# 1 43.4180 19.6210 24.9658 0.0000 0.0000 0.0000
# 2 19.6210 85.5732 49.3418 0.0000 0.0000 0.0000
# 3 24.9658 49.3418 94.5458 0.0000 0.0000 0.0000
# 4 0.0000 0.0000 0.0000 27.7411 0.0000 0.0000
# 5 0.0000 0.0000 0.0000 0.0000 24.1874 0.0000
# 6 0.0000 0.0000 0.0000 0.0000 0.0000 21.3715
#
#
#
# Elastic Compliance Matrix: (Units=1/GPa)
#
#
# Indices 1 2 3 4 5 6 
#
# 1 0.027701 -0.003052 -0.005722 0.000000 0.000000 0.000000
# 2 -0.003052 0.017052 -0.008093 0.000000 0.000000 0.000000
# 3 -0.005722 -0.008093 0.016312 0.000000 0.000000 0.000000
# 4 0.000000 0.000000 0.000000 0.036048 0.000000 0.000000
# 5 0.000000 0.000000 0.000000 0.000000 0.041344 0.000000
# 6 0.000000 0.000000 0.000000 0.000000 0.000000 0.046791
#
#
# Mechanical properties :
#
#
# Convention : Reuss Voigt Hill
#
# Bulk Modulus (GPa) = 36.58951 45.71049 41.15000
# Shear Modulus (GPa) = 21.92084 23.30057 22.61071
#
# Velocity S-wave (km/s) = 3.79029 3.90776 3.84947
# Velocity P-wave (km/s) = 6.56771 7.09353 6.83568
#
# Compressibility (1/GPa) = 0.02733024
#
# Stress axis : x y z
#
# Youngs Moduli (GPa) = 36.09918 58.64263 61.30615
#
# Poissons Ratio (x) = 0.17900 0.35079
# Poissons Ratio (y) = 0.11019 0.49617
# Poissons Ratio (z) = 0.20655 0.47462
#
# Static dielectric constant tensor:
#      x y z
#    x 2.994830 0.000000 0.000000 
#    y 0.000000 2.869340 0.000000 
#    z 0.000000 0.000000 3.180080 
# 
# 
# High freq. dielectric constant tensor:
#      x y z
#    x 1.602750 0.000000 0.000000 
#    y 0.000000 1.547890 0.000000 
#    z 0.000000 0.000000 1.577150 
# 
# From -- ./inp_files/19785.got.cif
#   From: 2010.03.12/outbox.cif.g09.slc.cpg/sg40_10_cif.got.tgz:19785.got - 2010.04.14 01:38:03.
