data_PCOD8182862
_publ_section_title
;
Structure prediction by ZEFSAII (Michael W. Deem and Ramdas Pophale) SiO2 
 PCOD8182862
Probable space group: A M A 2
;
_chemical_formula_sum "Si O2"
_cell_formula_units_Z 64
_cell_length_a 8.984407
_cell_length_b 22.148000
_cell_length_c 15.450547
_cell_angle_alpha 90.000000
_cell_angle_beta 90.000000
_cell_angle_gamma 90.000000
_cell_volume 3074.452530
_symmetry_space_group_name_H-M "A M A 2"
_symmetry_group_IT_number 40
_symmetry_cell_setting 'orthorhombic'
loop_
_space_group_symop_operation_xyz
x,y,z
-x,-y,z
1/2-x,y,z
1/2+x,-y,z
x,1/2+y,1/2+z
-x,1/2-y,1/2+z
1/2-x,1/2+y,1/2+z
1/2+x,1/2-y,1/2+z
loop_
_atom_site_type_symbol
_atom_site_label
_atom_site_fract_x
_atom_site_fract_y
_atom_site_fract_z
Si Si1 0.422553 0.314959 0.766670
Si Si2 0.923590 0.564159 0.195908
Si Si3 0.575345 0.438474 0.715419
Si Si4 0.579995 0.063163 0.883661
Si Si5 0.087318 0.110174 0.035419
Si Si6 0.926598 0.934496 0.528802
Si Si7 0.923077 0.673758 0.959844
Si Si8 0.082986 0.241428 0.114382
O O1 0.250000 0.323500 0.743359
O O2 0.501776 0.379662 0.757822
O O3 0.444370 0.293611 0.866606
O O4 0.487435 0.262564 0.703124
O O5 0.750000 0.557855 0.171606
O O6 0.946641 0.595144 0.289764
O O7 0.000000 0.500000 0.204463
O O8 0.011060 0.596932 0.117995
O O9 0.500000 0.500000 0.751286
O O10 0.750000 0.438624 0.738892
O O11 0.549334 0.436803 0.611817
O O12 0.750000 0.047644 0.896143
O O13 0.500000 0.000000 0.895200
O O14 0.529629 0.108775 0.957789
O O15 0.250000 0.095628 0.996849
O O16 0.085223 0.175674 0.075192
O O17 0.750000 0.941050 0.529694
O O18 0.981104 0.888268 0.455364
O O19 0.000000 0.000000 0.514393
O O20 0.750000 0.658076 0.974101
O O21 0.982838 0.715202 0.039235
O O22 0.250000 0.262572 0.139473
#
# Coordination Sequence:
#
# PCOD8182862 Si02
#       8
#     8   8   8   8   8   8   8   8
#     4  10  21  38  62  89 119 154 196 245 292 345
#     4   9  17  31  49  71 106 146 185 228 282 337
#     4  10  20  34  54  82 117 156 196 239 295 353
#     4  10  19  29  46  73 107 147 191 238 288 342
#     4   9  18  32  51  75 106 147 191 235 288 345
#     4  11  22  37  60  88 117 151 191 236 289 349
#     4  10  22  42  65  88 119 156 193 238 295 350
#     4   9  20  41  63  82 113 155 192 239 297 345
#
# _framework density 20.816714000000001
#
# number of rings (size 3 to 8) (size 9 to 14) (size 15 to 20)
#    0.000    2.250    0.000    4.500    0.000    7.000 
#    2.250    0.000    0.000    0.000    0.000    0.000 
#    0.000    0.000    0.000    0.000    0.000    0.000 
#
# Total GULP energy -396546.938005 kJ/mol
# GULP energy per Si atom -12392.091813 kJ/mol
# Density = 2.076933 g / cm^3
# Si number density = 20.816714 Si / 1000 Ang^3
#
#
#
# Elastic Constant Matrix: (Units=GPa)
#
#
# Indices 1 2 3 4 5 6 
#
# 1 122.4566 27.2773 58.2625 0.0000 0.0000 0.0000
# 2 27.2773 53.4742 33.7838 0.0000 0.0000 0.0000
# 3 58.2625 33.7838 120.0195 0.0000 0.0000 0.0000
# 4 0.0000 0.0000 0.0000 25.6994 0.0000 0.0000
# 5 0.0000 0.0000 0.0000 0.0000 32.1742 0.0000
# 6 0.0000 0.0000 0.0000 0.0000 0.0000 22.3007
#
#
#
# Elastic Compliance Matrix: (Units=1/GPa)
#
#
# Indices 1 2 3 4 5 6 
#
# 1 0.010931 -0.002704 -0.004545 0.000000 0.000000 0.000000
# 2 -0.002704 0.023415 -0.005278 0.000000 0.000000 0.000000
# 3 -0.004545 -0.005278 0.012024 0.000000 0.000000 0.000000
# 4 0.000000 0.000000 0.000000 0.038911 0.000000 0.000000
# 5 0.000000 0.000000 0.000000 0.000000 0.031081 0.000000
# 6 0.000000 0.000000 0.000000 0.000000 0.000000 0.044842
#
#
# Mechanical properties :
#
#
# Convention : Reuss Voigt Hill
#
# Bulk Modulus (GPa) = 46.91625 59.39972 53.15798
# Shear Modulus (GPa) = 25.85797 27.80995 26.83396
#
# Velocity S-wave (km/s) = 3.52827 3.65902 3.59424
# Velocity P-wave (km/s) = 6.25979 6.81526 6.54342
#
# Compressibility (1/GPa) = 0.02131458
#
# Stress axis : x y z
#
# Youngs Moduli (GPa) = 91.48234 42.70818 83.16641
#
# Poissons Ratio (x) = 0.11550 0.37800
# Poissons Ratio (y) = 0.24741 0.43896
# Poissons Ratio (z) = 0.41580 0.22542
#
# Static dielectric constant tensor:
#      x y z
#    x 3.962710 0.000000 0.000000 
#    y 0.000000 3.446490 0.000000 
#    z 0.000000 0.000000 4.329760 
# 
# 
# High freq. dielectric constant tensor:
#      x y z
#    x 1.816550 0.000000 0.000000 
#    y 0.000000 1.786850 0.000000 
#    z 0.000000 0.000000 1.824970 
# 
# From -- ./inp_files/15622.got.cif
#   From: 2010.03.12/outbox.cif.g09.slc.cpg/sg40_8_cif.got.tgz:15622.got - 2010.04.14 01:38:03.
