data_PCOD8182102
_publ_section_title
;
Structure prediction by ZEFSAII (Michael W. Deem and Ramdas Pophale) SiO2 
 PCOD8182102
Probable space group: A B M 2
;
_chemical_formula_sum "Si O2"
_cell_formula_units_Z 36
_cell_length_a 22.823023
_cell_length_b 13.855816
_cell_length_c 5.162890
_cell_angle_alpha 90.000000
_cell_angle_beta 90.000000
_cell_angle_gamma 90.000000
_cell_volume 1632.669003
_symmetry_space_group_name_H-M "A B M 2"
_symmetry_group_IT_number 39
_symmetry_cell_setting 'orthorhombic'
loop_
_space_group_symop_operation_xyz
x,y,z
-x,-y,z
-x,1/2+y,z
x,1/2-y,z
x,1/2+y,1/2+z
-x,1/2-y,1/2+z
-x,y,1/2+z
x,-y,1/2+z
loop_
_atom_site_type_symbol
_atom_site_label
_atom_site_fract_x
_atom_site_fract_y
_atom_site_fract_z
Si Si1 0.750938 0.440437 0.661300
Si Si2 0.564425 0.957768 0.564691
Si Si3 0.112371 0.560039 0.659138
Si Si4 0.322261 0.250000 0.154456
Si Si5 0.037887 0.750000 0.662882
Si Si6 0.397862 0.750000 0.154774
O O1 0.733797 0.517756 0.441324
O O2 0.819235 0.414924 0.645652
O O3 0.716675 0.343066 0.606043
O O4 0.561525 0.843661 0.611558
O O5 0.500000 0.000000 0.506669
O O6 0.597932 0.985515 0.297153
O O7 0.094764 0.485731 0.433407
O O8 0.077440 0.657310 0.614953
O O9 0.345505 0.250000 0.448270
O O10 0.374884 0.250000 0.947612
O O11 0.985737 0.750000 0.455159
#
# Coordination Sequence:
#
# PCOD8182102 Si02
#       6
#     8   8   8   4   4   4
#     4  10  22  41  65  90 121 163 204 246 303 370
#     4  10  23  42  65  88 118 159 201 246 289 347
#     4  10  22  41  63  87 119 162 210 253 300 367
#     4  12  25  40  63  94 130 157 192 253 310 366
#     4  12  25  38  59  90 124 163 206 259 314 358
#     4  12  26  40  62  96 124 158 200 246 306 356
#
# _framework density 22.049783000000001
#
# number of rings (size 3 to 8) (size 9 to 14) (size 15 to 20)
#    0.000    1.333    0.000    4.667    0.000   11.556 
#    0.000    8.889    0.000    0.000    0.000    0.000 
#    0.000    0.000    0.000    0.000    0.000    0.000 
#
# Total GULP energy -223267.038594 kJ/mol
# GULP energy per Si atom -12403.724366 kJ/mol
# Density = 2.199960 g / cm^3
# Si number density = 22.049783 Si / 1000 Ang^3
#
#
#
# Elastic Constant Matrix: (Units=GPa)
#
#
# Indices 1 2 3 4 5 6 
#
# 1 46.7502 39.9560 4.6008 0.0000 0.0000 0.0000
# 2 39.9560 135.0550 4.2012 0.0000 0.0000 0.0000
# 3 4.6008 4.2012 128.3575 0.0000 0.0000 0.0000
# 4 0.0000 0.0000 0.0000 30.9220 0.0000 0.0000
# 5 0.0000 0.0000 0.0000 0.0000 21.0234 0.0000
# 6 0.0000 0.0000 0.0000 0.0000 0.0000 54.7658
#
#
#
# Elastic Compliance Matrix: (Units=1/GPa)
#
#
# Indices 1 2 3 4 5 6 
#
# 1 0.028702 -0.008468 -0.000752 0.000000 0.000000 0.000000
# 2 -0.008468 0.009910 -0.000021 0.000000 0.000000 0.000000
# 3 -0.000752 -0.000021 0.007818 0.000000 0.000000 0.000000
# 4 0.000000 0.000000 0.000000 0.032339 0.000000 0.000000
# 5 0.000000 0.000000 0.000000 0.000000 0.047566 0.000000
# 6 0.000000 0.000000 0.000000 0.000000 0.000000 0.018260
#
#
# Mechanical properties :
#
#
# Convention : Reuss Voigt Hill
#
# Bulk Modulus (GPa) = 35.77900 45.29765 40.53832
# Shear Modulus (GPa) = 29.00359 38.76924 33.88641
#
# Velocity S-wave (km/s) = 3.63074 4.19771 3.92447
# Velocity P-wave (km/s) = 5.81704 6.63945 6.24181
#
# Compressibility (1/GPa) = 0.02794935
#
# Stress axis : x y z
#
# Youngs Moduli (GPa) = 34.84133 100.90522 127.90402
#
# Poissons Ratio (x) = 0.85446 0.09613
# Poissons Ratio (y) = 0.29504 0.00267
# Poissons Ratio (z) = 0.02619 0.00210
#
# Static dielectric constant tensor:
#      x y z
#    x 3.870900 0.000000 0.000000 
#    y 0.000000 3.962070 0.000000 
#    z 0.000000 0.000000 4.588990 
# 
# 
# High freq. dielectric constant tensor:
#      x y z
#    x 1.856590 0.000000 0.000000 
#    y 0.000000 1.878420 0.000000 
#    z 0.000000 0.000000 1.896710 
# 
# From -- ./inp_files/1194.got.cif
#   From: 2010.03.12/outbox.cif.g09.slc.cpg/sg39_1_cif.got.tgz:1194.got - 2010.04.14 02:53:20.
