data_PCOD8182145
_publ_section_title
;
Structure prediction by ZEFSAII (Michael W. Deem and Ramdas Pophale) SiO2 
 PCOD8182145
Probable space group: A B M 2
;
_chemical_formula_sum "Si O2"
_cell_formula_units_Z 36
_cell_length_a 10.760389
_cell_length_b 15.443622
_cell_length_c 11.408069
_cell_angle_alpha 90.000000
_cell_angle_beta 90.000000
_cell_angle_gamma 90.000000
_cell_volume 1895.785837
_symmetry_space_group_name_H-M "A B M 2"
_symmetry_group_IT_number 39
_symmetry_cell_setting 'orthorhombic'
loop_
_space_group_symop_operation_xyz
x,y,z
-x,-y,z
-x,1/2+y,z
x,1/2-y,z
x,1/2+y,1/2+z
-x,1/2-y,1/2+z
-x,y,1/2+z
x,-y,1/2+z
loop_
_atom_site_type_symbol
_atom_site_label
_atom_site_fract_x
_atom_site_fract_y
_atom_site_fract_z
Si Si1 0.754623 0.250000 0.984771
Si Si2 0.732108 0.343516 0.634772
Si Si3 0.330445 0.589495 0.396066
Si Si4 0.381368 0.399864 0.360799
Si Si5 0.077509 0.750000 0.774477
Si Si6 0.213578 0.750000 0.259677
O O1 0.681571 0.163437 0.952929
O O2 0.881886 0.250000 0.910513
O O3 0.775579 0.250000 0.121516
O O4 0.695776 0.250000 0.580332
O O5 0.733451 0.407681 0.524895
O O6 0.624430 0.366437 0.727491
O O7 0.864461 0.334503 0.705641
O O8 0.307677 0.491442 0.354629
O O9 0.477944 0.598657 0.403943
O O10 0.273063 0.662198 0.311116
O O11 0.931691 0.750000 0.784691
#
# Coordination Sequence:
#
# PCOD8182145 Si02
#       6
#     4   8   8   8   4   4
#     4  10  23  40  63  83 124 156 202 256 305 351
#     4   9  20  41  62  77 127 162 195 250 307 345
#     4  11  24  35  65  93 121 159 204 246 305 376
#     4  10  23  40  58  94 125 158 195 252 314 362
#     4   8  21  43  62  81 118 169 198 255 296 350
#     4  12  24  37  67  90 116 159 218 241 301 363
#
# _framework density 18.989485999999999
#
# number of rings (size 3 to 8) (size 9 to 14) (size 15 to 20)
#    0.667    1.333    2.222    0.667    9.333    1.778 
#    0.000    4.444    0.000    0.000    0.000    0.000 
#    0.000    0.000    0.000    0.000    0.000    0.000 
#
# Total GULP energy -222985.098716 kJ/mol
# GULP energy per Si atom -12388.061040 kJ/mol
# Density = 1.894626 g / cm^3
# Si number density = 18.989486 Si / 1000 Ang^3
#
#
#
# Elastic Constant Matrix: (Units=GPa)
#
#
# Indices 1 2 3 4 5 6 
#
# 1 93.6980 58.2450 43.4682 0.0000 0.0000 0.0000
# 2 58.2450 118.0276 27.3999 0.0000 0.0000 0.0000
# 3 43.4682 27.3999 122.1206 0.0000 0.0000 0.0000
# 4 0.0000 0.0000 0.0000 19.9432 0.0000 0.0000
# 5 0.0000 0.0000 0.0000 0.0000 17.8756 0.0000
# 6 0.0000 0.0000 0.0000 0.0000 0.0000 0.0507
#
#
#
# Elastic Compliance Matrix: (Units=1/GPa)
#
#
# Indices 1 2 3 4 5 6 
#
# 1 0.017480 -0.007576 -0.004522 0.000000 0.000000 0.000000
# 2 -0.007576 0.012222 -0.000045 0.000000 0.000000 0.000000
# 3 -0.004522 -0.000045 0.009808 0.000000 0.000000 0.000000
# 4 0.000000 0.000000 0.000000 0.050142 0.000000 0.000000
# 5 0.000000 0.000000 0.000000 0.000000 0.055942 0.000000
# 6 0.000000 0.000000 0.000000 0.000000 0.000000 19.743210
#
#
# Mechanical properties :
#
#
# Convention : Reuss Voigt Hill
#
# Bulk Modulus (GPa) = 65.69122 65.78583 65.73853
# Shear Modulus (GPa) = 0.25103 21.22276 10.73689
#
# Velocity S-wave (km/s) = 0.36398 3.34669 2.38042
# Velocity P-wave (km/s) = 5.90298 7.04644 6.49990
#
# Compressibility (1/GPa) = 0.01522273
#
# Stress axis : x y z
#
# Youngs Moduli (GPa) = 57.20774 81.81965 101.95319
#
# Poissons Ratio (x) = 0.61990 0.46104
# Poissons Ratio (y) = 0.43343 0.00463
# Poissons Ratio (z) = 0.25870 0.00372
#
# Static dielectric constant tensor:
#      x y z
#    x 3.223010 0.000000 0.000000 
#    y 0.000000 3.739390 0.000000 
#    z 0.000000 0.000000 3.469910 
# 
# 
# High freq. dielectric constant tensor:
#      x y z
#    x 1.716850 0.000000 0.000000 
#    y 0.000000 1.739520 0.000000 
#    z 0.000000 0.000000 1.749270 
# 
# From -- ./inp_files/5641.got.cif
#   From: 2010.03.12/outbox.cif.g09.slc.cpg/sg39_3_cif.got.tgz:5641.got - 2010.04.14 02:53:20.
