data_PCOD8182323
_publ_section_title
;
Structure prediction by ZEFSAII (Michael W. Deem and Ramdas Pophale) SiO2 
 PCOD8182323
Probable space group: A B M 2
;
_chemical_formula_sum "Si O2"
_cell_formula_units_Z 32
_cell_length_a 4.708059
_cell_length_b 32.450958
_cell_length_c 8.345870
_cell_angle_alpha 90.000000
_cell_angle_beta 90.000000
_cell_angle_gamma 90.000000
_cell_volume 1275.090572
_symmetry_space_group_name_H-M "A B M 2"
_symmetry_group_IT_number 39
_symmetry_cell_setting 'orthorhombic'
loop_
_space_group_symop_operation_xyz
x,y,z
-x,-y,z
-x,1/2+y,z
x,1/2-y,z
x,1/2+y,1/2+z
-x,1/2-y,1/2+z
-x,y,1/2+z
x,-y,1/2+z
loop_
_atom_site_type_symbol
_atom_site_label
_atom_site_fract_x
_atom_site_fract_y
_atom_site_fract_z
Si Si1 0.898263 0.046062 0.858520
Si Si2 0.596892 0.922897 0.675729
Si Si3 0.892694 0.702460 0.855093
Si Si4 0.601796 0.670201 0.173269
O O1 0.670697 0.047142 0.712565
O O2 0.170918 0.074274 0.818123
O O3 0.744031 0.063906 0.012725
O O4 0.000000 0.000000 0.888649
O O5 0.480337 0.877154 0.665115
O O6 0.970397 0.750000 0.880226
O O7 0.746002 0.683932 0.010314
O O8 0.679175 0.697414 0.704419
O O9 0.180335 0.677286 0.820321
#
# Coordination Sequence:
#
# PCOD8182323 Si02
#       4
#     8   8   8   8
#     4  12  27  50  78 111 150 198 250 307 371 443
#     4  12  27  50  76 110 151 197 249 308 371 444
#     4  12  25  47  74 107 146 194 248 308 373 445
#     4  12  27  47  74 108 147 195 247 307 373 444
#
# _framework density 25.096254999999999
#
# number of rings (size 3 to 8) (size 9 to 14) (size 15 to 20)
#    0.000    0.000    0.000    9.750    0.000    6.000 
#    0.000    3.750    0.000    0.000    0.000    0.000 
#    0.000    0.000    0.000    0.000    0.000    0.000 
#
# Total GULP energy -198533.276472 kJ/mol
# GULP energy per Si atom -12408.329779 kJ/mol
# Density = 2.503913 g / cm^3
# Si number density = 25.096255 Si / 1000 Ang^3
#
#
#
# Elastic Constant Matrix: (Units=GPa)
#
#
# Indices 1 2 3 4 5 6 
#
# 1 123.0166 60.3303 16.6694 0.0000 0.0000 0.0000
# 2 60.3303 171.1934 79.7343 0.0000 0.0000 0.0000
# 3 16.6694 79.7343 80.0846 0.0000 0.0000 0.0000
# 4 0.0000 0.0000 0.0000 36.5262 0.0000 0.0000
# 5 0.0000 0.0000 0.0000 0.0000 60.9060 0.0000
# 6 0.0000 0.0000 0.0000 0.0000 0.0000 54.7073
#
#
#
# Elastic Compliance Matrix: (Units=1/GPa)
#
#
# Indices 1 2 3 4 5 6 
#
# 1 0.010130 -0.004826 0.002696 0.000000 0.000000 0.000000
# 2 -0.004826 0.013191 -0.012129 0.000000 0.000000 0.000000
# 3 0.002696 -0.012129 0.024002 0.000000 0.000000 0.000000
# 4 0.000000 0.000000 0.000000 0.027378 0.000000 0.000000
# 5 0.000000 0.000000 0.000000 0.000000 0.016419 0.000000
# 6 0.000000 0.000000 0.000000 0.000000 0.000000 0.018279
#
#
# Mechanical properties :
#
#
# Convention : Reuss Voigt Hill
#
# Bulk Modulus (GPa) = 53.17557 76.41806 64.79682
# Shear Modulus (GPa) = 34.67786 44.93194 39.80490
#
# Velocity S-wave (km/s) = 3.72128 4.23588 3.98689
# Velocity P-wave (km/s) = 6.30068 7.37833 6.86069
#
# Compressibility (1/GPa) = 0.01880563
#
# Stress axis : x y z
#
# Youngs Moduli (GPa) = 98.71380 75.80876 41.66400
#
# Poissons Ratio (x) = 0.36583 -0.11233
# Poissons Ratio (y) = 0.47636 0.50534
# Poissons Ratio (z) = -0.26613 0.91948
#
# Static dielectric constant tensor:
#      x y z
#    x 5.465290 0.000000 0.000000 
#    y 0.000000 5.815630 0.000000 
#    z 0.000000 0.000000 4.861980 
# 
# 
# High freq. dielectric constant tensor:
#      x y z
#    x 2.035950 0.000000 0.000000 
#    y 0.000000 2.000670 0.000000 
#    z 0.000000 0.000000 2.013840 
# 
# From -- ./inp_files/1740.got.cif
#   From: 2010.03.12/outbox.cif.g09.slc.cpg/sg39_1_cif.got.tgz:1740.got - 2010.04.14 02:53:20.
