data_PCOD8182433
_publ_section_title
;
Structure prediction by ZEFSAII (Michael W. Deem and Ramdas Pophale) SiO2 
 PCOD8182433
Probable space group: A M A 2
;
_chemical_formula_sum "Si O2"
_cell_formula_units_Z 64
_cell_length_a 9.421600
_cell_length_b 18.620363
_cell_length_c 21.525536
_cell_angle_alpha 90.000000
_cell_angle_beta 90.000000
_cell_angle_gamma 90.000000
_cell_volume 3776.302532
_symmetry_space_group_name_H-M "A M A 2"
_symmetry_group_IT_number 40
_symmetry_cell_setting 'orthorhombic'
loop_
_space_group_symop_operation_xyz
x,y,z
-x,-y,z
1/2-x,y,z
1/2+x,-y,z
x,1/2+y,1/2+z
-x,1/2-y,1/2+z
1/2-x,1/2+y,1/2+z
1/2+x,1/2-y,1/2+z
loop_
_atom_site_type_symbol
_atom_site_label
_atom_site_fract_x
_atom_site_fract_y
_atom_site_fract_z
Si Si1 0.085681 0.372008 0.415260
Si Si2 0.593837 0.437460 0.094859
Si Si3 0.584119 0.572430 0.280551
Si Si4 0.406485 0.564695 0.948544
Si Si5 0.585214 0.778984 0.466986
Si Si6 0.089439 0.217885 0.078584
Si Si7 0.417043 0.068588 0.029785
Si Si8 0.910916 0.164411 0.664725
O O1 0.250000 0.391108 0.430210
O O2 0.039210 0.398473 0.347652
O O3 0.063448 0.285820 0.418164
O O4 0.982539 0.412212 0.462804
O O5 0.500000 0.500000 0.126085
O O6 0.750000 0.439673 0.125039
O O7 0.515012 0.364825 0.111967
O O8 0.603819 0.446939 0.021809
O O9 0.500000 0.500000 0.263847
O O10 0.750000 0.554503 0.277964
O O11 0.543463 0.637436 0.233020
O O12 0.500000 0.500000 0.919121
O O13 0.250000 0.558199 0.918505
O O14 0.469856 0.645327 0.936952
O O15 0.750000 0.790302 0.484464
O O16 0.507557 0.761252 0.530815
O O17 0.250000 0.227338 0.054032
O O18 0.052132 0.133276 0.078192
O O19 0.075769 0.249738 0.149416
O O20 0.250000 0.052224 0.022239
O O21 0.500000 0.000000 0.056995
O O22 0.750000 0.138659 0.651991
#
# Coordination Sequence:
#
# PCOD8182433 Si02
#       8
#     8   8   8   8   8   8   8   8
#     4   9  18  32  50  68  90 120 154 192 229 266
#     4  10  18  27  39  58  84 116 151 181 214 256
#     4  10  21  34  47  66  91 123 158 189 220 259
#     4   9  17  26  38  59  86 114 143 177 215 263
#     4   9  16  29  46  65  88 115 149 188 228 270
#     4   9  18  30  45  65  89 116 146 183 225 271
#     4  10  19  31  48  71  94 117 146 183 230 277
#     4  10  19  31  45  62  88 119 152 187 221 260
#
# _framework density 16.947793999999998
#
# number of rings (size 3 to 8) (size 9 to 14) (size 15 to 20)
#    0.000    2.500    1.250    1.500    0.000    4.500 
#    0.000    0.000    0.000    0.000    0.000    0.875 
#    0.000    0.000    0.000    0.000    0.000    0.125 
#
# Total GULP energy -396471.602492 kJ/mol
# GULP energy per Si atom -12389.737578 kJ/mol
# Density = 1.690922 g / cm^3
# Si number density = 16.947794 Si / 1000 Ang^3
#
#
#
# Elastic Constant Matrix: (Units=GPa)
#
#
# Indices 1 2 3 4 5 6 
#
# 1 69.5002 46.2552 21.4998 0.0000 0.0000 0.0000
# 2 46.2552 134.4524 40.7669 0.0000 0.0000 0.0000
# 3 21.4998 40.7669 57.9527 0.0000 0.0000 0.0000
# 4 0.0000 0.0000 0.0000 23.3116 0.0000 0.0000
# 5 0.0000 0.0000 0.0000 0.0000 12.5237 0.0000
# 6 0.0000 0.0000 0.0000 0.0000 0.0000 26.6015
#
#
#
# Elastic Compliance Matrix: (Units=1/GPa)
#
#
# Indices 1 2 3 4 5 6 
#
# 1 0.019098 -0.005621 -0.003131 0.000000 0.000000 0.000000
# 2 -0.005621 0.011108 -0.005729 0.000000 0.000000 0.000000
# 3 -0.003131 -0.005729 0.022447 0.000000 0.000000 0.000000
# 4 0.000000 0.000000 0.000000 0.042897 0.000000 0.000000
# 5 0.000000 0.000000 0.000000 0.000000 0.079849 0.000000
# 6 0.000000 0.000000 0.000000 0.000000 0.000000 0.037592
#
#
# Mechanical properties :
#
#
# Convention : Reuss Voigt Hill
#
# Bulk Modulus (GPa) = 42.20905 53.21658 47.71282
# Shear Modulus (GPa) = 20.01201 22.71291 21.36246
#
# Velocity S-wave (km/s) = 3.44001 3.66480 3.55418
# Velocity P-wave (km/s) = 6.38260 7.02682 6.71244
#
# Compressibility (1/GPa) = 0.02369160
#
# Stress axis : x y z
#
# Youngs Moduli (GPa) = 52.36159 90.02241 44.54914
#
# Poissons Ratio (x) = 0.50600 0.13949
# Poissons Ratio (y) = 0.29432 0.25522
# Poissons Ratio (z) = 0.16395 0.51573
#
# Static dielectric constant tensor:
#      x y z
#    x 3.361530 0.000000 0.000000 
#    y 0.000000 3.517390 0.000000 
#    z 0.000000 0.000000 2.803710 
# 
# 
# High freq. dielectric constant tensor:
#      x y z
#    x 1.660150 0.000000 0.000000 
#    y 0.000000 1.663450 0.000000 
#    z 0.000000 0.000000 1.597230 
# 
# From -- ./inp_files/22510.got.cif
#   From: 2010.03.12/outbox.cif.g09.slc.cpg/sg40_12_cif.got.tgz:22510.got - 2010.04.14 01:38:03.
