data_PCOD8182877
_publ_section_title
;
Structure prediction by ZEFSAII (Michael W. Deem and Ramdas Pophale) SiO2 
 PCOD8182877
Probable space group: A M A 2
;
_chemical_formula_sum "Si O2"
_cell_formula_units_Z 48
_cell_length_a 8.975513
_cell_length_b 16.839050
_cell_length_c 18.292671
_cell_angle_alpha 90.000000
_cell_angle_beta 90.000000
_cell_angle_gamma 90.000000
_cell_volume 2764.738054
_symmetry_space_group_name_H-M "A M A 2"
_symmetry_group_IT_number 40
_symmetry_cell_setting 'orthorhombic'
loop_
_space_group_symop_operation_xyz
x,y,z
-x,-y,z
1/2-x,y,z
1/2+x,-y,z
x,1/2+y,1/2+z
-x,1/2-y,1/2+z
1/2-x,1/2+y,1/2+z
1/2+x,1/2-y,1/2+z
loop_
_atom_site_type_symbol
_atom_site_label
_atom_site_fract_x
_atom_site_fract_y
_atom_site_fract_z
Si Si1 0.085754 0.171179 0.747180
Si Si2 0.072538 0.082974 0.272116
Si Si3 0.575630 0.730413 0.035582
Si Si4 0.425133 0.784736 0.368166
Si Si5 0.423328 0.919099 0.631978
Si Si6 0.582775 0.172685 0.149584
O O1 0.250000 0.132197 0.747547
O O2 0.039701 0.200243 0.828428
O O3 0.085809 0.249803 0.698922
O O4 0.972969 0.106719 0.713847
O O5 0.250000 0.076766 0.270707
O O6 0.023032 0.145725 0.333405
O O7 0.014273 0.106490 0.191299
O O8 0.000000 0.000000 0.295166
O O9 0.750000 0.745903 0.045111
O O10 0.529237 0.647921 0.073967
O O11 0.491068 0.804912 0.071988
O O12 0.527044 0.725076 0.951756
O O13 0.250000 0.805999 0.359352
O O14 0.250000 0.934314 0.633122
O O15 0.500000 0.000000 0.606828
O O16 0.750000 0.140136 0.136618
#
# Coordination Sequence:
#
# PCOD8182877 Si02
#       6
#     8   8   8   8   8   8
#     4   8  15  29  48  67  90 122 158 194 231 274
#     4  11  21  33  50  72  99 130 165 203 246 293
#     4   9  18  32  50  73 100 129 159 194 238 288
#     4   9  18  33  51  73 101 129 158 196 242 289
#     4  10  19  30  46  68  95 125 158 194 232 277
#     4   9  17  31  50  71  95 125 163 201 237 283
#
# _framework density 17.361499999999999
#
# number of rings (size 3 to 8) (size 9 to 14) (size 15 to 20)
#    0.000    2.667    0.000    3.500    0.000    6.000 
#    0.000    1.667    0.000    1.000    0.000    4.667 
#    0.000    0.000    0.000    0.000    0.000    0.000 
#
# Total GULP energy -297545.610102 kJ/mol
# GULP energy per Si atom -12397.733754 kJ/mol
# Density = 1.732198 g / cm^3
# Si number density = 17.361500 Si / 1000 Ang^3
#
#
#
# Elastic Constant Matrix: (Units=GPa)
#
#
# Indices 1 2 3 4 5 6 
#
# 1 85.9344 14.9879 44.2599 0.0000 0.0000 0.0000
# 2 14.9879 16.7980 34.9848 0.0000 0.0000 0.0000
# 3 44.2599 34.9848 124.7568 0.0000 0.0000 0.0000
# 4 0.0000 0.0000 0.0000 16.0036 0.0000 0.0000
# 5 0.0000 0.0000 0.0000 0.0000 24.4975 0.0000
# 6 0.0000 0.0000 0.0000 0.0000 0.0000 28.5107
#
#
#
# Elastic Compliance Matrix: (Units=1/GPa)
#
#
# Indices 1 2 3 4 5 6 
#
# 1 0.014434 -0.005322 -0.003628 0.000000 0.000000 0.000000
# 2 -0.005322 0.145076 -0.038795 0.000000 0.000000 0.000000
# 3 -0.003628 -0.038795 0.020182 0.000000 0.000000 0.000000
# 4 0.000000 0.000000 0.000000 0.062486 0.000000 0.000000
# 5 0.000000 0.000000 0.000000 0.000000 0.040821 0.000000
# 6 0.000000 0.000000 0.000000 0.000000 0.000000 0.035075
#
#
# Mechanical properties :
#
#
# Convention : Reuss Voigt Hill
#
# Bulk Modulus (GPa) = 11.87622 46.21716 29.04669
# Shear Modulus (GPa) = 11.32170 22.68613 17.00392
#
# Velocity S-wave (km/s) = 2.55643 3.61874 3.13294
# Velocity P-wave (km/s) = 3.94578 6.64369 5.46387
#
# Compressibility (1/GPa) = 0.08420188
#
# Stress axis : x y z
#
# Youngs Moduli (GPa) = 69.28242 6.89292 49.54971
#
# Poissons Ratio (x) = 0.03668 0.17978
# Poissons Ratio (y) = 0.36872 1.92227
# Poissons Ratio (z) = 0.25137 0.26741
#
# Static dielectric constant tensor:
#      x y z
#    x 3.317660 0.000000 0.000000 
#    y 0.000000 3.103520 0.000000 
#    z 0.000000 0.000000 3.360290 
# 
# 
# High freq. dielectric constant tensor:
#      x y z
#    x 1.676770 0.000000 0.000000 
#    y 0.000000 1.646240 0.000000 
#    z 0.000000 0.000000 1.660240 
# 
# From -- ./inp_files/15039.got.cif
#   From: 2010.03.12/outbox.cif.g09.slc.cpg/sg40_8_cif.got.tgz:15039.got - 2010.04.14 01:38:03.
