data_PCOD8182286
_publ_section_title
;
Structure prediction by ZEFSAII (Michael W. Deem and Ramdas Pophale) SiO2 
 PCOD8182286
Probable space group: A B M 2
;
_chemical_formula_sum "Si O2"
_cell_formula_units_Z 48
_cell_length_a 9.499284
_cell_length_b 16.524644
_cell_length_c 13.833401
_cell_angle_alpha 90.000000
_cell_angle_beta 90.000000
_cell_angle_gamma 90.000000
_cell_volume 2171.460583
_symmetry_space_group_name_H-M "A B M 2"
_symmetry_group_IT_number 39
_symmetry_cell_setting 'orthorhombic'
loop_
_space_group_symop_operation_xyz
x,y,z
-x,-y,z
-x,1/2+y,z
x,1/2-y,z
x,1/2+y,1/2+z
-x,1/2-y,1/2+z
-x,y,1/2+z
x,-y,1/2+z
loop_
_atom_site_type_symbol
_atom_site_label
_atom_site_fract_x
_atom_site_fract_y
_atom_site_fract_z
Si Si1 0.473716 0.094670 0.584520
Si Si2 0.932685 0.657937 0.281878
Si Si3 0.437951 0.657059 0.283023
Si Si4 0.211143 0.655902 0.583060
Si Si5 0.691039 0.906758 0.391609
Si Si6 0.813228 0.086037 0.385660
O O1 0.388603 0.125394 0.678085
O O2 0.622132 0.140480 0.582228
O O3 0.373815 0.116694 0.494851
O O4 0.500000 0.000000 0.585332
O O5 0.988399 0.750000 0.273261
O O6 0.863111 0.626271 0.181965
O O7 0.814906 0.655671 0.365979
O O8 0.058879 0.597553 0.310818
O O9 0.486778 0.750000 0.280116
O O10 0.568382 0.600733 0.312650
O O11 0.310724 0.647799 0.357652
O O12 0.182561 0.750000 0.569316
O O13 0.138208 0.608079 0.494416
O O14 0.754594 0.995962 0.383861
#
# Coordination Sequence:
#
# PCOD8182286 Si02
#       6
#     8   8   8   8   8   8
#     4  12  23  42  69 105 139 178 235 293 352 423
#     4  11  26  46  70 101 142 187 235 292 359 430
#     4  12  25  41  70 104 139 183 235 292 355 421
#     4  11  23  43  72 102 139 186 234 293 360 419
#     4  12  24  44  69 105 138 184 237 291 352 422
#     4  12  25  46  70 102 142 185 237 294 356 430
#
# _framework density 22.104937
#
# number of rings (size 3 to 8) (size 9 to 14) (size 15 to 20)
#    0.000    0.333    5.000    4.500    0.000    3.333 
#    0.000    1.667    0.000    0.000    0.000    0.000 
#    0.000    0.000    0.000    0.000    0.000    0.000 
#
# Total GULP energy -297686.113264 kJ/mol
# GULP energy per Si atom -12403.588053 kJ/mol
# Density = 2.205462 g / cm^3
# Si number density = 22.104937 Si / 1000 Ang^3
#
#
#
# Elastic Constant Matrix: (Units=GPa)
#
#
# Indices 1 2 3 4 5 6 
#
# 1 115.2023 24.5261 47.5254 0.0000 0.0000 0.0000
# 2 24.5261 71.9264 50.6576 0.0000 0.0000 0.0000
# 3 47.5254 50.6576 137.2572 0.0000 0.0000 0.0000
# 4 0.0000 0.0000 0.0000 34.6601 0.0000 0.0000
# 5 0.0000 0.0000 0.0000 0.0000 42.9817 0.0000
# 6 0.0000 0.0000 0.0000 0.0000 0.0000 30.4499
#
#
#
# Elastic Compliance Matrix: (Units=1/GPa)
#
#
# Indices 1 2 3 4 5 6 
#
# 1 0.010222 -0.001342 -0.003044 0.000000 0.000000 0.000000
# 2 -0.001342 0.018962 -0.006534 0.000000 0.000000 0.000000
# 3 -0.003044 -0.006534 0.010751 0.000000 0.000000 0.000000
# 4 0.000000 0.000000 0.000000 0.028852 0.000000 0.000000
# 5 0.000000 0.000000 0.000000 0.000000 0.023266 0.000000
# 6 0.000000 0.000000 0.000000 0.000000 0.000000 0.032841
#
#
# Mechanical properties :
#
#
# Convention : Reuss Voigt Hill
#
# Bulk Modulus (GPa) = 55.26076 63.31158 59.28617
# Shear Modulus (GPa) = 32.73001 35.06344 33.89673
#
# Velocity S-wave (km/s) = 3.85212 3.98707 3.92017
# Velocity P-wave (km/s) = 6.69616 7.06393 6.88251
#
# Compressibility (1/GPa) = 0.01809602
#
# Stress axis : x y z
#
# Youngs Moduli (GPa) = 97.82975 52.73589 93.01328
#
# Poissons Ratio (x) = 0.07075 0.28315
# Poissons Ratio (y) = 0.13124 0.60775
# Poissons Ratio (z) = 0.29781 0.34458
#
# Static dielectric constant tensor:
#      x y z
#    x 4.033890 0.000000 0.000000 
#    y 0.000000 3.888440 0.000000 
#    z 0.000000 0.000000 4.373990 
# 
# 
# High freq. dielectric constant tensor:
#      x y z
#    x 1.862350 0.000000 0.000000 
#    y 0.000000 1.872390 0.000000 
#    z 0.000000 0.000000 1.885080 
# 
# From -- ./inp_files/8379.got.cif
#   From: 2010.03.12/outbox.cif.g09.slc.cpg/sg39_5_cif.got.tgz:8379.got - 2010.04.14 02:53:20.
