data_PCOD8182299
_publ_section_title
;
Structure prediction by ZEFSAII (Michael W. Deem and Ramdas Pophale) SiO2 
 PCOD8182299
Probable space group: A B M 2
;
_chemical_formula_sum "Si O2"
_cell_formula_units_Z 48
_cell_length_a 24.845043
_cell_length_b 9.912136
_cell_length_c 9.332093
_cell_angle_alpha 90.000000
_cell_angle_beta 90.000000
_cell_angle_gamma 90.000000
_cell_volume 2298.190701
_symmetry_space_group_name_H-M "A B M 2"
_symmetry_group_IT_number 39
_symmetry_cell_setting 'orthorhombic'
loop_
_space_group_symop_operation_xyz
x,y,z
-x,-y,z
-x,1/2+y,z
x,1/2-y,z
x,1/2+y,1/2+z
-x,1/2-y,1/2+z
-x,y,1/2+z
x,-y,1/2+z
loop_
_atom_site_type_symbol
_atom_site_label
_atom_site_fract_x
_atom_site_fract_y
_atom_site_fract_z
Si Si1 0.189951 0.402045 0.680070
Si Si2 0.045249 0.250000 0.054765
Si Si3 0.441230 0.750000 0.070126
Si Si4 0.373841 0.504153 0.525851
Si Si5 0.937993 0.750000 0.380804
Si Si6 0.122448 0.523142 0.443814
Si Si7 0.556016 0.250000 0.421014
Si Si8 0.692210 0.912397 0.779708
O O1 0.193703 0.250000 0.619810
O O2 0.170548 0.504045 0.557601
O O3 0.146799 0.402596 0.807342
O O4 0.247636 0.451397 0.735723
O O5 0.036659 0.250000 0.224091
O O6 0.075836 0.115349 0.008349
O O7 0.985605 0.250000 0.994095
O O8 0.409191 0.627065 0.001092
O O9 0.445863 0.750000 0.245678
O O10 0.498294 0.750000 0.993299
O O11 0.413084 0.624438 0.486892
O O12 0.351779 0.492839 0.686532
O O13 0.318931 0.522524 0.434316
O O14 0.901096 0.620660 0.402379
O O15 0.682153 0.750000 0.774257
#
# Coordination Sequence:
#
# PCOD8182299 Si02
#       8
#     8   4   4   8   4   8   4   8
#     4  11  24  43  72 100 137 178 219 281 340 391
#     4  12  28  44  69  99 134 176 233 279 339 408
#     4  12  28  46  69 101 134 178 233 281 339 402
#     4  12  22  48  68  98 140 172 224 280 332 400
#     4  12  28  44  69  99 134 176 233 279 339 408
#     4  12  24  46  68 102 134 176 226 278 338 402
#     4  12  28  46  69 101 134 178 233 281 339 402
#     4  11  24  45  68 104 137 176 225 275 338 403
#
# _framework density 20.885995999999999
#
# number of rings (size 3 to 8) (size 9 to 14) (size 15 to 20)
#    0.000    0.333    6.667    2.000    4.667    2.667 
#    0.000    1.667    0.000    0.000    0.000    0.000 
#    0.000    0.000    0.000    0.000    0.000    0.000 
#
# Total GULP energy -297544.434709 kJ/mol
# GULP energy per Si atom -12397.684780 kJ/mol
# Density = 2.083846 g / cm^3
# Si number density = 20.885996 Si / 1000 Ang^3
#
#
#
# Elastic Constant Matrix: (Units=GPa)
#
#
# Indices 1 2 3 4 5 6 
#
# 1 104.0403 32.3522 15.7295 0.0000 0.0000 0.0000
# 2 32.3522 106.9208 27.8866 0.0000 0.0000 0.0000
# 3 15.7295 27.8866 77.3823 0.0000 0.0000 0.0000
# 4 0.0000 0.0000 0.0000 34.6010 0.0000 0.0000
# 5 0.0000 0.0000 0.0000 0.0000 46.2483 0.0000
# 6 0.0000 0.0000 0.0000 0.0000 0.0000 -293.0965
#
#
#
# Elastic Compliance Matrix: (Units=1/GPa)
#
#
# Indices 1 2 3 4 5 6 
#
# 1 0.010696 -0.002946 -0.001112 0.000000 0.000000 0.000000
# 2 -0.002946 0.011135 -0.003414 0.000000 0.000000 0.000000
# 3 -0.001112 -0.003414 0.014379 0.000000 0.000000 0.000000
# 4 0.000000 0.000000 0.000000 0.028901 0.000000 0.000000
# 5 0.000000 0.000000 0.000000 0.000000 0.021622 0.000000
# 6 0.000000 0.000000 0.000000 0.000000 0.000000 -0.003412
#
#
# Mechanical properties :
#
#
# Convention : Reuss Voigt Hill
#
# Bulk Modulus (GPa) = 47.02576 48.92000 47.97288
# Shear Modulus (GPa) = 47.45889 -28.29109 9.58390
#
# Velocity S-wave (km/s) = 4.77202 -3.68441 2.14444
# Velocity P-wave (km/s) = 7.27511 2.31806 5.39910
#
# Compressibility (1/GPa) = 0.02126494
#
# Stress axis : x y z
#
# Youngs Moduli (GPa) = 93.49278 89.81051 69.54497
#
# Poissons Ratio (x) = 0.26461 0.07736
# Poissons Ratio (y) = 0.27546 0.23741
# Poissons Ratio (z) = 0.10400 0.30659
#
# Static dielectric constant tensor:
#      x y z
#    x 3.929760 0.000000 0.000000 
#    y 0.000000 3.808020 0.000000 
#    z 0.000000 0.000000 3.957150 
# 
# 
# High freq. dielectric constant tensor:
#      x y z
#    x 1.836780 0.000000 0.000000 
#    y 0.000000 1.823270 0.000000 
#    z 0.000000 0.000000 1.826100 
# 
# From -- ./inp_files/4065.got.cif
#   From: 2010.03.12/outbox.cif.g09.slc.cpg/sg39_3_cif.got.tgz:4065.got - 2010.04.14 02:53:20.
