data_PCOD8182310
_publ_section_title
;
Structure prediction by ZEFSAII (Michael W. Deem and Ramdas Pophale) SiO2 
 PCOD8182310
Probable space group: A B M 2
;
_chemical_formula_sum "Si O2"
_cell_formula_units_Z 40
_cell_length_a 7.791144
_cell_length_b 21.424880
_cell_length_c 9.435134
_cell_angle_alpha 90.000000
_cell_angle_beta 90.000000
_cell_angle_gamma 90.000000
_cell_volume 1574.953377
_symmetry_space_group_name_H-M "A B M 2"
_symmetry_group_IT_number 39
_symmetry_cell_setting 'orthorhombic'
loop_
_space_group_symop_operation_xyz
x,y,z
-x,-y,z
-x,1/2+y,z
x,1/2-y,z
x,1/2+y,1/2+z
-x,1/2-y,1/2+z
-x,y,1/2+z
x,-y,1/2+z
loop_
_atom_site_type_symbol
_atom_site_label
_atom_site_fract_x
_atom_site_fract_y
_atom_site_fract_z
Si Si1 0.184502 0.488988 0.019860
Si Si2 0.149475 0.862931 0.370116
Si Si3 0.157282 0.179643 0.563029
Si Si4 0.369649 0.552276 0.796695
Si Si5 0.517035 0.680737 0.380934
O O1 0.311123 0.470907 0.144465
O O2 0.000000 0.500000 0.090292
O O3 0.180505 0.434557 0.904361
O O4 0.232414 0.551319 0.927673
O O5 0.316090 0.823549 0.422796
O O6 0.977270 0.836396 0.439900
O O7 0.126352 0.863041 0.200186
O O8 0.123471 0.250000 0.613316
O O9 0.355618 0.173413 0.514283
O O10 0.500000 0.500000 0.854700
O O11 0.441862 0.622529 0.775588
O O12 0.548031 0.750000 0.311580
#
# Coordination Sequence:
#
# PCOD8182310 Si02
#       5
#     8   8   8   8   8
#     4  12  29  47  78 113 154 205 264 331 402 481
#     4  12  28  48  79 116 160 212 271 334 401 482
#     4  11  27  49  75 114 163 211 270 333 403 484
#     4  12  27  50  79 112 156 200 261 330 399 480
#     4  11  27  51  81 117 161 214 268 331 409 484
#
# _framework density 25.397576000000001
#
# number of rings (size 3 to 8) (size 9 to 14) (size 15 to 20)
#    0.000    0.400    2.000    4.200   14.000    0.000 
#    0.000    1.000    0.000    0.000    0.000    0.000 
#    0.000    0.000    0.000    0.000    0.000    0.000 
#
# Total GULP energy -247965.182003 kJ/mol
# GULP energy per Si atom -12398.259100 kJ/mol
# Density = 2.533977 g / cm^3
# Si number density = 25.397576 Si / 1000 Ang^3
#
#
#
# Elastic Constant Matrix: (Units=GPa)
#
#
# Indices 1 2 3 4 5 6 
#
# 1 142.5673 25.7138 46.6052 0.0000 0.0000 0.0000
# 2 25.7138 151.4867 13.1749 0.0000 0.0000 0.0000
# 3 46.6052 13.1749 114.9910 0.0000 0.0000 0.0000
# 4 0.0000 0.0000 0.0000 26.6193 0.0000 0.0000
# 5 0.0000 0.0000 0.0000 0.0000 40.2476 0.0000
# 6 0.0000 0.0000 0.0000 0.0000 0.0000 33.7771
#
#
#
# Elastic Compliance Matrix: (Units=1/GPa)
#
#
# Indices 1 2 3 4 5 6 
#
# 1 0.008271 -0.001124 -0.003223 0.000000 0.000000 0.000000
# 2 -0.001124 0.006820 -0.000326 0.000000 0.000000 0.000000
# 3 -0.003223 -0.000326 0.010040 0.000000 0.000000 0.000000
# 4 0.000000 0.000000 0.000000 0.037567 0.000000 0.000000
# 5 0.000000 0.000000 0.000000 0.000000 0.024846 0.000000
# 6 0.000000 0.000000 0.000000 0.000000 0.000000 0.029606
#
#
# Mechanical properties :
#
#
# Convention : Reuss Voigt Hill
#
# Bulk Modulus (GPa) = 63.35059 64.44809 63.89934
# Shear Modulus (GPa) = 37.94856 41.69886 39.82371
#
# Velocity S-wave (km/s) = 3.86966 4.05636 3.96411
# Velocity P-wave (km/s) = 6.70547 6.88255 6.79459
#
# Compressibility (1/GPa) = 0.01578517
#
# Stress axis : x y z
#
# Youngs Moduli (GPa) = 120.91075 146.62085 99.60095
#
# Poissons Ratio (x) = 0.16473 0.32104
# Poissons Ratio (y) = 0.13585 0.03248
# Poissons Ratio (z) = 0.38973 0.04781
#
# Static dielectric constant tensor:
#      x y z
#    x 5.140250 0.000000 0.000000 
#    y 0.000000 4.930850 0.000000 
#    z 0.000000 0.000000 4.041030 
# 
# 
# High freq. dielectric constant tensor:
#      x y z
#    x 2.031160 0.000000 0.000000 
#    y 0.000000 2.035550 0.000000 
#    z 0.000000 0.000000 1.994780 
# 
# From -- ./inp_files/2096.got.cif
#   From: 2010.03.12/outbox.cif.g09.slc.cpg/sg39_2_cif.got.tgz:2096.got - 2010.04.14 02:53:20.
