data_PCOD8182649
_publ_section_title
;
Structure prediction by ZEFSAII (Michael W. Deem and Ramdas Pophale) SiO2 
 PCOD8182649
Probable space group: A M A 2
;
_chemical_formula_sum "Si O2"
_cell_formula_units_Z 64
_cell_length_a 8.672200
_cell_length_b 23.374994
_cell_length_c 19.057999
_cell_angle_alpha 90.000000
_cell_angle_beta 90.000000
_cell_angle_gamma 90.000000
_cell_volume 3863.296966
_symmetry_space_group_name_H-M "A M A 2"
_symmetry_group_IT_number 40
_symmetry_cell_setting 'orthorhombic'
loop_
_space_group_symop_operation_xyz
x,y,z
-x,-y,z
1/2-x,y,z
1/2+x,-y,z
x,1/2+y,1/2+z
-x,1/2-y,1/2+z
1/2-x,1/2+y,1/2+z
1/2+x,1/2-y,1/2+z
loop_
_atom_site_type_symbol
_atom_site_label
_atom_site_fract_x
_atom_site_fract_y
_atom_site_fract_z
Si Si1 0.067058 0.341905 0.014010
Si Si2 0.432302 0.062561 0.604749
Si Si3 0.068523 0.939065 0.889084
Si Si4 0.931515 0.767243 0.098628
Si Si5 0.569258 0.385010 0.252132
Si Si6 0.428647 0.728864 0.899682
Si Si7 0.932279 0.837398 0.971416
Si Si8 0.928031 0.237557 0.748787
O O1 0.250000 0.346234 0.010554
O O2 0.005854 0.292237 0.066377
O O3 0.997863 0.401590 0.039531
O O4 0.001434 0.326861 0.936730
O O5 0.250000 0.060323 0.599748
O O6 0.487812 0.090851 0.677552
O O7 0.500000 0.000000 0.598802
O O8 0.250000 0.943161 0.888663
O O9 0.014626 0.920552 0.812243
O O10 0.016804 0.894966 0.949064
O O11 0.000000 0.000000 0.909658
O O12 0.750000 0.764884 0.092413
O O13 0.984905 0.772398 0.179585
O O14 0.986506 0.820923 0.051003
O O15 0.750000 0.393566 0.262531
O O16 0.529543 0.318641 0.258099
O O17 0.250000 0.735842 0.920525
O O18 0.520434 0.785873 0.920414
O O19 0.448192 0.721209 0.815758
O O20 0.750000 0.846708 0.965214
O O21 0.750000 0.218353 0.740024
#
# Coordination Sequence:
#
# PCOD8182649 Si02
#       8
#     8   8   8   8   8   8   8   8
#     4  10  19  33  52  71  98 135 170 211 253 297
#     4  11  23  36  51  73 100 134 174 213 252 300
#     4  12  24  37  52  71  98 136 175 214 251 298
#     4   8  16  30  50  73  98 130 165 203 250 298
#     4  11  22  34  49  73 103 136 172 210 246 294
#     4  10  19  30  49  75 103 133 167 209 253 301
#     4  10  19  33  51  73 100 132 169 210 252 300
#     4  10  18  31  51  75 102 136 170 204 249 300
#
# _framework density 16.566161000000001
#
# number of rings (size 3 to 8) (size 9 to 14) (size 15 to 20)
#    0.000    1.750    2.500    4.125    0.000    3.000 
#    0.000    0.625    0.000    0.000    0.000    0.875 
#    0.000    4.000    0.000    0.000    0.000    0.000 
#
# Total GULP energy -396783.666165 kJ/mol
# GULP energy per Si atom -12399.489568 kJ/mol
# Density = 1.652846 g / cm^3
# Si number density = 16.566161 Si / 1000 Ang^3
#
#
#
# Elastic Constant Matrix: (Units=GPa)
#
#
# Indices 1 2 3 4 5 6 
#
# 1 79.9765 37.7964 36.3564 0.0000 0.0000 0.0000
# 2 37.7964 91.0621 58.1760 0.0000 0.0000 0.0000
# 3 36.3564 58.1760 117.7550 0.0000 0.0000 0.0000
# 4 0.0000 0.0000 0.0000 22.9350 0.0000 0.0000
# 5 0.0000 0.0000 0.0000 0.0000 18.3807 0.0000
# 6 0.0000 0.0000 0.0000 0.0000 0.0000 26.1165
#
#
#
# Elastic Compliance Matrix: (Units=1/GPa)
#
#
# Indices 1 2 3 4 5 6 
#
# 1 0.016016 -0.005097 -0.002426 0.000000 0.000000 0.000000
# 2 -0.005097 0.017668 -0.007155 0.000000 0.000000 0.000000
# 3 -0.002426 -0.007155 0.012776 0.000000 0.000000 0.000000
# 4 0.000000 0.000000 0.000000 0.043601 0.000000 0.000000
# 5 0.000000 0.000000 0.000000 0.000000 0.054405 0.000000
# 6 0.000000 0.000000 0.000000 0.000000 0.000000 0.038290
#
#
# Mechanical properties :
#
#
# Convention : Reuss Voigt Hill
#
# Bulk Modulus (GPa) = 58.47107 61.49456 59.98282
# Shear Modulus (GPa) = 22.95522 23.91743 23.43632
#
# Velocity S-wave (km/s) = 3.72650 3.80380 3.76534
# Velocity P-wave (km/s) = 7.34083 7.51618 7.42902
#
# Compressibility (1/GPa) = 0.01710247
#
# Stress axis : x y z
#
# Youngs Moduli (GPa) = 62.43877 56.59840 78.26978
#
# Poissons Ratio (x) = 0.28850 0.18992
# Poissons Ratio (y) = 0.31827 0.56003
# Poissons Ratio (z) = 0.15151 0.40497
#
# Static dielectric constant tensor:
#      x y z
#    x 3.148860 0.000000 0.000000 
#    y 0.000000 2.668480 0.000000 
#    z 0.000000 0.000000 3.471560 
# 
# 
# High freq. dielectric constant tensor:
#      x y z
#    x 1.645880 0.000000 0.000000 
#    y 0.000000 1.609780 0.000000 
#    z 0.000000 0.000000 1.636800 
# 
# From -- ./inp_files/19706.got.cif
#   From: 2010.03.12/outbox.cif.g09.slc.cpg/sg40_10_cif.got.tgz:19706.got - 2010.04.14 01:38:03.
