data_PCOD8182689
_publ_section_title
;
Structure prediction by ZEFSAII (Michael W. Deem and Ramdas Pophale) SiO2 
 PCOD8182689
Probable space group: A M A 2
;
_chemical_formula_sum "Si O2"
_cell_formula_units_Z 48
_cell_length_a 16.588657
_cell_length_b 16.236849
_cell_length_c 9.070487
_cell_angle_alpha 90.000000
_cell_angle_beta 90.000000
_cell_angle_gamma 90.000000
_cell_volume 2443.113168
_symmetry_space_group_name_H-M "A M A 2"
_symmetry_group_IT_number 40
_symmetry_cell_setting 'orthorhombic'
loop_
_space_group_symop_operation_xyz
x,y,z
-x,-y,z
1/2-x,y,z
1/2+x,-y,z
x,1/2+y,1/2+z
-x,1/2-y,1/2+z
1/2-x,1/2+y,1/2+z
1/2+x,1/2-y,1/2+z
loop_
_atom_site_type_symbol
_atom_site_label
_atom_site_fract_x
_atom_site_fract_y
_atom_site_fract_z
Si Si1 0.341338 0.698912 0.269840
Si Si2 0.414823 0.786893 0.021515
Si Si3 0.343476 0.533755 0.129645
Si Si4 0.401819 0.205850 0.084386
Si Si5 0.343996 0.132662 0.359819
Si Si6 0.654325 0.636151 0.255103
O O1 0.250000 0.701171 0.213058
O O2 0.385151 0.776809 0.190846
O O3 0.380264 0.611230 0.220046
O O4 0.343229 0.708003 0.444742
O O5 0.508965 0.806925 0.023077
O O6 0.396058 0.700909 0.943016
O O7 0.369535 0.859098 0.929029
O O8 0.250000 0.527418 0.168849
O O9 0.381646 0.447951 0.184684
O O10 0.356400 0.547715 0.952314
O O11 0.376524 0.129161 0.191486
O O12 0.391905 0.290756 0.172067
O O13 0.250000 0.158428 0.359044
O O14 0.750000 0.645379 0.234823
#
# Coordination Sequence:
#
# PCOD8182689 Si02
#       6
#     8   8   8   8   8   8
#     4  10  18  32  52  76 103 138 174 212 261 320
#     4  10  19  32  50  75 108 140 174 215 258 311
#     4   8  17  33  56  78  98 128 177 223 263 312
#     4  11  20  31  51  80 108 137 174 216 261 314
#     4   9  17  34  55  76 103 143 180 215 264 325
#     4  10  19  36  58  79 100 136 182 225 263 308
#
# _framework density 19.647064
#
# number of rings (size 3 to 8) (size 9 to 14) (size 15 to 20)
#    0.000    2.333    0.000    7.000    0.000    0.000 
#    0.000    9.167    0.000    8.000    0.000    0.000 
#    0.000    0.000    0.000    0.000    0.000    0.000 
#
# Total GULP energy -297401.276520 kJ/mol
# GULP energy per Si atom -12391.719855 kJ/mol
# Density = 1.960235 g / cm^3
# Si number density = 19.647064 Si / 1000 Ang^3
#
#
#
# Elastic Constant Matrix: (Units=GPa)
#
#
# Indices 1 2 3 4 5 6 
#
# 1 67.1207 16.5952 17.5358 0.0000 0.0000 0.0000
# 2 16.5952 90.4220 49.0269 0.0000 0.0000 0.0000
# 3 17.5358 49.0269 139.5337 0.0000 0.0000 0.0000
# 4 0.0000 0.0000 0.0000 36.7858 0.0000 0.0000
# 5 0.0000 0.0000 0.0000 0.0000 33.6229 0.0000
# 6 0.0000 0.0000 0.0000 0.0000 0.0000 7.8837
#
#
#
# Elastic Compliance Matrix: (Units=1/GPa)
#
#
# Indices 1 2 3 4 5 6 
#
# 1 0.015766 -0.002247 -0.001192 0.000000 0.000000 0.000000
# 2 -0.002247 0.013982 -0.004630 0.000000 0.000000 0.000000
# 3 -0.001192 -0.004630 0.008943 0.000000 0.000000 0.000000
# 4 0.000000 0.000000 0.000000 0.027184 0.000000 0.000000
# 5 0.000000 0.000000 0.000000 0.000000 0.029742 0.000000
# 6 0.000000 0.000000 0.000000 0.000000 0.000000 0.126844
#
#
# Mechanical properties :
#
#
# Convention : Reuss Voigt Hill
#
# Bulk Modulus (GPa) = 44.34117 51.48802 47.91460
# Shear Modulus (GPa) = 20.31546 29.91969 25.11758
#
# Velocity S-wave (km/s) = 3.21911 3.90662 3.57941
# Velocity P-wave (km/s) = 6.03612 6.82731 6.44387
#
# Compressibility (1/GPa) = 0.02255240
#
# Stress axis : x y z
#
# Youngs Moduli (GPa) = 63.42955 71.51878 111.81356
#
# Poissons Ratio (x) = 0.16073 0.13325
# Poissons Ratio (y) = 0.14255 0.51775
# Poissons Ratio (z) = 0.07559 0.33116
#
# Static dielectric constant tensor:
#      x y z
#    x 3.344230 0.000000 0.000000 
#    y 0.000000 3.537080 0.000000 
#    z 0.000000 0.000000 4.004150 
# 
# 
# High freq. dielectric constant tensor:
#      x y z
#    x 1.755200 0.000000 0.000000 
#    y 0.000000 1.727370 0.000000 
#    z 0.000000 0.000000 1.777240 
# 
# From -- ./inp_files/6458.got.cif
#   From: 2010.03.12/outbox.cif.g09.slc.cpg/sg40_4_cif.got.tgz:6458.got - 2010.04.14 01:38:03.
