data_PCOD8182625
_publ_section_title
;
Structure prediction by ZEFSAII (Michael W. Deem and Ramdas Pophale) SiO2 
 PCOD8182625
Probable space group: A M A 2
;
_chemical_formula_sum "Si O2"
_cell_formula_units_Z 52
_cell_length_a 8.817924
_cell_length_b 10.871951
_cell_length_c 27.831482
_cell_angle_alpha 90.000000
_cell_angle_beta 90.000000
_cell_angle_gamma 90.000000
_cell_volume 2668.149564
_symmetry_space_group_name_H-M "A M A 2"
_symmetry_group_IT_number 40
_symmetry_cell_setting 'orthorhombic'
loop_
_space_group_symop_operation_xyz
x,y,z
-x,-y,z
1/2-x,y,z
1/2+x,-y,z
x,1/2+y,1/2+z
-x,1/2-y,1/2+z
1/2-x,1/2+y,1/2+z
1/2+x,1/2-y,1/2+z
loop_
_atom_site_type_symbol
_atom_site_label
_atom_site_fract_x
_atom_site_fract_y
_atom_site_fract_z
Si Si1 0.000000 0.000000 0.007260
Si Si2 0.914478 0.333703 0.587414
Si Si3 0.428975 0.123587 0.191341
Si Si4 0.422063 0.775643 0.941975
Si Si5 0.569414 0.632306 0.249282
Si Si6 0.568511 0.627189 0.021613
Si Si7 0.930583 0.870646 0.851111
O O1 0.887124 0.935047 0.045352
O O2 0.080409 0.901400 0.972963
O O3 0.750000 0.290036 0.605382
O O4 0.996916 0.375137 0.636498
O O5 0.996651 0.218264 0.562658
O O6 0.250000 0.106911 0.194899
O O7 0.478226 0.253507 0.215275
O O8 0.500000 0.000000 0.215825
O O9 0.250000 0.741544 0.928982
O O10 0.520108 0.779315 0.893347
O O11 0.499348 0.664870 0.970598
O O12 0.500000 0.500000 0.232152
O O13 0.750000 0.616441 0.252392
O O14 0.502788 0.670293 0.300865
O O15 0.500000 0.500000 0.037968
O O16 0.750000 0.627770 0.018406
O O17 0.750000 0.878238 0.846736
O O18 0.000000 0.000000 0.866899
#
# Coordination Sequence:
#
# PCOD8182625 Si02
#       7
#     4   8   8   8   8   8   8
#     4  10  18  30  54  82 120 146 182 222 280 334
#     4   9  18  33  53  79 112 148 185 230 279 337
#     4  10  21  38  60  87 119 155 195 246 300 354
#     4  11  21  33  55  84 115 149 187 231 286 344
#     4  10  21  38  60  85 116 152 197 249 302 358
#     4  10  21  37  54  76 112 153 195 237 283 342
#     4  11  21  35  57  84 114 147 189 241 296 351
#
# _framework density 19.489163000000001
#
# number of rings (size 3 to 8) (size 9 to 14) (size 15 to 20)
#    0.000    1.846    1.538    4.154    0.000    3.077 
#    0.000    1.538    0.000    1.846    0.000    0.000 
#    0.000    0.000    0.000    0.000    0.000    0.000 
#
# Total GULP energy -322114.757074 kJ/mol
# GULP energy per Si atom -12389.029118 kJ/mol
# Density = 1.944480 g / cm^3
# Si number density = 19.489163 Si / 1000 Ang^3
#
#
#
# Elastic Constant Matrix: (Units=GPa)
#
#
# Indices 1 2 3 4 5 6 
#
# 1 100.9503 34.7743 29.7377 0.0000 0.0000 0.0000
# 2 34.7743 128.5965 50.5296 0.0000 0.0000 0.0000
# 3 29.7377 50.5296 100.8722 0.0000 0.0000 0.0000
# 4 0.0000 0.0000 0.0000 18.8106 0.0000 0.0000
# 5 0.0000 0.0000 0.0000 0.0000 21.8030 0.0000
# 6 0.0000 0.0000 0.0000 0.0000 0.0000 28.4439
#
#
#
# Elastic Compliance Matrix: (Units=1/GPa)
#
#
# Indices 1 2 3 4 5 6 
#
# 1 0.011318 -0.002178 -0.002245 0.000000 0.000000 0.000000
# 2 -0.002178 0.010101 -0.004418 0.000000 0.000000 0.000000
# 3 -0.002245 -0.004418 0.012788 0.000000 0.000000 0.000000
# 4 0.000000 0.000000 0.000000 0.053161 0.000000 0.000000
# 5 0.000000 0.000000 0.000000 0.000000 0.045865 0.000000
# 6 0.000000 0.000000 0.000000 0.000000 0.000000 0.035157
#
#
# Mechanical properties :
#
#
# Convention : Reuss Voigt Hill
#
# Bulk Modulus (GPa) = 60.51607 62.27803 61.39705
# Shear Modulus (GPa) = 26.09851 28.17000 27.13425
#
# Velocity S-wave (km/s) = 3.66338 3.80599 3.73537
# Velocity P-wave (km/s) = 7.00088 7.16510 7.08347
#
# Compressibility (1/GPa) = 0.01652454
#
# Stress axis : x y z
#
# Youngs Moduli (GPa) = 88.35781 98.99850 78.19533
#
# Poissons Ratio (x) = 0.21563 0.17558
# Poissons Ratio (y) = 0.19246 0.34545
# Poissons Ratio (z) = 0.19840 0.43736
#
# Static dielectric constant tensor:
#      x y z
#    x 3.411200 0.000000 0.000000 
#    y 0.000000 3.599760 0.000000 
#    z 0.000000 0.000000 3.693290 
# 
# 
# High freq. dielectric constant tensor:
#      x y z
#    x 1.753490 0.000000 0.000000 
#    y 0.000000 1.749730 0.000000 
#    z 0.000000 0.000000 1.758830 
# 
# From -- ./inp_files/25320.got.cif
#   From: 2010.03.12/outbox.cif.g09.slc.cpg/sg40_13_cif.got.tgz:25320.got - 2010.04.14 01:38:03.
