data_PCOD8182439
_publ_section_title
;
Structure prediction by ZEFSAII (Michael W. Deem and Ramdas Pophale) SiO2 
 PCOD8182439
Probable space group: A M A 2
;
_chemical_formula_sum "Si O2"
_cell_formula_units_Z 64
_cell_length_a 8.609012
_cell_length_b 26.692700
_cell_length_c 18.562216
_cell_angle_alpha 90.000000
_cell_angle_beta 90.000000
_cell_angle_gamma 90.000000
_cell_volume 4265.555929
_symmetry_space_group_name_H-M "A M A 2"
_symmetry_group_IT_number 40
_symmetry_cell_setting 'orthorhombic'
loop_
_space_group_symop_operation_xyz
x,y,z
-x,-y,z
1/2-x,y,z
1/2+x,-y,z
x,1/2+y,1/2+z
-x,1/2-y,1/2+z
1/2-x,1/2+y,1/2+z
1/2+x,1/2-y,1/2+z
loop_
_atom_site_type_symbol
_atom_site_label
_atom_site_fract_x
_atom_site_fract_y
_atom_site_fract_z
Si Si1 0.934433 0.947538 0.310690
Si Si2 0.566616 0.746058 0.663737
Si Si3 0.933432 0.552123 0.653849
Si Si4 0.434911 0.647394 0.895133
Si Si5 0.932080 0.251346 0.819353
Si Si6 0.931427 0.650234 0.569014
Si Si7 0.568568 0.299406 0.028429
Si Si8 0.568971 0.293077 0.449052
O O1 0.750000 0.949251 0.310957
O O2 0.001456 0.904130 0.362967
O O3 0.991682 0.935982 0.230725
O O4 0.000000 0.000000 0.339922
O O5 0.750000 0.749025 0.678973
O O6 0.472768 0.754181 0.736121
O O7 0.523472 0.692748 0.627603
O O8 0.507173 0.791235 0.610012
O O9 0.750000 0.547841 0.664179
O O10 0.980724 0.596368 0.599914
O O11 0.000000 0.500000 0.622500
O O12 0.250000 0.645754 0.894157
O O13 0.490974 0.694082 0.846240
O O14 0.496689 0.654896 0.978456
O O15 0.750000 0.244566 0.830161
O O16 0.019743 0.207274 0.864681
O O17 0.750000 0.652477 0.551889
O O18 0.024710 0.656652 0.493410
O O19 0.750000 0.306271 0.034990
O O20 0.536964 0.249155 0.984699
O O21 0.750000 0.281633 0.457000
#
# Coordination Sequence:
#
# PCOD8182439 Si02
#       8
#     8   8   8   8   8   8   8   8
#     4  10  18  28  41  58  81 107 139 174 206 239
#     4   9  16  26  41  60  81 104 133 166 199 239
#     4  10  19  30  43  59  81 108 138 171 206 239
#     4   8  15  27  42  56  73 106 142 166 194 237
#     4  10  18  28  41  57  81 109 136 165 200 240
#     4   9  18  31  44  58  81 112 139 167 206 244
#     4   8  15  29  43  56  79 107 133 165 205 243
#     4  10  18  27  41  60  80 103 135 170 200 237
#
# _framework density 15.003906000000001
#
# number of rings (size 3 to 8) (size 9 to 14) (size 15 to 20)
#    0.000    2.750    0.000    5.250    0.000    3.000 
#    0.000    5.625    0.000    0.000    0.000    0.000 
#    0.000    1.000    0.000    9.250    0.000    2.500 
#
# Total GULP energy -396456.617809 kJ/mol
# GULP energy per Si atom -12389.269307 kJ/mol
# Density = 1.496976 g / cm^3
# Si number density = 15.003906 Si / 1000 Ang^3
#
#
#
# Elastic Constant Matrix: (Units=GPa)
#
#
# Indices 1 2 3 4 5 6 
#
# 1 21.7754 24.9962 27.9982 0.0000 0.0000 0.0000
# 2 24.9962 92.5283 64.8082 0.0000 0.0000 0.0000
# 3 27.9982 64.8082 112.7999 0.0000 0.0000 0.0000
# 4 0.0000 0.0000 0.0000 27.9890 0.0000 0.0000
# 5 0.0000 0.0000 0.0000 0.0000 21.8002 0.0000
# 6 0.0000 0.0000 0.0000 0.0000 0.0000 12.8818
#
#
#
# Elastic Compliance Matrix: (Units=1/GPa)
#
#
# Indices 1 2 3 4 5 6 
#
# 1 0.074682 -0.012034 -0.011623 0.000000 0.000000 0.000000
# 2 -0.012034 0.020025 -0.008518 0.000000 0.000000 0.000000
# 3 -0.011623 -0.008518 0.016644 0.000000 0.000000 0.000000
# 4 0.000000 0.000000 0.000000 0.035728 0.000000 0.000000
# 5 0.000000 0.000000 0.000000 0.000000 0.045871 0.000000
# 6 0.000000 0.000000 0.000000 0.000000 0.000000 0.077629
#
#
# Mechanical properties :
#
#
# Convention : Reuss Voigt Hill
#
# Bulk Modulus (GPa) = 21.27635 51.41210 36.34423
# Shear Modulus (GPa) = 14.26146 19.82093 17.04119
#
# Velocity S-wave (km/s) = 3.08639 3.63857 3.37380
# Velocity P-wave (km/s) = 5.18772 7.21058 6.28112
#
# Compressibility (1/GPa) = 0.04700053
#
# Stress axis : x y z
#
# Youngs Moduli (GPa) = 13.39017 49.93858 60.08177
#
# Poissons Ratio (x) = 0.60098 0.69831
# Poissons Ratio (y) = 0.16114 0.51177
# Poissons Ratio (z) = 0.15563 0.42537
#
# Static dielectric constant tensor:
#      x y z
#    x 2.780740 0.000000 0.000000 
#    y 0.000000 2.990020 0.000000 
#    z 0.000000 0.000000 3.176200 
# 
# 
# High freq. dielectric constant tensor:
#      x y z
#    x 1.572750 0.000000 0.000000 
#    y 0.000000 1.540870 0.000000 
#    z 0.000000 0.000000 1.569020 
# 
# From -- ./inp_files/19776.got.cif
#   From: 2010.03.12/outbox.cif.g09.slc.cpg/sg40_10_cif.got.tgz:19776.got - 2010.04.14 01:38:03.
