data_PCOD8182982
_publ_section_title
;
Structure prediction by ZEFSAII (Michael W. Deem and Ramdas Pophale) SiO2 
 PCOD8182982
Probable space group: A M A 2
;
_chemical_formula_sum "Si O2"
_cell_formula_units_Z 64
_cell_length_a 8.682286
_cell_length_b 20.330760
_cell_length_c 20.021400
_cell_angle_alpha 90.000000
_cell_angle_beta 90.000000
_cell_angle_gamma 90.000000
_cell_volume 3534.126932
_symmetry_space_group_name_H-M "A M A 2"
_symmetry_group_IT_number 40
_symmetry_cell_setting 'orthorhombic'
loop_
_space_group_symop_operation_xyz
x,y,z
-x,-y,z
1/2-x,y,z
1/2+x,-y,z
x,1/2+y,1/2+z
-x,1/2-y,1/2+z
1/2-x,1/2+y,1/2+z
1/2+x,1/2-y,1/2+z
loop_
_atom_site_type_symbol
_atom_site_label
_atom_site_fract_x
_atom_site_fract_y
_atom_site_fract_z
Si Si1 0.066037 0.929695 0.144270
Si Si2 0.930809 0.568145 0.150011
Si Si3 0.067595 0.176120 0.895996
Si Si4 0.433656 0.322092 0.898374
Si Si5 0.933918 0.429838 0.501275
Si Si6 0.432602 0.931519 0.498697
Si Si7 0.932287 0.176181 0.249822
Si Si8 0.568548 0.824588 0.745333
O O1 0.250000 0.932971 0.141020
O O2 0.002724 0.876340 0.197080
O O3 0.000000 0.000000 0.166493
O O4 0.000028 0.908615 0.072727
O O5 0.750000 0.560956 0.152237
O O6 0.000000 0.500000 0.177757
O O7 0.980681 0.628581 0.195031
O O8 0.988732 0.581369 0.074422
O O9 0.250000 0.177065 0.899174
O O10 0.005978 0.248697 0.915962
O O11 0.002759 0.122680 0.947692
O O12 0.016790 0.157687 0.820804
O O13 0.250000 0.322784 0.899596
O O14 0.500298 0.373357 0.952286
O O15 0.493238 0.341251 0.824151
O O16 0.750000 0.433009 0.504568
O O17 0.000000 0.500000 0.479067
O O18 0.250000 0.934488 0.494005
O O19 0.500000 0.000000 0.471724
O O20 0.750000 0.172916 0.250551
O O21 0.982656 0.249814 0.229103
O O22 0.750000 0.834144 0.735975
#
# Coordination Sequence:
#
# PCOD8182982 Si02
#       8
#     8   8   8   8   8   8   8   8
#     4  10  19  32  48  70  97 127 160 195 233 279
#     4  10  20  33  48  71  99 128 159 195 235 279
#     4   8  16  30  50  72  93 119 157 195 231 276
#     4   8  14  29  50  71  93 122 157 192 228 276
#     4  10  19  32  49  70  94 123 155 194 237 279
#     4   9  18  31  49  70  95 124 156 192 231 273
#     4   8  16  30  50  72  96 125 158 192 234 284
#     4   9  17  33  53  72  94 124 158 195 235 282
#
# _framework density 18.10914
#
# number of rings (size 3 to 8) (size 9 to 14) (size 15 to 20)
#    0.000    3.000    0.000    3.375    0.000    2.500 
#    0.000    5.000    0.000    5.250    0.000    0.000 
#    0.000    0.000    0.000    0.000    0.000    0.000 
#
# Total GULP energy -396687.483414 kJ/mol
# GULP energy per Si atom -12396.483857 kJ/mol
# Density = 1.806792 g / cm^3
# Si number density = 18.109140 Si / 1000 Ang^3
#
#
#
# Elastic Constant Matrix: (Units=GPa)
#
#
# Indices 1 2 3 4 5 6 
#
# 1 37.4672 26.9270 24.5225 0.0000 0.0000 0.0000
# 2 26.9270 157.6565 113.7592 0.0000 0.0000 0.0000
# 3 24.5225 113.7592 130.2462 0.0000 0.0000 0.0000
# 4 0.0000 0.0000 0.0000 43.8637 0.0000 0.0000
# 5 0.0000 0.0000 0.0000 0.0000 17.9912 0.0000
# 6 0.0000 0.0000 0.0000 0.0000 0.0000 23.1470
#
#
#
# Elastic Compliance Matrix: (Units=1/GPa)
#
#
# Indices 1 2 3 4 5 6 
#
# 1 0.030931 -0.002923 -0.003271 0.000000 0.000000 0.000000
# 2 -0.002923 0.017430 -0.014673 0.000000 0.000000 0.000000
# 3 -0.003271 -0.014673 0.021109 0.000000 0.000000 0.000000
# 4 0.000000 0.000000 0.000000 0.022798 0.000000 0.000000
# 5 0.000000 0.000000 0.000000 0.000000 0.055583 0.000000
# 6 0.000000 0.000000 0.000000 0.000000 0.000000 0.043202
#
#
# Mechanical properties :
#
#
# Convention : Reuss Voigt Hill
#
# Bulk Modulus (GPa) = 36.05312 72.86525 54.45918
# Shear Modulus (GPa) = 20.65843 27.67780 24.16811
#
# Velocity S-wave (km/s) = 3.38120 3.91370 3.65715
# Velocity P-wave (km/s) = 5.93257 7.79402 6.92612
#
# Compressibility (1/GPa) = 0.02773685
#
# Stress axis : x y z
#
# Youngs Moduli (GPa) = 32.32968 57.37357 47.37253
#
# Poissons Ratio (x) = 0.16769 0.15495
# Poissons Ratio (y) = 0.09449 0.69510
# Poissons Ratio (z) = 0.10575 0.84184
#
# Static dielectric constant tensor:
#      x y z
#    x 2.987660 0.000000 0.000000 
#    y 0.000000 3.650460 0.000000 
#    z 0.000000 0.000000 3.631400 
# 
# 
# High freq. dielectric constant tensor:
#      x y z
#    x 1.669880 0.000000 0.000000 
#    y 0.000000 1.709060 0.000000 
#    z 0.000000 0.000000 1.704520 
# 
# From -- ./inp_files/19584.got.cif
#   From: 2010.03.12/outbox.cif.g09.slc.cpg/sg40_10_cif.got.tgz:19584.got - 2010.04.14 01:38:03.
