data_PCOD8182177
_publ_section_title
;
Structure prediction by ZEFSAII (Michael W. Deem and Ramdas Pophale) SiO2 
 PCOD8182177
Probable space group: A B M 2
;
_chemical_formula_sum "Si O2"
_cell_formula_units_Z 40
_cell_length_a 11.717060
_cell_length_b 24.687625
_cell_length_c 5.343890
_cell_angle_alpha 90.000000
_cell_angle_beta 90.000000
_cell_angle_gamma 90.000000
_cell_volume 1545.807733
_symmetry_space_group_name_H-M "A B M 2"
_symmetry_group_IT_number 39
_symmetry_cell_setting 'orthorhombic'
loop_
_space_group_symop_operation_xyz
x,y,z
-x,-y,z
-x,1/2+y,z
x,1/2-y,z
x,1/2+y,1/2+z
-x,1/2-y,1/2+z
-x,y,1/2+z
x,-y,1/2+z
loop_
_atom_site_type_symbol
_atom_site_label
_atom_site_fract_x
_atom_site_fract_y
_atom_site_fract_z
Si Si1 0.932248 0.813402 0.682420
Si Si2 0.628003 0.978181 0.760848
Si Si3 0.951757 0.561112 0.392756
Si Si4 0.736247 0.384008 0.023130
Si Si5 0.430344 0.188220 0.259432
O O1 0.905929 0.750000 0.696593
O O2 0.809611 0.843473 0.696247
O O3 0.987752 0.829911 0.415186
O O4 0.640167 0.914460 0.692604
O O5 0.500000 0.000000 0.803271
O O6 0.687194 0.011569 0.530893
O O7 0.815447 0.568378 0.400584
O O8 0.000000 0.500000 0.395864
O O9 0.998642 0.590441 0.645748
O O10 0.677241 0.351170 0.798191
O O11 0.387274 0.250000 0.276421
O O12 0.482251 0.176514 0.987373
#
# Coordination Sequence:
#
# PCOD8182177 Si02
#       5
#     8   8   8   8   8
#     4  10  23  44  69 103 137 167 219 278 332 402
#     4  10  26  44  62  93 132 173 226 282 317 383
#     4  10  24  42  60  91 130 169 220 273 315 377
#     4  12  25  42  76  92 136 182 225 260 348 391
#     4  10  25  46  69 103 137 167 219 279 330 399
#
# _framework density 25.876436999999999
#
# number of rings (size 3 to 8) (size 9 to 14) (size 15 to 20)
#    0.000    1.600    0.000    1.800   11.200    4.800 
#    0.000    6.000    0.000    0.000    0.000    0.000 
#    0.000    0.000    0.000    0.000    0.000    0.000 
#
# Total GULP energy -247872.291772 kJ/mol
# GULP energy per Si atom -12393.614589 kJ/mol
# Density = 2.581754 g / cm^3
# Si number density = 25.876437 Si / 1000 Ang^3
#
#
#
# Elastic Constant Matrix: (Units=GPa)
#
#
# Indices 1 2 3 4 5 6 
#
# 1 102.6698 51.3436 4.4762 0.0000 0.0000 0.0000
# 2 51.3436 113.2352 30.8306 0.0000 0.0000 0.0000
# 3 4.4762 30.8306 146.9572 0.0000 0.0000 0.0000
# 4 0.0000 0.0000 0.0000 33.8584 0.0000 0.0000
# 5 0.0000 0.0000 0.0000 0.0000 -14.5007 0.0000
# 6 0.0000 0.0000 0.0000 0.0000 0.0000 67.5061
#
#
#
# Elastic Compliance Matrix: (Units=1/GPa)
#
#
# Indices 1 2 3 4 5 6 
#
# 1 0.012700 -0.005996 0.000871 0.000000 0.000000 0.000000
# 2 -0.005996 0.012197 -0.002376 0.000000 0.000000 0.000000
# 3 0.000871 -0.002376 0.007277 0.000000 0.000000 0.000000
# 4 0.000000 0.000000 0.000000 0.029535 0.000000 0.000000
# 5 0.000000 0.000000 0.000000 0.000000 -0.068962 0.000000
# 6 0.000000 0.000000 0.000000 0.000000 0.000000 0.014813
#
#
# Mechanical properties :
#
#
# Convention : Reuss Voigt Hill
#
# Bulk Modulus (GPa) = 58.23453 59.57368 58.90411
# Shear Modulus (GPa) = 176.76637 35.78688 106.27662
#
# Velocity S-wave (km/s) = 8.27406 3.72289 6.41560
# Velocity P-wave (km/s) = 10.66929 6.44610 8.81436
#
# Compressibility (1/GPa) = 0.01717194
#
# Stress axis : x y z
#
# Youngs Moduli (GPa) = 78.73762 81.98875 137.42535
#
# Poissons Ratio (x) = 0.49159 -0.11970
# Poissons Ratio (y) = 0.47210 0.32655
# Poissons Ratio (z) = -0.06858 0.19482
#
# Static dielectric constant tensor:
#      x y z
#    x 4.502190 0.000000 0.000000 
#    y 0.000000 4.960050 0.000000 
#    z 0.000000 0.000000 5.775260 
# 
# 
# High freq. dielectric constant tensor:
#      x y z
#    x 2.009660 0.000000 0.000000 
#    y 0.000000 2.070140 0.000000 
#    z 0.000000 0.000000 2.052210 
# 
# From -- ./inp_files/335.got.cif
#   From: 2010.03.12/outbox.cif.g09.slc.cpg/sg39_1_cif.got.tgz:335.got - 2010.04.14 02:53:20.
