data_PCOD8182535
_publ_section_title
;
Structure prediction by ZEFSAII (Michael W. Deem and Ramdas Pophale) SiO2 
 PCOD8182535
Probable space group: A M A 2
;
_chemical_formula_sum "Si O2"
_cell_formula_units_Z 64
_cell_length_a 8.514304
_cell_length_b 18.454023
_cell_length_c 26.127358
_cell_angle_alpha 90.000000
_cell_angle_beta 90.000000
_cell_angle_gamma 90.000000
_cell_volume 4105.213100
_symmetry_space_group_name_H-M "A M A 2"
_symmetry_group_IT_number 40
_symmetry_cell_setting 'orthorhombic'
loop_
_space_group_symop_operation_xyz
x,y,z
-x,-y,z
1/2-x,y,z
1/2+x,-y,z
x,1/2+y,1/2+z
-x,1/2-y,1/2+z
1/2-x,1/2+y,1/2+z
1/2+x,1/2-y,1/2+z
loop_
_atom_site_type_symbol
_atom_site_label
_atom_site_fract_x
_atom_site_fract_y
_atom_site_fract_z
Si Si1 0.433388 0.160249 0.526630
Si Si2 0.434426 0.420306 0.628808
Si Si3 0.064918 0.420995 0.933359
Si Si4 0.434983 0.920032 0.624406
Si Si5 0.433075 0.076644 0.324226
Si Si6 0.929943 0.157936 0.233482
Si Si7 0.068632 0.211484 0.669349
Si Si8 0.068708 0.709083 0.575610
O O1 0.250000 0.147600 0.534091
O O2 0.485974 0.137082 0.470396
O O3 0.522648 0.112147 0.568920
O O4 0.476362 0.245454 0.532116
O O5 0.500000 0.500000 0.623462
O O6 0.250000 0.420819 0.622895
O O7 0.483642 0.387208 0.683617
O O8 0.503662 0.372334 0.582263
O O9 0.250000 0.420231 0.940903
O O10 0.000000 0.500000 0.947088
O O11 0.021336 0.399029 0.875604
O O12 0.250000 0.920510 0.631592
O O13 0.514154 0.872292 0.670469
O O14 0.500000 0.000000 0.629954
O O15 0.250000 0.068515 0.336249
O O16 0.460593 0.136802 0.280860
O O17 0.500000 0.000000 0.304238
O O18 0.750000 0.139771 0.247290
O O19 0.951070 0.244494 0.222644
O O20 0.250000 0.217735 0.650991
O O21 0.955118 0.249061 0.628652
O O22 0.250000 0.706118 0.560520
#
# Coordination Sequence:
#
# PCOD8182535 Si02
#       8
#     8   8   8   8   8   8   8   8
#     4  11  20  32  47  64  87 115 148 182 219 260
#     4  10  19  30  44  64  89 118 150 184 220 259
#     4  11  21  34  48  64  87 114 147 184 222 259
#     4  11  20  30  44  64  89 117 149 181 217 259
#     4  11  21  32  46  64  87 115 148 184 221 257
#     4   9  18  31  46  63  86 116 148 181 219 260
#     4   9  17  30  45  62  85 113 145 181 219 257
#     4  10  18  29  44  63  86 114 146 179 217 259
#
# _framework density 15.589934
#
# number of rings (size 3 to 8) (size 9 to 14) (size 15 to 20)
#    0.000    1.750    0.000   10.125    0.000    4.000 
#    0.000    0.000    0.000    0.000    0.000    0.000 
#    0.000    1.000    0.000    7.000    0.000    5.500 
#
# Total GULP energy -396747.104582 kJ/mol
# GULP energy per Si atom -12398.347018 kJ/mol
# Density = 1.555445 g / cm^3
# Si number density = 15.589934 Si / 1000 Ang^3
#
#
#
# Elastic Constant Matrix: (Units=GPa)
#
#
# Indices 1 2 3 4 5 6 
#
# 1 84.3589 30.1265 22.4933 0.0000 0.0000 0.0000
# 2 30.1265 111.3102 44.6221 0.0000 0.0000 0.0000
# 3 22.4933 44.6221 66.3560 0.0000 0.0000 0.0000
# 4 0.0000 0.0000 0.0000 26.6464 0.0000 0.0000
# 5 0.0000 0.0000 0.0000 0.0000 22.0796 0.0000
# 6 0.0000 0.0000 0.0000 0.0000 0.0000 26.8480
#
#
#
# Elastic Compliance Matrix: (Units=1/GPa)
#
#
# Indices 1 2 3 4 5 6 
#
# 1 0.013520 -0.002494 -0.002905 0.000000 0.000000 0.000000
# 2 -0.002494 0.012760 -0.007735 0.000000 0.000000 0.000000
# 3 -0.002905 -0.007735 0.021257 0.000000 0.000000 0.000000
# 4 0.000000 0.000000 0.000000 0.037529 0.000000 0.000000
# 5 0.000000 0.000000 0.000000 0.000000 0.045291 0.000000
# 6 0.000000 0.000000 0.000000 0.000000 0.000000 0.037247
#
#
# Mechanical properties :
#
#
# Convention : Reuss Voigt Hill
#
# Bulk Modulus (GPa) = 47.02259 50.72321 48.87290
# Shear Modulus (GPa) = 24.88051 26.10035 25.49043
#
# Velocity S-wave (km/s) = 3.99925 4.09611 4.04797
# Velocity P-wave (km/s) = 7.18004 7.41467 7.29830
#
# Compressibility (1/GPa) = 0.02126637
#
# Stress axis : x y z
#
# Youngs Moduli (GPa) = 73.96650 78.37094 47.04408
#
# Poissons Ratio (x) = 0.19549 0.13669
# Poissons Ratio (y) = 0.18450 0.36389
# Poissons Ratio (z) = 0.21491 0.60620
#
# Static dielectric constant tensor:
#      x y z
#    x 3.102040 0.000000 0.000000 
#    y 0.000000 3.213220 0.000000 
#    z 0.000000 0.000000 2.785550 
# 
# 
# High freq. dielectric constant tensor:
#      x y z
#    x 1.620160 0.000000 0.000000 
#    y 0.000000 1.590930 0.000000 
#    z 0.000000 0.000000 1.558010 
# 
# From -- ./inp_files/25541.got.cif
#   From: 2010.03.12/outbox.cif.g09.slc.cpg/sg40_13_cif.got.tgz:25541.got - 2010.04.14 01:38:03.
