data_PCOD8182609
_publ_section_title
;
Structure prediction by ZEFSAII (Michael W. Deem and Ramdas Pophale) SiO2 
 PCOD8182609
Probable space group: A M A 2
;
_chemical_formula_sum "Si O2"
_cell_formula_units_Z 56
_cell_length_a 8.909612
_cell_length_b 14.544070
_cell_length_c 22.364476
_cell_angle_alpha 90.000000
_cell_angle_beta 90.000000
_cell_angle_gamma 90.000000
_cell_volume 2898.033990
_symmetry_space_group_name_H-M "A M A 2"
_symmetry_group_IT_number 40
_symmetry_cell_setting 'orthorhombic'
loop_
_space_group_symop_operation_xyz
x,y,z
-x,-y,z
1/2-x,y,z
1/2+x,-y,z
x,1/2+y,1/2+z
-x,1/2-y,1/2+z
1/2-x,1/2+y,1/2+z
1/2+x,1/2-y,1/2+z
loop_
_atom_site_type_symbol
_atom_site_label
_atom_site_fract_x
_atom_site_fract_y
_atom_site_fract_z
Si Si1 0.928224 0.093326 0.104430
Si Si2 0.926809 0.407507 0.032842
Si Si3 0.575640 0.908292 0.230869
Si Si4 0.428331 0.399976 0.382361
Si Si5 0.923259 0.210534 0.765786
Si Si6 0.573543 0.407034 0.169855
Si Si7 0.572657 0.714089 0.494323
O O1 0.750000 0.083458 0.110626
O O2 0.998824 0.117077 0.168184
O O3 0.974756 0.171807 0.057809
O O4 0.000000 0.000000 0.079027
O O5 0.750000 0.418757 0.028555
O O6 0.976565 0.391544 0.101466
O O7 0.000000 0.500000 0.006418
O O8 0.983632 0.320080 0.994044
O O9 0.750000 0.929378 0.219778
O O10 0.553004 0.820555 0.274297
O O11 0.500000 0.000000 0.259071
O O12 0.500000 0.500000 0.379517
O O13 0.250000 0.410705 0.385831
O O14 0.479138 0.341437 0.324889
O O15 0.494485 0.344644 0.439480
O O16 0.750000 0.188391 0.752951
O O17 0.018124 0.178414 0.708813
O O18 0.500000 0.500000 0.195620
O O19 0.750000 0.415775 0.176130
O O20 0.750000 0.712966 0.487819
#
# Coordination Sequence:
#
# PCOD8182609 Si02
#       7
#     8   8   8   8   8   8   8
#     4  10  18  30  50  77 104 132 165 203 249 301
#     4   9  18  33  51  74 101 131 165 203 247 296
#     4  10  20  34  51  74 103 134 167 207 252 300
#     4  10  21  38  56  75 100 131 165 204 246 293
#     4  10  21  35  52  74 101 134 172 209 250 296
#     4  10  19  31  51  77 106 136 167 205 252 302
#     4   9  18  33  53  73  99 134 168 201 246 298
#
# _framework density 19.323443000000001
#
# number of rings (size 3 to 8) (size 9 to 14) (size 15 to 20)
#    0.000    2.286    0.000    3.857    0.000    4.571 
#    0.000    3.571    0.000    0.000    0.000    0.000 
#    0.000    0.000    0.000    0.000    0.000    0.000 
#
# Total GULP energy -347153.893341 kJ/mol
# GULP energy per Si atom -12398.353334 kJ/mol
# Density = 1.927946 g / cm^3
# Si number density = 19.323443 Si / 1000 Ang^3
#
#
#
# Elastic Constant Matrix: (Units=GPa)
#
#
# Indices 1 2 3 4 5 6 
#
# 1 59.4904 40.7478 27.0011 0.0000 0.0000 0.0000
# 2 40.7478 178.4180 66.9359 0.0000 0.0000 0.0000
# 3 27.0011 66.9359 70.5518 0.0000 0.0000 0.0000
# 4 0.0000 0.0000 0.0000 34.8261 0.0000 0.0000
# 5 0.0000 0.0000 0.0000 0.0000 16.6958 0.0000
# 6 0.0000 0.0000 0.0000 0.0000 0.0000 32.3845
#
#
#
# Elastic Compliance Matrix: (Units=1/GPa)
#
#
# Indices 1 2 3 4 5 6 
#
# 1 0.021202 -0.002792 -0.005466 0.000000 0.000000 0.000000
# 2 -0.002792 0.009070 -0.007537 0.000000 0.000000 0.000000
# 3 -0.005466 -0.007537 0.023416 0.000000 0.000000 0.000000
# 4 0.000000 0.000000 0.000000 0.028714 0.000000 0.000000
# 5 0.000000 0.000000 0.000000 0.000000 0.059895 0.000000
# 6 0.000000 0.000000 0.000000 0.000000 0.000000 0.030879
#
#
# Mechanical properties :
#
#
# Convention : Reuss Voigt Hill
#
# Bulk Modulus (GPa) = 45.24850 64.20331 54.72590
# Shear Modulus (GPa) = 23.57029 28.36631 25.96830
#
# Velocity S-wave (km/s) = 3.49632 3.83557 3.66987
# Velocity P-wave (km/s) = 6.30605 7.27415 6.80733
#
# Compressibility (1/GPa) = 0.02210018
#
# Stress axis : x y z
#
# Youngs Moduli (GPa) = 47.16451 110.25553 42.70567
#
# Poissons Ratio (x) = 0.30780 0.23342
# Poissons Ratio (y) = 0.13167 0.32185
# Poissons Ratio (z) = 0.25779 0.83095
#
# Static dielectric constant tensor:
#      x y z
#    x 3.370080 0.000000 0.000000 
#    y 0.000000 3.801600 0.000000 
#    z 0.000000 0.000000 3.430790 
# 
# 
# High freq. dielectric constant tensor:
#      x y z
#    x 1.737210 0.000000 0.000000 
#    y 0.000000 1.770500 0.000000 
#    z 0.000000 0.000000 1.727900 
# 
# From -- ./inp_files/22193.got.cif
#   From: 2010.03.12/outbox.cif.g09.slc.cpg/sg40_12_cif.got.tgz:22193.got - 2010.04.14 01:38:03.
