data_PCOD8182680
_publ_section_title
;
Structure prediction by ZEFSAII (Michael W. Deem and Ramdas Pophale) SiO2 
 PCOD8182680
Probable space group: A M A 2
;
_chemical_formula_sum "Si O2"
_cell_formula_units_Z 64
_cell_length_a 8.860941
_cell_length_b 30.204517
_cell_length_c 14.251206
_cell_angle_alpha 90.000000
_cell_angle_beta 90.000000
_cell_angle_gamma 90.000000
_cell_volume 3814.199088
_symmetry_space_group_name_H-M "A M A 2"
_symmetry_group_IT_number 40
_symmetry_cell_setting 'orthorhombic'
loop_
_space_group_symop_operation_xyz
x,y,z
-x,-y,z
1/2-x,y,z
1/2+x,-y,z
x,1/2+y,1/2+z
-x,1/2-y,1/2+z
1/2-x,1/2+y,1/2+z
1/2+x,1/2-y,1/2+z
loop_
_atom_site_type_symbol
_atom_site_label
_atom_site_fract_x
_atom_site_fract_y
_atom_site_fract_z
Si Si1 0.427757 0.714372 0.375000
Si Si2 0.082638 0.822127 0.178653
Si Si3 0.919593 0.636526 0.481180
Si Si4 0.072412 0.955352 0.046244
Si Si5 0.428717 0.802942 0.478976
Si Si6 0.424718 0.721918 0.163671
Si Si7 0.427044 0.631580 0.840885
Si Si8 0.070689 0.954419 0.260557
O O1 0.250000 0.718244 0.374495
O O2 0.471844 0.668713 0.424671
O O3 0.490904 0.757894 0.428612
O O4 0.487319 0.712411 0.268210
O O5 0.250000 0.824203 0.226216
O O6 0.076611 0.854670 0.091646
O O7 0.050539 0.773359 0.140951
O O8 0.958334 0.835759 0.253895
O O9 0.750000 0.642596 0.441836
O O10 0.973933 0.585273 0.476944
O O11 0.250000 0.961278 0.046480
O O12 0.016827 0.946989 0.153041
O O13 0.000000 0.000000 0.004750
O O14 0.250000 0.806642 0.470240
O O15 0.476239 0.804281 0.588002
O O16 0.505797 0.845791 0.433564
O O17 0.250000 0.708056 0.153648
O O18 0.250000 0.624252 0.852650
O O19 0.507638 0.584776 0.825041
O O20 0.250000 0.955791 0.269485
O O21 0.000000 0.000000 0.298904
#
# Coordination Sequence:
#
# PCOD8182680 Si02
#       8
#     8   8   8   8   8   8   8   8
#     4  10  21  34  50  73 102 134 171 213 257 302
#     4  10  18  32  50  70 103 140 170 213 257 296
#     4  10  19  32  50  72 100 136 173 207 254 302
#     4   9  18  31  48  71 100 134 167 206 253 301
#     4  11  22  36  52  74 102 135 174 215 257 303
#     4  10  20  36  52  70 101 137 172 214 259 300
#     4  12  23  33  50  76 103 140 181 212 253 308
#     4  10  19  34  52  74 105 136 170 212 260 308
#
# _framework density 16.779409000000001
#
# number of rings (size 3 to 8) (size 9 to 14) (size 15 to 20)
#    0.000    1.750    3.750    1.875    0.000    3.000 
#    0.000    0.000    0.000    0.000    0.000    0.875 
#    0.000    4.000    0.000    0.000    0.000    0.000 
#
# Total GULP energy -396777.750535 kJ/mol
# GULP energy per Si atom -12399.304704 kJ/mol
# Density = 1.674122 g / cm^3
# Si number density = 16.779409 Si / 1000 Ang^3
#
#
#
# Elastic Constant Matrix: (Units=GPa)
#
#
# Indices 1 2 3 4 5 6 
#
# 1 58.8880 28.8179 23.9314 0.0000 0.0000 0.0000
# 2 28.8179 96.1310 29.3171 0.0000 0.0000 0.0000
# 3 23.9314 29.3171 67.3414 0.0000 0.0000 0.0000
# 4 0.0000 0.0000 0.0000 22.5860 0.0000 0.0000
# 5 0.0000 0.0000 0.0000 0.0000 25.5727 0.0000
# 6 0.0000 0.0000 0.0000 0.0000 0.0000 30.2716
#
#
#
# Elastic Compliance Matrix: (Units=1/GPa)
#
#
# Indices 1 2 3 4 5 6 
#
# 1 0.021588 -0.004764 -0.005598 0.000000 0.000000 0.000000
# 2 -0.004764 0.013047 -0.003987 0.000000 0.000000 0.000000
# 3 -0.005598 -0.003987 0.018575 0.000000 0.000000 0.000000
# 4 0.000000 0.000000 0.000000 0.044275 0.000000 0.000000
# 5 0.000000 0.000000 0.000000 0.000000 0.039104 0.000000
# 6 0.000000 0.000000 0.000000 0.000000 0.000000 0.033034
#
#
# Mechanical properties :
#
#
# Convention : Reuss Voigt Hill
#
# Bulk Modulus (GPa) = 40.79711 42.94370 41.87040
# Shear Modulus (GPa) = 24.21422 25.03899 24.62661
#
# Velocity S-wave (km/s) = 3.80293 3.86715 3.83517
# Velocity P-wave (km/s) = 6.60678 6.75192 6.67975
#
# Compressibility (1/GPa) = 0.02451154
#
# Stress axis : x y z
#
# Youngs Moduli (GPa) = 46.32269 76.64860 53.83722
#
# Poissons Ratio (x) = 0.36519 0.30135
# Poissons Ratio (y) = 0.22070 0.21463
# Poissons Ratio (z) = 0.25929 0.30557
#
# Static dielectric constant tensor:
#      x y z
#    x 3.077620 0.000000 0.000000 
#    y 0.000000 3.212590 0.000000 
#    z 0.000000 0.000000 2.954890 
# 
# 
# High freq. dielectric constant tensor:
#      x y z
#    x 1.644620 0.000000 0.000000 
#    y 0.000000 1.644340 0.000000 
#    z 0.000000 0.000000 1.616380 
# 
# From -- ./inp_files/15896.got.cif
#   From: 2010.03.12/outbox.cif.g09.slc.cpg/sg40_8_cif.got.tgz:15896.got - 2010.04.14 01:38:03.
