data_PCOD8182767
_publ_section_title
;
Structure prediction by ZEFSAII (Michael W. Deem and Ramdas Pophale) SiO2 
 PCOD8182767
Probable space group: A M A 2
;
_chemical_formula_sum "Si O2"
_cell_formula_units_Z 64
_cell_length_a 18.263979
_cell_length_b 13.586267
_cell_length_c 13.496823
_cell_angle_alpha 90.000000
_cell_angle_beta 90.000000
_cell_angle_gamma 90.000000
_cell_volume 3349.092146
_symmetry_space_group_name_H-M "A M A 2"
_symmetry_group_IT_number 40
_symmetry_cell_setting 'orthorhombic'
loop_
_space_group_symop_operation_xyz
x,y,z
-x,-y,z
1/2-x,y,z
1/2+x,-y,z
x,1/2+y,1/2+z
-x,1/2-y,1/2+z
1/2-x,1/2+y,1/2+z
1/2+x,1/2-y,1/2+z
loop_
_atom_site_type_symbol
_atom_site_label
_atom_site_fract_x
_atom_site_fract_y
_atom_site_fract_z
Si Si1 0.020167 0.607129 0.929170
Si Si2 0.671358 0.858116 0.348956
Si Si3 0.979827 0.107122 0.826727
Si Si4 0.035006 0.303919 0.730623
Si Si5 0.834828 0.614482 0.628267
Si Si6 0.665170 0.385583 0.627612
Si Si7 0.828639 0.641896 0.406921
Si Si8 0.464984 0.696074 0.525270
O O1 0.988342 0.625189 0.819812
O O2 0.000000 0.500000 0.970845
O O3 0.108619 0.603691 0.923089
O O4 0.987610 0.690836 0.001929
O O5 0.750000 0.918053 0.355780
O O6 0.641890 0.851264 0.237064
O O7 0.691224 0.749992 0.377882
O O8 0.012366 0.190836 0.753966
O O9 0.891377 0.103649 0.832821
O O10 0.011650 0.125191 0.936083
O O11 0.000000 0.000000 0.785044
O O12 0.121714 0.321948 0.711655
O O13 0.999994 0.339788 0.627949
O O14 0.750000 0.633599 0.651416
O O15 0.854925 0.500033 0.627927
O O16 0.858094 0.648830 0.518816
O O17 0.750000 0.366461 0.604481
O O18 0.621721 0.321999 0.544224
O O19 0.750000 0.581951 0.400136
#
# Coordination Sequence:
#
# PCOD8182767 Si02
#       8
#     8   8   8   8   8   8   8   8
#     4  11  22  36  54  85 114 147 188 234 293 345
#     4  10  18  34  56  79 106 140 190 238 272 323
#     4  11  22  36  54  85 114 147 188 234 293 345
#     4  11  21  36  56  82 112 144 190 235 282 338
#     4  10  20  34  56  85 112 146 187 235 291 344
#     4  10  20  34  56  85 112 146 187 235 291 344
#     4  10  18  34  56  79 106 140 190 238 272 323
#     4  11  21  36  56  82 112 144 190 235 282 338
#
# _framework density 19.109656000000001
#
# number of rings (size 3 to 8) (size 9 to 14) (size 15 to 20)
#    0.000    1.500    5.000    1.500    0.000    0.500 
#    0.000    3.750    0.000    0.000    0.000    8.750 
#    0.000    0.000    0.000    0.000    0.000    0.000 
#
# Total GULP energy -396445.705415 kJ/mol
# GULP energy per Si atom -12388.928294 kJ/mol
# Density = 1.906616 g / cm^3
# Si number density = 19.109656 Si / 1000 Ang^3
#
#
#
# Elastic Constant Matrix: (Units=GPa)
#
#
# Indices 1 2 3 4 5 6 
#
# 1 136.9242 32.5499 21.0763 0.0000 0.0000 0.0000
# 2 32.5499 74.9719 11.2433 0.0000 0.0000 0.0000
# 3 21.0763 11.2433 62.7447 0.0000 0.0000 0.0000
# 4 0.0000 0.0000 0.0000 21.6298 0.0000 0.0000
# 5 0.0000 0.0000 0.0000 0.0000 29.4095 0.0000
# 6 0.0000 0.0000 0.0000 0.0000 0.0000 24.9725
#
#
#
# Elastic Compliance Matrix: (Units=1/GPa)
#
#
# Indices 1 2 3 4 5 6 
#
# 1 0.008439 -0.003328 -0.002238 0.000000 0.000000 0.000000
# 2 -0.003328 0.015019 -0.001573 0.000000 0.000000 0.000000
# 3 -0.002238 -0.001573 0.016971 0.000000 0.000000 0.000000
# 4 0.000000 0.000000 0.000000 0.046232 0.000000 0.000000
# 5 0.000000 0.000000 0.000000 0.000000 0.034003 0.000000
# 6 0.000000 0.000000 0.000000 0.000000 0.000000 0.040044
#
#
# Mechanical properties :
#
#
# Convention : Reuss Voigt Hill
#
# Bulk Modulus (GPa) = 38.24108 44.93110 41.58609
# Shear Modulus (GPa) = 27.21752 29.18713 28.20232
#
# Velocity S-wave (km/s) = 3.77806 3.91237 3.84580
# Velocity P-wave (km/s) = 6.25192 6.63115 6.44432
#
# Compressibility (1/GPa) = 0.02614989
#
# Stress axis : x y z
#
# Youngs Moduli (GPa) = 118.49683 66.58111 58.92265
#
# Poissons Ratio (x) = 0.22160 0.13189
# Poissons Ratio (y) = 0.39439 0.09271
# Poissons Ratio (z) = 0.26524 0.10475
#
# Static dielectric constant tensor:
#      x y z
#    x 4.037130 0.000000 0.000000 
#    y 0.000000 3.267770 0.000000 
#    z 0.000000 0.000000 3.372260 
# 
# 
# High freq. dielectric constant tensor:
#      x y z
#    x 1.765160 0.000000 0.000000 
#    y 0.000000 1.720010 0.000000 
#    z 0.000000 0.000000 1.727010 
# 
# From -- ./inp_files/13163.got.cif
#   From: 2010.03.12/outbox.cif.g09.slc.cpg/sg40_7_cif.got.tgz:13163.got - 2010.04.14 01:38:03.
