data_PCOD8182765
_publ_section_title
;
Structure prediction by ZEFSAII (Michael W. Deem and Ramdas Pophale) SiO2 
 PCOD8182765
Probable space group: A M A 2
;
_chemical_formula_sum "Si O2"
_cell_formula_units_Z 64
_cell_length_a 9.015023
_cell_length_b 19.699662
_cell_length_c 20.652647
_cell_angle_alpha 90.000000
_cell_angle_beta 90.000000
_cell_angle_gamma 90.000000
_cell_volume 3667.763598
_symmetry_space_group_name_H-M "A M A 2"
_symmetry_group_IT_number 40
_symmetry_cell_setting 'orthorhombic'
loop_
_space_group_symop_operation_xyz
x,y,z
-x,-y,z
1/2-x,y,z
1/2+x,-y,z
x,1/2+y,1/2+z
-x,1/2-y,1/2+z
1/2-x,1/2+y,1/2+z
1/2+x,1/2-y,1/2+z
loop_
_atom_site_type_symbol
_atom_site_label
_atom_site_fract_x
_atom_site_fract_y
_atom_site_fract_z
Si Si1 0.423822 0.706669 0.731280
Si Si2 0.424621 0.932176 0.419678
Si Si3 0.074450 0.294928 0.494320
Si Si4 0.077641 0.433780 0.068280
Si Si5 0.077287 0.700657 0.875294
Si Si6 0.921708 0.432414 0.677773
Si Si7 0.923524 0.430684 0.526354
Si Si8 0.425804 0.787549 0.609418
O O1 0.250000 0.700264 0.720022
O O2 0.461375 0.730553 0.804049
O O3 0.490179 0.631947 0.716014
O O4 0.482561 0.761432 0.679287
O O5 0.250000 0.937963 0.410644
O O6 0.472237 0.923084 0.494281
O O7 0.483406 0.867470 0.381586
O O8 0.500000 0.000000 0.391087
O O9 0.250000 0.302940 0.502800
O O10 0.032044 0.256255 0.428142
O O11 0.999521 0.368496 0.488837
O O12 0.009962 0.253216 0.554064
O O13 0.250000 0.447576 0.073244
O O14 0.030256 0.366709 0.107332
O O15 0.000000 0.500000 0.098857
O O16 0.250000 0.681575 0.881124
O O17 0.750000 0.442520 0.692168
O O18 0.952471 0.419874 0.602213
O O19 0.000000 0.500000 0.703498
O O20 0.750000 0.433285 0.509698
O O21 0.000000 0.500000 0.502239
O O22 0.250000 0.777524 0.597975
#
# Coordination Sequence:
#
# PCOD8182765 Si02
#       8
#     8   8   8   8   8   8   8   8
#     4   9  18  34  53  72  99 136 176 212 253 302
#     4  10  19  32  50  73 104 139 174 212 253 303
#     4  11  21  32  51  79 107 136 170 212 259 304
#     4   9  18  30  50  76 101 129 165 208 258 304
#     4  10  21  35  51  74 105 140 175 212 254 305
#     4   9  17  30  49  71  98 132 167 205 246 293
#     4  10  19  33  54  79 105 134 170 215 259 304
#     4  10  18  34  56  76  98 134 177 215 258 304
#
# _framework density 17.449324000000001
#
# number of rings (size 3 to 8) (size 9 to 14) (size 15 to 20)
#    0.000    2.250    2.500    1.125    0.000    2.500 
#    0.000    2.500    0.000    0.750    0.000    1.750 
#    0.000    0.000    0.000    0.000    0.000    0.000 
#
# Total GULP energy -396791.084078 kJ/mol
# GULP energy per Si atom -12399.721377 kJ/mol
# Density = 1.740961 g / cm^3
# Si number density = 17.449324 Si / 1000 Ang^3
#
#
#
# Elastic Constant Matrix: (Units=GPa)
#
#
# Indices 1 2 3 4 5 6 
#
# 1 59.1976 49.5223 35.6740 0.0000 0.0000 0.0000
# 2 49.5223 145.5720 68.3444 0.0000 0.0000 0.0000
# 3 35.6740 68.3444 102.2601 0.0000 0.0000 0.0000
# 4 0.0000 0.0000 0.0000 23.2440 0.0000 0.0000
# 5 0.0000 0.0000 0.0000 0.0000 15.9103 0.0000
# 6 0.0000 0.0000 0.0000 0.0000 0.0000 33.5984
#
#
#
# Elastic Compliance Matrix: (Units=1/GPa)
#
#
# Indices 1 2 3 4 5 6 
#
# 1 0.024906 -0.006403 -0.004410 0.000000 0.000000 0.000000
# 2 -0.006403 0.011656 -0.005557 0.000000 0.000000 0.000000
# 3 -0.004410 -0.005557 0.015031 0.000000 0.000000 0.000000
# 4 0.000000 0.000000 0.000000 0.043022 0.000000 0.000000
# 5 0.000000 0.000000 0.000000 0.000000 0.062853 0.000000
# 6 0.000000 0.000000 0.000000 0.000000 0.000000 0.029763
#
#
# Mechanical properties :
#
#
# Convention : Reuss Voigt Hill
#
# Bulk Modulus (GPa) = 53.03448 68.23459 60.63453
# Shear Modulus (GPa) = 22.09901 24.78313 23.44107
#
# Velocity S-wave (km/s) = 3.56261 3.77276 3.66919
# Velocity P-wave (km/s) = 6.88348 7.62677 7.26464
#
# Compressibility (1/GPa) = 0.01885566
#
# Stress axis : x y z
#
# Youngs Moduli (GPa) = 40.15091 85.78934 66.52854
#
# Poissons Ratio (x) = 0.54928 0.29336
# Poissons Ratio (y) = 0.25707 0.36969
# Poissons Ratio (z) = 0.17705 0.47672
#
# Static dielectric constant tensor:
#      x y z
#    x 3.154630 0.000000 0.000000 
#    y 0.000000 3.463920 0.000000 
#    z 0.000000 0.000000 3.147970 
# 
# 
# High freq. dielectric constant tensor:
#      x y z
#    x 1.665600 0.000000 0.000000 
#    y 0.000000 1.681570 0.000000 
#    z 0.000000 0.000000 1.648810 
# 
# From -- ./inp_files/19564.got.cif
#   From: 2010.03.12/outbox.cif.g09.slc.cpg/sg40_10_cif.got.tgz:19564.got - 2010.04.14 01:38:03.
