data_PCOD8182568
_publ_section_title
;
Structure prediction by ZEFSAII (Michael W. Deem and Ramdas Pophale) SiO2 
 PCOD8182568
Probable space group: A M A 2
;
_chemical_formula_sum "Si O2"
_cell_formula_units_Z 48
_cell_length_a 9.473420
_cell_length_b 13.767161
_cell_length_c 18.333902
_cell_angle_alpha 90.000000
_cell_angle_beta 90.000000
_cell_angle_gamma 90.000000
_cell_volume 2391.145970
_symmetry_space_group_name_H-M "A M A 2"
_symmetry_group_IT_number 40
_symmetry_cell_setting 'orthorhombic'
loop_
_space_group_symop_operation_xyz
x,y,z
-x,-y,z
1/2-x,y,z
1/2+x,-y,z
x,1/2+y,1/2+z
-x,1/2-y,1/2+z
1/2-x,1/2+y,1/2+z
1/2+x,1/2-y,1/2+z
loop_
_atom_site_type_symbol
_atom_site_label
_atom_site_fract_x
_atom_site_fract_y
_atom_site_fract_z
Si Si1 0.402941 0.419139 0.666550
Si Si2 0.911921 0.904700 0.367134
Si Si3 0.903747 0.084135 0.998702
Si Si4 0.591252 0.775098 0.233433
Si Si5 0.416640 0.198268 0.516899
Si Si6 0.413466 0.402997 0.145511
O O1 0.500000 0.500000 0.706512
O O2 0.250000 0.416649 0.705210
O O3 0.383686 0.444835 0.582625
O O4 0.481466 0.317035 0.674518
O O5 0.750000 0.933577 0.357953
O O6 0.950370 0.813413 0.313935
O O7 0.943993 0.871963 0.449011
O O8 0.000000 0.000000 0.347249
O O9 0.750000 0.081610 0.959940
O O10 0.966845 0.193083 0.993807
O O11 0.000000 0.000000 0.961433
O O12 0.750000 0.809958 0.213879
O O13 0.580885 0.658895 0.221337
O O14 0.250000 0.201196 0.539686
O O15 0.514524 0.157836 0.580847
O O16 0.500000 0.500000 0.160082
O O17 0.250000 0.426067 0.124785
#
# Coordination Sequence:
#
# PCOD8182568 Si02
#       6
#     8   8   8   8   8   8
#     4  10  18  29  49  77 109 142 177 222 273 325
#     4  10  22  39  59  83 115 150 187 231 283 340
#     4   9  18  31  50  78 110 143 180 224 275 325
#     4  10  21  37  55  80 110 146 186 230 281 334
#     4  10  20  38  60  84 116 152 191 234 282 336
#     4  11  23  38  59  84 113 147 189 237 285 338
#
# _framework density 20.074055999999999
#
# number of rings (size 3 to 8) (size 9 to 14) (size 15 to 20)
#    0.000    2.000    1.667    2.000    0.000    6.000 
#    0.000    0.833    0.000    0.000    0.000    0.000 
#    0.000    0.000    0.000    0.000    0.000    0.000 
#
# Total GULP energy -297411.835656 kJ/mol
# GULP energy per Si atom -12392.159819 kJ/mol
# Density = 2.002837 g / cm^3
# Si number density = 20.074056 Si / 1000 Ang^3
#
#
#
# Elastic Constant Matrix: (Units=GPa)
#
#
# Indices 1 2 3 4 5 6 
#
# 1 120.9223 70.7506 30.4996 0.0000 0.0000 0.0000
# 2 70.7506 144.5074 34.7848 0.0000 0.0000 0.0000
# 3 30.4996 34.7848 57.3426 0.0000 0.0000 0.0000
# 4 0.0000 0.0000 0.0000 22.0183 0.0000 0.0000
# 5 0.0000 0.0000 0.0000 0.0000 15.5506 0.0000
# 6 0.0000 0.0000 0.0000 0.0000 0.0000 36.3488
#
#
#
# Elastic Compliance Matrix: (Units=1/GPa)
#
#
# Indices 1 2 3 4 5 6 
#
# 1 0.012110 -0.005127 -0.003331 0.000000 0.000000 0.000000
# 2 -0.005127 0.010274 -0.003505 0.000000 0.000000 0.000000
# 3 -0.003331 -0.003505 0.021337 0.000000 0.000000 0.000000
# 4 0.000000 0.000000 0.000000 0.045417 0.000000 0.000000
# 5 0.000000 0.000000 0.000000 0.000000 0.064306 0.000000
# 6 0.000000 0.000000 0.000000 0.000000 0.000000 0.027511
#
#
# Mechanical properties :
#
#
# Convention : Reuss Voigt Hill
#
# Bulk Modulus (GPa) = 50.51962 66.09360 58.30661
# Shear Modulus (GPa) = 23.64296 27.23271 25.43783
#
# Velocity S-wave (km/s) = 3.43561 3.68722 3.56364
# Velocity P-wave (km/s) = 6.39994 7.15009 6.78539
#
# Compressibility (1/GPa) = 0.01979429
#
# Stress axis : x y z
#
# Youngs Moduli (GPa) = 82.57827 97.33231 46.86687
#
# Poissons Ratio (x) = 0.49904 0.15610
# Poissons Ratio (y) = 0.42339 0.16429
# Poissons Ratio (z) = 0.27505 0.34118
#
# Static dielectric constant tensor:
#      x y z
#    x 4.024690 0.000000 0.000000 
#    y 0.000000 3.718790 0.000000 
#    z 0.000000 0.000000 3.361490 
# 
# 
# High freq. dielectric constant tensor:
#      x y z
#    x 1.789830 0.000000 0.000000 
#    y 0.000000 1.787720 0.000000 
#    z 0.000000 0.000000 1.748350 
# 
# From -- ./inp_files/19221.got.cif
#   From: 2010.03.12/outbox.cif.g09.slc.cpg/sg40_10_cif.got.tgz:19221.got - 2010.04.14 01:38:03.
