data_PCOD8182262
_publ_section_title
;
Structure prediction by ZEFSAII (Michael W. Deem and Ramdas Pophale) SiO2 
 PCOD8182262
Probable space group: A B M 2
;
_chemical_formula_sum "Si O2"
_cell_formula_units_Z 64
_cell_length_a 12.544985
_cell_length_b 25.035847
_cell_length_c 9.939663
_cell_angle_alpha 90.000000
_cell_angle_beta 90.000000
_cell_angle_gamma 90.000000
_cell_volume 3121.792948
_symmetry_space_group_name_H-M "A B M 2"
_symmetry_group_IT_number 39
_symmetry_cell_setting 'orthorhombic'
loop_
_space_group_symop_operation_xyz
x,y,z
-x,-y,z
-x,1/2+y,z
x,1/2-y,z
x,1/2+y,1/2+z
-x,1/2-y,1/2+z
-x,y,1/2+z
x,-y,1/2+z
loop_
_atom_site_type_symbol
_atom_site_label
_atom_site_fract_x
_atom_site_fract_y
_atom_site_fract_z
Si Si1 0.602444 0.467648 0.085260
Si Si2 0.268223 0.989435 0.345086
Si Si3 0.174868 0.312677 0.668300
Si Si4 0.577680 0.810741 0.905790
Si Si5 0.220027 0.372669 0.938912
Si Si6 0.597662 0.655597 0.601826
Si Si7 0.988244 0.380520 0.579216
Si Si8 0.061124 0.052717 0.333875
O O1 0.500000 0.500000 0.133808
O O2 0.693248 0.475101 0.196291
O O3 0.573472 0.405943 0.073853
O O4 0.638076 0.489474 0.940356
O O5 0.219077 0.935970 0.410084
O O6 0.185249 0.037697 0.326100
O O7 0.177034 0.250000 0.686185
O O8 0.182097 0.340470 0.810811
O O9 0.277205 0.331125 0.580064
O O10 0.061319 0.329206 0.607586
O O11 0.620681 0.750000 0.903720
O O12 0.663647 0.849841 0.979191
O O13 0.559135 0.829393 0.752243
O O14 0.468766 0.812056 0.990359
O O15 0.133732 0.361755 0.055835
O O16 0.043243 0.404226 0.448090
O O17 0.987649 0.424465 0.696299
O O18 0.000000 0.000000 0.375455
#
# Coordination Sequence:
#
# PCOD8182262 Si02
#       8
#     8   8   8   8   8   8   8   8
#     4  12  26  42  66  99 138 177 217 265 333 399
#     4  12  24  42  65  99 135 179 217 263 328 399
#     4  11  23  44  70  94 131 178 223 279 342 394
#     4  11  23  44  72  96 125 173 225 278 334 396
#     4  11  22  43  66  95 134 173 218 269 334 398
#     4  11  24  45  69  96 133 170 223 276 334 399
#     4  12  24  44  64 102 131 173 224 275 330 394
#     4  12  25  39  69  95 135 172 218 267 323 398
#
# _framework density 20.501038000000001
#
# number of rings (size 3 to 8) (size 9 to 14) (size 15 to 20)
#    0.000    0.500    5.000    5.250    3.500    1.000 
#    2.250    0.000    0.000    0.000    0.000    0.000 
#    0.000    0.000    0.000    0.000    0.000    0.000 
#
# Total GULP energy -396887.274872 kJ/mol
# GULP energy per Si atom -12402.727340 kJ/mol
# Density = 2.045438 g / cm^3
# Si number density = 20.501038 Si / 1000 Ang^3
#
#
#
# Elastic Constant Matrix: (Units=GPa)
#
#
# Indices 1 2 3 4 5 6 
#
# 1 96.5574 36.8847 26.3617 0.0000 0.0000 0.0000
# 2 36.8847 114.6325 24.2563 0.0000 0.0000 0.0000
# 3 26.3617 24.2563 64.2587 0.0000 0.0000 0.0000
# 4 0.0000 0.0000 0.0000 10.2661 0.0000 0.0000
# 5 0.0000 0.0000 0.0000 0.0000 51.5970 0.0000
# 6 0.0000 0.0000 0.0000 0.0000 0.0000 33.1102
#
#
#
# Elastic Compliance Matrix: (Units=1/GPa)
#
#
# Indices 1 2 3 4 5 6 
#
# 1 0.012680 -0.003238 -0.003980 0.000000 0.000000 0.000000
# 2 -0.003238 0.010308 -0.002563 0.000000 0.000000 0.000000
# 3 -0.003980 -0.002563 0.018162 0.000000 0.000000 0.000000
# 4 0.000000 0.000000 0.000000 0.097408 0.000000 0.000000
# 5 0.000000 0.000000 0.000000 0.000000 0.019381 0.000000
# 6 0.000000 0.000000 0.000000 0.000000 0.000000 0.030202
#
#
# Mechanical properties :
#
#
# Convention : Reuss Voigt Hill
#
# Bulk Modulus (GPa) = 46.31905 50.05045 48.18475
# Shear Modulus (GPa) = 23.26698 31.52441 27.39569
#
# Velocity S-wave (km/s) = 3.37251 3.92560 3.65952
# Velocity P-wave (km/s) = 6.14879 6.70923 6.43511
#
# Compressibility (1/GPa) = 0.02158939
#
# Stress axis : x y z
#
# Youngs Moduli (GPa) = 78.86508 97.01576 55.05991
#
# Poissons Ratio (x) = 0.31412 0.21912
# Poissons Ratio (y) = 0.25535 0.14110
# Poissons Ratio (z) = 0.31385 0.24861
#
# Static dielectric constant tensor:
#      x y z
#    x 4.037910 0.000000 0.000000 
#    y 0.000000 3.871350 0.000000 
#    z 0.000000 0.000000 3.664210 
# 
# 
# High freq. dielectric constant tensor:
#      x y z
#    x 1.812290 0.000000 0.000000 
#    y 0.000000 1.808190 0.000000 
#    z 0.000000 0.000000 1.794290 
# 
# From -- ./inp_files/3509.got.cif
#   From: 2010.03.12/outbox.cif.g09.slc.cpg/sg39_2_cif.got.tgz:3509.got - 2010.04.14 02:53:20.
