data_PCOD8182918
_publ_section_title
;
Structure prediction by ZEFSAII (Michael W. Deem and Ramdas Pophale) SiO2 
 PCOD8182918
Probable space group: A M A 2
;
_chemical_formula_sum "Si O2"
_cell_formula_units_Z 64
_cell_length_a 8.960370
_cell_length_b 14.841201
_cell_length_c 27.262557
_cell_angle_alpha 90.000000
_cell_angle_beta 90.000000
_cell_angle_gamma 90.000000
_cell_volume 3625.447136
_symmetry_space_group_name_H-M "A M A 2"
_symmetry_group_IT_number 40
_symmetry_cell_setting 'orthorhombic'
loop_
_space_group_symop_operation_xyz
x,y,z
-x,-y,z
1/2-x,y,z
1/2+x,-y,z
x,1/2+y,1/2+z
-x,1/2-y,1/2+z
1/2-x,1/2+y,1/2+z
1/2+x,1/2-y,1/2+z
loop_
_atom_site_type_symbol
_atom_site_label
_atom_site_fract_x
_atom_site_fract_y
_atom_site_fract_z
Si Si1 0.423608 0.589766 0.117190
Si Si2 0.425500 0.092299 0.502933
Si Si3 0.423989 0.908578 0.345681
Si Si4 0.926364 0.092796 0.234918
Si Si5 0.427404 0.777910 0.150518
Si Si6 0.926569 0.593864 0.454647
Si Si7 0.073162 0.273153 0.930095
Si Si8 0.924624 0.591148 0.567259
O O1 0.500000 0.500000 0.137768
O O2 0.250000 0.577313 0.125818
O O3 0.459586 0.605282 0.060135
O O4 0.487168 0.675338 0.147612
O O5 0.250000 0.089656 0.491573
O O6 0.499713 0.176690 0.476129
O O7 0.500000 0.000000 0.483592
O O8 0.250000 0.927592 0.347443
O O9 0.475889 0.884172 0.290446
O O10 0.469010 0.826255 0.380528
O O11 0.500000 0.000000 0.364605
O O12 0.750000 0.081416 0.230145
O O13 0.984630 0.173471 0.199978
O O14 0.000000 0.000000 0.217112
O O15 0.250000 0.775762 0.149180
O O16 0.485446 0.829792 0.102157
O O17 0.750000 0.590378 0.445147
O O18 0.966476 0.613299 0.511318
O O19 0.000000 0.500000 0.437447
O O20 0.001580 0.674362 0.423947
O O21 0.250000 0.265860 0.937968
O O22 0.750000 0.577610 0.573417
O O23 0.000000 0.500000 0.585406
#
# Coordination Sequence:
#
# PCOD8182918 Si02
#       8
#     8   8   8   8   8   8   8   8
#     4   9  18  32  47  65  91 123 157 193 231 273
#     4  10  19  31  47  69  98 128 159 195 236 282
#     4   9  19  33  49  71  97 123 152 189 232 279
#     4   9  17  31  50  71  95 122 150 183 227 276
#     4   9  16  28  48  69  91 122 155 184 224 277
#     4  10  20  34  50  69  96 128 161 197 236 276
#     4  11  21  32  48  70  95 125 163 199 234 280
#     4   9  17  29  45  68  96 123 151 184 223 271
#
# _framework density 17.652996000000002
#
# number of rings (size 3 to 8) (size 9 to 14) (size 15 to 20)
#    0.000    2.500    0.000    2.625    0.000    5.000 
#    0.000    1.250    0.000    0.750    0.000    1.750 
#    0.000    0.000    0.000    0.000    0.000    0.000 
#
# Total GULP energy -396795.355971 kJ/mol
# GULP energy per Si atom -12399.854874 kJ/mol
# Density = 1.761282 g / cm^3
# Si number density = 17.652996 Si / 1000 Ang^3
#
#
#
# Elastic Constant Matrix: (Units=GPa)
#
#
# Indices 1 2 3 4 5 6 
#
# 1 50.8631 50.4004 31.0522 0.0000 0.0000 0.0000
# 2 50.4004 178.7682 70.0724 0.0000 0.0000 0.0000
# 3 31.0522 70.0724 72.0270 0.0000 0.0000 0.0000
# 4 0.0000 0.0000 0.0000 25.6358 0.0000 0.0000
# 5 0.0000 0.0000 0.0000 0.0000 13.3004 0.0000
# 6 0.0000 0.0000 0.0000 0.0000 0.0000 33.3532
#
#
#
# Elastic Compliance Matrix: (Units=1/GPa)
#
#
# Indices 1 2 3 4 5 6 
#
# 1 0.029595 -0.005403 -0.007503 0.000000 0.000000 0.000000
# 2 -0.005403 0.010028 -0.007427 0.000000 0.000000 0.000000
# 3 -0.007503 -0.007427 0.024343 0.000000 0.000000 0.000000
# 4 0.000000 0.000000 0.000000 0.039008 0.000000 0.000000
# 5 0.000000 0.000000 0.000000 0.000000 0.075186 0.000000
# 6 0.000000 0.000000 0.000000 0.000000 0.000000 0.029982
#
#
# Mechanical properties :
#
#
# Convention : Reuss Voigt Hill
#
# Bulk Modulus (GPa) = 42.91504 67.18982 55.05243
# Shear Modulus (GPa) = 19.48757 24.46677 21.97717
#
# Velocity S-wave (km/s) = 3.32614 3.72692 3.53222
# Velocity P-wave (km/s) = 6.25412 7.52755 6.92019
#
# Compressibility (1/GPa) = 0.02330185
#
# Stress axis : x y z
#
# Youngs Moduli (GPa) = 33.78984 99.71918 41.07891
#
# Poissons Ratio (x) = 0.53877 0.30820
# Poissons Ratio (y) = 0.18256 0.30508
# Poissons Ratio (z) = 0.25351 0.74059
#
# Static dielectric constant tensor:
#      x y z
#    x 3.171610 0.000000 0.000000 
#    y 0.000000 3.507530 0.000000 
#    z 0.000000 0.000000 3.282500 
# 
# 
# High freq. dielectric constant tensor:
#      x y z
#    x 1.673170 0.000000 0.000000 
#    y 0.000000 1.687750 0.000000 
#    z 0.000000 0.000000 1.660680 
# 
# From -- ./inp_files/24305.got.cif
#   From: 2010.03.12/outbox.cif.g09.slc.cpg/sg40_13_cif.got.tgz:24305.got - 2010.04.14 01:38:03.
