data_PCOD8182391
_publ_section_title
;
Structure prediction by ZEFSAII (Michael W. Deem and Ramdas Pophale) SiO2 
 PCOD8182391
Probable space group: A M A 2
;
_chemical_formula_sum "Si O2"
_cell_formula_units_Z 64
_cell_length_a 9.090544
_cell_length_b 23.367926
_cell_length_c 18.997263
_cell_angle_alpha 90.000000
_cell_angle_beta 90.000000
_cell_angle_gamma 90.000000
_cell_volume 4035.534617
_symmetry_space_group_name_H-M "A M A 2"
_symmetry_group_IT_number 40
_symmetry_cell_setting 'orthorhombic'
loop_
_space_group_symop_operation_xyz
x,y,z
-x,-y,z
1/2-x,y,z
1/2+x,-y,z
x,1/2+y,1/2+z
-x,1/2-y,1/2+z
1/2-x,1/2+y,1/2+z
1/2+x,1/2-y,1/2+z
loop_
_atom_site_type_symbol
_atom_site_label
_atom_site_fract_x
_atom_site_fract_y
_atom_site_fract_z
Si Si1 0.577860 0.245172 0.455760
Si Si2 0.577666 0.778059 0.801793
Si Si3 0.078807 0.332978 0.181966
Si Si4 0.575355 0.059187 0.306337
Si Si5 0.078971 0.333651 0.724506
Si Si6 0.079664 0.441849 0.093039
Si Si7 0.924432 0.615310 0.950924
Si Si8 0.077435 0.763974 0.093832
O O1 0.750000 0.244912 0.473981
O O2 0.546436 0.281058 0.384864
O O3 0.517204 0.180469 0.447741
O O4 0.490526 0.277147 0.517716
O O5 0.750000 0.784978 0.784786
O O6 0.489808 0.827685 0.760325
O O7 0.515810 0.717611 0.772597
O O8 0.250000 0.316717 0.182906
O O9 0.054289 0.397720 0.156643
O O10 0.998333 0.291550 0.127014
O O11 0.750000 0.051186 0.304066
O O12 0.515398 0.105081 0.248592
O O13 0.521208 0.080447 0.382918
O O14 0.500000 0.000000 0.286826
O O15 0.250000 0.336153 0.741718
O O16 0.046877 0.319849 0.642612
O O17 0.250000 0.455489 0.082046
O O18 0.000000 0.500000 0.113897
O O19 0.013695 0.415923 0.020486
O O20 0.750000 0.618032 0.952580
O O21 0.250000 0.751689 0.087970
#
# Coordination Sequence:
#
# PCOD8182391 Si02
#       8
#     8   8   8   8   8   8   8   8
#     4  10  17  30  50  70  95 128 156 185 235 287
#     4   9  17  30  50  70  90 121 158 191 230 285
#     4  10  19  32  48  67  94 125 155 194 242 282
#     4  10  18  30  47  64  88 124 160 192 223 266
#     4   8  15  29  46  63  87 122 155 185 227 274
#     4  10  20  32  46  65  91 127 163 193 230 271
#     4   9  16  29  46  63  91 128 160 183 218 272
#     4  10  19  30  47  70  93 120 159 198 232 279
#
# _framework density 15.859113000000001
#
# number of rings (size 3 to 8) (size 9 to 14) (size 15 to 20)
#    0.000    2.500    2.500    1.875    0.000    1.500 
#    0.000    3.750    0.000    0.000    0.000    0.875 
#    0.000    2.000    0.000    0.000    0.000    0.000 
#
# Total GULP energy -396705.795400 kJ/mol
# GULP energy per Si atom -12397.056106 kJ/mol
# Density = 1.582302 g / cm^3
# Si number density = 15.859113 Si / 1000 Ang^3
#
#
#
# Elastic Constant Matrix: (Units=GPa)
#
#
# Indices 1 2 3 4 5 6 
#
# 1 57.5950 38.2355 51.2031 0.0000 0.0000 0.0000
# 2 38.2355 90.4963 58.3824 0.0000 0.0000 0.0000
# 3 51.2031 58.3824 118.1341 0.0000 0.0000 0.0000
# 4 0.0000 0.0000 0.0000 23.2380 0.0000 0.0000
# 5 0.0000 0.0000 0.0000 0.0000 24.6747 0.0000
# 6 0.0000 0.0000 0.0000 0.0000 0.0000 23.0111
#
#
#
# Elastic Compliance Matrix: (Units=1/GPa)
#
#
# Indices 1 2 3 4 5 6 
#
# 1 0.030591 -0.006417 -0.010088 0.000000 0.000000 0.000000
# 2 -0.006417 0.017568 -0.005901 0.000000 0.000000 0.000000
# 3 -0.010088 -0.005901 0.015754 0.000000 0.000000 0.000000
# 4 0.000000 0.000000 0.000000 0.043033 0.000000 0.000000
# 5 0.000000 0.000000 0.000000 0.000000 0.040527 0.000000
# 6 0.000000 0.000000 0.000000 0.000000 0.000000 0.043457
#
#
# Mechanical properties :
#
#
# Convention : Reuss Voigt Hill
#
# Bulk Modulus (GPa) = 52.35237 62.42970 57.39104
# Shear Modulus (GPa) = 20.65185 22.07839 21.36512
#
# Velocity S-wave (km/s) = 3.61253 3.73521 3.67438
# Velocity P-wave (km/s) = 7.10514 7.61926 7.36668
#
# Compressibility (1/GPa) = 0.01910133
#
# Stress axis : x y z
#
# Youngs Moduli (GPa) = 32.68951 56.92043 63.47739
#
# Poissons Ratio (x) = 0.36526 0.64035
# Poissons Ratio (y) = 0.20977 0.37458
# Poissons Ratio (z) = 0.32976 0.33589
#
# Static dielectric constant tensor:
#      x y z
#    x 2.831950 0.000000 0.000000 
#    y 0.000000 2.908230 0.000000 
#    z 0.000000 0.000000 3.149140 
# 
# 
# High freq. dielectric constant tensor:
#      x y z
#    x 1.591360 0.000000 0.000000 
#    y 0.000000 1.583570 0.000000 
#    z 0.000000 0.000000 1.607620 
# 
# From -- ./inp_files/19719.got.cif
#   From: 2010.03.12/outbox.cif.g09.slc.cpg/sg40_10_cif.got.tgz:19719.got - 2010.04.14 01:38:03.
