data_PCOD8182229
_publ_section_title
;
Structure prediction by ZEFSAII (Michael W. Deem and Ramdas Pophale) SiO2 
 PCOD8182229
Probable space group: A B M 2
;
_chemical_formula_sum "Si O2"
_cell_formula_units_Z 56
_cell_length_a 15.258331
_cell_length_b 8.772567
_cell_length_c 25.587435
_cell_angle_alpha 90.000000
_cell_angle_beta 90.000000
_cell_angle_gamma 90.000000
_cell_volume 3424.999229
_symmetry_space_group_name_H-M "A B M 2"
_symmetry_group_IT_number 39
_symmetry_cell_setting 'orthorhombic'
loop_
_space_group_symop_operation_xyz
x,y,z
-x,-y,z
-x,1/2+y,z
x,1/2-y,z
x,1/2+y,1/2+z
-x,1/2-y,1/2+z
-x,y,1/2+z
x,-y,1/2+z
loop_
_atom_site_type_symbol
_atom_site_label
_atom_site_fract_x
_atom_site_fract_y
_atom_site_fract_z
Si Si1 0.097403 0.431296 0.319840
Si Si2 0.413357 0.579830 0.897459
Si Si3 0.772912 0.066899 0.014329
Si Si4 0.770274 0.568846 0.902112
Si Si5 0.094292 0.427453 0.601632
Si Si6 0.583191 0.916090 0.521173
Si Si7 0.905247 0.071427 0.216142
O O1 0.093116 0.250000 0.322926
O O2 0.156985 0.495801 0.365443
O O3 0.141384 0.484871 0.264479
O O4 0.000000 0.500000 0.325094
O O5 0.500000 0.500000 0.872987
O O6 0.404155 0.750000 0.873800
O O7 0.326220 0.484523 0.883884
O O8 0.425967 0.591105 0.959102
O O9 0.771826 0.250000 0.006444
O O10 0.677289 0.008845 0.034244
O O11 0.795302 0.987669 0.959824
O O12 0.841390 0.008209 0.057285
O O13 0.774597 0.750000 0.899371
O O14 0.080546 0.250000 0.593252
O O15 0.138027 0.457858 0.659011
O O16 0.000000 0.500000 0.594185
O O17 0.580446 0.750000 0.546433
O O18 0.500000 0.000000 0.546479
O O19 0.910727 0.250000 0.229410
O O20 0.000000 0.000000 0.210765
#
# Coordination Sequence:
#
# PCOD8182229 Si02
#       7
#     8   8   8   8   8   8   8
#     4  11  21  34  50  68  91 121 154 193 235 278
#     4   9  16  28  45  66  91 121 154 191 230 272
#     4   9  18  32  45  63  93 127 155 184 225 275
#     4  11  21  32  46  68  96 127 159 192 230 278
#     4   9  18  31  48  67  91 120 151 186 226 270
#     4   8  14  24  40  59  83 113 147 183 220 258
#     4   9  16  29  48  69  88 111 147 191 232 271
#
# _framework density 16.350369000000001
#
# number of rings (size 3 to 8) (size 9 to 14) (size 15 to 20)
#    0.000    2.571    0.000    5.143    0.000    5.143 
#    0.000    1.429    0.000    0.000    0.000    1.000 
#    0.000    4.571    0.000    0.000    0.000    0.000 
#
# Total GULP energy -346936.887442 kJ/mol
# GULP energy per Si atom -12390.603123 kJ/mol
# Density = 1.631315 g / cm^3
# Si number density = 16.350369 Si / 1000 Ang^3
#
#
#
# Elastic Constant Matrix: (Units=GPa)
#
#
# Indices 1 2 3 4 5 6 
#
# 1 108.3548 48.0037 67.9833 0.0000 0.0000 0.0000
# 2 48.0037 109.0628 49.1533 0.0000 0.0000 0.0000
# 3 67.9833 49.1533 96.7756 0.0000 0.0000 0.0000
# 4 0.0000 0.0000 0.0000 19.9021 0.0000 0.0000
# 5 0.0000 0.0000 0.0000 0.0000 -0.0378 0.0000
# 6 0.0000 0.0000 0.0000 0.0000 0.0000 26.2516
#
#
#
# Elastic Compliance Matrix: (Units=1/GPa)
#
#
# Indices 1 2 3 4 5 6 
#
# 1 0.017112 -0.002742 -0.010628 0.000000 0.000000 0.000000
# 2 -0.002742 0.012330 -0.004337 0.000000 0.000000 0.000000
# 3 -0.010628 -0.004337 0.020002 0.000000 0.000000 0.000000
# 4 0.000000 0.000000 0.000000 0.050246 0.000000 0.000000
# 5 0.000000 0.000000 0.000000 0.000000-26.481329 0.000000
# 6 0.000000 0.000000 0.000000 0.000000 0.000000 0.038093
#
#
# Mechanical properties :
#
#
# Convention : Reuss Voigt Hill
#
# Bulk Modulus (GPa) = 71.27145 71.60820 71.43982
# Shear Modulus (GPa) = -0.19009 19.16005 9.48498
#
# Velocity S-wave (km/s) = -0.34134 3.42693 2.41116
# Velocity P-wave (km/s) = 6.59768 7.71684 7.17910
#
# Compressibility (1/GPa) = 0.01403086
#
# Stress axis : x y z
#
# Youngs Moduli (GPa) = 58.43863 81.10122 49.99487
#
# Poissons Ratio (x) = 0.22236 0.53136
# Poissons Ratio (y) = 0.16022 0.21681
# Poissons Ratio (z) = 0.62111 0.35171
#
# Static dielectric constant tensor:
#      x y z
#    x 3.192390 0.000000 0.000000 
#    y 0.000000 3.288120 0.000000 
#    z 0.000000 0.000000 3.270850 
# 
# 
# High freq. dielectric constant tensor:
#      x y z
#    x 1.618090 0.000000 0.000000 
#    y 0.000000 1.639890 0.000000 
#    z 0.000000 0.000000 1.598640 
# 
# From -- ./inp_files/17916.got.cif
#   From: 2010.03.12/outbox.cif.g09.slc.cpg/sg39_9_cif.got.tgz:17916.got - 2010.04.14 02:53:20.
