data_PCOD8182193
_publ_section_title
;
Structure prediction by ZEFSAII (Michael W. Deem and Ramdas Pophale) SiO2 
 PCOD8182193
Probable space group: A B M 2
;
_chemical_formula_sum "Si O2"
_cell_formula_units_Z 40
_cell_length_a 20.537476
_cell_length_b 9.666284
_cell_length_c 9.130109
_cell_angle_alpha 90.000000
_cell_angle_beta 90.000000
_cell_angle_gamma 90.000000
_cell_volume 1812.519060
_symmetry_space_group_name_H-M "A B M 2"
_symmetry_group_IT_number 39
_symmetry_cell_setting 'orthorhombic'
loop_
_space_group_symop_operation_xyz
x,y,z
-x,-y,z
-x,1/2+y,z
x,1/2-y,z
x,1/2+y,1/2+z
-x,1/2-y,1/2+z
-x,y,1/2+z
x,-y,1/2+z
loop_
_atom_site_type_symbol
_atom_site_label
_atom_site_fract_x
_atom_site_fract_y
_atom_site_fract_z
Si Si1 0.937631 0.906278 0.331770
Si Si2 0.264239 0.599494 0.065764
Si Si3 0.351904 0.995090 0.319995
Si Si4 0.440425 0.600609 0.571669
Si Si5 0.855192 0.594743 0.043616
O O1 0.957007 0.750000 0.387849
O O2 0.895327 0.887689 0.189438
O O3 0.893883 0.987617 0.445450
O O4 0.000000 0.000000 0.296908
O O5 0.228744 0.750000 0.065662
O O6 0.309979 0.597674 0.208699
O O7 0.214934 0.471127 0.075824
O O8 0.305081 0.593639 0.915333
O O9 0.402792 0.081862 0.224346
O O10 0.390946 0.901764 0.435342
O O11 0.500000 0.500000 0.548774
O O12 0.473292 0.750000 0.576970
O O13 0.846367 0.750000 0.974431
#
# Coordination Sequence:
#
# PCOD8182193 Si02
#       5
#     8   8   8   8   8
#     4  11  24  42  65  93 126 165 209 256 307 364
#     4  11  23  41  65  91 122 162 207 254 306 365
#     4  10  24  41  63  91 124 161 204 254 309 366
#     4  11  24  42  64  91 124 161 204 254 308 368
#     4  11  25  42  63  94 129 165 206 254 309 367
#
# _framework density 22.068733999999999
#
# number of rings (size 3 to 8) (size 9 to 14) (size 15 to 20)
#    0.000    1.200    0.000    4.800    0.000   19.200 
#    0.000    0.000    0.000    0.000    0.000    0.000 
#    0.000    0.000    0.000    0.000    0.000    0.000 
#
# Total GULP energy -247929.617747 kJ/mol
# GULP energy per Si atom -12396.480887 kJ/mol
# Density = 2.201850 g / cm^3
# Si number density = 22.068734 Si / 1000 Ang^3
#
#
#
# Elastic Constant Matrix: (Units=GPa)
#
#
# Indices 1 2 3 4 5 6 
#
# 1 104.2713 51.5560 18.1759 0.0000 0.0000 0.0000
# 2 51.5560 199.4291 29.8623 0.0000 0.0000 0.0000
# 3 18.1759 29.8623 106.6311 0.0000 0.0000 0.0000
# 4 0.0000 0.0000 0.0000 13.9012 0.0000 0.0000
# 5 0.0000 0.0000 0.0000 0.0000 22.4458 0.0000
# 6 0.0000 0.0000 0.0000 0.0000 0.0000 35.7588
#
#
#
# Elastic Compliance Matrix: (Units=1/GPa)
#
#
# Indices 1 2 3 4 5 6 
#
# 1 0.011127 -0.002706 -0.001139 0.000000 0.000000 0.000000
# 2 -0.002706 0.005892 -0.001189 0.000000 0.000000 0.000000
# 3 -0.001139 -0.001189 0.009905 0.000000 0.000000 0.000000
# 4 0.000000 0.000000 0.000000 0.071936 0.000000 0.000000
# 5 0.000000 0.000000 0.000000 0.000000 0.044552 0.000000
# 6 0.000000 0.000000 0.000000 0.000000 0.000000 0.027965
#
#
# Mechanical properties :
#
#
# Convention : Reuss Voigt Hill
#
# Bulk Modulus (GPa) = 59.32354 67.72444 63.52399
# Shear Modulus (GPa) = 26.72897 35.13697 30.93297
#
# Velocity S-wave (km/s) = 3.48396 3.99452 3.74794
# Velocity P-wave (km/s) = 6.56686 7.21315 6.89757
#
# Compressibility (1/GPa) = 0.01685672
#
# Stress axis : x y z
#
# Youngs Moduli (GPa) = 89.87295 169.72575 100.95741
#
# Poissons Ratio (x) = 0.45927 0.11497
# Poissons Ratio (y) = 0.24319 0.12002
# Poissons Ratio (z) = 0.10235 0.20177
#
# Static dielectric constant tensor:
#      x y z
#    x 4.086360 0.000000 0.000000 
#    y 0.000000 4.478790 0.000000 
#    z 0.000000 0.000000 4.088210 
# 
# 
# High freq. dielectric constant tensor:
#      x y z
#    x 1.871030 0.000000 0.000000 
#    y 0.000000 1.880080 0.000000 
#    z 0.000000 0.000000 1.878600 
# 
# From -- ./inp_files/3622.got.cif
#   From: 2010.03.12/outbox.cif.g09.slc.cpg/sg39_2_cif.got.tgz:3622.got - 2010.04.14 02:53:20.
