data_PCOD8182346
_publ_section_title
;
Structure prediction by ZEFSAII (Michael W. Deem and Ramdas Pophale) SiO2 
 PCOD8182346
Probable space group: A M A 2
;
_chemical_formula_sum "Si O2"
_cell_formula_units_Z 48
_cell_length_a 9.088187
_cell_length_b 31.566238
_cell_length_c 9.335723
_cell_angle_alpha 90.000000
_cell_angle_beta 90.000000
_cell_angle_gamma 90.000000
_cell_volume 2678.231036
_symmetry_space_group_name_H-M "A M A 2"
_symmetry_group_IT_number 40
_symmetry_cell_setting 'orthorhombic'
loop_
_space_group_symop_operation_xyz
x,y,z
-x,-y,z
1/2-x,y,z
1/2+x,-y,z
x,1/2+y,1/2+z
-x,1/2-y,1/2+z
1/2-x,1/2+y,1/2+z
1/2+x,1/2-y,1/2+z
loop_
_atom_site_type_symbol
_atom_site_label
_atom_site_fract_x
_atom_site_fract_y
_atom_site_fract_z
Si Si1 0.915860 0.279342 0.553760
Si Si2 0.079568 0.128324 0.037232
Si Si3 0.418218 0.041494 0.738228
Si Si4 0.588046 0.460838 0.580515
Si Si5 0.924133 0.125297 0.742368
Si Si6 0.920129 0.791391 0.719162
O O1 0.750000 0.263216 0.583317
O O2 0.936173 0.326972 0.620078
O O3 0.948441 0.281133 0.385050
O O4 0.031912 0.248878 0.627179
O O5 0.250000 0.124127 0.979233
O O6 0.043091 0.086731 0.135504
O O7 0.964210 0.128676 0.908715
O O8 0.250000 0.041397 0.685056
O O9 0.500648 0.083096 0.676799
O O10 0.500000 0.000000 0.676749
O O11 0.427564 0.041164 0.909692
O O12 0.500000 0.500000 0.648279
O O13 0.750000 0.471502 0.631387
O O14 0.750000 0.122627 0.720638
O O15 0.987881 0.167575 0.666716
O O16 0.750000 0.800771 0.689669
#
# Coordination Sequence:
#
# PCOD8182346 Si02
#       6
#     8   8   8   8   8   8
#     4   9  18  32  48  66  89 118 152 188 227 273
#     4   8  15  27  39  54  81 113 143 180 223 263
#     4   9  15  23  34  51  77 108 142 178 217 262
#     4   8  13  20  31  48  73 105 137 170 209 253
#     4  10  17  25  39  58  81 112 147 180 219 267
#     4  10  20  33  48  67  92 120 151 190 231 272
#
# _framework density 17.922277999999999
#
# number of rings (size 3 to 8) (size 9 to 14) (size 15 to 20)
#    0.000    3.000    0.000    4.500    0.000    7.333 
#    0.000    0.000    0.000    0.000    0.000    0.000 
#    0.000    1.333    0.000    7.000    0.000   10.167 
#
# Total GULP energy -297327.350719 kJ/mol
# GULP energy per Si atom -12388.639613 kJ/mol
# Density = 1.788149 g / cm^3
# Si number density = 17.922278 Si / 1000 Ang^3
#
#
#
# Elastic Constant Matrix: (Units=GPa)
#
#
# Indices 1 2 3 4 5 6 
#
# 1 128.8499 84.1028 17.1291 0.0000 0.0000 0.0000
# 2 84.1028 186.3018 21.7787 0.0000 0.0000 0.0000
# 3 17.1291 21.7787 11.8015 0.0000 0.0000 0.0000
# 4 0.0000 0.0000 0.0000 14.2281 0.0000 0.0000
# 5 0.0000 0.0000 0.0000 0.0000 12.4654 0.0000
# 6 0.0000 0.0000 0.0000 0.0000 0.0000 39.7137
#
#
#
# Elastic Compliance Matrix: (Units=1/GPa)
#
#
# Indices 1 2 3 4 5 6 
#
# 1 0.011747 -0.004220 -0.009262 0.000000 0.000000 0.000000
# 2 -0.004220 0.008360 -0.009303 0.000000 0.000000 0.000000
# 3 -0.009262 -0.009303 0.115345 0.000000 0.000000 0.000000
# 4 0.000000 0.000000 0.000000 0.070283 0.000000 0.000000
# 5 0.000000 0.000000 0.000000 0.000000 0.080222 0.000000
# 6 0.000000 0.000000 0.000000 0.000000 0.000000 0.025180
#
#
# Mechanical properties :
#
#
# Convention : Reuss Voigt Hill
#
# Bulk Modulus (GPa) = 11.12559 63.66383 37.39471
# Shear Modulus (GPa) = 12.93098 26.87762 19.90430
#
# Velocity S-wave (km/s) = 2.68900 3.87677 3.33617
# Velocity P-wave (km/s) = 3.98272 7.45911 5.97915
#
# Compressibility (1/GPa) = 0.08988289
#
# Stress axis : x y z
#
# Youngs Moduli (GPa) = 85.12946 119.61315 8.66963
#
# Poissons Ratio (x) = 0.50479 0.08030
# Poissons Ratio (y) = 0.35926 0.08065
# Poissons Ratio (z) = 0.78844 1.11274
#
# Static dielectric constant tensor:
#      x y z
#    x 3.328090 0.000000 0.000000 
#    y 0.000000 3.990100 0.000000 
#    z 0.000000 0.000000 2.474520 
# 
# 
# High freq. dielectric constant tensor:
#      x y z
#    x 1.699440 0.000000 0.000000 
#    y 0.000000 1.728530 0.000000 
#    z 0.000000 0.000000 1.591730 
# 
# From -- ./inp_files/4573.got.cif
#   From: 2010.03.12/outbox.cif.g09.slc.cpg/sg40_3_cif.got.tgz:4573.got - 2010.04.14 01:38:03.
