data_PCOD8182850
_publ_section_title
;
Structure prediction by ZEFSAII (Michael W. Deem and Ramdas Pophale) SiO2 
 PCOD8182850
Probable space group: A M A 2
;
_chemical_formula_sum "Si O2"
_cell_formula_units_Z 64
_cell_length_a 8.818327
_cell_length_b 18.623931
_cell_length_c 21.174326
_cell_angle_alpha 90.000000
_cell_angle_beta 90.000000
_cell_angle_gamma 90.000000
_cell_volume 3477.500078
_symmetry_space_group_name_H-M "A M A 2"
_symmetry_group_IT_number 40
_symmetry_cell_setting 'orthorhombic'
loop_
_space_group_symop_operation_xyz
x,y,z
-x,-y,z
1/2-x,y,z
1/2+x,-y,z
x,1/2+y,1/2+z
-x,1/2-y,1/2+z
1/2-x,1/2+y,1/2+z
1/2+x,1/2-y,1/2+z
loop_
_atom_site_type_symbol
_atom_site_label
_atom_site_fract_x
_atom_site_fract_y
_atom_site_fract_z
Si Si1 0.426868 0.783091 0.747000
Si Si2 0.072620 0.075160 0.173492
Si Si3 0.922725 0.364201 0.809656
Si Si4 0.418826 0.570604 0.266195
Si Si5 0.081530 0.568306 0.118362
Si Si6 0.928112 0.077191 0.431745
Si Si7 0.572784 0.680227 0.042641
Si Si8 0.070679 0.785854 0.125041
O O1 0.250000 0.790097 0.729610
O O2 0.451942 0.720287 0.798531
O O3 0.486788 0.856562 0.778788
O O4 0.516012 0.763543 0.683338
O O5 0.250000 0.075006 0.159000
O O6 0.039723 0.092105 0.246418
O O7 0.994591 0.134436 0.129730
O O8 0.000000 0.000000 0.154729
O O9 0.750000 0.378034 0.831019
O O10 0.034109 0.394633 0.862299
O O11 0.500000 0.500000 0.296320
O O12 0.250000 0.578253 0.295677
O O13 0.404115 0.557415 0.192274
O O14 0.250000 0.578994 0.088968
O O15 0.000000 0.500000 0.086465
O O16 0.970795 0.634102 0.104304
O O17 0.750000 0.068127 0.438860
O O18 0.988092 0.137572 0.481132
O O19 0.000000 0.000000 0.445889
O O20 0.750000 0.695108 0.038529
O O21 0.487227 0.755227 0.057025
O O22 0.250000 0.787149 0.126074
#
# Coordination Sequence:
#
# PCOD8182850 Si02
#       8
#     8   8   8   8   8   8   8   8
#     4  10  19  33  52  74 102 135 172 217 266 315
#     4  10  20  35  55  81 109 138 171 214 265 316
#     4   9  20  36  55  77 103 138 177 218 264 310
#     4  10  19  29  44  69 100 133 169 207 252 305
#     4  10  19  29  43  65  93 130 170 205 247 294
#     4  11  24  38  54  76 104 141 182 223 262 304
#     4  11  22  35  50  70 100 137 175 216 259 304
#     4  11  21  33  51  76 103 136 173 212 261 316
#
# _framework density 18.404026000000002
#
# number of rings (size 3 to 8) (size 9 to 14) (size 15 to 20)
#    0.000    1.750    1.250    4.875    0.000    8.000 
#    0.000    0.000    0.000    0.000    0.000    0.875 
#    0.000    2.000    0.000    0.000    0.000    0.125 
#
# Total GULP energy -396723.379725 kJ/mol
# GULP energy per Si atom -12397.605616 kJ/mol
# Density = 1.836214 g / cm^3
# Si number density = 18.404026 Si / 1000 Ang^3
#
#
#
# Elastic Constant Matrix: (Units=GPa)
#
#
# Indices 1 2 3 4 5 6 
#
# 1 116.5089 58.1706 36.1584 0.0000 0.0000 0.0000
# 2 58.1706 147.9135 39.5134 0.0000 0.0000 0.0000
# 3 36.1584 39.5134 54.6094 0.0000 0.0000 0.0000
# 4 0.0000 0.0000 0.0000 23.3609 0.0000 0.0000
# 5 0.0000 0.0000 0.0000 0.0000 14.2607 0.0000
# 6 0.0000 0.0000 0.0000 0.0000 0.0000 35.9228
#
#
#
# Elastic Compliance Matrix: (Units=1/GPa)
#
#
# Indices 1 2 3 4 5 6 
#
# 1 0.011907 -0.003194 -0.005573 0.000000 0.000000 0.000000
# 2 -0.003194 0.009237 -0.004569 0.000000 0.000000 0.000000
# 3 -0.005573 -0.004569 0.025308 0.000000 0.000000 0.000000
# 4 0.000000 0.000000 0.000000 0.042807 0.000000 0.000000
# 5 0.000000 0.000000 0.000000 0.000000 0.070123 0.000000
# 6 0.000000 0.000000 0.000000 0.000000 0.000000 0.027837
#
#
# Mechanical properties :
#
#
# Convention : Reuss Voigt Hill
#
# Bulk Modulus (GPa) = 50.55500 65.19072 57.87286
# Shear Modulus (GPa) = 22.67725 27.05484 24.86604
#
# Velocity S-wave (km/s) = 3.51406 3.83828 3.67975
# Velocity P-wave (km/s) = 6.63280 7.42577 7.04046
#
# Compressibility (1/GPa) = 0.01978044
#
# Stress axis : x y z
#
# Youngs Moduli (GPa) = 83.98158 108.25543 39.51333
#
# Poissons Ratio (x) = 0.34578 0.22021
# Poissons Ratio (y) = 0.26824 0.18054
# Poissons Ratio (z) = 0.46804 0.49462
#
# Static dielectric constant tensor:
#      x y z
#    x 3.540810 0.000000 0.000000 
#    y 0.000000 3.645740 0.000000 
#    z 0.000000 0.000000 2.993770 
# 
# 
# High freq. dielectric constant tensor:
#      x y z
#    x 1.729530 0.000000 0.000000 
#    y 0.000000 1.723660 0.000000 
#    z 0.000000 0.000000 1.657650 
# 
# From -- ./inp_files/24411.got.cif
#   From: 2010.03.12/outbox.cif.g09.slc.cpg/sg40_13_cif.got.tgz:24411.got - 2010.04.14 01:38:03.
