data_PCOD8182071
_publ_section_title
;
Structure prediction by ZEFSAII (Michael W. Deem and Ramdas Pophale) SiO2 
 PCOD8182071
Probable space group: A B M 2
;
_chemical_formula_sum "Si O2"
_cell_formula_units_Z 36
_cell_length_a 8.321802
_cell_length_b 14.471852
_cell_length_c 13.524199
_cell_angle_alpha 90.000000
_cell_angle_beta 90.000000
_cell_angle_gamma 90.000000
_cell_volume 1628.744805
_symmetry_space_group_name_H-M "A B M 2"
_symmetry_group_IT_number 39
_symmetry_cell_setting 'orthorhombic'
loop_
_space_group_symop_operation_xyz
x,y,z
-x,-y,z
-x,1/2+y,z
x,1/2-y,z
x,1/2+y,1/2+z
-x,1/2-y,1/2+z
-x,y,1/2+z
x,-y,1/2+z
loop_
_atom_site_type_symbol
_atom_site_label
_atom_site_fract_x
_atom_site_fract_y
_atom_site_fract_z
Si Si1 0.245734 0.855447 0.993860
Si Si2 0.549929 0.599365 0.316027
Si Si3 0.000000 0.500000 0.943606
Si Si4 0.567187 0.857550 0.099265
Si Si5 0.762034 0.648147 0.906997
O O1 0.192859 0.750000 0.018333
O O2 0.303488 0.859348 0.879436
O O3 0.391849 0.889763 0.062338
O O4 0.099468 0.926996 0.011028
O O5 0.500000 0.500000 0.357944
O O6 0.606513 0.592668 0.202436
O O7 0.387055 0.658872 0.331266
O O8 0.115236 0.434191 0.875848
O O9 0.563048 0.750000 0.121002
O O10 0.700218 0.880102 0.016751
O O11 0.845947 0.750000 0.908793
#
# Coordination Sequence:
#
# PCOD8182071 Si02
#       5
#     8   8   4   8   8
#     4  10  22  40  60  85 117 151 190 237 286 337
#     4  11  20  36  64  89 111 147 195 244 285 329
#     4  12  22  38  58  86 120 156 190 224 286 352
#     4   9  20  38  62  86 110 148 193 241 288 329
#     4  10  22  40  60  85 117 151 190 237 286 337
#
# _framework density 22.102910999999999
#
# number of rings (size 3 to 8) (size 9 to 14) (size 15 to 20)
#    0.000    1.778    2.222    4.000    3.111    0.000 
#    0.000    4.444    0.000    5.333    0.000    0.000 
#    0.000    0.000    0.000    0.000    0.000    0.000 
#
# Total GULP energy -223089.835977 kJ/mol
# GULP energy per Si atom -12393.879776 kJ/mol
# Density = 2.205260 g / cm^3
# Si number density = 22.102911 Si / 1000 Ang^3
#
#
#
# Elastic Constant Matrix: (Units=GPa)
#
#
# Indices 1 2 3 4 5 6 
#
# 1 90.6583 42.4366 9.7369 0.0000 0.0000 0.0000
# 2 42.4366 117.3810 1.0192 0.0000 0.0000 0.0000
# 3 9.7369 1.0192 99.4138 0.0000 0.0000 0.0000
# 4 0.0000 0.0000 0.0000 19.7557 0.0000 0.0000
# 5 0.0000 0.0000 0.0000 0.0000 10.1237 0.0000
# 6 0.0000 0.0000 0.0000 0.0000 0.0000 46.9263
#
#
#
# Elastic Compliance Matrix: (Units=1/GPa)
#
#
# Indices 1 2 3 4 5 6 
#
# 1 0.013435 -0.004846 -0.001266 0.000000 0.000000 0.000000
# 2 -0.004846 0.010268 0.000369 0.000000 0.000000 0.000000
# 3 -0.001266 0.000369 0.010179 0.000000 0.000000 0.000000
# 4 0.000000 0.000000 0.000000 0.050618 0.000000 0.000000
# 5 0.000000 0.000000 0.000000 0.000000 0.098779 0.000000
# 6 0.000000 0.000000 0.000000 0.000000 0.000000 0.021310
#
#
# Mechanical properties :
#
#
# Convention : Reuss Voigt Hill
#
# Bulk Modulus (GPa) = 44.65018 45.98205 45.31612
# Shear Modulus (GPa) = 22.36734 32.31182 27.33958
#
# Velocity S-wave (km/s) = 3.18459 3.82760 3.52081
# Velocity P-wave (km/s) = 5.81094 6.35475 6.08892
#
# Compressibility (1/GPa) = 0.02239633
#
# Stress axis : x y z
#
# Youngs Moduli (GPa) = 74.43337 97.38942 98.23967
#
# Poissons Ratio (x) = 0.47196 0.12439
# Poissons Ratio (y) = 0.36071 -0.03629
# Poissons Ratio (z) = 0.09424 -0.03597
#
# Static dielectric constant tensor:
#      x y z
#    x 3.870200 0.000000 0.000000 
#    y 0.000000 4.182970 0.000000 
#    z 0.000000 0.000000 3.580530 
# 
# 
# High freq. dielectric constant tensor:
#      x y z
#    x 1.849690 0.000000 0.000000 
#    y 0.000000 1.897960 0.000000 
#    z 0.000000 0.000000 1.825240 
# 
# From -- ./inp_files/7982.got.cif
#   From: 2010.03.12/outbox.cif.g09.slc.cpg/sg39_4_cif.got.tgz:7982.got - 2010.04.14 02:53:20.
