data_PCOD8182919
_publ_section_title
;
Structure prediction by ZEFSAII (Michael W. Deem and Ramdas Pophale) SiO2 
 PCOD8182919
Probable space group: A M A 2
;
_chemical_formula_sum "Si O2"
_cell_formula_units_Z 64
_cell_length_a 8.955596
_cell_length_b 14.472172
_cell_length_c 27.736834
_cell_angle_alpha 90.000000
_cell_angle_beta 90.000000
_cell_angle_gamma 90.000000
_cell_volume 3594.885783
_symmetry_space_group_name_H-M "A M A 2"
_symmetry_group_IT_number 40
_symmetry_cell_setting 'orthorhombic'
loop_
_space_group_symop_operation_xyz
x,y,z
-x,-y,z
1/2-x,y,z
1/2+x,-y,z
x,1/2+y,1/2+z
-x,1/2-y,1/2+z
1/2-x,1/2+y,1/2+z
1/2+x,1/2-y,1/2+z
loop_
_atom_site_type_symbol
_atom_site_label
_atom_site_fract_x
_atom_site_fract_y
_atom_site_fract_z
Si Si1 0.426016 0.210815 0.515760
Si Si2 0.923941 0.788049 0.789877
Si Si3 0.426853 0.909306 0.979197
Si Si4 0.424670 0.409553 0.823039
Si Si5 0.928192 0.097416 0.597488
Si Si6 0.586501 0.354935 0.913207
Si Si7 0.427367 0.096050 0.698038
Si Si8 0.413405 0.352280 0.377970
O O1 0.250000 0.203884 0.527481
O O2 0.475005 0.317248 0.507799
O O3 0.525723 0.174900 0.559442
O O4 0.465029 0.148008 0.468984
O O5 0.750000 0.786544 0.799307
O O6 0.985313 0.683057 0.796212
O O7 0.964728 0.825203 0.737125
O O8 0.987788 0.858482 0.829916
O O9 0.250000 0.917730 0.979897
O O10 0.484543 0.906203 0.923478
O O11 0.500000 0.000000 0.003757
O O12 0.500000 0.500000 0.798973
O O13 0.250000 0.419681 0.817099
O O14 0.467078 0.407648 0.879945
O O15 0.750000 0.088222 0.600655
O O16 0.995490 0.128582 0.648747
O O17 0.000000 0.000000 0.581878
O O18 0.750000 0.403071 0.908617
O O19 0.603347 0.251692 0.895201
O O20 0.250000 0.083151 0.690827
O O21 0.500000 0.000000 0.715447
O O22 0.250000 0.392283 0.365043
#
# Coordination Sequence:
#
# PCOD8182919 Si02
#       8
#     8   8   8   8   8   8   8   8
#     4   9  18  34  53  73 100 133 168 206 248 292
#     4   9  19  33  50  72  98 129 164 201 242 290
#     4   9  18  31  48  72 103 138 172 205 242 286
#     4  10  19  31  47  70 100 133 167 201 239 282
#     4  11  22  36  55  78 100 124 158 200 250 304
#     4   8  15  29  47  66  91 126 165 200 235 277
#     4  10  20  36  55  75  99 125 156 197 247 298
#     4   8  15  28  45  66  94 128 164 200 236 275
#
# _framework density 17.803069000000001
#
# number of rings (size 3 to 8) (size 9 to 14) (size 15 to 20)
#    0.000    2.750    0.000    4.125    0.000    4.000 
#    0.000    5.000    0.000    0.750    0.000    1.750 
#    0.000    0.000    0.000    0.000    0.000    0.000 
#
# Total GULP energy -396594.122215 kJ/mol
# GULP energy per Si atom -12393.566319 kJ/mol
# Density = 1.776255 g / cm^3
# Si number density = 17.803069 Si / 1000 Ang^3
#
#
#
# Elastic Constant Matrix: (Units=GPa)
#
#
# Indices 1 2 3 4 5 6 
#
# 1 75.3820 43.6853 49.1672 0.0000 0.0000 0.0000
# 2 43.6853 98.0837 59.3307 0.0000 0.0000 0.0000
# 3 49.1672 59.3307 103.9920 0.0000 0.0000 0.0000
# 4 0.0000 0.0000 0.0000 23.6148 0.0000 0.0000
# 5 0.0000 0.0000 0.0000 0.0000 26.4724 0.0000
# 6 0.0000 0.0000 0.0000 0.0000 0.0000 25.4847
#
#
#
# Elastic Compliance Matrix: (Units=1/GPa)
#
#
# Indices 1 2 3 4 5 6 
#
# 1 0.020691 -0.005036 -0.006909 0.000000 0.000000 0.000000
# 2 -0.005036 0.016794 -0.007200 0.000000 0.000000 0.000000
# 3 -0.006909 -0.007200 0.016991 0.000000 0.000000 0.000000
# 4 0.000000 0.000000 0.000000 0.042346 0.000000 0.000000
# 5 0.000000 0.000000 0.000000 0.000000 0.037775 0.000000
# 6 0.000000 0.000000 0.000000 0.000000 0.000000 0.039239
#
#
# Mechanical properties :
#
#
# Convention : Reuss Voigt Hill
#
# Bulk Modulus (GPa) = 61.78927 64.64711 63.21819
# Shear Modulus (GPa) = 22.98612 23.46601 23.22606
#
# Velocity S-wave (km/s) = 3.59713 3.63449 3.61586
# Velocity P-wave (km/s) = 7.21352 7.34873 7.28144
#
# Compressibility (1/GPa) = 0.01618404
#
# Stress axis : x y z
#
# Youngs Moduli (GPa) = 48.33073 59.54558 58.85488
#
# Poissons Ratio (x) = 0.29987 0.40665
# Poissons Ratio (y) = 0.24339 0.42378
# Poissons Ratio (z) = 0.33394 0.42875
#
# Static dielectric constant tensor:
#      x y z
#    x 3.333070 0.000000 0.000000 
#    y 0.000000 3.431700 0.000000 
#    z 0.000000 0.000000 3.254000 
# 
# 
# High freq. dielectric constant tensor:
#      x y z
#    x 1.688360 0.000000 0.000000 
#    y 0.000000 1.682910 0.000000 
#    z 0.000000 0.000000 1.666960 
# 
# From -- ./inp_files/26485.got.cif
#   From: 2010.03.12/outbox.cif.g09.slc.cpg/sg40_14_cif.got.tgz:26485.got - 2010.04.14 01:38:03.
