data_PCOD8182340
_publ_section_title
;
Structure prediction by ZEFSAII (Michael W. Deem and Ramdas Pophale) SiO2 
 PCOD8182340
Probable space group: A M A 2
;
_chemical_formula_sum "Si O2"
_cell_formula_units_Z 64
_cell_length_a 19.429290
_cell_length_b 17.327891
_cell_length_c 9.996968
_cell_angle_alpha 90.000000
_cell_angle_beta 90.000000
_cell_angle_gamma 90.000000
_cell_volume 3365.665414
_symmetry_space_group_name_H-M "A M A 2"
_symmetry_group_IT_number 40
_symmetry_cell_setting 'orthorhombic'
loop_
_space_group_symop_operation_xyz
x,y,z
-x,-y,z
1/2-x,y,z
1/2+x,-y,z
x,1/2+y,1/2+z
-x,1/2-y,1/2+z
1/2-x,1/2+y,1/2+z
1/2+x,1/2-y,1/2+z
loop_
_atom_site_type_symbol
_atom_site_label
_atom_site_fract_x
_atom_site_fract_y
_atom_site_fract_z
Si Si1 0.328518 0.924684 0.192820
Si Si2 0.168909 0.845616 0.467623
Si Si3 0.824969 0.021545 0.673569
Si Si4 0.174618 0.362146 0.402866
Si Si5 0.938607 0.279651 0.560613
Si Si6 0.468581 0.294605 0.327048
Si Si7 0.429780 0.038123 0.075773
Si Si8 0.555490 0.945195 0.778462
O O1 0.250000 0.949877 0.216421
O O2 0.353415 0.872990 0.318814
O O3 0.370889 0.003686 0.172118
O O4 0.338510 0.874659 0.059650
O O5 0.250000 0.825901 0.474950
O O6 0.149220 0.914678 0.568035
O O7 0.128395 0.768927 0.514680
O O8 0.750000 0.989710 0.630768
O O9 0.821758 0.058519 0.820849
O O10 0.877014 0.948451 0.682640
O O11 0.250000 0.320640 0.384461
O O12 0.111444 0.313495 0.346959
O O13 0.969984 0.262464 0.704362
O O14 0.922674 0.369858 0.572485
O O15 0.000349 0.256876 0.459910
O O16 0.522396 0.362250 0.293084
O O17 0.500000 0.000000 0.132367
O O18 0.424107 0.014018 0.920057
O O19 0.500000 0.000000 0.706912
#
# Coordination Sequence:
#
# PCOD8182340 Si02
#       8
#     8   8   8   8   8   8   8   8
#     4  10  20  36  60  88 117 151 195 249 303 361
#     4  10  22  39  59  88 124 158 196 251 313 361
#     4  10  18  33  59  86 113 151 200 240 290 366
#     4  10  18  34  63  85 108 154 203 237 284 363
#     4  11  24  39  60  87 120 163 200 257 307 368
#     4  11  23  38  57  86 121 153 199 251 311 361
#     4  10  21  36  57  84 115 153 195 242 294 358
#     4  10  16  32  57  83 111 146 190 243 290 347
#
# _framework density 19.015557000000001
#
# number of rings (size 3 to 8) (size 9 to 14) (size 15 to 20)
#    0.000    1.750    3.750    1.500    3.500    0.500 
#    2.250    2.500    0.000    0.750    0.000    0.000 
#    0.000    0.000    0.000    0.000    0.000    0.000 
#
# Total GULP energy -396451.995334 kJ/mol
# GULP energy per Si atom -12389.124854 kJ/mol
# Density = 1.897228 g / cm^3
# Si number density = 19.015557 Si / 1000 Ang^3
#
#
#
# Elastic Constant Matrix: (Units=GPa)
#
#
# Indices 1 2 3 4 5 6 
#
# 1 120.8877 55.4324 41.6434 0.0000 0.0000 0.0000
# 2 55.4324 72.0681 39.9320 0.0000 0.0000 0.0000
# 3 41.6434 39.9320 88.1106 0.0000 0.0000 0.0000
# 4 0.0000 0.0000 0.0000 19.7318 0.0000 0.0000
# 5 0.0000 0.0000 0.0000 0.0000 28.0007 0.0000
# 6 0.0000 0.0000 0.0000 0.0000 0.0000 23.9912
#
#
#
# Elastic Compliance Matrix: (Units=1/GPa)
#
#
# Indices 1 2 3 4 5 6 
#
# 1 0.013082 -0.008862 -0.002167 0.000000 0.000000 0.000000
# 2 -0.008862 0.024531 -0.006929 0.000000 0.000000 0.000000
# 3 -0.002167 -0.006929 0.015514 0.000000 0.000000 0.000000
# 4 0.000000 0.000000 0.000000 0.050679 0.000000 0.000000
# 5 0.000000 0.000000 0.000000 0.000000 0.035713 0.000000
# 6 0.000000 0.000000 0.000000 0.000000 0.000000 0.041682
#
#
# Mechanical properties :
#
#
# Convention : Reuss Voigt Hill
#
# Bulk Modulus (GPa) = 58.10062 61.67577 59.88819
# Shear Modulus (GPa) = 22.43611 23.94866 23.19239
#
# Velocity S-wave (km/s) = 3.43867 3.55269 3.49614
# Velocity P-wave (km/s) = 6.81076 7.02379 6.91809
#
# Compressibility (1/GPa) = 0.01721152
#
# Stress axis : x y z
#
# Youngs Moduli (GPa) = 76.44086 40.76415 64.45835
#
# Poissons Ratio (x) = 0.36124 0.13967
# Poissons Ratio (y) = 0.67739 0.44666
# Poissons Ratio (z) = 0.16563 0.28247
#
# Static dielectric constant tensor:
#      x y z
#    x 3.847780 0.000000 0.000000 
#    y 0.000000 3.088230 0.000000 
#    z 0.000000 0.000000 3.715190 
# 
# 
# High freq. dielectric constant tensor:
#      x y z
#    x 1.754980 0.000000 0.000000 
#    y 0.000000 1.700510 0.000000 
#    z 0.000000 0.000000 1.740920 
# 
# From -- ./inp_files/13246.got.cif
#   From: 2010.03.12/outbox.cif.g09.slc.cpg/sg40_7_cif.got.tgz:13246.got - 2010.04.14 01:38:03.
