data_PCOD8182233
_publ_section_title
;
Structure prediction by ZEFSAII (Michael W. Deem and Ramdas Pophale) SiO2 
 PCOD8182233
Probable space group: A B M 2
;
_chemical_formula_sum "Si O2"
_cell_formula_units_Z 64
_cell_length_a 17.735144
_cell_length_b 9.121249
_cell_length_c 23.215676
_cell_angle_alpha 90.000000
_cell_angle_beta 90.000000
_cell_angle_gamma 90.000000
_cell_volume 3755.522470
_symmetry_space_group_name_H-M "A B M 2"
_symmetry_group_IT_number 39
_symmetry_cell_setting 'orthorhombic'
loop_
_space_group_symop_operation_xyz
x,y,z
-x,-y,z
-x,1/2+y,z
x,1/2-y,z
x,1/2+y,1/2+z
-x,1/2-y,1/2+z
-x,y,1/2+z
x,-y,1/2+z
loop_
_atom_site_type_symbol
_atom_site_label
_atom_site_fract_x
_atom_site_fract_y
_atom_site_fract_z
Si Si1 0.924171 0.424716 0.818970
Si Si2 0.799947 0.090083 0.105810
Si Si3 0.283643 0.425484 0.496697
Si Si4 0.305880 0.086830 0.259675
Si Si5 0.576645 0.073777 0.553665
Si Si6 0.636661 0.913656 0.660980
Si Si7 0.770385 0.924004 0.372122
Si Si8 0.143533 0.910718 0.702564
O O1 0.932137 0.250000 0.821029
O O2 0.855437 0.479246 0.859594
O O3 0.907996 0.479145 0.753331
O O4 0.000000 0.500000 0.841985
O O5 0.836362 0.250000 0.100189
O O6 0.782319 0.028221 0.041808
O O7 0.721555 0.097920 0.139355
O O8 0.860499 0.997603 0.142242
O O9 0.298882 0.250000 0.500656
O O10 0.358881 0.514356 0.511225
O O11 0.256610 0.478671 0.434207
O O12 0.341344 0.250000 0.264432
O O13 0.288130 0.019503 0.323080
O O14 0.228461 0.097853 0.224870
O O15 0.363976 0.982182 0.225387
O O16 0.573047 0.250000 0.551845
O O17 0.500000 0.000000 0.530763
O O18 0.589685 0.019494 0.619063
O O19 0.600676 0.750000 0.662372
O O20 0.770903 0.750000 0.368161
O O21 0.113127 0.750000 0.687861
#
# Coordination Sequence:
#
# PCOD8182233 Si02
#       8
#     8   8   8   8   8   8   8   8
#     4   9  17  29  45  67  91 120 155 195 242 291
#     4   8  14  23  39  63  87 110 142 180 220 263
#     4   9  17  31  49  70  95 126 162 199 236 281
#     4   8  13  24  43  66  88 115 148 183 223 269
#     4  11  21  33  49  70  95 123 155 195 240 288
#     4   9  16  27  43  66  93 118 143 178 225 275
#     4   8  15  29  49  69  94 128 165 199 237 284
#     4   8  14  24  39  59  85 112 141 177 224 275
#
# _framework density 17.041571000000001
#
# number of rings (size 3 to 8) (size 9 to 14) (size 15 to 20)
#    0.000    3.250    0.000    3.750    0.000    3.500 
#    0.000    3.125    0.000    1.500    0.000    7.000 
#    0.000    0.000    0.000    0.000    0.000    0.000 
#
# Total GULP energy -396492.465839 kJ/mol
# GULP energy per Si atom -12390.389557 kJ/mol
# Density = 1.700278 g / cm^3
# Si number density = 17.041571 Si / 1000 Ang^3
#
#
#
# Elastic Constant Matrix: (Units=GPa)
#
#
# Indices 1 2 3 4 5 6 
#
# 1 62.4116 34.5393 47.2513 0.0000 0.0000 0.0000
# 2 34.5393 78.1250 45.9050 0.0000 0.0000 0.0000
# 3 47.2513 45.9050 144.6429 0.0000 0.0000 0.0000
# 4 0.0000 0.0000 0.0000 20.9877 0.0000 0.0000
# 5 0.0000 0.0000 0.0000 0.0000 14.0503 0.0000
# 6 0.0000 0.0000 0.0000 0.0000 0.0000 21.0918
#
#
#
# Elastic Compliance Matrix: (Units=1/GPa)
#
#
# Indices 1 2 3 4 5 6 
#
# 1 0.024410 -0.007506 -0.005592 0.000000 0.000000 0.000000
# 2 -0.007506 0.018042 -0.003274 0.000000 0.000000 0.000000
# 3 -0.005592 -0.003274 0.009779 0.000000 0.000000 0.000000
# 4 0.000000 0.000000 0.000000 0.047647 0.000000 0.000000
# 5 0.000000 0.000000 0.000000 0.000000 0.071173 0.000000
# 6 0.000000 0.000000 0.000000 0.000000 0.000000 0.047412
#
#
# Mechanical properties :
#
#
# Convention : Reuss Voigt Hill
#
# Bulk Modulus (GPa) = 51.31434 60.06341 55.68888
# Shear Modulus (GPa) = 19.40214 21.72489 20.56351
#
# Velocity S-wave (km/s) = 3.37785 3.57433 3.47748
# Velocity P-wave (km/s) = 6.73720 7.23576 6.99092
#
# Compressibility (1/GPa) = 0.01948773
#
# Stress axis : x y z
#
# Youngs Moduli (GPa) = 40.96633 55.42573 102.25553
#
# Poissons Ratio (x) = 0.41603 0.57182
# Poissons Ratio (y) = 0.30749 0.33478
# Poissons Ratio (z) = 0.22909 0.18146
#
# Static dielectric constant tensor:
#      x y z
#    x 2.896610 0.000000 0.000000 
#    y 0.000000 3.243120 0.000000 
#    z 0.000000 0.000000 3.397980 
# 
# 
# High freq. dielectric constant tensor:
#      x y z
#    x 1.616850 0.000000 0.000000 
#    y 0.000000 1.645260 0.000000 
#    z 0.000000 0.000000 1.649570 
# 
# From -- ./inp_files/16321.got.cif
#   From: 2010.03.12/outbox.cif.g09.slc.cpg/sg39_9_cif.got.tgz:16321.got - 2010.04.14 02:53:20.
