data_PCOD8182975
_publ_section_title
;
Structure prediction by ZEFSAII (Michael W. Deem and Ramdas Pophale) SiO2 
 PCOD8182975
Probable space group: A M A 2
;
_chemical_formula_sum "Si O2"
_cell_formula_units_Z 64
_cell_length_a 9.090336
_cell_length_b 20.473180
_cell_length_c 19.333422
_cell_angle_alpha 90.000000
_cell_angle_beta 90.000000
_cell_angle_gamma 90.000000
_cell_volume 3598.106149
_symmetry_space_group_name_H-M "A M A 2"
_symmetry_group_IT_number 40
_symmetry_cell_setting 'orthorhombic'
loop_
_space_group_symop_operation_xyz
x,y,z
-x,-y,z
1/2-x,y,z
1/2+x,-y,z
x,1/2+y,1/2+z
-x,1/2-y,1/2+z
1/2-x,1/2+y,1/2+z
1/2+x,1/2-y,1/2+z
loop_
_atom_site_type_symbol
_atom_site_label
_atom_site_fract_x
_atom_site_fract_y
_atom_site_fract_z
Si Si1 0.420287 0.316552 0.856100
Si Si2 0.919940 0.318157 0.284344
Si Si3 0.079016 0.065424 0.285268
Si Si4 0.582307 0.231809 0.503994
Si Si5 0.080523 0.237865 0.639122
Si Si6 0.424915 0.433714 0.361306
Si Si7 0.080479 0.617590 0.491277
Si Si8 0.419424 0.128368 0.144602
O O1 0.250000 0.331110 0.839137
O O2 0.468576 0.249104 0.820513
O O3 0.520806 0.374022 0.828653
O O4 0.449006 0.313527 0.938236
O O5 0.750000 0.333527 0.302960
O O6 0.943667 0.312634 0.201914
O O7 0.022753 0.375490 0.311869
O O8 0.250000 0.057751 0.300486
O O9 0.046027 0.075910 0.203903
O O10 0.000000 0.000000 0.310383
O O11 0.750000 0.227328 0.528141
O O12 0.486918 0.207654 0.569088
O O13 0.545233 0.305922 0.482830
O O14 0.250000 0.251074 0.625561
O O15 0.011604 0.307006 0.659542
O O16 0.500000 0.500000 0.333955
O O17 0.250000 0.439983 0.358098
O O18 0.474857 0.421989 0.440387
O O19 0.250000 0.602518 0.472023
O O20 0.043107 0.596522 0.570111
O O21 0.250000 0.150534 0.145416
#
# Coordination Sequence:
#
# PCOD8182975 Si02
#       8
#     8   8   8   8   8   8   8   8
#     4  10  19  36  59  81 109 147 183 222 275 324
#     4  10  20  37  58  81 111 145 181 223 274 325
#     4  11  23  37  54  79 111 147 187 231 274 324
#     4   9  18  33  55  80 111 146 177 219 271 323
#     4  10  19  31  54  84 112 141 176 224 272 319
#     4  12  25  38  55  79 109 146 186 229 274 325
#     4   9  17  34  54  76 110 147 182 220 267 320
#     4   9  19  34  52  76 109 147 184 222 266 319
#
# _framework density 17.787136
#
# number of rings (size 3 to 8) (size 9 to 14) (size 15 to 20)
#    0.000    2.000    2.500    2.625    0.000    5.000 
#    0.000    1.250    0.000    0.750    0.000    5.250 
#    0.000    0.000    0.000    0.000    0.000    0.000 
#
# Total GULP energy -396849.054657 kJ/mol
# GULP energy per Si atom -12401.532958 kJ/mol
# Density = 1.774665 g / cm^3
# Si number density = 17.787136 Si / 1000 Ang^3
#
#
#
# Elastic Constant Matrix: (Units=GPa)
#
#
# Indices 1 2 3 4 5 6 
#
# 1 107.8652 60.5046 50.5839 0.0000 0.0000 0.0000
# 2 60.5046 99.1900 46.6833 0.0000 0.0000 0.0000
# 3 50.5839 46.6833 85.3231 0.0000 0.0000 0.0000
# 4 0.0000 0.0000 0.0000 17.6307 0.0000 0.0000
# 5 0.0000 0.0000 0.0000 0.0000 31.8692 0.0000
# 6 0.0000 0.0000 0.0000 0.0000 0.0000 27.9358
#
#
#
# Elastic Compliance Matrix: (Units=1/GPa)
#
#
# Indices 1 2 3 4 5 6 
#
# 1 0.015812 -0.007048 -0.005518 0.000000 0.000000 0.000000
# 2 -0.007048 0.016720 -0.004970 0.000000 0.000000 0.000000
# 3 -0.005518 -0.004970 0.017710 0.000000 0.000000 0.000000
# 4 0.000000 0.000000 0.000000 0.056719 0.000000 0.000000
# 5 0.000000 0.000000 0.000000 0.000000 0.031378 0.000000
# 6 0.000000 0.000000 0.000000 0.000000 0.000000 0.035796
#
#
# Mechanical properties :
#
#
# Convention : Reuss Voigt Hill
#
# Bulk Modulus (GPa) = 65.91439 67.54687 66.73063
# Shear Modulus (GPa) = 23.33568 24.46090 23.89829
#
# Velocity S-wave (km/s) = 3.62600 3.71239 3.66945
# Velocity P-wave (km/s) = 7.39380 7.51222 7.45324
#
# Compressibility (1/GPa) = 0.01517119
#
# Stress axis : x y z
#
# Youngs Moduli (GPa) = 63.24336 59.80922 56.46393
#
# Poissons Ratio (x) = 0.42154 0.31156
# Poissons Ratio (y) = 0.44575 0.28060
# Poissons Ratio (z) = 0.34897 0.29722
#
# Static dielectric constant tensor:
#      x y z
#    x 3.281730 0.000000 0.000000 
#    y 0.000000 3.058970 0.000000 
#    z 0.000000 0.000000 3.529850 
# 
# 
# High freq. dielectric constant tensor:
#      x y z
#    x 1.690170 0.000000 0.000000 
#    y 0.000000 1.660440 0.000000 
#    z 0.000000 0.000000 1.694260 
# 
# From -- ./inp_files/22408.got.cif
#   From: 2010.03.12/outbox.cif.g09.slc.cpg/sg40_12_cif.got.tgz:22408.got - 2010.04.14 01:38:03.
