data_PCOD8182708
_publ_section_title
;
Structure prediction by ZEFSAII (Michael W. Deem and Ramdas Pophale) SiO2 
 PCOD8182708
Probable space group: A M A 2
;
_chemical_formula_sum "Si O2"
_cell_formula_units_Z 64
_cell_length_a 8.704389
_cell_length_b 25.074399
_cell_length_c 15.168278
_cell_angle_alpha 90.000000
_cell_angle_beta 90.000000
_cell_angle_gamma 90.000000
_cell_volume 3310.587748
_symmetry_space_group_name_H-M "A M A 2"
_symmetry_group_IT_number 40
_symmetry_cell_setting 'orthorhombic'
loop_
_space_group_symop_operation_xyz
x,y,z
-x,-y,z
1/2-x,y,z
1/2+x,-y,z
x,1/2+y,1/2+z
-x,1/2-y,1/2+z
1/2-x,1/2+y,1/2+z
1/2+x,1/2-y,1/2+z
loop_
_atom_site_type_symbol
_atom_site_label
_atom_site_fract_x
_atom_site_fract_y
_atom_site_fract_z
Si Si1 0.074214 0.235222 0.143180
Si Si2 0.933259 0.056542 0.534205
Si Si3 0.932038 0.604826 0.852986
Si Si4 0.068919 0.832147 0.856757
Si Si5 0.931641 0.557469 0.670493
Si Si6 0.926740 0.364774 0.530165
Si Si7 0.429258 0.352977 0.161404
Si Si8 0.071152 0.777454 0.324331
O O1 0.250000 0.232479 0.178814
O O2 0.050380 0.196447 0.060664
O O3 0.036441 0.296036 0.114576
O O4 0.959644 0.217475 0.220118
O O5 0.750000 0.055390 0.536036
O O6 0.993425 0.071422 0.436409
O O7 0.002254 0.099807 0.603114
O O8 0.000000 0.000000 0.562796
O O9 0.750000 0.602437 0.846922
O O10 0.000636 0.579838 0.762901
O O11 0.981811 0.666345 0.866302
O O12 0.250000 0.838514 0.866124
O O13 0.006798 0.852481 0.761646
O O14 0.025797 0.769967 0.868149
O O15 0.987899 0.868358 0.930498
O O16 0.750000 0.553184 0.674885
O O17 0.000000 0.500000 0.650476
O O18 0.976796 0.596263 0.591380
O O19 0.750000 0.382364 0.533564
O O20 0.250000 0.363617 0.166321
O O21 0.250000 0.765997 0.341214
#
# Coordination Sequence:
#
# PCOD8182708 Si02
#       8
#     8   8   8   8   8   8   8   8
#     4   9  18  33  54  81 111 145 186 228 279 343
#     4  10  20  37  58  80 108 144 189 234 277 331
#     4   9  19  33  55  83 115 152 187 225 279 341
#     4  10  21  37  55  81 116 153 191 238 290 344
#     4  11  22  39  58  83 117 156 195 239 289 345
#     4  11  22  36  58  87 114 150 195 241 291 348
#     4   8  17  35  58  78 105 147 188 228 281 337
#     4  10  18  32  54  83 115 150 188 225 277 341
#
# _framework density 19.331914000000001
#
# number of rings (size 3 to 8) (size 9 to 14) (size 15 to 20)
#    0.000    2.250    1.250    2.625    1.750    0.500 
#    0.000    5.625    0.000    1.500    0.000    0.000 
#    0.000    0.000    0.000    0.000    0.000    0.000 
#
# Total GULP energy -396767.771119 kJ/mol
# GULP energy per Si atom -12398.992847 kJ/mol
# Density = 1.928791 g / cm^3
# Si number density = 19.331914 Si / 1000 Ang^3
#
#
#
# Elastic Constant Matrix: (Units=GPa)
#
#
# Indices 1 2 3 4 5 6 
#
# 1 43.0610 22.4293 20.3574 0.0000 0.0000 0.0000
# 2 22.4293 133.0726 66.2197 0.0000 0.0000 0.0000
# 3 20.3574 66.2197 111.7635 0.0000 0.0000 0.0000
# 4 0.0000 0.0000 0.0000 28.9601 0.0000 0.0000
# 5 0.0000 0.0000 0.0000 0.0000 22.2294 0.0000
# 6 0.0000 0.0000 0.0000 0.0000 0.0000 28.7297
#
#
#
# Elastic Compliance Matrix: (Units=1/GPa)
#
#
# Indices 1 2 3 4 5 6 
#
# 1 0.026173 -0.002892 -0.003054 0.000000 0.000000 0.000000
# 2 -0.002892 0.010976 -0.005977 0.000000 0.000000 0.000000
# 3 -0.003054 -0.005977 0.013045 0.000000 0.000000 0.000000
# 4 0.000000 0.000000 0.000000 0.034530 0.000000 0.000000
# 5 0.000000 0.000000 0.000000 0.000000 0.044985 0.000000
# 6 0.000000 0.000000 0.000000 0.000000 0.000000 0.034807
#
#
# Mechanical properties :
#
#
# Convention : Reuss Voigt Hill
#
# Bulk Modulus (GPa) = 37.95171 56.21222 47.08196
# Shear Modulus (GPa) = 25.36209 27.90990 26.63599
#
# Velocity S-wave (km/s) = 3.62599 3.80376 3.71593
# Velocity P-wave (km/s) = 6.09956 6.95931 6.54357
#
# Compressibility (1/GPa) = 0.02634927
#
# Stress axis : x y z
#
# Youngs Moduli (GPa) = 38.20751 91.10621 76.65831
#
# Poissons Ratio (x) = 0.26345 0.23411
# Poissons Ratio (y) = 0.11048 0.45816
# Poissons Ratio (z) = 0.11668 0.54451
#
# Static dielectric constant tensor:
#      x y z
#    x 3.281710 0.000000 0.000000 
#    y 0.000000 3.611170 0.000000 
#    z 0.000000 0.000000 3.637990 
# 
# 
# High freq. dielectric constant tensor:
#      x y z
#    x 1.729450 0.000000 0.000000 
#    y 0.000000 1.750030 0.000000 
#    z 0.000000 0.000000 1.750610 
# 
# From -- ./inp_files/15663.got.cif
#   From: 2010.03.12/outbox.cif.g09.slc.cpg/sg40_8_cif.got.tgz:15663.got - 2010.04.14 01:38:03.
