data_PCOD8182907
_publ_section_title
;
Structure prediction by ZEFSAII (Michael W. Deem and Ramdas Pophale) SiO2 
 PCOD8182907
Probable space group: A M A 2
;
_chemical_formula_sum "Si O2"
_cell_formula_units_Z 64
_cell_length_a 8.808380
_cell_length_b 18.398691
_cell_length_c 26.327842
_cell_angle_alpha 90.000000
_cell_angle_beta 90.000000
_cell_angle_gamma 90.000000
_cell_volume 4266.760155
_symmetry_space_group_name_H-M "A M A 2"
_symmetry_group_IT_number 40
_symmetry_cell_setting 'orthorhombic'
loop_
_space_group_symop_operation_xyz
x,y,z
-x,-y,z
1/2-x,y,z
1/2+x,-y,z
x,1/2+y,1/2+z
-x,1/2-y,1/2+z
1/2-x,1/2+y,1/2+z
1/2+x,1/2-y,1/2+z
loop_
_atom_site_type_symbol
_atom_site_label
_atom_site_fract_x
_atom_site_fract_y
_atom_site_fract_z
Si Si1 0.073488 0.076820 0.105050
Si Si2 0.923060 0.424594 0.116484
Si Si3 0.074620 0.717552 0.066079
Si Si4 0.072127 0.167931 0.008867
Si Si5 0.425191 0.714903 0.661480
Si Si6 0.070988 0.076009 0.911726
Si Si7 0.930261 0.577376 0.305182
Si Si8 0.428631 0.662347 0.215801
O O1 0.250000 0.063659 0.098171
O O2 0.012437 0.112455 0.052493
O O3 0.039811 0.128949 0.153880
O O4 0.000000 0.000000 0.116334
O O5 0.750000 0.443319 0.125888
O O6 0.945473 0.370056 0.068331
O O7 0.983918 0.386764 0.168134
O O8 0.000000 0.500000 0.103346
O O9 0.250000 0.736789 0.078408
O O10 0.019731 0.755147 0.013560
O O11 0.961328 0.750067 0.107396
O O12 0.250000 0.183212 0.015057
O O13 0.033492 0.135812 0.953953
O O14 0.250000 0.728183 0.675152
O O15 0.527923 0.753304 0.704642
O O16 0.250000 0.065698 0.903398
O O17 0.993912 0.102134 0.859653
O O18 0.000000 0.000000 0.929810
O O19 0.750000 0.570711 0.307161
O O20 0.000000 0.500000 0.288946
O O21 0.980136 0.637676 0.265049
O O22 0.250000 0.656497 0.225480
#
# Coordination Sequence:
#
# PCOD8182907 Si02
#       8
#     8   8   8   8   8   8   8   8
#     4   9  17  27  40  60  85 111 141 173 206 247
#     4   9  18  28  40  60  83 108 138 170 204 244
#     4   9  17  28  41  59  82 108 140 175 208 247
#     4   9  18  30  43  60  82 111 144 176 212 251
#     4   9  17  29  42  59  83 110 140 174 211 250
#     4  10  19  31  45  62  85 111 143 180 214 250
#     4  11  21  32  45  62  85 113 144 178 215 250
#     4  10  19  31  45  62  83 110 145 178 212 253
#
# _framework density 14.999670999999999
#
# number of rings (size 3 to 8) (size 9 to 14) (size 15 to 20)
#    0.000    2.500    0.000    5.625    0.000    7.500 
#    0.000    0.000    0.000    0.000    0.000    0.000 
#    0.000    1.000    0.000    5.000    0.000    4.875 
#
# Total GULP energy -396601.487658 kJ/mol
# GULP energy per Si atom -12393.796489 kJ/mol
# Density = 1.496553 g / cm^3
# Si number density = 14.999671 Si / 1000 Ang^3
#
#
#
# Elastic Constant Matrix: (Units=GPa)
#
#
# Indices 1 2 3 4 5 6 
#
# 1 70.3019 45.0322 37.7577 0.0000 0.0000 0.0000
# 2 45.0322 101.4215 50.4429 0.0000 0.0000 0.0000
# 3 37.7577 50.4429 73.8188 0.0000 0.0000 0.0000
# 4 0.0000 0.0000 0.0000 24.3183 0.0000 0.0000
# 5 0.0000 0.0000 0.0000 0.0000 20.6580 0.0000
# 6 0.0000 0.0000 0.0000 0.0000 0.0000 27.8303
#
#
#
# Elastic Compliance Matrix: (Units=1/GPa)
#
#
# Indices 1 2 3 4 5 6 
#
# 1 0.021995 -0.006318 -0.006933 0.000000 0.000000 0.000000
# 2 -0.006318 0.016751 -0.008215 0.000000 0.000000 0.000000
# 3 -0.006933 -0.008215 0.022706 0.000000 0.000000 0.000000
# 4 0.000000 0.000000 0.000000 0.041121 0.000000 0.000000
# 5 0.000000 0.000000 0.000000 0.000000 0.048407 0.000000
# 6 0.000000 0.000000 0.000000 0.000000 0.000000 0.035932
#
#
# Mechanical properties :
#
#
# Convention : Reuss Voigt Hill
#
# Bulk Modulus (GPa) = 53.99385 56.88976 55.44180
# Shear Modulus (GPa) = 21.18487 22.04861 21.61674
#
# Velocity S-wave (km/s) = 3.76221 3.83814 3.80036
# Velocity P-wave (km/s) = 7.41263 7.59285 7.50328
#
# Compressibility (1/GPa) = 0.01852063
#
# Stress axis : x y z
#
# Youngs Moduli (GPa) = 45.46525 59.69888 44.04045
#
# Poissons Ratio (x) = 0.37716 0.30533
# Poissons Ratio (y) = 0.28724 0.36179
# Poissons Ratio (z) = 0.31521 0.49042
#
# Static dielectric constant tensor:
#      x y z
#    x 3.058820 0.000000 0.000000 
#    y 0.000000 3.044700 0.000000 
#    z 0.000000 0.000000 2.764990 
# 
# 
# High freq. dielectric constant tensor:
#      x y z
#    x 1.587730 0.000000 0.000000 
#    y 0.000000 1.562910 0.000000 
#    z 0.000000 0.000000 1.539660 
# 
# From -- ./inp_files/25531.got.cif
#   From: 2010.03.12/outbox.cif.g09.slc.cpg/sg40_13_cif.got.tgz:25531.got - 2010.04.14 01:38:03.
