data_PCOD8182183
_publ_section_title
;
Structure prediction by ZEFSAII (Michael W. Deem and Ramdas Pophale) SiO2 
 PCOD8182183
Probable space group: A B M 2
;
_chemical_formula_sum "Si O2"
_cell_formula_units_Z 48
_cell_length_a 7.537544
_cell_length_b 9.557549
_cell_length_c 30.877683
_cell_angle_alpha 90.000000
_cell_angle_beta 90.000000
_cell_angle_gamma 90.000000
_cell_volume 2224.442058
_symmetry_space_group_name_H-M "A B M 2"
_symmetry_group_IT_number 39
_symmetry_cell_setting 'orthorhombic'
loop_
_space_group_symop_operation_xyz
x,y,z
-x,-y,z
-x,1/2+y,z
x,1/2-y,z
x,1/2+y,1/2+z
-x,1/2-y,1/2+z
-x,y,1/2+z
x,-y,1/2+z
loop_
_atom_site_type_symbol
_atom_site_label
_atom_site_fract_x
_atom_site_fract_y
_atom_site_fract_z
Si Si1 0.318739 0.585652 0.865990
Si Si2 0.677580 0.250000 0.021467
Si Si3 0.000000 0.500000 0.132739
Si Si4 0.299814 0.250000 0.999475
Si Si5 0.677951 0.911321 0.693056
Si Si6 0.683563 0.084564 0.289759
Si Si7 0.201172 0.518359 0.958298
Si Si8 0.016217 0.750000 0.572936
O O1 0.500000 0.500000 0.874302
O O2 0.348536 0.750000 0.853914
O O3 0.210258 0.501662 0.827391
O O4 0.206337 0.577554 0.909781
O O5 0.803177 0.250000 0.063852
O O6 0.467231 0.250000 0.032740
O O7 0.709939 0.383617 0.992892
O O8 0.165792 0.547790 0.161091
O O9 0.072615 0.380646 0.101594
O O10 0.306568 0.374976 0.964884
O O11 0.121212 0.250000 0.027844
O O12 0.624049 0.750000 0.686615
O O13 0.759176 0.934452 0.741376
O O14 0.500000 0.000000 0.684524
O O15 0.665096 0.250000 0.301259
O O16 0.500000 0.000000 0.290770
O O17 0.000000 0.500000 0.972358
#
# Coordination Sequence:
#
# PCOD8182183 Si02
#       8
#     8   4   4   4   8   8   8   4
#     4  11  22  37  61  98 134 176 228 270 320 388
#     4  12  24  48  68  99 129 172 223 269 336 404
#     4  12  26  46  72 100 140 178 216 282 348 410
#     4  12  26  44  76  95 127 180 221 275 334 396
#     4  10  23  44  72 104 137 180 228 274 339 410
#     4   9  18  36  62  95 136 176 222 275 321 383
#     4  12  24  43  65  95 138 176 219 277 328 388
#     4  12  26  46  72 100 136 168 222 286 344 406
#
# _framework density 21.578444999999999
#
# number of rings (size 3 to 8) (size 9 to 14) (size 15 to 20)
#    0.000    1.000    3.333    4.500    3.500    2.000 
#    1.500    0.000    0.000    0.000    0.000    0.000 
#    0.000    0.000    0.000    0.000    0.000    0.000 
#
# Total GULP energy -297384.168168 kJ/mol
# GULP energy per Si atom -12391.007007 kJ/mol
# Density = 2.152933 g / cm^3
# Si number density = 21.578445 Si / 1000 Ang^3
#
#
#
# Elastic Constant Matrix: (Units=GPa)
#
#
# Indices 1 2 3 4 5 6 
#
# 1 76.8032 19.6397 12.9505 0.0000 0.0000 0.0000
# 2 19.6397 179.0330 46.4772 0.0000 0.0000 0.0000
# 3 12.9505 46.4772 108.8945 0.0000 0.0000 0.0000
# 4 0.0000 0.0000 0.0000 52.0459 0.0000 0.0000
# 5 0.0000 0.0000 0.0000 0.0000 17.1032 0.0000
# 6 0.0000 0.0000 0.0000 0.0000 0.0000 19.3271
#
#
#
# Elastic Compliance Matrix: (Units=1/GPa)
#
#
# Indices 1 2 3 4 5 6 
#
# 1 0.013511 -0.001198 -0.001096 0.000000 0.000000 0.000000
# 2 -0.001198 0.006388 -0.002584 0.000000 0.000000 0.000000
# 3 -0.001096 -0.002584 0.010416 0.000000 0.000000 0.000000
# 4 0.000000 0.000000 0.000000 0.019214 0.000000 0.000000
# 5 0.000000 0.000000 0.000000 0.000000 0.058469 0.000000
# 6 0.000000 0.000000 0.000000 0.000000 0.000000 0.051741
#
#
# Mechanical properties :
#
#
# Convention : Reuss Voigt Hill
#
# Bulk Modulus (GPa) = 48.63624 58.09617 53.36621
# Shear Modulus (GPa) = 28.35320 36.73945 32.54633
#
# Velocity S-wave (km/s) = 3.62879 4.13073 3.88787
# Velocity P-wave (km/s) = 6.33606 7.05211 6.70366
#
# Compressibility (1/GPa) = 0.02056080
#
# Stress axis : x y z
#
# Youngs Moduli (GPa) = 74.01200 156.54994 96.00303
#
# Poissons Ratio (x) = 0.18751 0.10519
# Poissons Ratio (y) = 0.08865 0.24806
# Poissons Ratio (z) = 0.08109 0.40451
#
# Static dielectric constant tensor:
#      x y z
#    x 3.678540 0.000000 0.000000 
#    y 0.000000 4.185650 0.000000 
#    z 0.000000 0.000000 4.541540 
# 
# 
# High freq. dielectric constant tensor:
#      x y z
#    x 1.821570 0.000000 0.000000 
#    y 0.000000 1.870620 0.000000 
#    z 0.000000 0.000000 1.858550 
# 
# From -- ./inp_files/17711.got.cif
#   From: 2010.03.12/outbox.cif.g09.slc.cpg/sg39_9_cif.got.tgz:17711.got - 2010.04.14 02:53:20.
