data_PCOD8182690
_publ_section_title
;
Structure prediction by ZEFSAII (Michael W. Deem and Ramdas Pophale) SiO2 
 PCOD8182690
Probable space group: A M A 2
;
_chemical_formula_sum "Si O2"
_cell_formula_units_Z 64
_cell_length_a 8.838735
_cell_length_b 18.536062
_cell_length_c 21.114089
_cell_angle_alpha 90.000000
_cell_angle_beta 90.000000
_cell_angle_gamma 90.000000
_cell_volume 3459.233949
_symmetry_space_group_name_H-M "A M A 2"
_symmetry_group_IT_number 40
_symmetry_cell_setting 'orthorhombic'
loop_
_space_group_symop_operation_xyz
x,y,z
-x,-y,z
1/2-x,y,z
1/2+x,-y,z
x,1/2+y,1/2+z
-x,1/2-y,1/2+z
1/2-x,1/2+y,1/2+z
1/2+x,1/2-y,1/2+z
loop_
_atom_site_type_symbol
_atom_site_label
_atom_site_fract_x
_atom_site_fract_y
_atom_site_fract_z
Si Si1 0.428566 0.861073 0.772930
Si Si2 0.570719 0.924193 0.896625
Si Si3 0.574062 0.074902 0.637879
Si Si4 0.923562 0.669708 0.501054
Si Si5 0.075437 0.210778 0.592160
Si Si6 0.418059 0.568739 0.586261
Si Si7 0.081233 0.571440 0.734886
Si Si8 0.928905 0.721668 0.724067
O O1 0.250000 0.855401 0.784346
O O2 0.505229 0.906357 0.828222
O O3 0.470121 0.903890 0.709261
O O4 0.497782 0.780964 0.770536
O O5 0.750000 0.931403 0.892969
O O6 0.527505 0.858684 0.944134
O O7 0.500000 0.000000 0.920239
O O8 0.750000 0.066304 0.628951
O O9 0.517498 0.136843 0.590245
O O10 0.500000 0.000000 0.618437
O O11 0.750000 0.653669 0.483718
O O12 0.947346 0.752992 0.522414
O O13 0.972253 0.633315 0.567098
O O14 0.250000 0.192366 0.603955
O O15 0.020604 0.260871 0.651627
O O16 0.500000 0.500000 0.555577
O O17 0.250000 0.577184 0.556149
O O18 0.404867 0.560823 0.660452
O O19 0.250000 0.577778 0.764213
O O20 0.000000 0.500000 0.763837
O O21 0.988273 0.644177 0.748100
O O22 0.750000 0.722413 0.732320
#
# Coordination Sequence:
#
# PCOD8182690 Si02
#       8
#     8   8   8   8   8   8   8   8
#     4  10  21  37  56  79 105 139 179 224 269 317
#     4  12  25  40  56  77 105 143 185 227 265 311
#     4  10  20  33  54  80 108 137 170 213 265 317
#     4  11  21  35  52  72 101 138 176 218 261 309
#     4   9  19  33  51  74 103 136 172 212 261 316
#     4  10  19  29  43  64  94 132 172 211 250 299
#     4  10  19  29  44  68 100 136 173 214 259 311
#     4  10  18  32  52  76 104 137 175 219 268 322
#
# _framework density 18.501206
#
# number of rings (size 3 to 8) (size 9 to 14) (size 15 to 20)
#    0.000    1.750    1.250    4.125    0.000    5.000 
#    0.000    0.000    0.000    0.000    0.000    0.875 
#    0.000    4.000    0.000    0.000    0.000    0.125 
#
# Total GULP energy -396682.052873 kJ/mol
# GULP energy per Si atom -12396.314152 kJ/mol
# Density = 1.845910 g / cm^3
# Si number density = 18.501206 Si / 1000 Ang^3
#
#
#
# Elastic Constant Matrix: (Units=GPa)
#
#
# Indices 1 2 3 4 5 6 
#
# 1 102.1534 54.2955 27.2655 0.0000 0.0000 0.0000
# 2 54.2955 122.2404 23.4139 0.0000 0.0000 0.0000
# 3 27.2655 23.4139 44.4835 0.0000 0.0000 0.0000
# 4 0.0000 0.0000 0.0000 14.6310 0.0000 0.0000
# 5 0.0000 0.0000 0.0000 0.0000 23.4001 0.0000
# 6 0.0000 0.0000 0.0000 0.0000 0.0000 35.7629
#
#
#
# Elastic Compliance Matrix: (Units=1/GPa)
#
#
# Indices 1 2 3 4 5 6 
#
# 1 0.014099 -0.005124 -0.005945 0.000000 0.000000 0.000000
# 2 -0.005124 0.010960 -0.002628 0.000000 0.000000 0.000000
# 3 -0.005945 -0.002628 0.027508 0.000000 0.000000 0.000000
# 4 0.000000 0.000000 0.000000 0.068348 0.000000 0.000000
# 5 0.000000 0.000000 0.000000 0.000000 0.042735 0.000000
# 6 0.000000 0.000000 0.000000 0.000000 0.000000 0.027962
#
#
# Mechanical properties :
#
#
# Convention : Reuss Voigt Hill
#
# Bulk Modulus (GPa) = 39.72567 53.20302 46.46434
# Shear Modulus (GPa) = 21.98802 25.68562 23.83682
#
# Velocity S-wave (km/s) = 3.45115 3.73006 3.59331
# Velocity P-wave (km/s) = 6.11548 6.88259 6.51035
#
# Compressibility (1/GPa) = 0.02517264
#
# Stress axis : x y z
#
# Youngs Moduli (GPa) = 70.92540 91.24237 36.35369
#
# Poissons Ratio (x) = 0.46751 0.21613
# Poissons Ratio (y) = 0.36341 0.09554
# Poissons Ratio (z) = 0.42166 0.23980
#
# Static dielectric constant tensor:
#      x y z
#    x 3.583950 0.000000 0.000000 
#    y 0.000000 3.503100 0.000000 
#    z 0.000000 0.000000 2.999210 
# 
# 
# High freq. dielectric constant tensor:
#      x y z
#    x 1.735020 0.000000 0.000000 
#    y 0.000000 1.720770 0.000000 
#    z 0.000000 0.000000 1.666340 
# 
# From -- ./inp_files/22411.got.cif
#   From: 2010.03.12/outbox.cif.g09.slc.cpg/sg40_12_cif.got.tgz:22411.got - 2010.04.14 01:38:03.
