data_PCOD8182942
_publ_section_title
;
Structure prediction by ZEFSAII (Michael W. Deem and Ramdas Pophale) SiO2 
 PCOD8182942
Probable space group: A M A 2
;
_chemical_formula_sum "Si O2"
_cell_formula_units_Z 64
_cell_length_a 9.399592
_cell_length_b 16.270035
_cell_length_c 22.209270
_cell_angle_alpha 90.000000
_cell_angle_beta 90.000000
_cell_angle_gamma 90.000000
_cell_volume 3396.501213
_symmetry_space_group_name_H-M "A M A 2"
_symmetry_group_IT_number 40
_symmetry_cell_setting 'orthorhombic'
loop_
_space_group_symop_operation_xyz
x,y,z
-x,-y,z
1/2-x,y,z
1/2+x,-y,z
x,1/2+y,1/2+z
-x,1/2-y,1/2+z
1/2-x,1/2+y,1/2+z
1/2+x,1/2-y,1/2+z
loop_
_atom_site_type_symbol
_atom_site_label
_atom_site_fract_x
_atom_site_fract_y
_atom_site_fract_z
Si Si1 0.589284 0.574526 0.225750
Si Si2 0.092473 0.874223 0.195863
Si Si3 0.915662 0.080131 0.329693
Si Si4 0.916154 0.583049 0.367381
Si Si5 0.590031 0.274966 0.528973
Si Si6 0.914467 0.248859 0.395597
Si Si7 0.087186 0.274916 0.156781
Si Si8 0.909337 0.073549 0.064896
O O1 0.500000 0.500000 0.201100
O O2 0.750000 0.561269 0.204503
O O3 0.577397 0.585853 0.296248
O O4 0.515763 0.650427 0.191922
O O5 0.250000 0.834807 0.201230
O O6 0.055701 0.919960 0.257943
O O7 0.087620 0.933361 0.137652
O O8 0.977578 0.806172 0.184054
O O9 0.750000 0.067769 0.345194
O O10 0.968004 0.167795 0.358717
O O11 0.000000 0.000000 0.355526
O O12 0.750000 0.580609 0.389198
O O13 0.000000 0.500000 0.390184
O O14 0.992644 0.668235 0.386822
O O15 0.750000 0.312820 0.533396
O O16 0.571418 0.226353 0.466444
O O17 0.565502 0.213408 0.585071
O O18 0.473450 0.345133 0.535936
O O19 0.750000 0.268044 0.378138
O O20 0.250000 0.269545 0.175320
O O21 0.750000 0.066618 0.040293
O O22 0.000000 0.000000 0.037164
#
# Coordination Sequence:
#
# PCOD8182942 Si02
#       8
#     8   8   8   8   8   8   8   8
#     4   9  18  31  48  73 101 127 158 198 247 301
#     4   9  18  31  49  75 103 129 159 199 249 302
#     4  10  21  36  54  77 105 137 173 214 259 306
#     4  10  20  34  54  80 108 137 169 208 256 310
#     4   9  19  35  52  69  94 130 168 205 246 292
#     4  10  21  37  55  75 102 138 178 217 256 299
#     4   9  17  31  51  73  97 127 163 202 246 297
#     4  10  19  31  49  74 102 129 159 197 243 297
#
# _framework density 18.842918999999998
#
# number of rings (size 3 to 8) (size 9 to 14) (size 15 to 20)
#    0.000    2.500    0.000    1.875    0.000    3.500 
#    0.000    0.625    0.000    0.000    0.000    0.000 
#    0.000    0.000    0.000    0.000    0.000    0.000 
#
# Total GULP energy -396480.779262 kJ/mol
# GULP energy per Si atom -12390.024352 kJ/mol
# Density = 1.880003 g / cm^3
# Si number density = 18.842919 Si / 1000 Ang^3
#
#
#
# Elastic Constant Matrix: (Units=GPa)
#
#
# Indices 1 2 3 4 5 6 
#
# 1 82.8844 45.0615 27.8443 0.0000 0.0000 0.0000
# 2 45.0615 93.3426 27.0016 0.0000 0.0000 0.0000
# 3 27.8443 27.0016 47.3556 0.0000 0.0000 0.0000
# 4 0.0000 0.0000 0.0000 11.7082 0.0000 0.0000
# 5 0.0000 0.0000 0.0000 0.0000 17.6543 0.0000
# 6 0.0000 0.0000 0.0000 0.0000 0.0000 32.5172
#
#
#
# Elastic Compliance Matrix: (Units=1/GPa)
#
#
# Indices 1 2 3 4 5 6 
#
# 1 0.017990 -0.006736 -0.006737 0.000000 0.000000 0.000000
# 2 -0.006736 0.015351 -0.004793 0.000000 0.000000 0.000000
# 3 -0.006737 -0.004793 0.027811 0.000000 0.000000 0.000000
# 4 0.000000 0.000000 0.000000 0.085411 0.000000 0.000000
# 5 0.000000 0.000000 0.000000 0.000000 0.056643 0.000000
# 6 0.000000 0.000000 0.000000 0.000000 0.000000 0.030753
#
#
# Mechanical properties :
#
#
# Convention : Reuss Voigt Hill
#
# Bulk Modulus (GPa) = 40.61559 47.04414 43.82987
# Shear Modulus (GPa) = 17.94055 20.62096 19.28075
#
# Velocity S-wave (km/s) = 3.08898 3.31170 3.20228
# Velocity P-wave (km/s) = 5.85867 6.29634 6.08144
#
# Compressibility (1/GPa) = 0.02462109
#
# Stress axis : x y z
#
# Youngs Moduli (GPa) = 55.58493 65.14051 35.95715
#
# Poissons Ratio (x) = 0.43879 0.24225
# Poissons Ratio (y) = 0.37442 0.17232
# Poissons Ratio (z) = 0.37449 0.31219
#
# Static dielectric constant tensor:
#      x y z
#    x 3.586520 0.000000 0.000000 
#    y 0.000000 3.418940 0.000000 
#    z 0.000000 0.000000 3.567810 
# 
# 
# High freq. dielectric constant tensor:
#      x y z
#    x 1.735270 0.000000 0.000000 
#    y 0.000000 1.715280 0.000000 
#    z 0.000000 0.000000 1.730840 
# 
# From -- ./inp_files/22447.got.cif
#   From: 2010.03.12/outbox.cif.g09.slc.cpg/sg40_12_cif.got.tgz:22447.got - 2010.04.14 01:38:03.
