data_PCOD8182298
_publ_section_title
;
Structure prediction by ZEFSAII (Michael W. Deem and Ramdas Pophale) SiO2 
 PCOD8182298
Probable space group: A B M 2
;
_chemical_formula_sum "Si O2"
_cell_formula_units_Z 40
_cell_length_a 9.152696
_cell_length_b 19.866500
_cell_length_c 9.801949
_cell_angle_alpha 90.000000
_cell_angle_beta 90.000000
_cell_angle_gamma 90.000000
_cell_volume 1782.308334
_symmetry_space_group_name_H-M "A B M 2"
_symmetry_group_IT_number 39
_symmetry_cell_setting 'orthorhombic'
loop_
_space_group_symop_operation_xyz
x,y,z
-x,-y,z
-x,1/2+y,z
x,1/2-y,z
x,1/2+y,1/2+z
-x,1/2-y,1/2+z
-x,y,1/2+z
x,-y,1/2+z
loop_
_atom_site_type_symbol
_atom_site_label
_atom_site_fract_x
_atom_site_fract_y
_atom_site_fract_z
Si Si1 0.835730 0.461174 0.466880
Si Si2 0.315922 0.173134 0.332950
Si Si3 0.229353 0.098080 0.569558
Si Si4 0.956727 0.594171 0.234912
Si Si5 0.571001 0.429535 0.308881
O O1 0.878455 0.457332 0.628025
O O2 0.693191 0.416396 0.427942
O O3 0.197943 0.458509 0.450488
O O4 0.972035 0.440816 0.369279
O O5 0.347871 0.250000 0.295556
O O6 0.299031 0.162707 0.495464
O O7 0.161212 0.151617 0.266809
O O8 0.456145 0.130113 0.288401
O O9 0.346001 0.062806 0.666829
O O10 0.088945 0.126797 0.648950
O O11 0.500000 0.500000 0.346518
#
# Coordination Sequence:
#
# PCOD8182298 Si02
#       5
#     8   8   8   8   8
#     4  11  24  42  75 111 139 176 236 305 359 412
#     4  12  28  47  68 102 147 194 238 287 357 431
#     4  11  25  42  73 103 142 182 235 301 358 417
#     4  11  25  44  71 107 142 183 235 295 354 420
#     4  11  25  44  71 108 140 184 239 298 354 420
#
# _framework density 22.442805
#
# number of rings (size 3 to 8) (size 9 to 14) (size 15 to 20)
#    0.000    0.800    4.000    1.800   11.200    1.600 
#    0.000    3.000    0.000    0.000    0.000    0.000 
#    0.000    0.000    0.000    0.000    0.000    0.000 
#
# Total GULP energy -247784.321781 kJ/mol
# GULP energy per Si atom -12389.216089 kJ/mol
# Density = 2.239172 g / cm^3
# Si number density = 22.442805 Si / 1000 Ang^3
#
#
#
# Elastic Constant Matrix: (Units=GPa)
#
#
# Indices 1 2 3 4 5 6 
#
# 1 171.5396 60.8887 46.2284 0.0000 0.0000 0.0000
# 2 60.8887 126.7508 25.7693 0.0000 0.0000 0.0000
# 3 46.2284 25.7693 98.7867 0.0000 0.0000 0.0000
# 4 0.0000 0.0000 0.0000 16.7692 0.0000 0.0000
# 5 0.0000 0.0000 0.0000 0.0000 32.4698 0.0000
# 6 0.0000 0.0000 0.0000 0.0000 0.0000 32.0617
#
#
#
# Elastic Compliance Matrix: (Units=1/GPa)
#
#
# Indices 1 2 3 4 5 6 
#
# 1 0.007690 -0.003128 -0.002782 0.000000 0.000000 0.000000
# 2 -0.003128 0.009604 -0.001041 0.000000 0.000000 0.000000
# 3 -0.002782 -0.001041 0.011697 0.000000 0.000000 0.000000
# 4 0.000000 0.000000 0.000000 0.059633 0.000000 0.000000
# 5 0.000000 0.000000 0.000000 0.000000 0.030798 0.000000
# 6 0.000000 0.000000 0.000000 0.000000 0.000000 0.031190
#
#
# Mechanical properties :
#
#
# Convention : Reuss Voigt Hill
#
# Bulk Modulus (GPa) = 66.28644 73.65001 69.96822
# Shear Modulus (GPa) = 29.49081 33.87285 31.68183
#
# Velocity S-wave (km/s) = 3.62891 3.88918 3.76130
# Velocity P-wave (km/s) = 6.86720 7.28393 7.07863
#
# Compressibility (1/GPa) = 0.01508604
#
# Stress axis : x y z
#
# Youngs Moduli (GPa) = 130.04177 104.12322 85.49522
#
# Poissons Ratio (x) = 0.32573 0.23789
# Poissons Ratio (y) = 0.40682 0.08903
# Poissons Ratio (z) = 0.36184 0.10843
#
# Static dielectric constant tensor:
#      x y z
#    x 4.567620 0.000000 0.000000 
#    y 0.000000 3.419790 0.000000 
#    z 0.000000 0.000000 4.224760 
# 
# 
# High freq. dielectric constant tensor:
#      x y z
#    x 1.925740 0.000000 0.000000 
#    y 0.000000 1.821280 0.000000 
#    z 0.000000 0.000000 1.898130 
# 
# From -- ./inp_files/5057.got.cif
#   From: 2010.03.12/outbox.cif.g09.slc.cpg/sg39_3_cif.got.tgz:5057.got - 2010.04.14 02:53:20.
