data_PCOD8182252
_publ_section_title
;
Structure prediction by ZEFSAII (Michael W. Deem and Ramdas Pophale) SiO2 
 PCOD8182252
Probable space group: A B M 2
;
_chemical_formula_sum "Si O2"
_cell_formula_units_Z 40
_cell_length_a 11.156090
_cell_length_b 22.569075
_cell_length_c 7.399099
_cell_angle_alpha 90.000000
_cell_angle_beta 90.000000
_cell_angle_gamma 90.000000
_cell_volume 1862.964620
_symmetry_space_group_name_H-M "A B M 2"
_symmetry_group_IT_number 39
_symmetry_cell_setting 'orthorhombic'
loop_
_space_group_symop_operation_xyz
x,y,z
-x,-y,z
-x,1/2+y,z
x,1/2-y,z
x,1/2+y,1/2+z
-x,1/2-y,1/2+z
-x,y,1/2+z
x,-y,1/2+z
loop_
_atom_site_type_symbol
_atom_site_label
_atom_site_fract_x
_atom_site_fract_y
_atom_site_fract_z
Si Si1 0.285301 0.683912 0.578250
Si Si2 0.337755 0.952192 0.023296
Si Si3 0.404533 0.424744 0.919809
Si Si4 0.840046 0.139530 0.912043
Si Si5 0.081556 0.682510 0.291128
O O1 0.335803 0.750000 0.545774
O O2 0.386792 0.637608 0.519854
O O3 0.251391 0.676821 0.788219
O O4 0.167922 0.671728 0.459211
O O5 0.350070 0.923647 0.220240
O O6 0.453402 0.935418 0.902065
O O7 0.215763 0.926467 0.935137
O O8 0.334957 0.023756 0.033215
O O9 0.970110 0.137401 0.816230
O O10 0.849174 0.171154 0.105425
O O11 0.032376 0.750000 0.291768
#
# Coordination Sequence:
#
# PCOD8182252 Si02
#       5
#     8   8   8   8   8
#     4  11  23  40  65  95 134 173 218 271 326 397
#     4  11  23  41  73  95 131 175 223 278 330 411
#     4  11  22  45  67 101 131 173 222 271 346 395
#     4  12  22  40  66  99 127 176 225 269 323 390
#     4  11  22  38  62  91 131 178 219 262 325 392
#
# _framework density 21.471153999999999
#
# number of rings (size 3 to 8) (size 9 to 14) (size 15 to 20)
#    0.000    0.800    4.000    6.600    0.000    0.000 
#    0.000    7.000    0.000    0.000    0.000    0.000 
#    0.000    0.000    0.000    0.000    0.000    0.000 
#
# Total GULP energy -248027.886334 kJ/mol
# GULP energy per Si atom -12401.394317 kJ/mol
# Density = 2.142228 g / cm^3
# Si number density = 21.471154 Si / 1000 Ang^3
#
#
#
# Elastic Constant Matrix: (Units=GPa)
#
#
# Indices 1 2 3 4 5 6 
#
# 1 76.2995 58.3259 23.0374 0.0000 0.0000 0.0000
# 2 58.3259 134.1398 31.4206 0.0000 0.0000 0.0000
# 3 23.0374 31.4206 113.8916 0.0000 0.0000 0.0000
# 4 0.0000 0.0000 0.0000 28.9119 0.0000 0.0000
# 5 0.0000 0.0000 0.0000 0.0000 33.8315 0.0000
# 6 0.0000 0.0000 0.0000 0.0000 0.0000 38.1291
#
#
#
# Elastic Compliance Matrix: (Units=1/GPa)
#
#
# Indices 1 2 3 4 5 6 
#
# 1 0.019955 -0.008265 -0.001756 0.000000 0.000000 0.000000
# 2 -0.008265 0.011393 -0.001471 0.000000 0.000000 0.000000
# 3 -0.001756 -0.001471 0.009541 0.000000 0.000000 0.000000
# 4 0.000000 0.000000 0.000000 0.034588 0.000000 0.000000
# 5 0.000000 0.000000 0.000000 0.000000 0.029558 0.000000
# 6 0.000000 0.000000 0.000000 0.000000 0.000000 0.026227
#
#
# Mechanical properties :
#
#
# Convention : Reuss Voigt Hill
#
# Bulk Modulus (GPa) = 55.85320 61.09985 58.47653
# Shear Modulus (GPa) = 31.20790 34.27763 32.74277
#
# Velocity S-wave (km/s) = 3.81659 3.99990 3.90932
# Velocity P-wave (km/s) = 6.74473 7.06050 6.90442
#
# Compressibility (1/GPa) = 0.01790408
#
# Stress axis : x y z
#
# Youngs Moduli (GPa) = 50.11344 87.76995 104.80617
#
# Poissons Ratio (x) = 0.72544 0.18405
# Poissons Ratio (y) = 0.41420 0.15421
# Poissons Ratio (z) = 0.08800 0.12914
#
# Static dielectric constant tensor:
#      x y z
#    x 3.676580 0.000000 0.000000 
#    y 0.000000 3.878560 0.000000 
#    z 0.000000 0.000000 4.058870 
# 
# 
# High freq. dielectric constant tensor:
#      x y z
#    x 1.819630 0.000000 0.000000 
#    y 0.000000 1.828290 0.000000 
#    z 0.000000 0.000000 1.866810 
# 
# From -- ./inp_files/2617.got.cif
#   From: 2010.03.12/outbox.cif.g09.slc.cpg/sg39_2_cif.got.tgz:2617.got - 2010.04.14 02:53:20.
