data_PCOD8182267
_publ_section_title
;
Structure prediction by ZEFSAII (Michael W. Deem and Ramdas Pophale) SiO2 
 PCOD8182267
Probable space group: A B M 2
;
_chemical_formula_sum "Si O2"
_cell_formula_units_Z 40
_cell_length_a 13.675807
_cell_length_b 15.810139
_cell_length_c 8.666607
_cell_angle_alpha 90.000000
_cell_angle_beta 90.000000
_cell_angle_gamma 90.000000
_cell_volume 1873.862649
_symmetry_space_group_name_H-M "A B M 2"
_symmetry_group_IT_number 39
_symmetry_cell_setting 'orthorhombic'
loop_
_space_group_symop_operation_xyz
x,y,z
-x,-y,z
-x,1/2+y,z
x,1/2-y,z
x,1/2+y,1/2+z
-x,1/2-y,1/2+z
-x,y,1/2+z
x,-y,1/2+z
loop_
_atom_site_type_symbol
_atom_site_label
_atom_site_fract_x
_atom_site_fract_y
_atom_site_fract_z
Si Si1 0.415506 0.250000 0.755730
Si Si2 0.282240 0.082831 0.251373
Si Si3 0.374316 0.250000 0.119805
Si Si4 0.306712 0.410393 0.618145
Si Si5 0.064014 0.583242 0.795200
Si Si6 0.893042 0.155344 0.121649
O O1 0.530490 0.250000 0.726136
O O2 0.375259 0.335505 0.678275
O O3 0.397128 0.250000 0.938283
O O4 0.312359 0.166877 0.160655
O O5 0.305903 0.091116 0.432330
O O6 0.167181 0.067096 0.210629
O O7 0.341359 0.002018 0.181746
O O8 0.197603 0.397871 0.689496
O O9 0.000000 0.500000 0.821439
O O10 0.996136 0.648300 0.705113
O O11 0.090017 0.627946 0.950140
O O12 0.854690 0.250000 0.126510
#
# Coordination Sequence:
#
# PCOD8182267 Si02
#       6
#     4   8   4   8   8   8
#     4  12  26  50  77 102 137 174 233 300 362 428
#     4  11  25  43  68 103 141 185 235 287 349 415
#     4  12  28  48  75 106 133 180 233 294 366 426
#     4  11  23  44  69  99 141 181 231 292 349 414
#     4  11  23  39  61  93 137 182 231 277 332 405
#     4  11  23  38  60  95 133 183 229 279 336 399
#
# _framework density 21.346281000000001
#
# number of rings (size 3 to 8) (size 9 to 14) (size 15 to 20)
#    0.000    0.800    3.000    4.200    8.400    2.400 
#    0.000    4.000    0.000    0.000    0.000    0.000 
#    0.000    0.000    0.000    0.000    0.000    0.000 
#
# Total GULP energy -247930.843665 kJ/mol
# GULP energy per Si atom -12396.542183 kJ/mol
# Density = 2.129770 g / cm^3
# Si number density = 21.346281 Si / 1000 Ang^3
#
#
#
# Elastic Constant Matrix: (Units=GPa)
#
#
# Indices 1 2 3 4 5 6 
#
# 1 119.5962 51.6420 20.7230 0.0000 0.0000 0.0000
# 2 51.6420 185.2071 40.9851 0.0000 0.0000 0.0000
# 3 20.7230 40.9851 74.4923 0.0000 0.0000 0.0000
# 4 0.0000 0.0000 0.0000 40.4917 0.0000 0.0000
# 5 0.0000 0.0000 0.0000 0.0000 38.2272 0.0000
# 6 0.0000 0.0000 0.0000 0.0000 0.0000 -14.5425
#
#
#
# Elastic Compliance Matrix: (Units=1/GPa)
#
#
# Indices 1 2 3 4 5 6 
#
# 1 0.009627 -0.002382 -0.001368 0.000000 0.000000 0.000000
# 2 -0.002382 0.006737 -0.003044 0.000000 0.000000 0.000000
# 3 -0.001368 -0.003044 0.015480 0.000000 0.000000 0.000000
# 4 0.000000 0.000000 0.000000 0.024696 0.000000 0.000000
# 5 0.000000 0.000000 0.000000 0.000000 0.026159 0.000000
# 6 0.000000 0.000000 0.000000 0.000000 0.000000 -0.068764
#
#
# Mechanical properties :
#
#
# Convention : Reuss Voigt Hill
#
# Bulk Modulus (GPa) = 54.77510 67.33288 61.05399
# Shear Modulus (GPa) = 148.77442 30.56498 89.66970
#
# Velocity S-wave (km/s) = 8.35745 3.78810 6.48833
# Velocity P-wave (km/s) = 10.90162 7.12352 9.20842
#
# Compressibility (1/GPa) = 0.01825647
#
# Stress axis : x y z
#
# Youngs Moduli (GPa) = 103.87607 148.43212 64.60130
#
# Poissons Ratio (x) = 0.35351 0.08836
# Poissons Ratio (y) = 0.24739 0.19666
# Poissons Ratio (z) = 0.14208 0.45185
#
# Static dielectric constant tensor:
#      x y z
#    x -10.101290 0.000000 0.000000 
#    y 0.000000 4.004780 0.000000 
#    z 0.000000 0.000000 3.776620 
# 
# 
# High freq. dielectric constant tensor:
#      x y z
#    x 1.838790 0.000000 0.000000 
#    y 0.000000 1.860470 0.000000 
#    z 0.000000 0.000000 1.835700 
# 
# From -- ./inp_files/2572.got.cif
#   From: 2010.03.12/outbox.cif.g09.slc.cpg/sg39_2_cif.got.tgz:2572.got - 2010.04.14 02:53:20.
