data_PCOD8182314
_publ_section_title
;
Structure prediction by ZEFSAII (Michael W. Deem and Ramdas Pophale) SiO2 
 PCOD8182314
Probable space group: A B M 2
;
_chemical_formula_sum "Si O2"
_cell_formula_units_Z 32
_cell_length_a 4.824236
_cell_length_b 32.553831
_cell_length_c 8.483966
_cell_angle_alpha 90.000000
_cell_angle_beta 90.000000
_cell_angle_gamma 90.000000
_cell_volume 1332.384492
_symmetry_space_group_name_H-M "A B M 2"
_symmetry_group_IT_number 39
_symmetry_cell_setting 'orthorhombic'
loop_
_space_group_symop_operation_xyz
x,y,z
-x,-y,z
-x,1/2+y,z
x,1/2-y,z
x,1/2+y,1/2+z
-x,1/2-y,1/2+z
-x,y,1/2+z
x,-y,1/2+z
loop_
_atom_site_type_symbol
_atom_site_label
_atom_site_fract_x
_atom_site_fract_y
_atom_site_fract_z
Si Si1 0.880328 0.545285 0.013070
Si Si2 0.372133 0.329982 0.299184
Si Si3 0.133954 0.297772 0.623206
Si Si4 0.363383 0.075907 0.335143
O O1 0.768066 0.552858 0.186765
O O2 0.000000 0.500000 0.995968
O O3 0.635904 0.551264 0.886496
O O4 0.133756 0.576337 0.974562
O O5 0.256828 0.317413 0.467108
O O6 0.652521 0.304623 0.266858
O O7 0.446809 0.377870 0.292508
O O8 0.153669 0.320095 0.161661
O O9 0.074954 0.250000 0.597778
#
# Coordination Sequence:
#
# PCOD8182314 Si02
#       4
#     8   8   8   8
#     4  12  26  45  71 102 138 179 227 286 344 407
#     4  12  25  44  70 100 137 184 231 284 343 408
#     4  12  24  42  66 100 139 182 231 286 342 404
#     4  12  25  47  71 102 138 181 231 284 343 411
#
# _framework density 24.017091000000001
#
# number of rings (size 3 to 8) (size 9 to 14) (size 15 to 20)
#    0.000    0.000    0.000   11.250    0.000    2.000 
#    0.000    1.250    0.000    0.000    0.000    0.000 
#    0.000    0.000    0.000    0.000    0.000    0.000 
#
# Total GULP energy -198565.874591 kJ/mol
# GULP energy per Si atom -12410.367162 kJ/mol
# Density = 2.396243 g / cm^3
# Si number density = 24.017091 Si / 1000 Ang^3
#
#
#
# Elastic Constant Matrix: (Units=GPa)
#
#
# Indices 1 2 3 4 5 6 
#
# 1 59.0811 26.7915 37.7732 0.0000 0.0000 0.0000
# 2 26.7915 130.4391 74.5576 0.0000 0.0000 0.0000
# 3 37.7732 74.5576 58.8970 0.0000 0.0000 0.0000
# 4 0.0000 0.0000 0.0000 37.2480 0.0000 0.0000
# 5 0.0000 0.0000 0.0000 0.0000 48.4803 0.0000
# 6 0.0000 0.0000 0.0000 0.0000 0.0000 41.8090
#
#
#
# Elastic Compliance Matrix: (Units=1/GPa)
#
#
# Indices 1 2 3 4 5 6 
#
# 1 0.044258 0.025808 -0.061054 0.000000 0.000000 0.000000
# 2 0.025808 0.042783 -0.070710 0.000000 0.000000 0.000000
# 3 -0.061054 -0.070710 0.145648 0.000000 0.000000 0.000000
# 4 0.000000 0.000000 0.000000 0.026847 0.000000 0.000000
# 5 0.000000 0.000000 0.000000 0.000000 0.020627 0.000000
# 6 0.000000 0.000000 0.000000 0.000000 0.000000 0.023918
#
#
# Mechanical properties :
#
#
# Convention : Reuss Voigt Hill
#
# Bulk Modulus (GPa) = 48.13633 58.51797 53.32715
# Shear Modulus (GPa) = 9.56170 32.79379 21.17774
#
# Velocity S-wave (km/s) = 1.99746 3.69919 2.97270
# Velocity P-wave (km/s) = 5.04042 6.53172 5.83392
#
# Compressibility (1/GPa) = 0.02077433
#
# Stress axis : x y z
#
# Youngs Moduli (GPa) = 22.59494 23.37378 6.86588
#
# Poissons Ratio (x) = -0.60322 0.41919
# Poissons Ratio (y) = -0.58312 0.48549
# Poissons Ratio (z) = 1.37952 1.65277
#
# Static dielectric constant tensor:
#      x y z
#    x 4.826650 0.000000 0.000000 
#    y 0.000000 4.400590 0.000000 
#    z 0.000000 0.000000 4.927060 
# 
# 
# High freq. dielectric constant tensor:
#      x y z
#    x 1.975370 0.000000 0.000000 
#    y 0.000000 1.958840 0.000000 
#    z 0.000000 0.000000 1.966070 
# 
# From -- ./inp_files/1715.got.cif
#   From: 2010.03.12/outbox.cif.g09.slc.cpg/sg39_1_cif.got.tgz:1715.got - 2010.04.14 02:53:20.
