data_PCOD8182539
_publ_section_title
;
Structure prediction by ZEFSAII (Michael W. Deem and Ramdas Pophale) SiO2 
 PCOD8182539
Probable space group: A M A 2
;
_chemical_formula_sum "Si O2"
_cell_formula_units_Z 64
_cell_length_a 8.923769
_cell_length_b 14.828074
_cell_length_c 27.580209
_cell_angle_alpha 90.000000
_cell_angle_beta 90.000000
_cell_angle_gamma 90.000000
_cell_volume 3649.476885
_symmetry_space_group_name_H-M "A M A 2"
_symmetry_group_IT_number 40
_symmetry_cell_setting 'orthorhombic'
loop_
_space_group_symop_operation_xyz
x,y,z
-x,-y,z
1/2-x,y,z
1/2+x,-y,z
x,1/2+y,1/2+z
-x,1/2-y,1/2+z
1/2-x,1/2+y,1/2+z
1/2+x,1/2-y,1/2+z
loop_
_atom_site_type_symbol
_atom_site_label
_atom_site_fract_x
_atom_site_fract_y
_atom_site_fract_z
Si Si1 0.571325 0.592247 0.875000
Si Si2 0.072427 0.778510 0.460162
Si Si3 0.074945 0.590394 0.772367
Si Si4 0.076590 0.282760 0.239324
Si Si5 0.426002 0.591457 0.313680
Si Si6 0.074317 0.907434 0.653071
Si Si7 0.073680 0.090693 0.925092
Si Si8 0.572496 0.093657 0.543794
O O1 0.500000 0.500000 0.894788
O O2 0.750000 0.583726 0.871125
O O3 0.519822 0.669141 0.912179
O O4 0.503215 0.615622 0.822866
O O5 0.250000 0.777643 0.461462
O O6 0.013563 0.675602 0.456532
O O7 0.011333 0.826952 0.508745
O O8 0.250000 0.571685 0.781266
O O9 0.049296 0.674965 0.736376
O O10 0.000000 0.500000 0.749888
O O11 0.250000 0.304148 0.249581
O O12 0.024577 0.326202 0.188360
O O13 0.982095 0.323439 0.283325
O O14 0.500000 0.500000 0.293241
O O15 0.250000 0.582503 0.307578
O O16 0.473474 0.606752 0.369344
O O17 0.250000 0.923444 0.654601
O O18 0.022275 0.882342 0.598590
O O19 0.000000 0.000000 0.671066
O O20 0.250000 0.079917 0.929710
O O21 0.000000 0.000000 0.946090
O O22 0.750000 0.083281 0.539178
O O23 0.500000 0.000000 0.526868
#
# Coordination Sequence:
#
# PCOD8182539 Si02
#       8
#     8   8   8   8   8   8   8   8
#     4  10  18  29  45  67  95 122 150 183 221 267
#     4   9  17  29  47  68  90 119 152 183 219 267
#     4  10  20  33  47  64  90 122 156 192 227 266
#     4  10  20  32  47  68  92 119 154 192 227 268
#     4  10  19  30  46  68  95 125 154 186 224 269
#     4   9  18  32  49  70  94 118 145 179 222 269
#     4   9  18  32  46  63  89 120 154 188 221 259
#     4   9  17  31  50  70  93 119 145 177 220 269
#
# _framework density 17.536759
#
# number of rings (size 3 to 8) (size 9 to 14) (size 15 to 20)
#    0.000    2.500    0.000    3.375    0.000    4.000 
#    0.000    2.500    0.000    0.750    0.000    0.000 
#    0.000    0.000    0.000    0.000    0.000    0.000 
#
# Total GULP energy -396742.247542 kJ/mol
# GULP energy per Si atom -12398.195236 kJ/mol
# Density = 1.749684 g / cm^3
# Si number density = 17.536759 Si / 1000 Ang^3
#
#
#
# Elastic Constant Matrix: (Units=GPa)
#
#
# Indices 1 2 3 4 5 6 
#
# 1 48.5139 36.6539 26.5434 0.0000 0.0000 0.0000
# 2 36.6539 162.4111 76.0466 0.0000 0.0000 0.0000
# 3 26.5434 76.0466 82.7388 0.0000 0.0000 0.0000
# 4 0.0000 0.0000 0.0000 29.6116 0.0000 0.0000
# 5 0.0000 0.0000 0.0000 0.0000 15.7811 0.0000
# 6 0.0000 0.0000 0.0000 0.0000 0.0000 27.7440
#
#
#
# Elastic Compliance Matrix: (Units=1/GPa)
#
#
# Indices 1 2 3 4 5 6 
#
# 1 0.026059 -0.003453 -0.005187 0.000000 0.000000 0.000000
# 2 -0.003453 0.011266 -0.009248 0.000000 0.000000 0.000000
# 3 -0.005187 -0.009248 0.022250 0.000000 0.000000 0.000000
# 4 0.000000 0.000000 0.000000 0.033771 0.000000 0.000000
# 5 0.000000 0.000000 0.000000 0.000000 0.063367 0.000000
# 6 0.000000 0.000000 0.000000 0.000000 0.000000 0.036044
#
#
# Mechanical properties :
#
#
# Convention : Reuss Voigt Hill
#
# Bulk Modulus (GPa) = 42.01400 63.57239 52.79320
# Shear Modulus (GPa) = 21.14488 24.92200 23.03344
#
# Velocity S-wave (km/s) = 3.47615 3.77388 3.62807
# Velocity P-wave (km/s) = 6.33413 7.43768 6.90798
#
# Compressibility (1/GPa) = 0.02380159
#
# Stress axis : x y z
#
# Youngs Moduli (GPa) = 38.37455 88.75919 44.94432
#
# Poissons Ratio (x) = 0.30645 0.23311
# Poissons Ratio (y) = 0.13249 0.41563
# Poissons Ratio (z) = 0.19904 0.82081
#
# Static dielectric constant tensor:
#      x y z
#    x 3.160740 0.000000 0.000000 
#    y 0.000000 3.506640 0.000000 
#    z 0.000000 0.000000 3.274940 
# 
# 
# High freq. dielectric constant tensor:
#      x y z
#    x 1.669270 0.000000 0.000000 
#    y 0.000000 1.681920 0.000000 
#    z 0.000000 0.000000 1.654490 
# 
# From -- ./inp_files/26483.got.cif
#   From: 2010.03.12/outbox.cif.g09.slc.cpg/sg40_14_cif.got.tgz:26483.got - 2010.04.14 01:38:03.
