data_PCOD8182137
_publ_section_title
;
Structure prediction by ZEFSAII (Michael W. Deem and Ramdas Pophale) SiO2 
 PCOD8182137
Probable space group: A B M 2
;
_chemical_formula_sum "Si O2"
_cell_formula_units_Z 48
_cell_length_a 7.393598
_cell_length_b 16.387135
_cell_length_c 18.266771
_cell_angle_alpha 90.000000
_cell_angle_beta 90.000000
_cell_angle_gamma 90.000000
_cell_volume 2213.199939
_symmetry_space_group_name_H-M "A B M 2"
_symmetry_group_IT_number 39
_symmetry_cell_setting 'orthorhombic'
loop_
_space_group_symop_operation_xyz
x,y,z
-x,-y,z
-x,1/2+y,z
x,1/2-y,z
x,1/2+y,1/2+z
-x,1/2-y,1/2+z
-x,y,1/2+z
x,-y,1/2+z
loop_
_atom_site_type_symbol
_atom_site_label
_atom_site_fract_x
_atom_site_fract_y
_atom_site_fract_z
Si Si1 0.253482 0.657153 0.911020
Si Si2 0.895488 0.586532 0.933524
Si Si3 0.518361 0.593526 0.166110
Si Si4 0.430836 0.654499 0.511162
Si Si5 0.228147 0.155227 0.782618
Si Si6 0.827013 0.655818 0.252227
O O1 0.307162 0.750000 0.902641
O O2 0.234977 0.617486 0.830369
O O3 0.055822 0.651135 0.948136
O O4 0.413683 0.616943 0.958028
O O5 0.786376 0.603997 0.857893
O O6 0.000000 0.500000 0.934103
O O7 0.749271 0.599642 0.998306
O O8 0.500000 0.500000 0.145970
O O9 0.489976 0.645588 0.092781
O O10 0.385854 0.621653 0.231004
O O11 0.725529 0.605997 0.190048
O O12 0.389927 0.750000 0.496345
O O13 0.265624 0.250000 0.802304
O O14 0.040378 0.145663 0.739060
O O15 0.769791 0.750000 0.248078
#
# Coordination Sequence:
#
# PCOD8182137 Si02
#       6
#     8   8   8   8   8   8
#     4   9  20  40  68  95 124 165 220 270 327 402
#     4  11  24  39  71 100 132 163 218 283 342 388
#     4  12  27  39  62  94 139 174 221 275 331 387
#     4  11  24  44  66  92 133 182 222 265 332 413
#     4  10  22  44  70  96 127 172 223 272 333 409
#     4   9  19  40  67  93 122 163 217 272 328 396
#
# _framework density 21.688054999999999
#
# number of rings (size 3 to 8) (size 9 to 14) (size 15 to 20)
#    0.000    1.667    0.000    5.000    7.000    2.667 
#    0.000    1.667    0.000    0.000    0.000    0.000 
#    0.000    0.000    0.000    0.000    0.000    0.000 
#
# Total GULP energy -297486.748478 kJ/mol
# GULP energy per Si atom -12395.281187 kJ/mol
# Density = 2.163869 g / cm^3
# Si number density = 21.688055 Si / 1000 Ang^3
#
#
#
# Elastic Constant Matrix: (Units=GPa)
#
#
# Indices 1 2 3 4 5 6 
#
# 1 107.0376 25.1698 43.2821 0.0000 0.0000 0.0000
# 2 25.1698 70.4888 27.9044 0.0000 0.0000 0.0000
# 3 43.2821 27.9044 73.1182 0.0000 0.0000 0.0000
# 4 0.0000 0.0000 0.0000 18.9939 0.0000 0.0000
# 5 0.0000 0.0000 0.0000 0.0000 27.5693 0.0000
# 6 0.0000 0.0000 0.0000 0.0000 0.0000 25.1625
#
#
#
# Elastic Compliance Matrix: (Units=1/GPa)
#
#
# Indices 1 2 3 4 5 6 
#
# 1 0.012474 -0.001804 -0.006696 0.000000 0.000000 0.000000
# 2 -0.001804 0.016972 -0.005410 0.000000 0.000000 0.000000
# 3 -0.006696 -0.005410 0.019704 0.000000 0.000000 0.000000
# 4 0.000000 0.000000 0.000000 0.052648 0.000000 0.000000
# 5 0.000000 0.000000 0.000000 0.000000 0.036272 0.000000
# 6 0.000000 0.000000 0.000000 0.000000 0.000000 0.039742
#
#
# Mechanical properties :
#
#
# Convention : Reuss Voigt Hill
#
# Bulk Modulus (GPa) = 46.87555 49.26192 48.06873
# Shear Modulus (GPa) = 23.50269 24.63104 24.06687
#
# Velocity S-wave (km/s) = 3.29549 3.37367 3.33480
# Velocity P-wave (km/s) = 6.01172 6.15944 6.08603
#
# Compressibility (1/GPa) = 0.02133308
#
# Stress axis : x y z
#
# Youngs Moduli (GPa) = 80.16588 58.92011 50.74989
#
# Poissons Ratio (x) = 0.10627 0.33981
# Poissons Ratio (y) = 0.14458 0.27453
# Poissons Ratio (z) = 0.53677 0.31873
#
# Static dielectric constant tensor:
#      x y z
#    x 4.165250 0.000000 0.000000 
#    y 0.000000 3.776910 0.000000 
#    z 0.000000 0.000000 3.822400 
# 
# 
# High freq. dielectric constant tensor:
#      x y z
#    x 1.867630 0.000000 0.000000 
#    y 0.000000 1.840440 0.000000 
#    z 0.000000 0.000000 1.837080 
# 
# From -- ./inp_files/11621.got.cif
#   From: 2010.03.12/outbox.cif.g09.slc.cpg/sg39_6_cif.got.tgz:11621.got - 2010.04.14 02:53:20.
