data_PCOD8182958
_publ_section_title
;
Structure prediction by ZEFSAII (Michael W. Deem and Ramdas Pophale) SiO2 
 PCOD8182958
Probable space group: A M A 2
;
_chemical_formula_sum "Si O2"
_cell_formula_units_Z 64
_cell_length_a 8.903256
_cell_length_b 22.969654
_cell_length_c 18.867774
_cell_angle_alpha 90.000000
_cell_angle_beta 90.000000
_cell_angle_gamma 90.000000
_cell_volume 3858.548646
_symmetry_space_group_name_H-M "A M A 2"
_symmetry_group_IT_number 40
_symmetry_cell_setting 'orthorhombic'
loop_
_space_group_symop_operation_xyz
x,y,z
-x,-y,z
1/2-x,y,z
1/2+x,-y,z
x,1/2+y,1/2+z
-x,1/2-y,1/2+z
1/2-x,1/2+y,1/2+z
1/2+x,1/2-y,1/2+z
loop_
_atom_site_type_symbol
_atom_site_label
_atom_site_fract_x
_atom_site_fract_y
_atom_site_fract_z
Si Si1 0.927253 0.562724 0.907800
Si Si2 0.578028 0.326256 0.263094
Si Si3 0.424261 0.224026 0.183946
Si Si4 0.423144 0.255737 0.543696
Si Si5 0.075310 0.060383 0.685681
Si Si6 0.423105 0.740172 0.400756
Si Si7 0.075878 0.619427 0.040666
Si Si8 0.425453 0.155372 0.321205
O O1 0.750000 0.556311 0.903485
O O2 0.000000 0.500000 0.912790
O O3 0.987904 0.595497 0.837686
O O4 0.972315 0.599975 0.976218
O O5 0.750000 0.314079 0.238683
O O6 0.471082 0.285205 0.217666
O O7 0.534478 0.392962 0.246946
O O8 0.557868 0.313857 0.346614
O O9 0.250000 0.227227 0.164763
O O10 0.516842 0.210638 0.112924
O O11 0.458561 0.172570 0.239984
O O12 0.250000 0.271094 0.532496
O O13 0.514563 0.279969 0.476450
O O14 0.450338 0.187314 0.555007
O O15 0.250000 0.048574 0.682403
O O16 0.020652 0.084437 0.609743
O O17 0.000000 0.000000 0.705910
O O18 0.250000 0.759371 0.406689
O O19 0.518254 0.795035 0.374558
O O20 0.250000 0.606603 0.022928
O O21 0.250000 0.146772 0.335843
#
# Coordination Sequence:
#
# PCOD8182958 Si02
#       8
#     8   8   8   8   8   8   8   8
#     4  12  24  36  52  72  99 136 176 214 248 297
#     4   9  18  34  50  68  98 132 164 203 255 299
#     4  10  20  32  51  75 100 128 166 208 248 299
#     4  11  20  32  51  73 104 137 163 202 251 300
#     4  10  20  34  49  68  95 132 170 204 242 285
#     4  10  19  31  51  74  97 128 167 206 248 304
#     4  10  20  34  49  68 101 138 172 207 245 291
#     4  10  20  35  51  72 101 131 164 209 255 296
#
# _framework density 16.586548000000001
#
# number of rings (size 3 to 8) (size 9 to 14) (size 15 to 20)
#    0.000    1.750    2.500    3.000    0.000    4.500 
#    0.000    0.000    0.000    0.000    0.000    0.875 
#    0.000    2.000    0.000    0.000    0.000    0.000 
#
# Total GULP energy -396882.115859 kJ/mol
# GULP energy per Si atom -12402.566121 kJ/mol
# Density = 1.654880 g / cm^3
# Si number density = 16.586548 Si / 1000 Ang^3
#
#
#
# Elastic Constant Matrix: (Units=GPa)
#
#
# Indices 1 2 3 4 5 6 
#
# 1 89.6935 26.9201 41.6444 0.0000 0.0000 0.0000
# 2 26.9201 43.2272 23.9149 0.0000 0.0000 0.0000
# 3 41.6444 23.9149 96.4687 0.0000 0.0000 0.0000
# 4 0.0000 0.0000 0.0000 22.7072 0.0000 0.0000
# 5 0.0000 0.0000 0.0000 0.0000 25.4872 0.0000
# 6 0.0000 0.0000 0.0000 0.0000 0.0000 25.1929
#
#
#
# Elastic Compliance Matrix: (Units=1/GPa)
#
#
# Indices 1 2 3 4 5 6 
#
# 1 0.015544 -0.006917 -0.004996 0.000000 0.000000 0.000000
# 2 -0.006917 0.029888 -0.004424 0.000000 0.000000 0.000000
# 3 -0.004996 -0.004424 0.013619 0.000000 0.000000 0.000000
# 4 0.000000 0.000000 0.000000 0.044039 0.000000 0.000000
# 5 0.000000 0.000000 0.000000 0.000000 0.039235 0.000000
# 6 0.000000 0.000000 0.000000 0.000000 0.000000 0.039694
#
#
# Mechanical properties :
#
#
# Convention : Reuss Voigt Hill
#
# Bulk Modulus (GPa) = 37.90724 46.03867 41.97296
# Shear Modulus (GPa) = 22.37285 23.80480 23.08882
#
# Velocity S-wave (km/s) = 3.67666 3.79250 3.73503
# Velocity P-wave (km/s) = 6.39747 6.85524 6.63030
#
# Compressibility (1/GPa) = 0.02638018
#
# Stress axis : x y z
#
# Youngs Moduli (GPa) = 64.33144 33.45793 73.42545
#
# Poissons Ratio (x) = 0.23142 0.36681
# Poissons Ratio (y) = 0.44496 0.32480
# Poissons Ratio (z) = 0.32138 0.14800
#
# Static dielectric constant tensor:
#      x y z
#    x 3.202320 0.000000 0.000000 
#    y 0.000000 3.018930 0.000000 
#    z 0.000000 0.000000 3.249630 
# 
# 
# High freq. dielectric constant tensor:
#      x y z
#    x 1.650740 0.000000 0.000000 
#    y 0.000000 1.607530 0.000000 
#    z 0.000000 0.000000 1.637540 
# 
# From -- ./inp_files/19628.got.cif
#   From: 2010.03.12/outbox.cif.g09.slc.cpg/sg40_10_cif.got.tgz:19628.got - 2010.04.14 01:38:03.
