data_PCOD8182220
_publ_section_title
;
Structure prediction by ZEFSAII (Michael W. Deem and Ramdas Pophale) SiO2 
 PCOD8182220
Probable space group: A B M 2
;
_chemical_formula_sum "Si O2"
_cell_formula_units_Z 40
_cell_length_a 8.490272
_cell_length_b 24.271533
_cell_length_c 8.177564
_cell_angle_alpha 90.000000
_cell_angle_beta 90.000000
_cell_angle_gamma 90.000000
_cell_volume 1685.166290
_symmetry_space_group_name_H-M "A B M 2"
_symmetry_group_IT_number 39
_symmetry_cell_setting 'orthorhombic'
loop_
_space_group_symop_operation_xyz
x,y,z
-x,-y,z
-x,1/2+y,z
x,1/2-y,z
x,1/2+y,1/2+z
-x,1/2-y,1/2+z
-x,y,1/2+z
x,-y,1/2+z
loop_
_atom_site_type_symbol
_atom_site_label
_atom_site_fract_x
_atom_site_fract_y
_atom_site_fract_z
Si Si1 0.921682 0.144820 0.123170
Si Si2 0.344303 0.536829 0.613127
Si Si3 0.579833 0.250000 0.860574
Si Si4 0.858576 0.535836 0.816283
Si Si5 0.266942 0.250000 0.706159
Si Si6 0.761508 0.356014 0.768545
O O1 0.912385 0.092957 0.241402
O O2 0.842506 0.196607 0.211940
O O3 0.111072 0.154694 0.123160
O O4 0.850595 0.134589 0.943214
O O5 0.500000 0.500000 0.620986
O O6 0.196733 0.501690 0.668858
O O7 0.293614 0.549827 0.428196
O O8 0.352347 0.592186 0.724257
O O9 0.389731 0.250000 0.855749
O O10 0.648098 0.303932 0.773120
O O11 0.622769 0.250000 0.048631
O O12 0.000000 0.500000 0.900930
#
# Coordination Sequence:
#
# PCOD8182220 Si02
#       6
#     8   8   4   8   4   8
#     4  11  24  45  75 104 138 184 240 294 350 424
#     4  12  27  45  69 103 146 189 235 293 362 424
#     4  10  25  46  70 104 146 180 229 290 362 429
#     4  12  25  45  71 103 140 188 240 294 352 423
#     4  10  25  46  72 104 142 184 231 292 356 425
#     4  11  24  46  72 106 140 184 238 292 356 423
#
# _framework density 23.736530999999999
#
# number of rings (size 3 to 8) (size 9 to 14) (size 15 to 20)
#    0.000    0.800    2.000    4.200    2.800    3.200 
#    0.000    1.000    0.000    0.000    0.000    0.000 
#    0.000    0.000    0.000    0.000    0.000    0.000 
#
# Total GULP energy -247891.354070 kJ/mol
# GULP energy per Si atom -12394.567704 kJ/mol
# Density = 2.368251 g / cm^3
# Si number density = 23.736531 Si / 1000 Ang^3
#
#
#
# Elastic Constant Matrix: (Units=GPa)
#
#
# Indices 1 2 3 4 5 6 
#
# 1 120.5287 59.5564 22.4110 0.0000 0.0000 0.0000
# 2 59.5564 169.9673 29.1478 0.0000 0.0000 0.0000
# 3 22.4110 29.1478 53.0671 0.0000 0.0000 0.0000
# 4 0.0000 0.0000 0.0000 -113.3273 0.0000 0.0000
# 5 0.0000 0.0000 0.0000 0.0000 34.7623 0.0000
# 6 0.0000 0.0000 0.0000 0.0000 0.0000 44.2706
#
#
#
# Elastic Compliance Matrix: (Units=1/GPa)
#
#
# Indices 1 2 3 4 5 6 
#
# 1 0.010356 -0.003178 -0.002628 0.000000 0.000000 0.000000
# 2 -0.003178 0.007471 -0.002761 0.000000 0.000000 0.000000
# 3 -0.002628 -0.002761 0.021470 0.000000 0.000000 0.000000
# 4 0.000000 0.000000 0.000000 -0.008824 0.000000 0.000000
# 5 0.000000 0.000000 0.000000 0.000000 0.028767 0.000000
# 6 0.000000 0.000000 0.000000 0.000000 0.000000 0.022588
#
#
# Mechanical properties :
#
#
# Convention : Reuss Voigt Hill
#
# Bulk Modulus (GPa) = 45.12080 62.86596 53.99338
# Shear Modulus (GPa) = 47.01483 8.63767 27.82625
#
# Velocity S-wave (km/s) = 4.45533 1.90968 3.42760
# Velocity P-wave (km/s) = 6.74662 5.60401 6.20168
#
# Compressibility (1/GPa) = 0.02216273
#
# Stress axis : x y z
#
# Youngs Moduli (GPa) = 96.56498 133.85858 46.57565
#
# Poissons Ratio (x) = 0.42540 0.12239
# Poissons Ratio (y) = 0.30688 0.12860
# Poissons Ratio (z) = 0.25376 0.36961
#
# Static dielectric constant tensor:
#      x y z
#    x 4.605860 0.000000 0.000000 
#    y 0.000000 4.654650 0.000000 
#    z 0.000000 0.000000 4.208200 
# 
# 
# High freq. dielectric constant tensor:
#      x y z
#    x 1.943860 0.000000 0.000000 
#    y 0.000000 1.955800 0.000000 
#    z 0.000000 0.000000 1.939460 
# 
# From -- ./inp_files/2151.got.cif
#   From: 2010.03.12/outbox.cif.g09.slc.cpg/sg39_2_cif.got.tgz:2151.got - 2010.04.14 02:53:20.
