data_PCOD8182517
_publ_section_title
;
Structure prediction by ZEFSAII (Michael W. Deem and Ramdas Pophale) SiO2 
 PCOD8182517
Probable space group: A M A 2
;
_chemical_formula_sum "Si O2"
_cell_formula_units_Z 64
_cell_length_a 8.736087
_cell_length_b 23.114766
_cell_length_c 19.236795
_cell_angle_alpha 90.000000
_cell_angle_beta 90.000000
_cell_angle_gamma 90.000000
_cell_volume 3884.536160
_symmetry_space_group_name_H-M "A M A 2"
_symmetry_group_IT_number 40
_symmetry_cell_setting 'orthorhombic'
loop_
_space_group_symop_operation_xyz
x,y,z
-x,-y,z
1/2-x,y,z
1/2+x,-y,z
x,1/2+y,1/2+z
-x,1/2-y,1/2+z
1/2-x,1/2+y,1/2+z
1/2+x,1/2-y,1/2+z
loop_
_atom_site_type_symbol
_atom_site_label
_atom_site_fract_x
_atom_site_fract_y
_atom_site_fract_z
Si Si1 0.430406 0.750231 0.863830
Si Si2 0.431952 0.668796 0.582179
Si Si3 0.931458 0.117254 0.862634
Si Si4 0.569394 0.936849 0.725886
Si Si5 0.570887 0.152436 0.632981
Si Si6 0.568161 0.939151 0.996327
Si Si7 0.428652 0.779443 0.500329
Si Si8 0.431676 0.232793 0.212245
O O1 0.250000 0.745641 0.862704
O O2 0.481920 0.816578 0.875028
O O3 0.493124 0.710138 0.925779
O O4 0.497961 0.726512 0.790314
O O5 0.250000 0.671350 0.580481
O O6 0.490798 0.607482 0.553307
O O7 0.495314 0.720139 0.533231
O O8 0.489270 0.680617 0.661593
O O9 0.750000 0.109537 0.864930
O O10 0.992230 0.097813 0.788397
O O11 0.006822 0.076878 0.920554
O O12 0.750000 0.940600 0.736674
O O13 0.527868 0.903281 0.654659
O O14 0.500000 0.000000 0.721118
O O15 0.750000 0.139529 0.644303
O O16 0.536590 0.167134 0.552076
O O17 0.516276 0.206156 0.680163
O O18 0.750000 0.942446 0.993411
O O19 0.500000 0.000000 0.020511
O O20 0.250000 0.773028 0.487584
O O21 0.250000 0.232497 0.214705
#
# Coordination Sequence:
#
# PCOD8182517 Si02
#       8
#     8   8   8   8   8   8   8   8
#     4  10  18  28  48  73  99 127 156 197 240 285
#     4   8  15  28  47  67  89 121 161 198 233 283
#     4  11  21  34  48  68  99 133 166 200 237 280
#     4  12  24  36  51  70  96 130 168 206 240 285
#     4   9  17  33  52  70  95 127 161 199 244 287
#     4  11  21  33  48  68  94 128 167 204 239 282
#     4   9  17  30  50  71  96 127 159 195 238 291
#     4   8  14  28  48  69  92 122 157 195 242 288
#
# _framework density 16.475584000000001
#
# number of rings (size 3 to 8) (size 9 to 14) (size 15 to 20)
#    0.000    2.250    2.500    3.750    0.000    1.000 
#    0.000    0.000    0.000    1.500    0.000    0.875 
#    0.000    4.000    0.000    0.000    0.000    0.000 
#
# Total GULP energy -396676.640765 kJ/mol
# GULP energy per Si atom -12396.145024 kJ/mol
# Density = 1.643808 g / cm^3
# Si number density = 16.475584 Si / 1000 Ang^3
#
#
#
# Elastic Constant Matrix: (Units=GPa)
#
#
# Indices 1 2 3 4 5 6 
#
# 1 39.4780 30.5962 23.0102 0.0000 0.0000 0.0000
# 2 30.5962 51.9091 34.5382 0.0000 0.0000 0.0000
# 3 23.0102 34.5382 116.8713 0.0000 0.0000 0.0000
# 4 0.0000 0.0000 0.0000 25.6835 0.0000 0.0000
# 5 0.0000 0.0000 0.0000 0.0000 24.1203 0.0000
# 6 0.0000 0.0000 0.0000 0.0000 0.0000 14.8809
#
#
#
# Elastic Compliance Matrix: (Units=1/GPa)
#
#
# Indices 1 2 3 4 5 6 
#
# 1 0.046797 -0.026703 -0.001322 0.000000 0.000000 0.000000
# 2 -0.026703 0.039217 -0.006332 0.000000 0.000000 0.000000
# 3 -0.001322 -0.006332 0.010688 0.000000 0.000000 0.000000
# 4 0.000000 0.000000 0.000000 0.038936 0.000000 0.000000
# 5 0.000000 0.000000 0.000000 0.000000 0.041459 0.000000
# 6 0.000000 0.000000 0.000000 0.000000 0.000000 0.067200
#
#
# Mechanical properties :
#
#
# Convention : Reuss Voigt Hill
#
# Bulk Modulus (GPa) = 35.73112 42.72753 39.22933
# Shear Modulus (GPa) = 15.51159 20.94452 18.22805
#
# Velocity S-wave (km/s) = 3.07170 3.56932 3.32982
# Velocity P-wave (km/s) = 5.85789 6.55568 6.21658
#
# Compressibility (1/GPa) = 0.02798681
#
# Stress axis : x y z
#
# Youngs Moduli (GPa) = 21.36909 25.49925 93.56287
#
# Poissons Ratio (x) = 0.68091 0.12370
# Poissons Ratio (y) = 0.57062 0.59245
# Poissons Ratio (z) = 0.02825 0.16146
#
# Static dielectric constant tensor:
#      x y z
#    x 2.885670 0.000000 0.000000 
#    y 0.000000 3.056430 0.000000 
#    z 0.000000 0.000000 3.441210 
# 
# 
# High freq. dielectric constant tensor:
#      x y z
#    x 1.617600 0.000000 0.000000 
#    y 0.000000 1.606760 0.000000 
#    z 0.000000 0.000000 1.636340 
# 
# From -- ./inp_files/19751.got.cif
#   From: 2010.03.12/outbox.cif.g09.slc.cpg/sg40_10_cif.got.tgz:19751.got - 2010.04.14 01:38:03.
