data_PCOD8182497
_publ_section_title
;
Structure prediction by ZEFSAII (Michael W. Deem and Ramdas Pophale) SiO2 
 PCOD8182497
Probable space group: A M A 2
;
_chemical_formula_sum "Si O2"
_cell_formula_units_Z 56
_cell_length_a 8.541534
_cell_length_b 22.061491
_cell_length_c 17.724482
_cell_angle_alpha 90.000000
_cell_angle_beta 90.000000
_cell_angle_gamma 90.000000
_cell_volume 3339.983229
_symmetry_space_group_name_H-M "A M A 2"
_symmetry_group_IT_number 40
_symmetry_cell_setting 'orthorhombic'
loop_
_space_group_symop_operation_xyz
x,y,z
-x,-y,z
1/2-x,y,z
1/2+x,-y,z
x,1/2+y,1/2+z
-x,1/2-y,1/2+z
1/2-x,1/2+y,1/2+z
1/2+x,1/2-y,1/2+z
loop_
_atom_site_type_symbol
_atom_site_label
_atom_site_fract_x
_atom_site_fract_y
_atom_site_fract_z
Si Si1 0.429899 0.851787 0.048510
Si Si2 0.068165 0.183729 0.197568
Si Si3 0.932021 0.309741 0.156151
Si Si4 0.927335 0.285107 0.995436
Si Si5 0.567091 0.434018 0.423940
Si Si6 0.433806 0.850932 0.798230
Si Si7 0.431649 0.277013 0.842620
O O1 0.250000 0.871394 0.039612
O O2 0.481103 0.858286 0.136051
O O3 0.457640 0.783396 0.021695
O O4 0.537280 0.895122 0.998839
O O5 0.250000 0.167303 0.197557
O O6 0.042423 0.253874 0.177951
O O7 0.997059 0.174500 0.281613
O O8 0.750000 0.290766 0.164991
O O9 0.979752 0.361193 0.216835
O O10 0.962929 0.327989 0.068606
O O11 0.750000 0.293645 0.967581
O O12 0.039421 0.303461 0.926461
O O13 0.500000 0.500000 0.438766
O O14 0.750000 0.436403 0.407134
O O15 0.480869 0.405837 0.351900
O O16 0.250000 0.851759 0.785399
O O17 0.482414 0.787715 0.837093
O O18 0.250000 0.266359 0.828254
#
# Coordination Sequence:
#
# PCOD8182497 Si02
#       7
#     8   8   8   8   8   8   8
#     4  10  19  33  49  65  90 120 154 194 236 277
#     4  10  18  28  43  63  89 120 155 189 229 278
#     4   9  17  29  44  63  88 119 155 191 230 277
#     4   9  17  28  44  65  93 123 154 189 231 278
#     4  12  24  37  52  70  91 121 161 200 239 278
#     4  11  20  32  47  64  90 121 155 194 236 278
#     4  11  19  27  43  66  93 124 159 192 229 277
#
# _framework density 16.766552000000001
#
# number of rings (size 3 to 8) (size 9 to 14) (size 15 to 20)
#    0.000    1.714    1.429    8.571    0.000    2.857 
#    0.000    0.000    0.000    0.000    0.000    0.000 
#    0.000    1.143    0.000    6.286    0.000    6.714 
#
# Total GULP energy -347114.414257 kJ/mol
# GULP energy per Si atom -12396.943366 kJ/mol
# Density = 1.672839 g / cm^3
# Si number density = 16.766552 Si / 1000 Ang^3
#
#
#
# Elastic Constant Matrix: (Units=GPa)
#
#
# Indices 1 2 3 4 5 6 
#
# 1 88.6420 7.4462 36.7975 0.0000 0.0000 0.0000
# 2 7.4462 25.9758 19.0109 0.0000 0.0000 0.0000
# 3 36.7975 19.0109 141.8387 0.0000 0.0000 0.0000
# 4 0.0000 0.0000 0.0000 173.9767 0.0000 0.0000
# 5 0.0000 0.0000 0.0000 0.0000 32.7793 0.0000
# 6 0.0000 0.0000 0.0000 0.0000 0.0000 16.7968
#
#
#
# Elastic Compliance Matrix: (Units=1/GPa)
#
#
# Indices 1 2 3 4 5 6 
#
# 1 0.012686 -0.001361 -0.003109 0.000000 0.000000 0.000000
# 2 -0.001361 0.042831 -0.005387 0.000000 0.000000 0.000000
# 3 -0.003109 -0.005387 0.008579 0.000000 0.000000 0.000000
# 4 0.000000 0.000000 0.000000 0.005748 0.000000 0.000000
# 5 0.000000 0.000000 0.000000 0.000000 0.030507 0.000000
# 6 0.000000 0.000000 0.000000 0.000000 0.000000 0.059535
#
#
# Mechanical properties :
#
#
# Convention : Reuss Voigt Hill
#
# Bulk Modulus (GPa) = 22.53245 42.55174 32.54210
# Shear Modulus (GPa) = 25.72091 57.59071 41.65581
#
# Velocity S-wave (km/s) = 3.92096 5.86712 4.98984
# Velocity P-wave (km/s) = 5.82809 8.44580 7.25597
#
# Compressibility (1/GPa) = 0.04438043
#
# Stress axis : x y z
#
# Youngs Moduli (GPa) = 78.82581 23.34776 116.56556
#
# Poissons Ratio (x) = 0.03179 0.36237
# Poissons Ratio (y) = 0.10732 0.62800
# Poissons Ratio (z) = 0.24505 0.12579
#
# Static dielectric constant tensor:
#      x y z
#    x 3.216880 0.000000 0.000000 
#    y 0.000000 2.220850 0.000000 
#    z 0.000000 0.000000 3.705190 
# 
# 
# High freq. dielectric constant tensor:
#      x y z
#    x 1.664040 0.000000 0.000000 
#    y 0.000000 1.559930 0.000000 
#    z 0.000000 0.000000 1.670150 
# 
# From -- ./inp_files/19509.got.cif
#   From: 2010.03.12/outbox.cif.g09.slc.cpg/sg40_10_cif.got.tgz:19509.got - 2010.04.14 01:38:03.
