data_PCOD8182606
_publ_section_title
;
Structure prediction by ZEFSAII (Michael W. Deem and Ramdas Pophale) SiO2 
 PCOD8182606
Probable space group: A M A 2
;
_chemical_formula_sum "Si O2"
_cell_formula_units_Z 64
_cell_length_a 8.615747
_cell_length_b 23.383380
_cell_length_c 19.221100
_cell_angle_alpha 90.000000
_cell_angle_beta 90.000000
_cell_angle_gamma 90.000000
_cell_volume 3872.384410
_symmetry_space_group_name_H-M "A M A 2"
_symmetry_group_IT_number 40
_symmetry_cell_setting 'orthorhombic'
loop_
_space_group_symop_operation_xyz
x,y,z
-x,-y,z
1/2-x,y,z
1/2+x,-y,z
x,1/2+y,1/2+z
-x,1/2-y,1/2+z
1/2-x,1/2+y,1/2+z
1/2+x,1/2-y,1/2+z
loop_
_atom_site_type_symbol
_atom_site_label
_atom_site_fract_x
_atom_site_fract_y
_atom_site_fract_z
Si Si1 0.933465 0.437833 0.661810
Si Si2 0.066635 0.334695 0.739791
Si Si3 0.933404 0.884609 0.015388
Si Si4 0.067517 0.438396 0.377060
Si Si5 0.434309 0.244776 0.019481
Si Si6 0.067409 0.270340 0.871285
Si Si7 0.433002 0.774934 0.668602
Si Si8 0.433018 0.659794 0.289702
O O1 0.750000 0.437226 0.670959
O O2 0.983717 0.417194 0.585376
O O3 0.000000 0.500000 0.675915
O O4 0.009060 0.397347 0.720114
O O5 0.250000 0.327579 0.727740
O O6 0.023283 0.323485 0.821345
O O7 0.977788 0.288452 0.693333
O O8 0.750000 0.885647 0.004630
O O9 0.998360 0.820101 0.019728
O O10 0.008772 0.916753 0.951138
O O11 0.250000 0.442482 0.379668
O O12 0.000000 0.500000 0.359976
O O13 0.016200 0.397595 0.314033
O O14 0.250000 0.241160 0.019927
O O15 0.487816 0.279280 0.087960
O O16 0.498232 0.277071 0.949988
O O17 0.250000 0.263899 0.875959
O O18 0.004408 0.211430 0.838023
O O19 0.250000 0.783330 0.677223
O O20 0.521054 0.824838 0.710427
O O21 0.250000 0.651340 0.295262
#
# Coordination Sequence:
#
# PCOD8182606 Si02
#       8
#     8   8   8   8   8   8   8   8
#     4  11  22  35  50  69  96 134 173 211 250 295
#     4  10  19  31  48  71  97 130 169 210 251 296
#     4  10  19  34  51  70 100 137 171 205 245 291
#     4  12  24  36  51  73  99 134 174 213 250 297
#     4   9  15  28  50  74 100 133 165 198 245 298
#     4   8  15  28  49  71  94 126 163 199 244 293
#     4  10  18  30  50  75 101 130 166 208 252 299
#     4  10  19  34  52  71  99 134 168 208 251 297
#
# _framework density 16.527284999999999
#
# number of rings (size 3 to 8) (size 9 to 14) (size 15 to 20)
#    0.000    2.000    2.500    3.750    0.000    2.000 
#    0.000    0.000    0.000    0.000    0.000    0.875 
#    0.000    4.000    0.000    0.000    0.000    0.000 
#
# Total GULP energy -396721.852415 kJ/mol
# GULP energy per Si atom -12397.557888 kJ/mol
# Density = 1.648967 g / cm^3
# Si number density = 16.527285 Si / 1000 Ang^3
#
#
#
# Elastic Constant Matrix: (Units=GPa)
#
#
# Indices 1 2 3 4 5 6 
#
# 1 37.8151 20.3976 21.5911 0.0000 0.0000 0.0000
# 2 20.3976 99.9431 66.4139 0.0000 0.0000 0.0000
# 3 21.5911 66.4139 138.6622 0.0000 0.0000 0.0000
# 4 0.0000 0.0000 0.0000 25.9033 0.0000 0.0000
# 5 0.0000 0.0000 0.0000 0.0000 21.3830 0.0000
# 6 0.0000 0.0000 0.0000 0.0000 0.0000 24.2620
#
#
#
# Elastic Compliance Matrix: (Units=1/GPa)
#
#
# Indices 1 2 3 4 5 6 
#
# 1 0.030332 -0.004477 -0.002579 0.000000 0.000000 0.000000
# 2 -0.004477 0.015338 -0.006649 0.000000 0.000000 0.000000
# 3 -0.002579 -0.006649 0.010798 0.000000 0.000000 0.000000
# 4 0.000000 0.000000 0.000000 0.038605 0.000000 0.000000
# 5 0.000000 0.000000 0.000000 0.000000 0.046766 0.000000
# 6 0.000000 0.000000 0.000000 0.000000 0.000000 0.041217
#
#
# Mechanical properties :
#
#
# Convention : Reuss Voigt Hill
#
# Bulk Modulus (GPa) = 34.41387 54.80285 44.60836
# Shear Modulus (GPa) = 22.71168 25.51084 24.11126
#
# Velocity S-wave (km/s) = 3.71103 3.93308 3.82367
# Velocity P-wave (km/s) = 6.26339 7.33870 6.82226
#
# Compressibility (1/GPa) = 0.02905805
#
# Stress axis : x y z
#
# Youngs Moduli (GPa) = 32.96888 65.19814 92.60986
#
# Poissons Ratio (x) = 0.29188 0.23881
# Poissons Ratio (y) = 0.14760 0.61578
# Poissons Ratio (z) = 0.08502 0.43351
#
# Static dielectric constant tensor:
#      x y z
#    x 3.009740 0.000000 0.000000 
#    y 0.000000 2.969950 0.000000 
#    z 0.000000 0.000000 3.497910 
# 
# 
# High freq. dielectric constant tensor:
#      x y z
#    x 1.629950 0.000000 0.000000 
#    y 0.000000 1.610420 0.000000 
#    z 0.000000 0.000000 1.638270 
# 
# From -- ./inp_files/19714.got.cif
#   From: 2010.03.12/outbox.cif.g09.slc.cpg/sg40_10_cif.got.tgz:19714.got - 2010.04.14 01:38:03.
