data_PCOD8182003
_publ_section_title
;
Structure prediction by ZEFSAII (Michael W. Deem and Ramdas Pophale) SiO2 
 PCOD8182003
Probable space group: A B M 2
;
_chemical_formula_sum "Si O2"
_cell_formula_units_Z 48
_cell_length_a 10.759799
_cell_length_b 24.272608
_cell_length_c 7.289604
_cell_angle_alpha 90.000000
_cell_angle_beta 90.000000
_cell_angle_gamma 90.000000
_cell_volume 1903.814091
_symmetry_space_group_name_H-M "A B M 2"
_symmetry_group_IT_number 39
_symmetry_cell_setting 'orthorhombic'
loop_
_space_group_symop_operation_xyz
x,y,z
-x,-y,z
-x,1/2+y,z
x,1/2-y,z
x,1/2+y,1/2+z
-x,1/2-y,1/2+z
-x,y,1/2+z
x,-y,1/2+z
loop_
_atom_site_type_symbol
_atom_site_label
_atom_site_fract_x
_atom_site_fract_y
_atom_site_fract_z
Si Si1 0.844993 0.188669 0.136170
Si Si2 0.855568 0.012665 0.866965
Si Si3 0.712651 0.908623 0.124381
Si Si4 0.124119 0.311055 0.211259
Si Si5 0.269400 0.578222 0.184413
Si Si6 0.520284 0.562413 0.423471
O O1 0.813083 0.250000 0.212178
O O2 0.749810 0.143369 0.213367
O O3 0.981690 0.170151 0.199953
O O4 0.832790 0.188980 0.918849
O O5 0.807057 0.040236 0.672717
O O6 0.778513 0.954322 0.870867
O O7 0.824698 0.056077 0.025918
O O8 0.000000 0.000000 0.852997
O O9 0.789260 0.852632 0.098254
O O10 0.615435 0.904834 0.294048
O O11 0.618592 0.911115 0.943972
O O12 0.137776 0.250000 0.123301
O O13 0.412533 0.563705 0.127397
O O14 0.500000 0.500000 0.361481
#
# Coordination Sequence:
#
# PCOD8182003 Si02
#       6
#     8   8   8   8   8   8
#     4  10  21  42  67  90 124 165 208 262 324 380
#     4  11  22  37  57  88 129 155 202 262 319 374
#     4  11  23  41  58  89 122 169 209 256 311 377
#     4  10  21  42  67  92 124 160 208 268 325 379
#     4  11  23  38  59  93 121 168 206 253 316 377
#     4  11  22  39  59  83 123 169 210 248 310 376
#
# _framework density 25.212544999999999
#
# number of rings (size 3 to 8) (size 9 to 14) (size 15 to 20)
#    0.000    1.333    5.000    2.000    2.333    0.000 
#    3.000    1.667    0.000    0.000    0.000    0.000 
#    0.000    0.000    0.000    0.000    0.000    0.000 
#
# Total GULP energy -297649.349988 kJ/mol
# GULP energy per Si atom -12402.056250 kJ/mol
# Density = 2.515516 g / cm^3
# Si number density = 25.212545 Si / 1000 Ang^3
#
#
#
# Elastic Constant Matrix: (Units=GPa)
#
#
# Indices 1 2 3 4 5 6 
#
# 1 200.7526 80.9202 16.3373 0.0000 0.0000 0.0000
# 2 80.9202 171.5995 10.9304 0.0000 0.0000 0.0000
# 3 16.3373 10.9304 73.3080 0.0000 0.0000 0.0000
# 4 0.0000 0.0000 0.0000 23.8818 0.0000 0.0000
# 5 0.0000 0.0000 0.0000 0.0000 39.1849 0.0000
# 6 0.0000 0.0000 0.0000 0.0000 0.0000 45.4301
#
#
#
# Elastic Compliance Matrix: (Units=1/GPa)
#
#
# Indices 1 2 3 4 5 6 
#
# 1 0.006216 -0.002870 -0.000957 0.000000 0.000000 0.000000
# 2 -0.002870 0.007209 -0.000435 0.000000 0.000000 0.000000
# 3 -0.000957 -0.000435 0.013919 0.000000 0.000000 0.000000
# 4 0.000000 0.000000 0.000000 0.041873 0.000000 0.000000
# 5 0.000000 0.000000 0.000000 0.000000 0.025520 0.000000
# 6 0.000000 0.000000 0.000000 0.000000 0.000000 0.022012
#
#
# Mechanical properties :
#
#
# Convention : Reuss Voigt Hill
#
# Bulk Modulus (GPa) = 53.13904 73.55954 63.34929
# Shear Modulus (GPa) = 38.00907 44.19752 41.10330
#
# Velocity S-wave (km/s) = 3.88693 4.19142 4.04204
# Velocity P-wave (km/s) = 6.42390 7.25694 6.85309
#
# Compressibility (1/GPa) = 0.01881855
#
# Stress axis : x y z
#
# Youngs Moduli (GPa) = 160.87129 138.71963 71.84259
#
# Poissons Ratio (x) = 0.39817 0.06878
# Poissons Ratio (y) = 0.46175 0.03126
# Poissons Ratio (z) = 0.15401 0.06037
#
# Static dielectric constant tensor:
#      x y z
#    x 4.676660 0.000000 0.000000 
#    y 0.000000 4.600630 0.000000 
#    z 0.000000 0.000000 5.370810 
# 
# 
# High freq. dielectric constant tensor:
#      x y z
#    x 2.017910 0.000000 0.000000 
#    y 0.000000 1.982050 0.000000 
#    z 0.000000 0.000000 2.066980 
# 
# From -- ./inp_files/2703.got.cif
#   From: 2010.03.12/outbox.cif.g09.slc.cpg/sg39_2_cif.got.tgz:2703.got - 2010.04.14 02:53:20.
