data_PCOD8182624
_publ_section_title
;
Structure prediction by ZEFSAII (Michael W. Deem and Ramdas Pophale) SiO2 
 PCOD8182624
Probable space group: A M A 2
;
_chemical_formula_sum "Si O2"
_cell_formula_units_Z 60
_cell_length_a 9.606310
_cell_length_b 29.997659
_cell_length_c 11.684345
_cell_angle_alpha 90.000000
_cell_angle_beta 90.000000
_cell_angle_gamma 90.000000
_cell_volume 3367.040445
_symmetry_space_group_name_H-M "A M A 2"
_symmetry_group_IT_number 40
_symmetry_cell_setting 'orthorhombic'
loop_
_space_group_symop_operation_xyz
x,y,z
-x,-y,z
1/2-x,y,z
1/2+x,-y,z
x,1/2+y,1/2+z
-x,1/2-y,1/2+z
1/2-x,1/2+y,1/2+z
1/2+x,1/2-y,1/2+z
loop_
_atom_site_type_symbol
_atom_site_label
_atom_site_fract_x
_atom_site_fract_y
_atom_site_fract_z
Si Si1 0.588181 0.320063 0.809750
Si Si2 0.902323 0.655825 0.215762
Si Si3 0.091769 0.272469 0.404048
Si Si4 0.581351 0.839029 0.054269
Si Si5 0.000000 0.500000 0.327528
Si Si6 0.411389 0.408391 0.416366
Si Si7 0.597257 0.463896 0.104174
Si Si8 0.088829 0.631217 0.030019
O O1 0.750000 0.310605 0.795367
O O2 0.526859 0.275429 0.869030
O O3 0.530786 0.333254 0.685535
O O4 0.556573 0.360803 0.896469
O O5 0.750000 0.645980 0.164361
O O6 0.900380 0.700643 0.287211
O O7 0.947940 0.613747 0.294228
O O8 0.007026 0.665345 0.111460
O O9 0.250000 0.269177 0.456414
O O10 0.984259 0.296627 0.489387
O O11 0.750000 0.840578 0.039734
O O12 0.513563 0.885530 0.009777
O O13 0.068118 0.462050 0.408579
O O14 0.106198 0.526022 0.241562
O O15 0.250000 0.398142 0.448549
O O16 0.500000 0.500000 0.041687
O O17 0.750000 0.467196 0.050603
O O18 0.532401 0.416633 0.070334
O O19 0.250000 0.637677 0.057631
#
# Coordination Sequence:
#
# PCOD8182624 Si02
#       8
#     8   8   8   8   4   8   8   8
#     4   9  20  37  55  75 107 146 178 217 272 316
#     4   9  17  31  50  75 107 139 168 210 266 313
#     4   9  19  36  55  75 105 143 176 217 271 318
#     4  10  21  37  56  78 106 141 184 224 260 315
#     4  10  18  30  54  80 106 134 170 214 262 320
#     4  10  20  35  55  78 111 146 171 215 279 324
#     4   9  18  30  49  77 107 134 167 210 260 315
#     4  10  19  32  52  78 105 138 175 213 259 316
#
# _framework density 17.819804000000001
#
# number of rings (size 3 to 8) (size 9 to 14) (size 15 to 20)
#    0.400    2.133    1.333    1.600    1.867    3.733 
#    0.000    2.667    1.467    0.000    0.000    0.000 
#    0.000    0.000    0.000    0.000    0.000    0.000 
#
# Total GULP energy -371669.729447 kJ/mol
# GULP energy per Si atom -12388.990982 kJ/mol
# Density = 1.777924 g / cm^3
# Si number density = 17.819804 Si / 1000 Ang^3
#
#
#
# Elastic Constant Matrix: (Units=GPa)
#
#
# Indices 1 2 3 4 5 6 
#
# 1 72.8023 30.7102 47.0248 0.0000 0.0000 0.0000
# 2 30.7102 107.1640 50.7774 0.0000 0.0000 0.0000
# 3 47.0248 50.7774 111.5523 0.0000 0.0000 0.0000
# 4 0.0000 0.0000 0.0000 18.9352 0.0000 0.0000
# 5 0.0000 0.0000 0.0000 0.0000 22.1636 0.0000
# 6 0.0000 0.0000 0.0000 0.0000 0.0000 23.8695
#
#
#
# Elastic Compliance Matrix: (Units=1/GPa)
#
#
# Indices 1 2 3 4 5 6 
#
# 1 0.019250 -0.002131 -0.007145 0.000000 0.000000 0.000000
# 2 -0.002131 0.012134 -0.004625 0.000000 0.000000 0.000000
# 3 -0.007145 -0.004625 0.014081 0.000000 0.000000 0.000000
# 4 0.000000 0.000000 0.000000 0.052812 0.000000 0.000000
# 5 0.000000 0.000000 0.000000 0.000000 0.045119 0.000000
# 6 0.000000 0.000000 0.000000 0.000000 0.000000 0.041894
#
#
# Mechanical properties :
#
#
# Convention : Reuss Voigt Hill
#
# Bulk Modulus (GPa) = 56.61327 60.94928 58.78127
# Shear Modulus (GPa) = 22.83330 23.86074 23.34702
#
# Velocity S-wave (km/s) = 3.58347 3.66321 3.62356
# Velocity P-wave (km/s) = 6.99718 7.22284 7.11091
#
# Compressibility (1/GPa) = 0.01766370
#
# Stress axis : x y z
#
# Youngs Moduli (GPa) = 51.94887 82.41640 71.01600
#
# Poissons Ratio (x) = 0.17564 0.50738
# Poissons Ratio (y) = 0.11071 0.32843
# Poissons Ratio (z) = 0.37116 0.38115
#
# Static dielectric constant tensor:
#      x y z
#    x 3.229710 0.000000 0.000000 
#    y 0.000000 3.394300 0.000000 
#    z 0.000000 0.000000 3.110650 
# 
# 
# High freq. dielectric constant tensor:
#      x y z
#    x 1.680270 0.000000 0.000000 
#    y 0.000000 1.691890 0.000000 
#    z 0.000000 0.000000 1.660000 
# 
# From -- ./inp_files/10516.got.cif
#   From: 2010.03.12/outbox.cif.g09.slc.cpg/sg40_6_cif.got.tgz:10516.got - 2010.04.14 01:38:03.
