data_PCOD8182179
_publ_section_title
;
Structure prediction by ZEFSAII (Michael W. Deem and Ramdas Pophale) SiO2 
 PCOD8182179
Probable space group: A B M 2
;
_chemical_formula_sum "Si O2"
_cell_formula_units_Z 56
_cell_length_a 13.804696
_cell_length_b 20.140476
_cell_length_c 9.342786
_cell_angle_alpha 90.000000
_cell_angle_beta 90.000000
_cell_angle_gamma 90.000000
_cell_volume 2597.604207
_symmetry_space_group_name_H-M "A B M 2"
_symmetry_group_IT_number 39
_symmetry_cell_setting 'orthorhombic'
loop_
_space_group_symop_operation_xyz
x,y,z
-x,-y,z
-x,1/2+y,z
x,1/2-y,z
x,1/2+y,1/2+z
-x,1/2-y,1/2+z
-x,y,1/2+z
x,-y,1/2+z
loop_
_atom_site_type_symbol
_atom_site_label
_atom_site_fract_x
_atom_site_fract_y
_atom_site_fract_z
Si Si1 0.376866 0.446379 0.418420
Si Si2 0.894902 0.446604 0.230440
Si Si3 0.754560 0.675094 0.381631
Si Si4 0.074315 0.578378 0.900232
Si Si5 0.698611 0.082736 0.346066
Si Si6 0.509164 0.409565 0.174191
Si Si7 0.656767 0.822071 0.082650
O O1 0.320128 0.377656 0.452697
O O2 0.306174 0.509249 0.416677
O O3 0.429910 0.450598 0.264947
O O4 0.457741 0.454044 0.540376
O O5 0.885492 0.521262 0.293285
O O6 0.788572 0.413192 0.236804
O O7 0.967356 0.405915 0.336385
O O8 0.930414 0.446570 0.065478
O O9 0.750874 0.750000 0.451208
O O10 0.862508 0.645305 0.392238
O O11 0.725273 0.681532 0.218557
O O12 0.601324 0.108864 0.270457
O O13 0.716260 0.131018 0.477482
O O14 0.453283 0.344600 0.117810
O O15 0.645718 0.750000 0.011895
#
# Coordination Sequence:
#
# PCOD8182179 Si02
#       7
#     8   8   8   8   8   8   8
#     4  11  24  39  65  97 136 171 226 279 338 398
#     4  11  25  41  72 107 136 175 225 286 346 402
#     4  10  23  44  70  96 134 181 223 275 347 413
#     4  11  23  45  70 105 139 176 222 283 350 409
#     4  12  25  38  70 100 137 173 235 285 335 403
#     4  11  24  40  61  97 132 177 223 274 337 396
#     4  10  25  44  65  97 139 186 225 280 348 411
#
# _framework density 21.558327999999999
#
# number of rings (size 3 to 8) (size 9 to 14) (size 15 to 20)
#    0.000    1.143    2.857    3.000   10.000    1.143 
#    0.000    3.571    0.000    0.000    0.000    0.000 
#    0.000    0.000    0.000    0.000    0.000    0.000 
#
# Total GULP energy -347047.712867 kJ/mol
# GULP energy per Si atom -12394.561174 kJ/mol
# Density = 2.150926 g / cm^3
# Si number density = 21.558328 Si / 1000 Ang^3
#
#
#
# Elastic Constant Matrix: (Units=GPa)
#
#
# Indices 1 2 3 4 5 6 
#
# 1 105.8085 45.6938 22.2796 0.0000 0.0000 0.0000
# 2 45.6938 114.2379 37.9218 0.0000 0.0000 0.0000
# 3 22.2796 37.9218 104.4604 0.0000 0.0000 0.0000
# 4 0.0000 0.0000 0.0000 20.8621 0.0000 0.0000
# 5 0.0000 0.0000 0.0000 0.0000 32.1774 0.0000
# 6 0.0000 0.0000 0.0000 0.0000 0.0000 27.8760
#
#
#
# Elastic Compliance Matrix: (Units=1/GPa)
#
#
# Indices 1 2 3 4 5 6 
#
# 1 0.011497 -0.004303 -0.000890 0.000000 0.000000 0.000000
# 2 -0.004303 0.011564 -0.003280 0.000000 0.000000 0.000000
# 3 -0.000890 -0.003280 0.010954 0.000000 0.000000 0.000000
# 4 0.000000 0.000000 0.000000 0.047934 0.000000 0.000000
# 5 0.000000 0.000000 0.000000 0.000000 0.031078 0.000000
# 6 0.000000 0.000000 0.000000 0.000000 0.000000 0.035873
#
#
# Mechanical properties :
#
#
# Convention : Reuss Voigt Hill
#
# Bulk Modulus (GPa) = 58.59032 59.58857 59.08944
# Shear Modulus (GPa) = 29.14866 30.75719 29.95293
#
# Velocity S-wave (km/s) = 3.68106 3.78126 3.73150
# Velocity P-wave (km/s) = 6.73079 6.83846 6.78484
#
# Compressibility (1/GPa) = 0.01706767
#
# Stress axis : x y z
#
# Youngs Moduli (GPa) = 86.98108 86.47732 91.29433
#
# Poissons Ratio (x) = 0.37213 0.08124
# Poissons Ratio (y) = 0.37429 0.29946
# Poissons Ratio (z) = 0.07741 0.28366
#
# Static dielectric constant tensor:
#      x y z
#    x 4.050210 0.000000 0.000000 
#    y 0.000000 3.964640 0.000000 
#    z 0.000000 0.000000 3.990450 
# 
# 
# High freq. dielectric constant tensor:
#      x y z
#    x 1.848870 0.000000 0.000000 
#    y 0.000000 1.824760 0.000000 
#    z 0.000000 0.000000 1.853130 
# 
# From -- ./inp_files/3416.got.cif
#   From: 2010.03.12/outbox.cif.g09.slc.cpg/sg39_2_cif.got.tgz:3416.got - 2010.04.14 02:53:20.
