data_PCOD8182579
_publ_section_title
;
Structure prediction by ZEFSAII (Michael W. Deem and Ramdas Pophale) SiO2 
 PCOD8182579
Probable space group: A M A 2
;
_chemical_formula_sum "Si O2"
_cell_formula_units_Z 64
_cell_length_a 9.013169
_cell_length_b 18.373414
_cell_length_c 21.637746
_cell_angle_alpha 90.000000
_cell_angle_beta 90.000000
_cell_angle_gamma 90.000000
_cell_volume 3583.268846
_symmetry_space_group_name_H-M "A M A 2"
_symmetry_group_IT_number 40
_symmetry_cell_setting 'orthorhombic'
loop_
_space_group_symop_operation_xyz
x,y,z
-x,-y,z
1/2-x,y,z
1/2+x,-y,z
x,1/2+y,1/2+z
-x,1/2-y,1/2+z
1/2-x,1/2+y,1/2+z
1/2+x,1/2-y,1/2+z
loop_
_atom_site_type_symbol
_atom_site_label
_atom_site_fract_x
_atom_site_fract_y
_atom_site_fract_z
Si Si1 0.427252 0.073339 0.578910
Si Si2 0.580311 0.572131 0.489061
Si Si3 0.410198 0.562100 0.940744
Si Si4 0.926480 0.725391 0.444201
Si Si5 0.923673 0.076446 0.247194
Si Si6 0.427286 0.281478 0.066415
Si Si7 0.421701 0.357631 0.616680
Si Si8 0.086045 0.679028 0.838873
O O1 0.250000 0.074626 0.590176
O O2 0.479859 0.076347 0.507596
O O3 0.503355 0.148182 0.602544
O O4 0.500000 0.000000 0.609139
O O5 0.500000 0.500000 0.465930
O O6 0.750000 0.558695 0.474490
O O7 0.521813 0.641841 0.450997
O O8 0.551561 0.585505 0.561616
O O9 0.500000 0.500000 0.903777
O O10 0.250000 0.527843 0.952084
O O11 0.401711 0.633864 0.901632
O O12 0.750000 0.733231 0.456933
O O13 0.967211 0.746087 0.372199
O O14 0.009535 0.773111 0.496576
O O15 0.750000 0.064884 0.255827
O O16 0.968192 0.099963 0.178515
O O17 0.973197 0.143102 0.291289
O O18 0.000000 0.000000 0.264628
O O19 0.250000 0.287362 0.064387
O O20 0.475234 0.212652 0.108143
O O21 0.250000 0.332276 0.618776
O O22 0.250000 0.685750 0.807958
#
# Coordination Sequence:
#
# PCOD8182579 Si02
#       8
#     8   8   8   8   8   8   8   8
#     4  10  18  30  45  66  98 132 166 202 245 299
#     4   9  17  30  51  74  98 127 160 200 251 305
#     4   9  17  27  41  60  86 125 163 196 233 279
#     4   9  18  34  50  68  98 136 169 202 252 310
#     4  11  23  37  53  75 103 137 177 216 256 299
#     4  11  20  30  49  76 100 127 167 214 260 306
#     4   9  20  37  53  69  97 137 172 208 255 305
#     4  10  19  33  50  68  95 133 173 209 248 294
#
# _framework density 17.860786000000001
#
# number of rings (size 3 to 8) (size 9 to 14) (size 15 to 20)
#    0.000    2.250    1.250    3.375    0.000    5.500 
#    0.000    0.000    0.000    0.000    0.000    0.875 
#    0.000    4.000    0.000    0.000    0.000    0.000 
#
# Total GULP energy -396501.178363 kJ/mol
# GULP energy per Si atom -12390.661824 kJ/mol
# Density = 1.782013 g / cm^3
# Si number density = 17.860786 Si / 1000 Ang^3
#
#
#
# Elastic Constant Matrix: (Units=GPa)
#
#
# Indices 1 2 3 4 5 6 
#
# 1 82.0121 43.2976 19.1651 0.0000 0.0000 0.0000
# 2 43.2976 111.3649 22.7934 0.0000 0.0000 0.0000
# 3 19.1651 22.7934 58.8245 0.0000 0.0000 0.0000
# 4 0.0000 0.0000 0.0000 20.4454 0.0000 0.0000
# 5 0.0000 0.0000 0.0000 0.0000 18.7943 0.0000
# 6 0.0000 0.0000 0.0000 0.0000 0.0000 32.4226
#
#
#
# Elastic Compliance Matrix: (Units=1/GPa)
#
#
# Indices 1 2 3 4 5 6 
#
# 1 0.015818 -0.005534 -0.003009 0.000000 0.000000 0.000000
# 2 -0.005534 0.011689 -0.002726 0.000000 0.000000 0.000000
# 3 -0.003009 -0.002726 0.019037 0.000000 0.000000 0.000000
# 4 0.000000 0.000000 0.000000 0.048911 0.000000 0.000000
# 5 0.000000 0.000000 0.000000 0.000000 0.053208 0.000000
# 6 0.000000 0.000000 0.000000 0.000000 0.000000 0.030843
#
#
# Mechanical properties :
#
#
# Convention : Reuss Voigt Hill
#
# Bulk Modulus (GPa) = 41.65869 46.96820 44.31345
# Shear Modulus (GPa) = 23.80435 25.46215 24.63325
#
# Velocity S-wave (km/s) = 3.65468 3.77979 3.71776
# Velocity P-wave (km/s) = 6.41745 6.73818 6.57977
#
# Compressibility (1/GPa) = 0.02400460
#
# Stress axis : x y z
#
# Youngs Moduli (GPa) = 63.21832 85.54996 52.53063
#
# Poissons Ratio (x) = 0.47344 0.15808
# Poissons Ratio (y) = 0.34985 0.14321
# Poissons Ratio (z) = 0.19024 0.23323
#
# Static dielectric constant tensor:
#      x y z
#    x 3.278420 0.000000 0.000000 
#    y 0.000000 3.591580 0.000000 
#    z 0.000000 0.000000 3.002680 
# 
# 
# High freq. dielectric constant tensor:
#      x y z
#    x 1.690370 0.000000 0.000000 
#    y 0.000000 1.698340 0.000000 
#    z 0.000000 0.000000 1.642800 
# 
# From -- ./inp_files/24396.got.cif
#   From: 2010.03.12/outbox.cif.g09.slc.cpg/sg40_13_cif.got.tgz:24396.got - 2010.04.14 01:38:03.
