data_PCOD8182042
_publ_section_title
;
Structure prediction by ZEFSAII (Michael W. Deem and Ramdas Pophale) SiO2 
 PCOD8182042
Probable space group: A B M 2
;
_chemical_formula_sum "Si O2"
_cell_formula_units_Z 48
_cell_length_a 9.093399
_cell_length_b 19.304108
_cell_length_c 13.326029
_cell_angle_alpha 90.000000
_cell_angle_beta 90.000000
_cell_angle_gamma 90.000000
_cell_volume 2339.250549
_symmetry_space_group_name_H-M "A B M 2"
_symmetry_group_IT_number 39
_symmetry_cell_setting 'orthorhombic'
loop_
_space_group_symop_operation_xyz
x,y,z
-x,-y,z
-x,1/2+y,z
x,1/2-y,z
x,1/2+y,1/2+z
-x,1/2-y,1/2+z
-x,y,1/2+z
x,-y,1/2+z
loop_
_atom_site_type_symbol
_atom_site_label
_atom_site_fract_x
_atom_site_fract_y
_atom_site_fract_z
Si Si1 0.255077 0.174333 0.067590
Si Si2 0.150655 0.538871 0.639699
Si Si3 0.662824 0.071654 0.032937
Si Si4 0.608848 0.900579 0.898146
Si Si5 0.837892 0.522899 0.367614
Si Si6 0.453644 0.329015 0.691664
O O1 0.179798 0.250000 0.072684
O O2 0.137054 0.114309 0.089062
O O3 0.381837 0.168626 0.150915
O O4 0.321329 0.164644 0.956377
O O5 0.292657 0.498393 0.594672
O O6 0.170651 0.552943 0.756828
O O7 0.000000 0.500000 0.615667
O O8 0.657088 0.135089 0.111365
O O9 0.511434 0.063840 0.970922
O O10 0.788532 0.081998 0.947460
O O11 0.731298 0.957202 0.875006
O O12 0.542723 0.871776 0.794877
O O13 0.000000 0.500000 0.397870
O O14 0.399842 0.250000 0.707457
#
# Coordination Sequence:
#
# PCOD8182042 Si02
#       6
#     8   8   8   8   8   8
#     4  10  22  38  61  92 125 167 206 256 327 385
#     4  11  23  41  65  92 131 169 214 267 320 385
#     4  11  22  38  63  95 123 160 220 259 314 376
#     4  11  21  37  64  93 125 163 214 268 312 370
#     4  11  23  39  63  92 129 162 210 271 321 377
#     4  10  22  40  62  91 131 167 209 265 322 381
#
# _framework density 20.519393000000001
#
# number of rings (size 3 to 8) (size 9 to 14) (size 15 to 20)
#    0.000    1.333    3.333    2.500    2.333    0.667 
#    0.000    1.667    0.000    0.000    0.000    0.000 
#    0.000    0.000    0.000    0.000    0.000    0.000 
#
# Total GULP energy -297456.913607 kJ/mol
# GULP energy per Si atom -12394.038067 kJ/mol
# Density = 2.047269 g / cm^3
# Si number density = 20.519393 Si / 1000 Ang^3
#
#
#
# Elastic Constant Matrix: (Units=GPa)
#
#
# Indices 1 2 3 4 5 6 
#
# 1 68.5285 37.7820 23.1927 0.0000 0.0000 0.0000
# 2 37.7820 133.0070 34.3500 0.0000 0.0000 0.0000
# 3 23.1927 34.3500 121.6727 0.0000 0.0000 0.0000
# 4 0.0000 0.0000 0.0000 20.7326 0.0000 0.0000
# 5 0.0000 0.0000 0.0000 0.0000 31.8382 0.0000
# 6 0.0000 0.0000 0.0000 0.0000 0.0000 25.0492
#
#
#
# Elastic Compliance Matrix: (Units=1/GPa)
#
#
# Indices 1 2 3 4 5 6 
#
# 1 0.017795 -0.004507 -0.002119 0.000000 0.000000 0.000000
# 2 -0.004507 0.009251 -0.001753 0.000000 0.000000 0.000000
# 3 -0.002119 -0.001753 0.009118 0.000000 0.000000 0.000000
# 4 0.000000 0.000000 0.000000 0.048233 0.000000 0.000000
# 5 0.000000 0.000000 0.000000 0.000000 0.031409 0.000000
# 6 0.000000 0.000000 0.000000 0.000000 0.000000 0.039921
#
#
# Mechanical properties :
#
#
# Convention : Reuss Voigt Hill
#
# Bulk Modulus (GPa) = 51.53368 57.09530 54.31449
# Shear Modulus (GPa) = 27.94004 30.71624 29.32814
#
# Velocity S-wave (km/s) = 3.69404 3.87322 3.78470
# Velocity P-wave (km/s) = 6.58512 6.92011 6.75469
#
# Compressibility (1/GPa) = 0.01940479
#
# Stress axis : x y z
#
# Youngs Moduli (GPa) = 56.19591 108.09158 109.67847
#
# Poissons Ratio (x) = 0.48722 0.23246
# Poissons Ratio (y) = 0.25330 0.19222
# Poissons Ratio (z) = 0.11911 0.18944
#
# Static dielectric constant tensor:
#      x y z
#    x 3.625410 0.000000 0.000000 
#    y 0.000000 3.793450 0.000000 
#    z 0.000000 0.000000 4.197410 
# 
# 
# High freq. dielectric constant tensor:
#      x y z
#    x 1.782510 0.000000 0.000000 
#    y 0.000000 1.786270 0.000000 
#    z 0.000000 0.000000 1.832220 
# 
# From -- ./inp_files/8336.got.cif
#   From: 2010.03.12/outbox.cif.g09.slc.cpg/sg39_5_cif.got.tgz:8336.got - 2010.04.14 02:53:20.
