data_PCOD8182908
_publ_section_title
;
Structure prediction by ZEFSAII (Michael W. Deem and Ramdas Pophale) SiO2 
 PCOD8182908
Probable space group: A M A 2
;
_chemical_formula_sum "Si O2"
_cell_formula_units_Z 64
_cell_length_a 9.036811
_cell_length_b 22.600973
_cell_length_c 19.641567
_cell_angle_alpha 90.000000
_cell_angle_beta 90.000000
_cell_angle_gamma 90.000000
_cell_volume 4011.607814
_symmetry_space_group_name_H-M "A M A 2"
_symmetry_group_IT_number 40
_symmetry_cell_setting 'orthorhombic'
loop_
_space_group_symop_operation_xyz
x,y,z
-x,-y,z
1/2-x,y,z
1/2+x,-y,z
x,1/2+y,1/2+z
-x,1/2-y,1/2+z
1/2-x,1/2+y,1/2+z
1/2+x,1/2-y,1/2+z
loop_
_atom_site_type_symbol
_atom_site_label
_atom_site_fract_x
_atom_site_fract_y
_atom_site_fract_z
Si Si1 0.918068 0.172796 0.473200
Si Si2 0.583830 0.341128 0.431674
Si Si3 0.420549 0.360090 0.643137
Si Si4 0.420186 0.744069 0.863388
Si Si5 0.080106 0.439751 0.898315
Si Si6 0.923247 0.366333 0.781291
Si Si7 0.587014 0.266582 0.569360
Si Si8 0.077239 0.437213 0.510491
O O1 0.750000 0.191098 0.449874
O O2 0.934550 0.102042 0.465503
O O3 0.943168 0.197046 0.550861
O O4 0.042391 0.201773 0.426309
O O5 0.750000 0.360330 0.412682
O O6 0.515083 0.304755 0.367499
O O7 0.579806 0.298916 0.496777
O O8 0.489382 0.399761 0.447794
O O9 0.250000 0.358891 0.664108
O O10 0.517376 0.381315 0.706503
O O11 0.467155 0.293564 0.620662
O O12 0.454140 0.404989 0.582009
O O13 0.250000 0.762866 0.867507
O O14 0.453082 0.703675 0.796706
O O15 0.250000 0.452778 0.880350
O O16 0.000000 0.500000 0.917292
O O17 0.007977 0.408815 0.833063
O O18 0.750000 0.380980 0.785675
O O19 0.750000 0.274906 0.602306
O O20 0.250000 0.445424 0.497363
O O21 0.000000 0.500000 0.513526
#
# Coordination Sequence:
#
# PCOD8182908 Si02
#       8
#     8   8   8   8   8   8   8   8
#     4   8  15  27  43  61  81 107 137 171 213 257
#     4   9  16  27  44  63  83 108 136 170 215 260
#     4  10  20  31  43  61  85 114 147 182 216 251
#     4   9  16  26  42  63  83 104 135 175 216 255
#     4  10  19  31  45  62  86 115 148 182 214 251
#     4  10  20  32  45  61  84 116 150 182 214 250
#     4   8  14  26  43  61  80 104 135 171 213 258
#     4  10  20  32  45  62  85 114 148 183 216 252
#
# _framework density 15.953703000000001
#
# number of rings (size 3 to 8) (size 9 to 14) (size 15 to 20)
#    0.000    2.750    0.000    3.000    0.000    7.000 
#    0.000    1.250    0.000    0.000    0.000    0.000 
#    0.000    1.000    0.000    6.750    0.000    5.375 
#
# Total GULP energy -396541.944703 kJ/mol
# GULP energy per Si atom -12391.935772 kJ/mol
# Density = 1.591739 g / cm^3
# Si number density = 15.953703 Si / 1000 Ang^3
#
#
#
# Elastic Constant Matrix: (Units=GPa)
#
#
# Indices 1 2 3 4 5 6 
#
# 1 99.7701 56.7778 18.5691 0.0000 0.0000 0.0000
# 2 56.7778 106.4489 35.1036 0.0000 0.0000 0.0000
# 3 18.5691 35.1036 12.7400 0.0000 0.0000 0.0000
# 4 0.0000 0.0000 0.0000 15.2005 0.0000 0.0000
# 5 0.0000 0.0000 0.0000 0.0000 20.3776 0.0000
# 6 0.0000 0.0000 0.0000 0.0000 0.0000 26.3438
#
#
#
# Elastic Compliance Matrix: (Units=1/GPa)
#
#
# Indices 1 2 3 4 5 6 
#
# 1 0.014396 -0.008308 0.001911 0.000000 0.000000 0.000000
# 2 -0.008308 0.107622 -0.284430 0.000000 0.000000 0.000000
# 3 0.001911 -0.284430 0.859421 0.000000 0.000000 0.000000
# 4 0.000000 0.000000 0.000000 0.065787 0.000000 0.000000
# 5 0.000000 0.000000 0.000000 0.000000 0.049074 0.000000
# 6 0.000000 0.000000 0.000000 0.000000 0.000000 0.037960
#
#
# Mechanical properties :
#
#
# Convention : Reuss Voigt Hill
#
# Bulk Modulus (GPa) = 2.50135 48.87331 25.68733
# Shear Modulus (GPa) = 2.70391 19.61828 11.16109
#
# Velocity S-wave (km/s) = 1.30328 3.51051 2.64785
# Velocity P-wave (km/s) = 1.95857 6.86532 5.04820
#
# Compressibility (1/GPa) = 0.39978345
#
# Stress axis : x y z
#
# Youngs Moduli (GPa) = 69.46543 9.29179 1.16357
#
# Poissons Ratio (x) = 0.07720 -0.00222
# Poissons Ratio (y) = 0.57715 0.33096
# Poissons Ratio (z) = -0.13272 2.64286
#
# Static dielectric constant tensor:
#      x y z
#    x 3.189690 0.000000 0.000000 
#    y 0.000000 3.151350 0.000000 
#    z 0.000000 0.000000 2.791230 
# 
# 
# High freq. dielectric constant tensor:
#      x y z
#    x 1.631240 0.000000 0.000000 
#    y 0.000000 1.601640 0.000000 
#    z 0.000000 0.000000 1.562940 
# 
# From -- ./inp_files/19740.got.cif
#   From: 2010.03.12/outbox.cif.g09.slc.cpg/sg40_10_cif.got.tgz:19740.got - 2010.04.14 01:38:03.
