data_PCOD8182155
_publ_section_title
;
Structure prediction by ZEFSAII (Michael W. Deem and Ramdas Pophale) SiO2 
 PCOD8182155
Probable space group: A B M 2
;
_chemical_formula_sum "Si O2"
_cell_formula_units_Z 48
_cell_length_a 11.016688
_cell_length_b 20.894431
_cell_length_c 9.074647
_cell_angle_alpha 90.000000
_cell_angle_beta 90.000000
_cell_angle_gamma 90.000000
_cell_volume 2088.869646
_symmetry_space_group_name_H-M "A B M 2"
_symmetry_group_IT_number 39
_symmetry_cell_setting 'orthorhombic'
loop_
_space_group_symop_operation_xyz
x,y,z
-x,-y,z
-x,1/2+y,z
x,1/2-y,z
x,1/2+y,1/2+z
-x,1/2-y,1/2+z
-x,y,1/2+z
x,-y,1/2+z
loop_
_atom_site_type_symbol
_atom_site_label
_atom_site_fract_x
_atom_site_fract_y
_atom_site_fract_z
Si Si1 0.774558 0.004740 0.585290
Si Si2 0.366869 0.112852 0.188709
Si Si3 0.770736 0.178717 0.139684
Si Si4 0.846984 0.608589 0.384808
Si Si5 0.117942 0.425406 0.832386
Si Si6 0.473450 0.675937 0.964300
O O1 0.645682 0.037210 0.638331
O O2 0.848323 0.060366 0.500658
O O3 0.765059 0.943653 0.477857
O O4 0.850630 0.987328 0.731827
O O5 0.231664 0.131974 0.245268
O O6 0.403616 0.154904 0.047127
O O7 0.458503 0.128803 0.323614
O O8 0.788630 0.250000 0.197784
O O9 0.801767 0.133991 0.277718
O O10 0.634617 0.166840 0.081528
O O11 0.863129 0.166029 0.002591
O O12 0.975060 0.585682 0.325212
O O13 0.482863 0.750000 0.911142
#
# Coordination Sequence:
#
# PCOD8182155 Si02
#       6
#     8   8   8   8   8   8
#     4  11  24  41  66 105 141 185 229 275 344 425
#     4  11  24  43  69 101 129 180 236 288 341 410
#     4   9  22  44  67  98 140 184 235 298 349 406
#     4  10  23  41  70 103 141 188 228 280 352 425
#     4  11  24  40  72 104 147 187 230 282 354 421
#     4  10  23  48  73  95 134 183 239 292 352 412
#
# _framework density 22.978936000000001
#
# number of rings (size 3 to 8) (size 9 to 14) (size 15 to 20)
#    0.000    1.667    1.667    1.000    9.333    1.333 
#    0.000   13.333    0.000    0.000    0.000    0.000 
#    0.000    0.000    0.000    0.000    0.000    0.000 
#
# Total GULP energy -297335.429994 kJ/mol
# GULP energy per Si atom -12388.976250 kJ/mol
# Density = 2.292663 g / cm^3
# Si number density = 22.978936 Si / 1000 Ang^3
#
#
#
# Elastic Constant Matrix: (Units=GPa)
#
#
# Indices 1 2 3 4 5 6 
#
# 1 84.7065 55.8834 55.0143 0.0000 0.0000 0.0000
# 2 55.8834 101.8573 42.4847 0.0000 0.0000 0.0000
# 3 55.0143 42.4847 106.2276 0.0000 0.0000 0.0000
# 4 0.0000 0.0000 0.0000 36.4357 0.0000 0.0000
# 5 0.0000 0.0000 0.0000 0.0000 36.9083 0.0000
# 6 0.0000 0.0000 0.0000 0.0000 0.0000 33.8253
#
#
#
# Elastic Compliance Matrix: (Units=1/GPa)
#
#
# Indices 1 2 3 4 5 6 
#
# 1 0.023425 -0.009352 -0.008391 0.000000 0.000000 0.000000
# 2 -0.009352 0.015517 -0.001362 0.000000 0.000000 0.000000
# 3 -0.008391 -0.001362 0.014305 0.000000 0.000000 0.000000
# 4 0.000000 0.000000 0.000000 0.027446 0.000000 0.000000
# 5 0.000000 0.000000 0.000000 0.000000 0.027094 0.000000
# 6 0.000000 0.000000 0.000000 0.000000 0.000000 0.029564
#
#
# Mechanical properties :
#
#
# Convention : Reuss Voigt Hill
#
# Bulk Modulus (GPa) = 66.51291 66.61736 66.56513
# Shear Modulus (GPa) = 27.68951 30.72779 29.20865
#
# Velocity S-wave (km/s) = 3.47507 3.66076 3.56912
# Velocity P-wave (km/s) = 6.71636 6.84995 6.78348
#
# Compressibility (1/GPa) = 0.01503468
#
# Stress axis : x y z
#
# Youngs Moduli (GPa) = 42.68891 64.44593 69.90794
#
# Poissons Ratio (x) = 0.60270 0.58663
# Poissons Ratio (y) = 0.39923 0.09525
# Poissons Ratio (z) = 0.35822 0.08781
#
# Static dielectric constant tensor:
#      x y z
#    x 3.893670 0.000000 0.000000 
#    y 0.000000 4.242490 0.000000 
#    z 0.000000 0.000000 4.405950 
# 
# 
# High freq. dielectric constant tensor:
#      x y z
#    x 1.881160 0.000000 0.000000 
#    y 0.000000 1.896730 0.000000 
#    z 0.000000 0.000000 1.927260 
# 
# From -- ./inp_files/2724.got.cif
#   From: 2010.03.12/outbox.cif.g09.slc.cpg/sg39_2_cif.got.tgz:2724.got - 2010.04.14 02:53:20.
