data_PCOD8182604
_publ_section_title
;
Structure prediction by ZEFSAII (Michael W. Deem and Ramdas Pophale) SiO2 
 PCOD8182604
Probable space group: A M A 2
;
_chemical_formula_sum "Si O2"
_cell_formula_units_Z 48
_cell_length_a 8.961551
_cell_length_b 17.156108
_cell_length_c 18.119628
_cell_angle_alpha 90.000000
_cell_angle_beta 90.000000
_cell_angle_gamma 90.000000
_cell_volume 2785.808310
_symmetry_space_group_name_H-M "A M A 2"
_symmetry_group_IT_number 40
_symmetry_cell_setting 'orthorhombic'
loop_
_space_group_symop_operation_xyz
x,y,z
-x,-y,z
1/2-x,y,z
1/2+x,-y,z
x,1/2+y,1/2+z
-x,1/2-y,1/2+z
1/2-x,1/2+y,1/2+z
1/2+x,1/2-y,1/2+z
loop_
_atom_site_type_symbol
_atom_site_label
_atom_site_fract_x
_atom_site_fract_y
_atom_site_fract_z
Si Si1 0.074882 0.821160 0.762000
Si Si2 0.080700 0.920182 0.288961
Si Si3 0.424421 0.579413 0.146156
Si Si4 0.574551 0.728613 0.881239
Si Si5 0.419255 0.805515 0.171071
Si Si6 0.581528 0.281447 0.032992
O O1 0.250000 0.836391 0.769009
O O2 0.997266 0.896222 0.724615
O O3 0.007182 0.802409 0.842986
O O4 0.042011 0.747582 0.710056
O O5 0.250000 0.937508 0.308183
O O6 0.021045 0.851490 0.342162
O O7 0.059969 0.893142 0.202920
O O8 0.000000 0.000000 0.305571
O O9 0.500000 0.500000 0.118172
O O10 0.250000 0.566279 0.158292
O O11 0.455915 0.644168 0.083774
O O12 0.750000 0.740460 0.872469
O O13 0.533766 0.724061 0.966812
O O14 0.250000 0.776254 0.192452
O O15 0.437888 0.797350 0.082826
O O16 0.750000 0.287156 0.002009
#
# Coordination Sequence:
#
# PCOD8182604 Si02
#       6
#     8   8   8   8   8   8
#     4  10  18  30  50  72  93 123 165 204 240 286
#     4   9  18  31  47  68  95 126 156 191 235 280
#     4  10  20  34  51  73 102 132 163 200 243 291
#     4  10  20  33  48  69  99 130 161 199 242 287
#     4   8  16  32  49  67  94 125 157 198 243 283
#     4   9  18  32  50  71  96 126 160 198 240 287
#
# _framework density 17.230187999999998
#
# number of rings (size 3 to 8) (size 9 to 14) (size 15 to 20)
#    0.000    2.667    0.000    4.500    0.000    7.333 
#    0.000    3.333    0.000    1.000    0.000    4.667 
#    0.000    0.000    0.000    0.000    0.000    0.000 
#
# Total GULP energy -297432.519593 kJ/mol
# GULP energy per Si atom -12393.021650 kJ/mol
# Density = 1.719097 g / cm^3
# Si number density = 17.230188 Si / 1000 Ang^3
#
#
#
# Elastic Constant Matrix: (Units=GPa)
#
#
# Indices 1 2 3 4 5 6 
#
# 1 84.4765 14.6030 43.7046 0.0000 0.0000 0.0000
# 2 14.6030 14.4496 32.6856 0.0000 0.0000 0.0000
# 3 43.7046 32.6856 106.5750 0.0000 0.0000 0.0000
# 4 0.0000 0.0000 0.0000 16.4635 0.0000 0.0000
# 5 0.0000 0.0000 0.0000 0.0000 30.5081 0.0000
# 6 0.0000 0.0000 0.0000 0.0000 0.0000 26.2003
#
#
#
# Elastic Compliance Matrix: (Units=1/GPa)
#
#
# Indices 1 2 3 4 5 6 
#
# 1 0.015099 -0.004092 -0.004937 0.000000 0.000000 0.000000
# 2 -0.004092 0.227086 -0.067967 0.000000 0.000000 0.000000
# 3 -0.004937 -0.067967 0.032253 0.000000 0.000000 0.000000
# 4 0.000000 0.000000 0.000000 0.060740 0.000000 0.000000
# 5 0.000000 0.000000 0.000000 0.000000 0.032778 0.000000
# 6 0.000000 0.000000 0.000000 0.000000 0.000000 0.038167
#
#
# Mechanical properties :
#
#
# Convention : Reuss Voigt Hill
#
# Bulk Modulus (GPa) = 8.30248 43.05414 25.67831
# Shear Modulus (GPa) = 8.32966 22.26824 15.29895
#
# Velocity S-wave (km/s) = 2.20110 3.59889 2.98302
# Velocity P-wave (km/s) = 3.35988 6.50471 5.17687
#
# Compressibility (1/GPa) = 0.12044590
#
# Stress axis : x y z
#
# Youngs Moduli (GPa) = 66.22901 4.40361 31.00526
#
# Poissons Ratio (x) = 0.01802 0.15307
# Poissons Ratio (y) = 0.27099 2.10734
# Poissons Ratio (z) = 0.32697 0.29930
#
# Static dielectric constant tensor:
#      x y z
#    x 3.168020 0.000000 0.000000 
#    y 0.000000 3.124460 0.000000 
#    z 0.000000 0.000000 3.222890 
# 
# 
# High freq. dielectric constant tensor:
#      x y z
#    x 1.671020 0.000000 0.000000 
#    y 0.000000 1.638030 0.000000 
#    z 0.000000 0.000000 1.654350 
# 
# From -- ./inp_files/15060.got.cif
#   From: 2010.03.12/outbox.cif.g09.slc.cpg/sg40_8_cif.got.tgz:15060.got - 2010.04.14 01:38:03.
