data_PCOD8182589
_publ_section_title
;
Structure prediction by ZEFSAII (Michael W. Deem and Ramdas Pophale) SiO2 
 PCOD8182589
Probable space group: A M A 2
;
_chemical_formula_sum "Si O2"
_cell_formula_units_Z 64
_cell_length_a 9.332532
_cell_length_b 38.241401
_cell_length_c 9.554306
_cell_angle_alpha 90.000000
_cell_angle_beta 90.000000
_cell_angle_gamma 90.000000
_cell_volume 3409.827656
_symmetry_space_group_name_H-M "A M A 2"
_symmetry_group_IT_number 40
_symmetry_cell_setting 'orthorhombic'
loop_
_space_group_symop_operation_xyz
x,y,z
-x,-y,z
1/2-x,y,z
1/2+x,-y,z
x,1/2+y,1/2+z
-x,1/2-y,1/2+z
1/2-x,1/2+y,1/2+z
1/2+x,1/2-y,1/2+z
loop_
_atom_site_type_symbol
_atom_site_label
_atom_site_fract_x
_atom_site_fract_y
_atom_site_fract_z
Si Si1 0.081873 0.077707 0.600080
Si Si2 0.081521 0.535791 0.368208
Si Si3 0.909531 0.968100 0.360260
Si Si4 0.919286 0.281172 0.185607
Si Si5 0.920432 0.344207 0.692835
Si Si6 0.919448 0.277822 0.512699
Si Si7 0.920003 0.347552 0.009166
Si Si8 0.589522 0.917999 0.110840
O O1 0.250000 0.079968 0.568690
O O2 0.047987 0.065947 0.756138
O O3 0.014449 0.115689 0.565062
O O4 0.019839 0.046561 0.502806
O O5 0.250000 0.526755 0.378219
O O6 0.015777 0.553983 0.507258
O O7 0.000000 0.500000 0.335856
O O8 0.750000 0.982768 0.382506
O O9 0.909128 0.934421 0.262956
O O10 0.000000 0.000000 0.298158
O O11 0.750000 0.275133 0.170231
O O12 0.965039 0.279380 0.349146
O O13 0.967730 0.318226 0.120643
O O14 0.999824 0.252755 0.092781
O O15 0.750000 0.347709 0.699244
O O16 0.968720 0.313148 0.590957
O O17 0.985295 0.380000 0.625528
O O18 0.978160 0.338819 0.852147
O O19 0.750000 0.272061 0.527099
O O20 0.750000 0.349453 0.005149
O O21 0.750000 0.912424 0.051551
#
# Coordination Sequence:
#
# PCOD8182589 Si02
#       8
#     8   8   8   8   8   8   8   8
#     4   9  17  29  47  72  98 126 164 209 252 293
#     4  10  20  32  48  70  97 128 162 206 255 302
#     4  10  18  30  48  70  95 126 164 204 249 298
#     4  10  21  35  55  83 111 141 176 214 259 312
#     4   9  16  29  50  76 103 130 167 216 259 295
#     4  10  21  35  55  83 111 141 176 214 259 312
#     4   9  16  29  50  76 103 130 167 216 259 295
#     4   9  17  29  47  72  98 126 164 209 252 293
#
# _framework density 18.769276999999999
#
# number of rings (size 3 to 8) (size 9 to 14) (size 15 to 20)
#    0.000    2.500    1.250    1.500    1.750    1.500 
#    0.000    0.000    0.000    3.000    0.000    0.000 
#    0.000    0.000    0.000    0.000    0.000    0.000 
#
# Total GULP energy -396563.102903 kJ/mol
# GULP energy per Si atom -12392.596966 kJ/mol
# Density = 1.872656 g / cm^3
# Si number density = 18.769277 Si / 1000 Ang^3
#
#
#
# Elastic Constant Matrix: (Units=GPa)
#
#
# Indices 1 2 3 4 5 6 
#
# 1 26.0964 34.4528 24.8437 0.0000 0.0000 0.0000
# 2 34.4528 151.8542 65.8417 0.0000 0.0000 0.0000
# 3 24.8437 65.8417 130.9360 0.0000 0.0000 0.0000
# 4 0.0000 0.0000 0.0000 38.0377 0.0000 0.0000
# 5 0.0000 0.0000 0.0000 0.0000 17.5167 0.0000
# 6 0.0000 0.0000 0.0000 0.0000 0.0000 21.9543
#
#
#
# Elastic Compliance Matrix: (Units=1/GPa)
#
#
# Indices 1 2 3 4 5 6 
#
# 1 0.057732 -0.010677 -0.005585 0.000000 0.000000 0.000000
# 2 -0.010677 0.010396 -0.003202 0.000000 0.000000 0.000000
# 3 -0.005585 -0.003202 0.010307 0.000000 0.000000 0.000000
# 4 0.000000 0.000000 0.000000 0.026290 0.000000 0.000000
# 5 0.000000 0.000000 0.000000 0.000000 0.057088 0.000000
# 6 0.000000 0.000000 0.000000 0.000000 0.000000 0.045549
#
#
# Mechanical properties :
#
#
# Convention : Reuss Voigt Hill
#
# Bulk Modulus (GPa) = 25.31156 62.12921 43.72038
# Shear Modulus (GPa) = 19.27089 27.75165 23.51127
#
# Velocity S-wave (km/s) = 3.20773 3.84939 3.54311
# Velocity P-wave (km/s) = 5.21865 7.27533 6.33106
#
# Compressibility (1/GPa) = 0.03950764
#
# Stress axis : x y z
#
# Youngs Moduli (GPa) = 17.32141 96.19230 97.02049
#
# Poissons Ratio (x) = 1.02701 0.54188
# Poissons Ratio (y) = 0.18493 0.31064
# Poissons Ratio (z) = 0.09674 0.30799
#
# Static dielectric constant tensor:
#      x y z
#    x 2.873870 0.000000 0.000000 
#    y 0.000000 3.621450 0.000000 
#    z 0.000000 0.000000 3.623750 
# 
# 
# High freq. dielectric constant tensor:
#      x y z
#    x 1.657710 0.000000 0.000000 
#    y 0.000000 1.745130 0.000000 
#    z 0.000000 0.000000 1.746750 
# 
# From -- ./inp_files/5712.got.cif
#   From: 2010.03.12/outbox.cif.g09.slc.cpg/sg40_3_cif.got.tgz:5712.got - 2010.04.14 01:38:03.
