data_PCOD8182464
_publ_section_title
;
Structure prediction by ZEFSAII (Michael W. Deem and Ramdas Pophale) SiO2 
 PCOD8182464
Probable space group: A M A 2
;
_chemical_formula_sum "Si O2"
_cell_formula_units_Z 56
_cell_length_a 8.776036
_cell_length_b 22.128204
_cell_length_c 17.503392
_cell_angle_alpha 90.000000
_cell_angle_beta 90.000000
_cell_angle_gamma 90.000000
_cell_volume 3399.122230
_symmetry_space_group_name_H-M "A M A 2"
_symmetry_group_IT_number 40
_symmetry_cell_setting 'orthorhombic'
loop_
_space_group_symop_operation_xyz
x,y,z
-x,-y,z
1/2-x,y,z
1/2+x,-y,z
x,1/2+y,1/2+z
-x,1/2-y,1/2+z
1/2-x,1/2+y,1/2+z
1/2+x,1/2-y,1/2+z
loop_
_atom_site_type_symbol
_atom_site_label
_atom_site_fract_x
_atom_site_fract_y
_atom_site_fract_z
Si Si1 0.929228 0.774118 0.137770
Si Si2 0.421435 0.816049 0.991436
Si Si3 0.919064 0.820820 0.435796
Si Si4 0.569954 0.564797 0.221142
Si Si5 0.577280 0.213088 0.291614
Si Si6 0.430803 0.646842 0.098888
Si Si7 0.074937 0.649743 0.343778
O O1 0.750000 0.768134 0.127416
O O2 0.970454 0.802647 0.219839
O O3 0.002453 0.707931 0.134335
O O4 0.994482 0.818843 0.073005
O O5 0.250000 0.841528 0.999612
O O6 0.417687 0.747592 0.963981
O O7 0.514302 0.856145 0.930461
O O8 0.750000 0.840282 0.410036
O O9 0.973110 0.860267 0.508936
O O10 0.030062 0.829005 0.363553
O O11 0.500000 0.500000 0.238199
O O12 0.750000 0.560306 0.213146
O O13 0.500839 0.589775 0.142136
O O14 0.528120 0.607740 0.291324
O O15 0.750000 0.197929 0.269745
O O16 0.556245 0.282440 0.314353
O O17 0.250000 0.649356 0.111132
O O18 0.250000 0.628562 0.340465
#
# Coordination Sequence:
#
# PCOD8182464 Si02
#       7
#     8   8   8   8   8   8   8
#     4  11  19  27  43  66  93 124 158 189 229 278
#     4   9  17  29  44  63  89 119 154 189 229 276
#     4   8  16  28  43  62  87 117 150 186 226 275
#     4  12  24  36  51  69  91 122 161 201 239 278
#     4  10  18  27  43  65  93 123 154 189 227 274
#     4  10  19  33  48  64  89 119 154 195 237 278
#     4  10  19  32  48  65  90 120 155 194 235 278
#
# _framework density 16.474841999999999
#
# number of rings (size 3 to 8) (size 9 to 14) (size 15 to 20)
#    0.000    2.000    1.429    5.143    0.000    5.143 
#    0.000    0.000    0.000    0.000    0.000    0.000 
#    0.000    1.143    0.000    8.000    0.000    6.286 
#
# Total GULP energy -347184.731519 kJ/mol
# GULP energy per Si atom -12399.454697 kJ/mol
# Density = 1.643734 g / cm^3
# Si number density = 16.474842 Si / 1000 Ang^3
#
#
#
# Elastic Constant Matrix: (Units=GPa)
#
#
# Indices 1 2 3 4 5 6 
#
# 1 117.9095 15.8369 52.8877 0.0000 0.0000 0.0000
# 2 15.8369 24.7285 18.7722 0.0000 0.0000 0.0000
# 3 52.8877 18.7722 115.4528 0.0000 0.0000 0.0000
# 4 0.0000 0.0000 0.0000 18.1759 0.0000 0.0000
# 5 0.0000 0.0000 0.0000 0.0000 33.5140 0.0000
# 6 0.0000 0.0000 0.0000 0.0000 0.0000 18.0405
#
#
#
# Elastic Compliance Matrix: (Units=1/GPa)
#
#
# Indices 1 2 3 4 5 6 
#
# 1 0.010957 -0.003658 -0.004424 0.000000 0.000000 0.000000
# 2 -0.003658 0.047355 -0.006024 0.000000 0.000000 0.000000
# 3 -0.004424 -0.006024 0.011668 0.000000 0.000000 0.000000
# 4 0.000000 0.000000 0.000000 0.055018 0.000000 0.000000
# 5 0.000000 0.000000 0.000000 0.000000 0.029838 0.000000
# 6 0.000000 0.000000 0.000000 0.000000 0.000000 0.055431
#
#
# Mechanical properties :
#
#
# Convention : Reuss Voigt Hill
#
# Bulk Modulus (GPa) = 23.94270 48.12049 36.03159
# Shear Modulus (GPa) = 19.80963 25.31903 22.56433
#
# Velocity S-wave (km/s) = 3.47135 3.92450 3.70486
# Velocity P-wave (km/s) = 5.53457 7.05744 6.34188
#
# Compressibility (1/GPa) = 0.04176639
#
# Stress axis : x y z
#
# Youngs Moduli (GPa) = 91.26560 21.11703 85.70591
#
# Poissons Ratio (x) = 0.07726 0.37920
# Poissons Ratio (y) = 0.33389 0.51628
# Poissons Ratio (z) = 0.40380 0.12721
#
# Static dielectric constant tensor:
#      x y z
#    x 3.261150 0.000000 0.000000 
#    y 0.000000 2.582700 0.000000 
#    z 0.000000 0.000000 3.441750 
# 
# 
# High freq. dielectric constant tensor:
#      x y z
#    x 1.652880 0.000000 0.000000 
#    y 0.000000 1.556810 0.000000 
#    z 0.000000 0.000000 1.650540 
# 
# From -- ./inp_files/19479.got.cif
#   From: 2010.03.12/outbox.cif.g09.slc.cpg/sg40_10_cif.got.tgz:19479.got - 2010.04.14 01:38:03.
