data_PCOD8182869
_publ_section_title
;
Structure prediction by ZEFSAII (Michael W. Deem and Ramdas Pophale) SiO2 
 PCOD8182869
Probable space group: A M A 2
;
_chemical_formula_sum "Si O2"
_cell_formula_units_Z 64
_cell_length_a 8.844819
_cell_length_b 18.164875
_cell_length_c 26.597716
_cell_angle_alpha 90.000000
_cell_angle_beta 90.000000
_cell_angle_gamma 90.000000
_cell_volume 4273.322880
_symmetry_space_group_name_H-M "A M A 2"
_symmetry_group_IT_number 40
_symmetry_cell_setting 'orthorhombic'
loop_
_space_group_symop_operation_xyz
x,y,z
-x,-y,z
1/2-x,y,z
1/2+x,-y,z
x,1/2+y,1/2+z
-x,1/2-y,1/2+z
1/2-x,1/2+y,1/2+z
1/2+x,1/2-y,1/2+z
loop_
_atom_site_type_symbol
_atom_site_label
_atom_site_fract_x
_atom_site_fract_y
_atom_site_fract_z
Si Si1 0.570447 0.839466 0.514750
Si Si2 0.572489 0.421685 0.626372
Si Si3 0.070694 0.422180 0.926786
Si Si4 0.428193 0.922080 0.607954
Si Si5 0.573665 0.075552 0.313343
Si Si6 0.927993 0.162219 0.217827
Si Si7 0.416830 0.197523 0.665723
Si Si8 0.916469 0.699189 0.569538
O O1 0.750000 0.851536 0.515906
O O2 0.501219 0.858612 0.460785
O O3 0.497862 0.892563 0.556297
O O4 0.528781 0.753449 0.524677
O O5 0.500000 0.500000 0.615078
O O6 0.750000 0.430631 0.629274
O O7 0.514561 0.390226 0.679172
O O8 0.530990 0.367678 0.579751
O O9 0.250000 0.425315 0.934177
O O10 0.022503 0.402812 0.869616
O O11 0.000000 0.500000 0.943164
O O12 0.250000 0.929018 0.601786
O O13 0.466429 0.868261 0.654959
O O14 0.500000 0.000000 0.621143
O O15 0.750000 0.061138 0.312452
O O16 0.526852 0.139825 0.274565
O O17 0.500000 0.000000 0.295052
O O18 0.750000 0.151745 0.207446
O O19 0.972580 0.248667 0.210975
O O20 0.250000 0.164326 0.677213
O O21 0.405602 0.249786 0.617954
O O22 0.750000 0.666540 0.557571
#
# Coordination Sequence:
#
# PCOD8182869 Si02
#       8
#     8   8   8   8   8   8   8   8
#     4  10  19  31  45  60  81 109 139 170 208 247
#     4  11  20  28  41  61  85 111 140 171 203 241
#     4  10  19  30  43  60  83 109 141 176 207 240
#     4  11  20  29  42  60  83 109 139 171 203 242
#     4   9  18  30  43  60  82 110 141 174 207 238
#     4   9  17  30  45  60  82 111 141 171 206 244
#     4   8  15  28  43  59  81 107 134 167 205 243
#     4   8  16  30  44  58  79 106 135 168 204 243
#
# _framework density 14.976635
#
# number of rings (size 3 to 8) (size 9 to 14) (size 15 to 20)
#    0.000    2.500    0.000    5.250    0.000    7.000 
#    0.000    0.000    0.000    0.000    0.000    0.000 
#    0.000    1.000    0.000    8.750    0.000    3.125 
#
# Total GULP energy -396656.637515 kJ/mol
# GULP energy per Si atom -12395.519922 kJ/mol
# Density = 1.494255 g / cm^3
# Si number density = 14.976635 Si / 1000 Ang^3
#
#
#
# Elastic Constant Matrix: (Units=GPa)
#
#
# Indices 1 2 3 4 5 6 
#
# 1 86.6457 48.8052 33.5829 0.0000 0.0000 0.0000
# 2 48.8052 95.8445 51.9942 0.0000 0.0000 0.0000
# 3 33.5829 51.9942 80.3873 0.0000 0.0000 0.0000
# 4 0.0000 0.0000 0.0000 26.7659 0.0000 0.0000
# 5 0.0000 0.0000 0.0000 0.0000 3.5473 0.0000
# 6 0.0000 0.0000 0.0000 0.0000 0.0000 24.5556
#
#
#
# Elastic Compliance Matrix: (Units=1/GPa)
#
#
# Indices 1 2 3 4 5 6 
#
# 1 0.016440 -0.007157 -0.002239 0.000000 0.000000 0.000000
# 2 -0.007157 0.019189 -0.009421 0.000000 0.000000 0.000000
# 3 -0.002239 -0.009421 0.019469 0.000000 0.000000 0.000000
# 4 0.000000 0.000000 0.000000 0.037361 0.000000 0.000000
# 5 0.000000 0.000000 0.000000 0.000000 0.281903 0.000000
# 6 0.000000 0.000000 0.000000 0.000000 0.000000 0.040724
#
#
# Mechanical properties :
#
#
# Convention : Reuss Voigt Hill
#
# Bulk Modulus (GPa) = 57.26293 59.07135 58.16714
# Shear Modulus (GPa) = 10.90412 19.54011 15.22211
#
# Velocity S-wave (km/s) = 2.70121 3.61599 3.19155
# Velocity P-wave (km/s) = 6.93157 7.54730 7.24598
#
# Compressibility (1/GPa) = 0.01746331
#
# Stress axis : x y z
#
# Youngs Moduli (GPa) = 60.82552 52.11326 51.36389
#
# Poissons Ratio (x) = 0.37298 0.11501
# Poissons Ratio (y) = 0.43533 0.48392
# Poissons Ratio (z) = 0.13620 0.49098
#
# Static dielectric constant tensor:
#      x y z
#    x 2.943320 0.000000 0.000000 
#    y 0.000000 3.045960 0.000000 
#    z 0.000000 0.000000 3.003280 
# 
# 
# High freq. dielectric constant tensor:
#      x y z
#    x 1.582030 0.000000 0.000000 
#    y 0.000000 1.561170 0.000000 
#    z 0.000000 0.000000 1.542330 
# 
# From -- ./inp_files/25542.got.cif
#   From: 2010.03.12/outbox.cif.g09.slc.cpg/sg40_13_cif.got.tgz:25542.got - 2010.04.14 01:38:03.
