data_PCOD8182206
_publ_section_title
;
Structure prediction by ZEFSAII (Michael W. Deem and Ramdas Pophale) SiO2 
 PCOD8182206
Probable space group: A B M 2
;
_chemical_formula_sum "Si O2"
_cell_formula_units_Z 40
_cell_length_a 8.801574
_cell_length_b 19.263144
_cell_length_c 10.283018
_cell_angle_alpha 90.000000
_cell_angle_beta 90.000000
_cell_angle_gamma 90.000000
_cell_volume 1743.444440
_symmetry_space_group_name_H-M "A B M 2"
_symmetry_group_IT_number 39
_symmetry_cell_setting 'orthorhombic'
loop_
_space_group_symop_operation_xyz
x,y,z
-x,-y,z
-x,1/2+y,z
x,1/2-y,z
x,1/2+y,1/2+z
-x,1/2-y,1/2+z
-x,y,1/2+z
x,-y,1/2+z
loop_
_atom_site_type_symbol
_atom_site_label
_atom_site_fract_x
_atom_site_fract_y
_atom_site_fract_z
Si Si1 0.203073 0.674981 0.844390
Si Si2 0.306443 0.585053 0.068325
Si Si3 0.831238 0.942876 0.024058
Si Si4 0.049815 0.090860 0.754008
Si Si5 0.386696 0.170214 0.093516
O O1 0.201911 0.750000 0.912585
O O2 0.343808 0.671519 0.745011
O O3 0.039478 0.663019 0.777050
O O4 0.216008 0.614213 0.946370
O O5 0.300414 0.501601 0.046625
O O6 0.216143 0.606886 0.197709
O O7 0.469305 0.620607 0.075113
O O8 0.750691 0.867213 0.016845
O O9 0.946120 0.950549 0.147203
O O10 0.923864 0.951726 0.889038
O O11 0.412173 0.250000 0.043189
#
# Coordination Sequence:
#
# PCOD8182206 Si02
#       5
#     8   8   8   8   8
#     4  10  24  45  68 101 144 187 240 291 347 421
#     4  12  25  42  75 101 144 185 238 290 359 414
#     4  11  26  45  74 107 142 184 236 294 352 426
#     4  11  25  44  71 102 142 184 234 295 353 412
#     4  10  25  49  70 102 144 187 234 292 353 426
#
# _framework density 22.943089000000001
#
# number of rings (size 3 to 8) (size 9 to 14) (size 15 to 20)
#    0.000    1.200    2.000    1.800   11.200    2.400 
#    0.000    0.000    0.000    0.000    0.000    0.000 
#    0.000    0.000    0.000    0.000    0.000    0.000 
#
# Total GULP energy -247789.880715 kJ/mol
# GULP energy per Si atom -12389.494036 kJ/mol
# Density = 2.289087 g / cm^3
# Si number density = 22.943089 Si / 1000 Ang^3
#
#
#
# Elastic Constant Matrix: (Units=GPa)
#
#
# Indices 1 2 3 4 5 6 
#
# 1 113.1747 54.0556 37.9285 0.0000 0.0000 0.0000
# 2 54.0556 136.2361 51.3620 0.0000 0.0000 0.0000
# 3 37.9285 51.3620 132.7668 0.0000 0.0000 0.0000
# 4 0.0000 0.0000 0.0000 60.1463 0.0000 0.0000
# 5 0.0000 0.0000 0.0000 0.0000 27.2456 0.0000
# 6 0.0000 0.0000 0.0000 0.0000 0.0000 32.0737
#
#
#
# Elastic Compliance Matrix: (Units=1/GPa)
#
#
# Indices 1 2 3 4 5 6 
#
# 1 0.011235 -0.003802 -0.001739 0.000000 0.000000 0.000000
# 2 -0.003802 0.009880 -0.002736 0.000000 0.000000 0.000000
# 3 -0.001739 -0.002736 0.009087 0.000000 0.000000 0.000000
# 4 0.000000 0.000000 0.000000 0.016626 0.000000 0.000000
# 5 0.000000 0.000000 0.000000 0.000000 0.036703 0.000000
# 6 0.000000 0.000000 0.000000 0.000000 0.000000 0.031178
#
#
# Mechanical properties :
#
#
# Convention : Reuss Voigt Hill
#
# Bulk Modulus (GPa) = 73.26870 74.31885 73.79377
# Shear Modulus (GPa) = 36.81537 39.81520 38.31529
#
# Velocity S-wave (km/s) = 4.01014 4.17032 4.09101
# Velocity P-wave (km/s) = 7.31067 7.46001 7.38572
#
# Compressibility (1/GPa) = 0.01364839
#
# Stress axis : x y z
#
# Youngs Moduli (GPa) = 89.01088 101.21090 110.04547
#
# Poissons Ratio (x) = 0.38482 0.19132
# Poissons Ratio (y) = 0.33844 0.30110
# Poissons Ratio (z) = 0.15475 0.27692
#
# Static dielectric constant tensor:
#      x y z
#    x 4.058010 0.000000 0.000000 
#    y 0.000000 4.168920 0.000000 
#    z 0.000000 0.000000 4.206620 
# 
# 
# High freq. dielectric constant tensor:
#      x y z
#    x 1.905330 0.000000 0.000000 
#    y 0.000000 1.916150 0.000000 
#    z 0.000000 0.000000 1.901220 
# 
# From -- ./inp_files/4930.got.cif
#   From: 2010.03.12/outbox.cif.g09.slc.cpg/sg39_3_cif.got.tgz:4930.got - 2010.04.14 02:53:20.
