data_PCOD8182100
_publ_section_title
;
Structure prediction by ZEFSAII (Michael W. Deem and Ramdas Pophale) SiO2 
 PCOD8182100
Probable space group: A B M 2
;
_chemical_formula_sum "Si O2"
_cell_formula_units_Z 48
_cell_length_a 25.779799
_cell_length_b 8.166490
_cell_length_c 10.147521
_cell_angle_alpha 90.000000
_cell_angle_beta 90.000000
_cell_angle_gamma 90.000000
_cell_volume 2136.362373
_symmetry_space_group_name_H-M "A B M 2"
_symmetry_group_IT_number 39
_symmetry_cell_setting 'orthorhombic'
loop_
_space_group_symop_operation_xyz
x,y,z
-x,-y,z
-x,1/2+y,z
x,1/2-y,z
x,1/2+y,1/2+z
-x,1/2-y,1/2+z
-x,y,1/2+z
x,-y,1/2+z
loop_
_atom_site_type_symbol
_atom_site_label
_atom_site_fract_x
_atom_site_fract_y
_atom_site_fract_z
Si Si1 0.793063 0.437895 0.986530
Si Si2 0.021912 0.250000 0.022421
Si Si3 0.058610 0.250000 0.300540
Si Si4 0.268355 0.942220 0.730191
Si Si5 0.442407 0.556739 0.431550
Si Si6 0.617143 0.442407 0.683083
Si Si7 0.104181 0.571474 0.382092
O O1 0.809711 0.250000 0.972984
O O2 0.749709 0.483756 0.877943
O O3 0.843920 0.546669 0.966324
O O4 0.770619 0.469835 0.130632
O O5 0.015870 0.250000 0.182275
O O6 0.055300 0.088201 0.982448
O O7 0.967856 0.250000 0.944363
O O8 0.093923 0.414704 0.287363
O O9 0.267337 0.750000 0.700697
O O10 0.326076 0.017417 0.712845
O O11 0.500000 0.500000 0.464263
O O12 0.440497 0.750000 0.426463
O O13 0.404348 0.487440 0.545198
O O14 0.424329 0.485799 0.293573
O O15 0.622536 0.250000 0.675246
O O16 0.109132 0.750000 0.306449
#
# Coordination Sequence:
#
# PCOD8182100 Si02
#       7
#     8   4   4   8   8   8   8
#     4  11  23  41  65  96 131 174 222 272 330 396
#     4  10  28  46  76 102 138 180 224 278 337 402
#     4  12  24  54  70 104 140 174 228 276 335 406
#     4  10  23  41  65  93 131 168 217 276 330 395
#     4  11  23  38  61  90 124 166 215 265 323 394
#     4  10  22  41  62  91 127 167 213 272 330 385
#     4  10  25  44  69 103 134 180 218 280 332 399
#
# _framework density 22.468098000000001
#
# number of rings (size 3 to 8) (size 9 to 14) (size 15 to 20)
#    0.500    1.000    0.833    3.000    2.333    7.333 
#    1.500    0.000    0.000    0.000    0.000    0.000 
#    0.000    0.000    0.000    0.000    0.000    0.000 
#
# Total GULP energy -297554.359644 kJ/mol
# GULP energy per Si atom -12398.098318 kJ/mol
# Density = 2.241696 g / cm^3
# Si number density = 22.468098 Si / 1000 Ang^3
#
#
#
# Elastic Constant Matrix: (Units=GPa)
#
#
# Indices 1 2 3 4 5 6 
#
# 1 79.8224 15.5466 -12.8100 0.0000 0.0000 0.0000
# 2 15.5466 78.3751 16.4256 0.0000 0.0000 0.0000
# 3 -12.8100 16.4256 78.0007 0.0000 0.0000 0.0000
# 4 0.0000 0.0000 0.0000 21.9483 0.0000 0.0000
# 5 0.0000 0.0000 0.0000 0.0000 37.5095 0.0000
# 6 0.0000 0.0000 0.0000 0.0000 0.0000 27.9031
#
#
#
# Elastic Compliance Matrix: (Units=1/GPa)
#
#
# Indices 1 2 3 4 5 6 
#
# 1 0.013647 -0.003323 0.002941 0.000000 0.000000 0.000000
# 2 -0.003323 0.014158 -0.003527 0.000000 0.000000 0.000000
# 3 0.002941 -0.003527 0.014046 0.000000 0.000000 0.000000
# 4 0.000000 0.000000 0.000000 0.045562 0.000000 0.000000
# 5 0.000000 0.000000 0.000000 0.000000 0.026660 0.000000
# 6 0.000000 0.000000 0.000000 0.000000 0.000000 0.035838
#
#
# Mechanical properties :
#
#
# Convention : Reuss Voigt Hill
#
# Bulk Modulus (GPa) = 29.38421 30.50252 29.94337
# Shear Modulus (GPa) = 29.57289 31.94123 30.75706
#
# Velocity S-wave (km/s) = 3.63191 3.77454 3.70391
# Velocity P-wave (km/s) = 5.54024 5.70978 5.62565
#
# Compressibility (1/GPa) = 0.03403188
#
# Stress axis : x y z
#
# Youngs Moduli (GPa) = 73.27570 70.63341 71.19376
#
# Poissons Ratio (x) = 0.23475 -0.20939
# Poissons Ratio (y) = 0.24353 0.25111
# Poissons Ratio (z) = -0.21551 0.24914
#
# Static dielectric constant tensor:
#      x y z
#    x 4.124050 0.000000 0.000000 
#    y 0.000000 4.006060 0.000000 
#    z 0.000000 0.000000 3.884330 
# 
# 
# High freq. dielectric constant tensor:
#      x y z
#    x 1.893830 0.000000 0.000000 
#    y 0.000000 1.885670 0.000000 
#    z 0.000000 0.000000 1.873680 
# 
# From -- ./inp_files/4148.got.cif
#   From: 2010.03.12/outbox.cif.g09.slc.cpg/sg39_3_cif.got.tgz:4148.got - 2010.04.14 02:53:20.
