data_PCOD8182543
_publ_section_title
;
Structure prediction by ZEFSAII (Michael W. Deem and Ramdas Pophale) SiO2 
 PCOD8182543
Probable space group: A M A 2
;
_chemical_formula_sum "Si O2"
_cell_formula_units_Z 56
_cell_length_a 8.714052
_cell_length_b 18.468091
_cell_length_c 21.027855
_cell_angle_alpha 90.000000
_cell_angle_beta 90.000000
_cell_angle_gamma 90.000000
_cell_volume 3384.052770
_symmetry_space_group_name_H-M "A M A 2"
_symmetry_group_IT_number 40
_symmetry_cell_setting 'orthorhombic'
loop_
_space_group_symop_operation_xyz
x,y,z
-x,-y,z
1/2-x,y,z
1/2+x,-y,z
x,1/2+y,1/2+z
-x,1/2-y,1/2+z
1/2-x,1/2+y,1/2+z
1/2+x,1/2-y,1/2+z
loop_
_atom_site_type_symbol
_atom_site_label
_atom_site_fract_x
_atom_site_fract_y
_atom_site_fract_z
Si Si1 0.426611 0.720611 0.360780
Si Si2 0.072410 0.354932 0.932216
Si Si3 0.425555 0.575369 0.307632
Si Si4 0.567667 0.577814 0.800223
Si Si5 0.568261 0.342549 0.180920
Si Si6 0.567514 0.579061 0.061394
Si Si7 0.571044 0.288833 0.742434
O O1 0.250000 0.734475 0.336766
O O2 0.454168 0.767177 0.425318
O O3 0.452621 0.633742 0.365373
O O4 0.545755 0.750630 0.309952
O O5 0.250000 0.372843 0.937175
O O6 0.007676 0.395888 0.869792
O O7 0.997087 0.385255 0.996784
O O8 0.500000 0.500000 0.326861
O O9 0.250000 0.557180 0.298342
O O10 0.487033 0.609272 0.241431
O O11 0.500000 0.500000 0.785142
O O12 0.750000 0.576575 0.797181
O O13 0.503575 0.631344 0.745642
O O14 0.750000 0.345267 0.172532
O O15 0.485439 0.371930 0.119140
O O16 0.513330 0.259611 0.189079
O O17 0.500000 0.500000 0.069898
O O18 0.750000 0.574879 0.060738
O O19 0.750000 0.294722 0.726497
#
# Coordination Sequence:
#
# PCOD8182543 Si02
#       7
#     8   8   8   8   8   8   8
#     4   8  15  30  46  62  87 121 153 185 227 275
#     4   8  16  30  47  64  89 123 158 191 226 268
#     4   9  17  27  43  64  88 115 145 180 224 269
#     4  10  18  30  47  69  96 125 154 189 230 274
#     4  10  20  34  47  62  88 124 157 189 227 271
#     4  11  21  32  46  67  92 122 157 192 226 268
#     4  10  18  29  46  68  90 116 150 190 232 277
#
# _framework density 16.548206
#
# number of rings (size 3 to 8) (size 9 to 14) (size 15 to 20)
#    0.000    2.571    0.000    5.143    0.000    4.000 
#    0.000    6.429    0.000    0.000    0.000    1.000 
#    0.000    4.571    0.000    0.000    0.000    0.000 
#
# Total GULP energy -346950.383665 kJ/mol
# GULP energy per Si atom -12391.085131 kJ/mol
# Density = 1.651054 g / cm^3
# Si number density = 16.548206 Si / 1000 Ang^3
#
#
#
# Elastic Constant Matrix: (Units=GPa)
#
#
# Indices 1 2 3 4 5 6 
#
# 1 59.3313 35.4413 17.9979 0.0000 0.0000 0.0000
# 2 35.4413 153.3197 52.9491 0.0000 0.0000 0.0000
# 3 17.9979 52.9491 64.2099 0.0000 0.0000 0.0000
# 4 0.0000 0.0000 0.0000 48.6140 0.0000 0.0000
# 5 0.0000 0.0000 0.0000 0.0000 12.0493 0.0000
# 6 0.0000 0.0000 0.0000 0.0000 0.0000 29.2762
#
#
#
# Elastic Compliance Matrix: (Units=1/GPa)
#
#
# Indices 1 2 3 4 5 6 
#
# 1 0.019835 -0.003726 -0.002487 0.000000 0.000000 0.000000
# 2 -0.003726 0.009819 -0.007053 0.000000 0.000000 0.000000
# 3 -0.002487 -0.007053 0.022087 0.000000 0.000000 0.000000
# 4 0.000000 0.000000 0.000000 0.020570 0.000000 0.000000
# 5 0.000000 0.000000 0.000000 0.000000 0.082992 0.000000
# 6 0.000000 0.000000 0.000000 0.000000 0.000000 0.034157
#
#
# Mechanical properties :
#
#
# Convention : Reuss Voigt Hill
#
# Bulk Modulus (GPa) = 39.66817 54.40417 47.03617
# Shear Modulus (GPa) = 22.28204 29.35274 25.81739
#
# Velocity S-wave (km/s) = 3.67344 4.21619 3.95414
# Velocity P-wave (km/s) = 6.48194 7.52656 7.02370
#
# Compressibility (1/GPa) = 0.02520913
#
# Stress axis : x y z
#
# Youngs Moduli (GPa) = 50.41671 101.83967 45.27550
#
# Poissons Ratio (x) = 0.37946 0.11260
# Poissons Ratio (y) = 0.18786 0.31932
# Poissons Ratio (z) = 0.12539 0.71826
#
# Static dielectric constant tensor:
#      x y z
#    x 3.014730 0.000000 0.000000 
#    y 0.000000 3.352030 0.000000 
#    z 0.000000 0.000000 3.006490 
# 
# 
# High freq. dielectric constant tensor:
#      x y z
#    x 1.634570 0.000000 0.000000 
#    y 0.000000 1.646710 0.000000 
#    z 0.000000 0.000000 1.592200 
# 
# From -- ./inp_files/22146.got.cif
#   From: 2010.03.12/outbox.cif.g09.slc.cpg/sg40_12_cif.got.tgz:22146.got - 2010.04.14 01:38:03.
