data_PCOD8182878
_publ_section_title
;
Structure prediction by ZEFSAII (Michael W. Deem and Ramdas Pophale) SiO2 
 PCOD8182878
Probable space group: A M A 2
;
_chemical_formula_sum "Si O2"
_cell_formula_units_Z 56
_cell_length_a 8.690236
_cell_length_b 13.620951
_cell_length_c 29.153391
_cell_angle_alpha 90.000000
_cell_angle_beta 90.000000
_cell_angle_gamma 90.000000
_cell_volume 3450.865865
_symmetry_space_group_name_H-M "A M A 2"
_symmetry_group_IT_number 40
_symmetry_cell_setting 'orthorhombic'
loop_
_space_group_symop_operation_xyz
x,y,z
-x,-y,z
1/2-x,y,z
1/2+x,-y,z
x,1/2+y,1/2+z
-x,1/2-y,1/2+z
1/2-x,1/2+y,1/2+z
1/2+x,1/2-y,1/2+z
loop_
_atom_site_type_symbol
_atom_site_label
_atom_site_fract_x
_atom_site_fract_y
_atom_site_fract_z
Si Si1 0.067777 0.103280 0.213150
Si Si2 0.567869 0.701328 0.800574
Si Si3 0.428841 0.392223 0.080980
Si Si4 0.927802 0.105621 0.479669
Si Si5 0.931691 0.783291 0.663861
Si Si6 0.429152 0.602727 0.252174
Si Si7 0.931649 0.390928 0.888765
O O1 0.250000 0.098516 0.216105
O O2 0.001102 0.127526 0.263234
O O3 0.016683 0.182148 0.175295
O O4 0.000000 0.000000 0.196706
O O5 0.750000 0.686442 0.801048
O O6 0.521511 0.812926 0.788034
O O7 0.497302 0.679360 0.849823
O O8 0.500000 0.500000 0.085279
O O9 0.250000 0.399658 0.094499
O O10 0.517310 0.318020 0.113961
O O11 0.448006 0.345156 0.029808
O O12 0.750000 0.097098 0.465718
O O13 0.017631 0.157981 0.437637
O O14 0.000000 0.000000 0.485511
O O15 0.750000 0.764661 0.665923
O O16 0.982129 0.865283 0.701153
O O17 0.500000 0.500000 0.267244
O O18 0.250000 0.587148 0.253016
O O19 0.750000 0.396435 0.884901
O O20 0.000000 0.500000 0.883938
#
# Coordination Sequence:
#
# PCOD8182878 Si02
#       7
#     8   8   8   8   8   8   8
#     4  11  21  34  50  69  94 123 156 194 233 274
#     4  10  20  34  48  67  94 124 157 190 229 275
#     4  10  19  30  46  69  96 127 159 192 232 277
#     4   9  17  29  44  64  92 123 154 189 230 276
#     4  10  20  33  48  69  95 125 159 192 230 275
#     4   9  19  32  47  66  91 121 152 188 226 266
#     4  11  20  30  46  68  93 123 156 191 232 277
#
# _framework density 16.227810999999999
#
# number of rings (size 3 to 8) (size 9 to 14) (size 15 to 20)
#    0.000    2.000    0.000    6.857    0.000    6.286 
#    0.000    0.000    0.000    0.000    0.000    1.000 
#    0.000    4.571    0.000    0.000    0.000    0.000 
#
# Total GULP energy -347138.039770 kJ/mol
# GULP energy per Si atom -12397.787135 kJ/mol
# Density = 1.619088 g / cm^3
# Si number density = 16.227811 Si / 1000 Ang^3
#
#
#
# Elastic Constant Matrix: (Units=GPa)
#
#
# Indices 1 2 3 4 5 6 
#
# 1 109.3433 37.4754 45.3409 0.0000 0.0000 0.0000
# 2 37.4754 86.8291 46.4433 0.0000 0.0000 0.0000
# 3 45.3409 46.4433 120.8477 0.0000 0.0000 0.0000
# 4 0.0000 0.0000 0.0000 21.7573 0.0000 0.0000
# 5 0.0000 0.0000 0.0000 0.0000 29.9264 0.0000
# 6 0.0000 0.0000 0.0000 0.0000 0.0000 26.6098
#
#
#
# Elastic Compliance Matrix: (Units=1/GPa)
#
#
# Indices 1 2 3 4 5 6 
#
# 1 0.011560 -0.003360 -0.003046 0.000000 0.000000 0.000000
# 2 -0.003360 0.015474 -0.004686 0.000000 0.000000 0.000000
# 3 -0.003046 -0.004686 0.011219 0.000000 0.000000 0.000000
# 4 0.000000 0.000000 0.000000 0.045962 0.000000 0.000000
# 5 0.000000 0.000000 0.000000 0.000000 0.033415 0.000000
# 6 0.000000 0.000000 0.000000 0.000000 0.000000 0.037580
#
#
# Mechanical properties :
#
#
# Convention : Reuss Voigt Hill
#
# Bulk Modulus (GPa) = 62.23483 63.94883 63.09183
# Shear Modulus (GPa) = 27.35983 28.17604 27.76793
#
# Velocity S-wave (km/s) = 4.11053 4.17139 4.14107
# Velocity P-wave (km/s) = 7.80785 7.91790 7.86307
#
# Compressibility (1/GPa) = 0.01606817
#
# Stress axis : x y z
#
# Youngs Moduli (GPa) = 86.50383 64.62631 89.13798
#
# Poissons Ratio (x) = 0.21716 0.27151
# Poissons Ratio (y) = 0.29067 0.41770
# Poissons Ratio (z) = 0.26348 0.30284
#
# Static dielectric constant tensor:
#      x y z
#    x 3.196280 0.000000 0.000000 
#    y 0.000000 2.794720 0.000000 
#    z 0.000000 0.000000 3.433600 
# 
# 
# High freq. dielectric constant tensor:
#      x y z
#    x 1.644970 0.000000 0.000000 
#    y 0.000000 1.589400 0.000000 
#    z 0.000000 0.000000 1.625870 
# 
# From -- ./inp_files/26421.got.cif
#   From: 2010.03.12/outbox.cif.g09.slc.cpg/sg40_14_cif.got.tgz:26421.got - 2010.04.14 01:38:03.
