data_PCOD8182350
_publ_section_title
;
Structure prediction by ZEFSAII (Michael W. Deem and Ramdas Pophale) SiO2 
 PCOD8182350
Probable space group: A M A 2
;
_chemical_formula_sum "Si O2"
_cell_formula_units_Z 56
_cell_length_a 8.643663
_cell_length_b 22.451574
_cell_length_c 17.886171
_cell_angle_alpha 90.000000
_cell_angle_beta 90.000000
_cell_angle_gamma 90.000000
_cell_volume 3471.059018
_symmetry_space_group_name_H-M "A M A 2"
_symmetry_group_IT_number 40
_symmetry_cell_setting 'orthorhombic'
loop_
_space_group_symop_operation_xyz
x,y,z
-x,-y,z
1/2-x,y,z
1/2+x,-y,z
x,1/2+y,1/2+z
-x,1/2-y,1/2+z
1/2-x,1/2+y,1/2+z
1/2+x,1/2-y,1/2+z
loop_
_atom_site_type_symbol
_atom_site_label
_atom_site_fract_x
_atom_site_fract_y
_atom_site_fract_z
Si Si1 0.928999 0.725489 0.895000
Si Si2 0.920303 0.177675 0.707569
Si Si3 0.431573 0.275971 0.060260
Si Si4 0.435280 0.351641 0.363435
Si Si5 0.067327 0.565206 0.486401
Si Si6 0.931375 0.652480 0.604096
Si Si7 0.922217 0.315045 0.752691
O O1 0.750000 0.735685 0.876259
O O2 0.010765 0.789387 0.897951
O O3 0.999779 0.679907 0.834569
O O4 0.952716 0.696729 0.977581
O O5 0.750000 0.150404 0.699952
O O6 0.995916 0.177089 0.623923
O O7 0.000663 0.142747 0.776927
O O8 0.916130 0.246375 0.731207
O O9 0.250000 0.262179 0.076787
O O10 0.525293 0.214994 0.066725
O O11 0.250000 0.352389 0.363833
O O12 0.500637 0.405760 0.410942
O O13 0.250000 0.563084 0.479793
O O14 0.000000 0.500000 0.493872
O O15 0.019743 0.600971 0.560050
O O16 0.750000 0.641747 0.596284
O O17 0.979594 0.648910 0.691203
O O18 0.750000 0.342212 0.756624
#
# Coordination Sequence:
#
# PCOD8182350 Si02
#       7
#     8   8   8   8   8   8   8
#     4  10  17  25  42  67  94 123 156 188 222 268
#     4   7  13  25  41  60  84 116 149 180 218 266
#     4   9  16  27  43  65  93 124 153 184 223 267
#     4  10  18  30  46  63  87 120 155 190 232 273
#     4  12  24  37  50  66  88 117 156 198 237 276
#     4  11  20  31  47  65  87 116 153 191 233 277
#     4   9  17  29  43  60  87 120 153 187 227 271
#
# _framework density 16.133405
#
# number of rings (size 3 to 8) (size 9 to 14) (size 15 to 20)
#    0.000    2.286    1.429    5.571    0.000    0.571 
#    0.000    0.714    0.000    0.000    0.000    0.000 
#    0.000    1.143    0.000    5.714    0.000    4.286 
#
# Total GULP energy -346900.476685 kJ/mol
# GULP energy per Si atom -12389.302739 kJ/mol
# Density = 1.609668 g / cm^3
# Si number density = 16.133405 Si / 1000 Ang^3
#
#
#
# Elastic Constant Matrix: (Units=GPa)
#
#
# Indices 1 2 3 4 5 6 
#
# 1 75.2861 2.6927 23.9703 0.0000 0.0000 0.0000
# 2 2.6927 31.2671 26.2251 0.0000 0.0000 0.0000
# 3 23.9703 26.2251 148.3884 0.0000 0.0000 0.0000
# 4 0.0000 0.0000 0.0000 14.4444 0.0000 0.0000
# 5 0.0000 0.0000 0.0000 0.0000 21.8829 0.0000
# 6 0.0000 0.0000 0.0000 0.0000 0.0000 16.7818
#
#
#
# Elastic Compliance Matrix: (Units=1/GPa)
#
#
# Indices 1 2 3 4 5 6 
#
# 1 0.014020 0.000813 -0.002408 0.000000 0.000000 0.000000
# 2 0.000813 0.037596 -0.006776 0.000000 0.000000 0.000000
# 3 -0.002408 -0.006776 0.008326 0.000000 0.000000 0.000000
# 4 0.000000 0.000000 0.000000 0.069231 0.000000 0.000000
# 5 0.000000 0.000000 0.000000 0.000000 0.045698 0.000000
# 6 0.000000 0.000000 0.000000 0.000000 0.000000 0.059588
#
#
# Mechanical properties :
#
#
# Convention : Reuss Voigt Hill
#
# Bulk Modulus (GPa) = 23.14885 40.07976 31.61430
# Shear Modulus (GPa) = 18.82523 24.09206 21.45865
#
# Velocity S-wave (km/s) = 3.41962 3.86852 3.65098
# Velocity P-wave (km/s) = 5.47460 6.69706 6.11645
#
# Compressibility (1/GPa) = 0.04319869
#
# Stress axis : x y z
#
# Youngs Moduli (GPa) = 71.32455 26.59891 120.11141
#
# Poissons Ratio (x) = -0.02162 0.28928
# Poissons Ratio (y) = -0.05796 0.81383
# Poissons Ratio (z) = 0.17178 0.18022
#
# Static dielectric constant tensor:
#      x y z
#    x 3.139170 0.000000 0.000000 
#    y 0.000000 2.544070 0.000000 
#    z 0.000000 0.000000 3.677300 
# 
# 
# High freq. dielectric constant tensor:
#      x y z
#    x 1.624380 0.000000 0.000000 
#    y 0.000000 1.540950 0.000000 
#    z 0.000000 0.000000 1.647630 
# 
# From -- ./inp_files/19462.got.cif
#   From: 2010.03.12/outbox.cif.g09.slc.cpg/sg40_10_cif.got.tgz:19462.got - 2010.04.14 01:38:03.
