data_PCOD8182521
_publ_section_title
;
Structure prediction by ZEFSAII (Michael W. Deem and Ramdas Pophale) SiO2 
 PCOD8182521
Probable space group: A M A 2
;
_chemical_formula_sum "Si O2"
_cell_formula_units_Z 48
_cell_length_a 8.754323
_cell_length_b 24.744731
_cell_length_c 13.862066
_cell_angle_alpha 90.000000
_cell_angle_beta 90.000000
_cell_angle_gamma 90.000000
_cell_volume 3002.847421
_symmetry_space_group_name_H-M "A M A 2"
_symmetry_group_IT_number 40
_symmetry_cell_setting 'orthorhombic'
loop_
_space_group_symop_operation_xyz
x,y,z
-x,-y,z
1/2-x,y,z
1/2+x,-y,z
x,1/2+y,1/2+z
-x,1/2-y,1/2+z
1/2-x,1/2+y,1/2+z
1/2+x,1/2-y,1/2+z
loop_
_atom_site_type_symbol
_atom_site_label
_atom_site_fract_x
_atom_site_fract_y
_atom_site_fract_z
Si Si1 0.930434 0.945941 0.768240
Si Si2 0.928964 0.273413 0.735083
Si Si3 0.419161 0.667891 0.221539
Si Si4 0.930454 0.662058 0.572664
Si Si5 0.080106 0.226156 0.907780
Si Si6 0.931352 0.944725 0.987712
O O1 0.750000 0.950356 0.766264
O O2 0.982396 0.893115 0.705842
O O3 0.990461 0.940178 0.877604
O O4 0.000000 0.000000 0.720139
O O5 0.750000 0.283977 0.732917
O O6 0.968219 0.215139 0.683330
O O7 0.015661 0.321219 0.679612
O O8 0.991469 0.272581 0.845737
O O9 0.250000 0.675475 0.174836
O O10 0.403779 0.673792 0.338295
O O11 0.750000 0.656807 0.567802
O O12 0.985115 0.709640 0.501313
O O13 0.005535 0.605030 0.548984
O O14 0.250000 0.246299 0.938218
O O15 0.750000 0.945462 0.995476
O O16 0.000000 0.000000 0.032308
#
# Coordination Sequence:
#
# PCOD8182521 Si02
#       6
#     8   8   8   8   8   8
#     4   9  16  25  39  58  83 114 145 175 211 254
#     4  10  19  30  45  64  85 114 149 187 226 268
#     4   8  15  29  42  56  84 114 142 182 218 251
#     4  12  21  30  46  66  88 122 155 182 224 270
#     4   9  17  31  45  61  87 115 146 186 223 260
#     4  10  18  29  41  59  86 115 148 184 217 259
#
# _framework density 15.984828
#
# number of rings (size 3 to 8) (size 9 to 14) (size 15 to 20)
#    1.000    1.333    1.667    3.500    0.000    1.333 
#    0.000    0.000    0.000    0.000    0.000    0.000 
#    0.000    1.333    0.000   11.333    0.000    9.167 
#
# Total GULP energy -297325.952488 kJ/mol
# GULP energy per Si atom -12388.581354 kJ/mol
# Density = 1.594845 g / cm^3
# Si number density = 15.984828 Si / 1000 Ang^3
#
#
#
# Elastic Constant Matrix: (Units=GPa)
#
#
# Indices 1 2 3 4 5 6 
#
# 1 93.4196 27.1771 16.4606 0.0000 0.0000 0.0000
# 2 27.1771 67.9714 15.1107 0.0000 0.0000 0.0000
# 3 16.4606 15.1107 31.9714 0.0000 0.0000 0.0000
# 4 0.0000 0.0000 0.0000 19.3123 0.0000 0.0000
# 5 0.0000 0.0000 0.0000 0.0000 19.0436 0.0000
# 6 0.0000 0.0000 0.0000 0.0000 0.0000 29.3992
#
#
#
# Elastic Compliance Matrix: (Units=1/GPa)
#
#
# Indices 1 2 3 4 5 6 
#
# 1 0.012697 -0.004049 -0.004623 0.000000 0.000000 0.000000
# 2 -0.004049 0.017730 -0.006295 0.000000 0.000000 0.000000
# 3 -0.004623 -0.006295 0.036634 0.000000 0.000000 0.000000
# 4 0.000000 0.000000 0.000000 0.051780 0.000000 0.000000
# 5 0.000000 0.000000 0.000000 0.000000 0.052511 0.000000
# 6 0.000000 0.000000 0.000000 0.000000 0.000000 0.034015
#
#
# Mechanical properties :
#
#
# Convention : Reuss Voigt Hill
#
# Bulk Modulus (GPa) = 26.93547 34.53992 30.73769
# Shear Modulus (GPa) = 20.18751 22.52528 21.35639
#
# Velocity S-wave (km/s) = 3.55761 3.75796 3.65916
# Velocity P-wave (km/s) = 5.81057 6.36274 6.09291
#
# Compressibility (1/GPa) = 0.03712577
#
# Stress axis : x y z
#
# Youngs Moduli (GPa) = 78.75939 56.40013 27.29715
#
# Poissons Ratio (x) = 0.22835 0.12621
# Poissons Ratio (y) = 0.31888 0.17185
# Poissons Ratio (z) = 0.36414 0.35506
#
# Static dielectric constant tensor:
#      x y z
#    x 2.997450 0.000000 0.000000 
#    y 0.000000 3.027210 0.000000 
#    z 0.000000 0.000000 2.587180 
# 
# 
# High freq. dielectric constant tensor:
#      x y z
#    x 1.624820 0.000000 0.000000 
#    y 0.000000 1.604110 0.000000 
#    z 0.000000 0.000000 1.553600 
# 
# From -- ./inp_files/19441.got.cif
#   From: 2010.03.12/outbox.cif.g09.slc.cpg/sg40_10_cif.got.tgz:19441.got - 2010.04.14 01:38:03.
