data_PCOD8182742
_publ_section_title
;
Structure prediction by ZEFSAII (Michael W. Deem and Ramdas Pophale) SiO2 
 PCOD8182742
Probable space group: A M A 2
;
_chemical_formula_sum "Si O2"
_cell_formula_units_Z 48
_cell_length_a 8.676437
_cell_length_b 28.297702
_cell_length_c 10.422087
_cell_angle_alpha 90.000000
_cell_angle_beta 90.000000
_cell_angle_gamma 90.000000
_cell_volume 2558.864449
_symmetry_space_group_name_H-M "A M A 2"
_symmetry_group_IT_number 40
_symmetry_cell_setting 'orthorhombic'
loop_
_space_group_symop_operation_xyz
x,y,z
-x,-y,z
1/2-x,y,z
1/2+x,-y,z
x,1/2+y,1/2+z
-x,1/2-y,1/2+z
1/2-x,1/2+y,1/2+z
1/2+x,1/2-y,1/2+z
loop_
_atom_site_type_symbol
_atom_site_label
_atom_site_fract_x
_atom_site_fract_y
_atom_site_fract_z
Si Si1 0.567703 0.358231 0.454490
Si Si2 0.432482 0.145573 0.442109
Si Si3 0.567308 0.306404 0.198130
Si Si4 0.932368 0.549087 0.549960
Si Si5 0.067568 0.048526 0.329698
Si Si6 0.432462 0.202905 0.198433
O O1 0.750000 0.366574 0.454462
O O2 0.509629 0.331670 0.327138
O O3 0.484045 0.408777 0.456671
O O4 0.514641 0.327061 0.575361
O O5 0.250000 0.149470 0.440080
O O6 0.498983 0.164394 0.576640
O O7 0.481867 0.090992 0.423950
O O8 0.497709 0.177125 0.325308
O O9 0.750000 0.304564 0.194762
O O10 0.505344 0.253970 0.190081
O O11 0.750000 0.545420 0.556946
O O12 0.000000 0.500000 0.495095
O O13 0.999064 0.559242 0.690541
O O14 0.250000 0.044422 0.315061
O O15 0.000000 0.000000 0.387667
O O16 0.250000 0.207958 0.201969
#
# Coordination Sequence:
#
# PCOD8182742 Si02
#       6
#     8   8   8   8   8   8
#     4  10  20  36  55  78 110 144 178 220 268 314
#     4   9  18  34  54  75 107 143 173 210 266 318
#     4  10  21  35  53  78 107 143 181 219 263 315
#     4  11  21  34  56  83 108 136 176 221 267 317
#     4  10  18  33  55  79 107 137 173 217 267 314
#     4  10  19  34  54  75 105 145 181 221 265 308
#
# _framework density 18.758319
#
# number of rings (size 3 to 8) (size 9 to 14) (size 15 to 20)
#    0.000    2.000    1.667    4.000    0.000    1.333 
#    0.000    2.500    0.000    2.000    0.000    0.000 
#    0.000    0.000    0.000    0.000    0.000    0.000 
#
# Total GULP energy -297629.797068 kJ/mol
# GULP energy per Si atom -12401.241544 kJ/mol
# Density = 1.871562 g / cm^3
# Si number density = 18.758319 Si / 1000 Ang^3
#
#
#
# Elastic Constant Matrix: (Units=GPa)
#
#
# Indices 1 2 3 4 5 6 
#
# 1 57.9105 39.1955 23.1861 0.0000 0.0000 0.0000
# 2 39.1955 178.9090 77.5329 0.0000 0.0000 0.0000
# 3 23.1861 77.5329 134.0546 0.0000 0.0000 0.0000
# 4 0.0000 0.0000 0.0000 2.6738 0.0000 0.0000
# 5 0.0000 0.0000 0.0000 0.0000 22.5798 0.0000
# 6 0.0000 0.0000 0.0000 0.0000 0.0000 36.8409
#
#
#
# Elastic Compliance Matrix: (Units=1/GPa)
#
#
# Indices 1 2 3 4 5 6 
#
# 1 0.020433 -0.003930 -0.001261 0.000000 0.000000 0.000000
# 2 -0.003930 0.008215 -0.004071 0.000000 0.000000 0.000000
# 3 -0.001261 -0.004071 0.010033 0.000000 0.000000 0.000000
# 4 0.000000 0.000000 0.000000 0.374000 0.000000 0.000000
# 5 0.000000 0.000000 0.000000 0.000000 0.044287 0.000000
# 6 0.000000 0.000000 0.000000 0.000000 0.000000 0.027144
#
#
# Mechanical properties :
#
#
# Convention : Reuss Voigt Hill
#
# Bulk Modulus (GPa) = 49.61495 72.30032 60.95764
# Shear Modulus (GPa) = 9.81634 27.81620 18.81627
#
# Velocity S-wave (km/s) = 2.29007 3.85499 3.17059
# Velocity P-wave (km/s) = 5.78788 7.64469 6.78015
#
# Compressibility (1/GPa) = 0.02015522
#
# Stress axis : x y z
#
# Youngs Moduli (GPa) = 48.94084 121.73097 99.67516
#
# Poissons Ratio (x) = 0.47839 0.12570
# Poissons Ratio (y) = 0.19233 0.40583
# Poissons Ratio (z) = 0.06172 0.49563
#
# Static dielectric constant tensor:
#      x y z
#    x 2.958340 0.000000 0.000000 
#    y 0.000000 3.693350 0.000000 
#    z 0.000000 0.000000 3.636450 
# 
# 
# High freq. dielectric constant tensor:
#      x y z
#    x 1.710600 0.000000 0.000000 
#    y 0.000000 1.747370 0.000000 
#    z 0.000000 0.000000 1.715720 
# 
# From -- ./inp_files/10255.got.cif
#   From: 2010.03.12/outbox.cif.g09.slc.cpg/sg40_6_cif.got.tgz:10255.got - 2010.04.14 01:38:03.
