data_PCOD8182641
_publ_section_title
;
Structure prediction by ZEFSAII (Michael W. Deem and Ramdas Pophale) SiO2 
 PCOD8182641
Probable space group: A M A 2
;
_chemical_formula_sum "Si O2"
_cell_formula_units_Z 64
_cell_length_a 8.852425
_cell_length_b 33.645506
_cell_length_c 12.041975
_cell_angle_alpha 90.000000
_cell_angle_beta 90.000000
_cell_angle_gamma 90.000000
_cell_volume 3586.633837
_symmetry_space_group_name_H-M "A M A 2"
_symmetry_group_IT_number 40
_symmetry_cell_setting 'orthorhombic'
loop_
_space_group_symop_operation_xyz
x,y,z
-x,-y,z
1/2-x,y,z
1/2+x,-y,z
x,1/2+y,1/2+z
-x,1/2-y,1/2+z
1/2-x,1/2+y,1/2+z
1/2+x,1/2-y,1/2+z
loop_
_atom_site_type_symbol
_atom_site_label
_atom_site_fract_x
_atom_site_fract_y
_atom_site_fract_z
Si Si1 0.072346 0.771012 0.105050
Si Si2 0.429701 0.040931 0.805676
Si Si3 0.420045 0.169983 0.947336
Si Si4 0.070323 0.126132 0.731073
Si Si5 0.927973 0.820789 0.295145
Si Si6 0.082142 0.108712 0.145169
Si Si7 0.926921 0.039327 0.044750
Si Si8 0.571130 0.316324 0.043255
O O1 0.250000 0.776072 0.110530
O O2 0.003537 0.787547 0.218573
O O3 0.022195 0.725166 0.098179
O O4 0.016700 0.793288 0.993762
O O5 0.250000 0.036412 0.808856
O O6 0.480743 0.079716 0.734294
O O7 0.489766 0.048272 0.929248
O O8 0.500000 0.000000 0.755572
O O9 0.250000 0.185561 0.925915
O O10 0.493135 0.151839 0.835070
O O11 0.418951 0.135122 0.035949
O O12 0.250000 0.127530 0.739436
O O13 0.010187 0.147015 0.618409
O O14 0.750000 0.812529 0.290721
O O15 0.965607 0.864774 0.250311
O O16 0.995925 0.818857 0.419052
O O17 0.250000 0.090654 0.162255
O O18 0.959124 0.074153 0.132540
O O19 0.750000 0.034204 0.023992
O O20 0.000000 0.000000 0.097620
O O21 0.750000 0.319343 0.035030
#
# Coordination Sequence:
#
# PCOD8182641 Si02
#       8
#     8   8   8   8   8   8   8   8
#     4  10  20  32  50  76 103 129 167 217 260 295
#     4  10  18  31  50  74 104 135 168 206 255 310
#     4   9  17  31  51  72  99 135 171 201 246 309
#     4   9  17  31  52  75 101 136 174 209 248 306
#     4   9  19  36  54  70  96 134 174 208 249 305
#     4   9  16  30  49  69  94 128 166 203 244 295
#     4  11  20  29  46  73 104 132 159 198 248 302
#     4   9  19  34  52  75 100 133 176 216 250 300
#
# _framework density 17.844028999999999
#
# number of rings (size 3 to 8) (size 9 to 14) (size 15 to 20)
#    0.000    2.500    1.250    3.375    1.750    2.000 
#    0.000    0.625    0.000    6.000    0.000    1.750 
#    0.000    0.000    0.000    0.000    0.000    0.000 
#
# Total GULP energy -396662.377271 kJ/mol
# GULP energy per Si atom -12395.699290 kJ/mol
# Density = 1.780342 g / cm^3
# Si number density = 17.844029 Si / 1000 Ang^3
#
#
#
# Elastic Constant Matrix: (Units=GPa)
#
#
# Indices 1 2 3 4 5 6 
#
# 1 62.0141 47.2862 26.7785 0.0000 0.0000 0.0000
# 2 47.2862 146.3813 66.6820 0.0000 0.0000 0.0000
# 3 26.7785 66.6820 114.6936 0.0000 0.0000 0.0000
# 4 0.0000 0.0000 0.0000 21.8700 0.0000 0.0000
# 5 0.0000 0.0000 0.0000 0.0000 14.8084 0.0000
# 6 0.0000 0.0000 0.0000 0.0000 0.0000 27.7955
#
#
#
# Elastic Compliance Matrix: (Units=1/GPa)
#
#
# Indices 1 2 3 4 5 6 
#
# 1 0.021545 -0.006350 -0.001338 0.000000 0.000000 0.000000
# 2 -0.006350 0.011164 -0.005008 0.000000 0.000000 0.000000
# 3 -0.001338 -0.005008 0.011943 0.000000 0.000000 0.000000
# 4 0.000000 0.000000 0.000000 0.045725 0.000000 0.000000
# 5 0.000000 0.000000 0.000000 0.000000 0.067529 0.000000
# 6 0.000000 0.000000 0.000000 0.000000 0.000000 0.035977
#
#
# Mechanical properties :
#
#
# Convention : Reuss Voigt Hill
#
# Bulk Modulus (GPa) = 51.92346 67.17582 59.54964
# Shear Modulus (GPa) = 22.15359 25.05093 23.60226
#
# Velocity S-wave (km/s) = 3.52733 3.75091 3.64084
# Velocity P-wave (km/s) = 6.76396 7.51578 7.14976
#
# Compressibility (1/GPa) = 0.01925912
#
# Stress axis : x y z
#
# Youngs Moduli (GPa) = 46.41362 89.57202 83.73052
#
# Poissons Ratio (x) = 0.56880 0.11207
# Poissons Ratio (y) = 0.29474 0.41933
# Poissons Ratio (z) = 0.06212 0.44859
#
# Static dielectric constant tensor:
#      x y z
#    x 3.104930 0.000000 0.000000 
#    y 0.000000 3.645300 0.000000 
#    z 0.000000 0.000000 3.333460 
# 
# 
# High freq. dielectric constant tensor:
#      x y z
#    x 1.668010 0.000000 0.000000 
#    y 0.000000 1.697140 0.000000 
#    z 0.000000 0.000000 1.666200 
# 
# From -- ./inp_files/10610.got.cif
#   From: 2010.03.12/outbox.cif.g09.slc.cpg/sg40_6_cif.got.tgz:10610.got - 2010.04.14 01:38:03.
