data_PCOD8182514
_publ_section_title
;
Structure prediction by ZEFSAII (Michael W. Deem and Ramdas Pophale) SiO2 
 PCOD8182514
Probable space group: A M A 2
;
_chemical_formula_sum "Si O2"
_cell_formula_units_Z 56
_cell_length_a 9.404995
_cell_length_b 20.886285
_cell_length_c 14.164345
_cell_angle_alpha 90.000000
_cell_angle_beta 90.000000
_cell_angle_gamma 90.000000
_cell_volume 2782.378861
_symmetry_space_group_name_H-M "A M A 2"
_symmetry_group_IT_number 40
_symmetry_cell_setting 'orthorhombic'
loop_
_space_group_symop_operation_xyz
x,y,z
-x,-y,z
1/2-x,y,z
1/2+x,-y,z
x,1/2+y,1/2+z
-x,1/2-y,1/2+z
1/2-x,1/2+y,1/2+z
1/2+x,1/2-y,1/2+z
loop_
_atom_site_type_symbol
_atom_site_label
_atom_site_fract_x
_atom_site_fract_y
_atom_site_fract_z
Si Si1 0.595573 0.947637 0.194560
Si Si2 0.585704 0.235515 0.190836
Si Si3 0.087276 0.374932 0.830221
Si Si4 0.583796 0.564153 0.021983
Si Si5 0.415640 0.063770 0.898333
Si Si6 0.913417 0.881637 0.695041
Si Si7 0.405906 0.163478 0.048624
O O1 0.750000 0.975746 0.221589
O O2 0.510657 0.930924 0.289439
O O3 0.614686 0.886639 0.131257
O O4 0.500000 0.000000 0.139408
O O5 0.750000 0.225838 0.167883
O O6 0.542036 0.193265 0.283270
O O7 0.548633 0.308081 0.217087
O O8 0.507287 0.217869 0.092074
O O9 0.250000 0.389289 0.803503
O O10 0.065524 0.379604 0.943216
O O11 0.500000 0.500000 0.992181
O O12 0.750000 0.547639 0.037125
O O13 0.520055 0.591084 0.118246
O O14 0.250000 0.052736 0.923318
O O15 0.439797 0.077668 0.788850
O O16 0.500000 0.000000 0.927312
O O17 0.470178 0.125819 0.958038
O O18 0.750000 0.888258 0.660894
O O19 0.250000 0.193099 0.023285
#
# Coordination Sequence:
#
# PCOD8182514 Si02
#       7
#     8   8   8   8   8   8   8
#     4  10  18  28  46  74 107 141 176 218 268 321
#     4   9  19  37  58  82 112 145 181 220 269 327
#     4   9  19  35  55  79 107 141 179 220 269 325
#     4  11  23  38  58  83 111 145 185 229 275 323
#     4  10  21  37  57  81 110 144 182 225 273 323
#     4  10  22  39  58  80 110 147 185 228 272 318
#     4   9  19  34  53  79 109 141 178 222 270 321
#
# _framework density 20.126663000000001
#
# number of rings (size 3 to 8) (size 9 to 14) (size 15 to 20)
#    0.000    2.286    0.000    2.143    0.000    6.857 
#    0.000    2.857    0.000    0.000    0.000    0.000 
#    0.000    0.000    0.000    0.000    0.000    0.000 
#
# Total GULP energy -347027.740424 kJ/mol
# GULP energy per Si atom -12393.847872 kJ/mol
# Density = 2.008085 g / cm^3
# Si number density = 20.126663 Si / 1000 Ang^3
#
#
#
# Elastic Constant Matrix: (Units=GPa)
#
#
# Indices 1 2 3 4 5 6 
#
# 1 91.5844 31.2965 32.0145 0.0000 0.0000 0.0000
# 2 31.2965 74.2924 17.5934 0.0000 0.0000 0.0000
# 3 32.0145 17.5934 93.0338 0.0000 0.0000 0.0000
# 4 0.0000 0.0000 0.0000 21.5685 0.0000 0.0000
# 5 0.0000 0.0000 0.0000 0.0000 26.6628 0.0000
# 6 0.0000 0.0000 0.0000 0.0000 0.0000 27.3889
#
#
#
# Elastic Compliance Matrix: (Units=1/GPa)
#
#
# Indices 1 2 3 4 5 6 
#
# 1 0.013969 -0.004969 -0.003867 0.000000 0.000000 0.000000
# 2 -0.004969 0.015859 -0.001289 0.000000 0.000000 0.000000
# 3 -0.003867 -0.001289 0.012323 0.000000 0.000000 0.000000
# 4 0.000000 0.000000 0.000000 0.046364 0.000000 0.000000
# 5 0.000000 0.000000 0.000000 0.000000 0.037505 0.000000
# 6 0.000000 0.000000 0.000000 0.000000 0.000000 0.036511
#
#
# Mechanical properties :
#
#
# Convention : Reuss Voigt Hill
#
# Bulk Modulus (GPa) = 45.66095 46.74660 46.20377
# Shear Modulus (GPa) = 26.30450 26.99112 26.64781
#
# Velocity S-wave (km/s) = 3.61910 3.66603 3.64264
# Velocity P-wave (km/s) = 6.34033 6.41843 6.37950
#
# Compressibility (1/GPa) = 0.02190055
#
# Stress axis : x y z
#
# Youngs Moduli (GPa) = 71.58905 63.05686 81.14667
#
# Poissons Ratio (x) = 0.31331 0.31381
# Poissons Ratio (y) = 0.35570 0.10462
# Poissons Ratio (z) = 0.27685 0.08129
#
# Static dielectric constant tensor:
#      x y z
#    x 3.913770 0.000000 0.000000 
#    y 0.000000 3.719040 0.000000 
#    z 0.000000 0.000000 3.611790 
# 
# 
# High freq. dielectric constant tensor:
#      x y z
#    x 1.783710 0.000000 0.000000 
#    y 0.000000 1.778890 0.000000 
#    z 0.000000 0.000000 1.782050 
# 
# From -- ./inp_files/15325.got.cif
#   From: 2010.03.12/outbox.cif.g09.slc.cpg/sg40_8_cif.got.tgz:15325.got - 2010.04.14 01:38:03.
