data_PCOD8182885
_publ_section_title
;
Structure prediction by ZEFSAII (Michael W. Deem and Ramdas Pophale) SiO2 
 PCOD8182885
Probable space group: A M A 2
;
_chemical_formula_sum "Si O2"
_cell_formula_units_Z 64
_cell_length_a 8.887273
_cell_length_b 28.254261
_cell_length_c 14.459023
_cell_angle_alpha 90.000000
_cell_angle_beta 90.000000
_cell_angle_gamma 90.000000
_cell_volume 3630.708837
_symmetry_space_group_name_H-M "A M A 2"
_symmetry_group_IT_number 40
_symmetry_cell_setting 'orthorhombic'
loop_
_space_group_symop_operation_xyz
x,y,z
-x,-y,z
1/2-x,y,z
1/2+x,-y,z
x,1/2+y,1/2+z
-x,1/2-y,1/2+z
1/2-x,1/2+y,1/2+z
1/2+x,1/2-y,1/2+z
loop_
_atom_site_type_symbol
_atom_site_label
_atom_site_fract_x
_atom_site_fract_y
_atom_site_fract_z
Si Si1 0.571656 0.359526 0.350080
Si Si2 0.927573 0.451775 0.671516
Si Si3 0.930400 0.361880 0.784003
Si Si4 0.573031 0.451586 0.461169
Si Si5 0.412247 0.732152 0.712780
Si Si6 0.426875 0.830620 0.666844
Si Si7 0.424761 0.824578 0.463558
Si Si8 0.584746 0.232580 0.917771
O O1 0.750000 0.353765 0.349583
O O2 0.519542 0.408399 0.397083
O O3 0.512471 0.361218 0.244067
O O4 0.503013 0.317097 0.410956
O O5 0.750000 0.456341 0.677830
O O6 0.986892 0.410355 0.738562
O O7 0.979413 0.441373 0.566454
O O8 0.000000 0.500000 0.708659
O O9 0.750000 0.358683 0.788891
O O10 0.993540 0.319247 0.716739
O O11 0.994364 0.357183 0.887505
O O12 0.500000 0.500000 0.423756
O O13 0.750000 0.458058 0.456211
O O14 0.250000 0.725938 0.663326
O O15 0.496695 0.776638 0.666068
O O16 0.389168 0.745533 0.818644
O O17 0.250000 0.828306 0.694195
O O18 0.448895 0.850671 0.563211
O O19 0.250000 0.820766 0.438089
O O20 0.488700 0.771248 0.474323
O O21 0.750000 0.224453 0.963893
#
# Coordination Sequence:
#
# PCOD8182885 Si02
#       8
#     8   8   8   8   8   8   8   8
#     4  10  19  31  50  75  99 125 163 207 244 286
#     4   9  18  33  52  73  97 125 157 196 246 299
#     4   9  17  30  49  70  94 128 164 198 242 294
#     4   9  19  34  52  75  99 123 154 195 245 298
#     4   7  12  25  43  61  84 118 157 188 220 271
#     4   9  18  31  47  69  99 135 166 195 240 290
#     4  10  19  30  47  72 101 133 169 206 239 279
#     4   9  17  30  46  65  94 131 165 197 238 283
#
# _framework density 17.627413000000001
#
# number of rings (size 3 to 8) (size 9 to 14) (size 15 to 20)
#    0.000    3.000    0.000    2.625    0.000    3.500 
#    0.000    3.750    0.000    5.250    0.000    0.000 
#    0.000    0.000    0.000    0.000    0.000    0.000 
#
# Total GULP energy -396437.904348 kJ/mol
# GULP energy per Si atom -12388.684511 kJ/mol
# Density = 1.758729 g / cm^3
# Si number density = 17.627413 Si / 1000 Ang^3
#
#
#
# Elastic Constant Matrix: (Units=GPa)
#
#
# Indices 1 2 3 4 5 6 
#
# 1 57.7854 39.5085 28.9460 0.0000 0.0000 0.0000
# 2 39.5085 141.4220 60.9652 0.0000 0.0000 0.0000
# 3 28.9460 60.9652 85.2752 0.0000 0.0000 0.0000
# 4 0.0000 0.0000 0.0000 25.5819 0.0000 0.0000
# 5 0.0000 0.0000 0.0000 0.0000 22.9552 0.0000
# 6 0.0000 0.0000 0.0000 0.0000 0.0000 25.9816
#
#
#
# Elastic Compliance Matrix: (Units=1/GPa)
#
#
# Indices 1 2 3 4 5 6 
#
# 1 0.022552 -0.004337 -0.004555 0.000000 0.000000 0.000000
# 2 -0.004337 0.011055 -0.006431 0.000000 0.000000 0.000000
# 3 -0.004555 -0.006431 0.017871 0.000000 0.000000 0.000000
# 4 0.000000 0.000000 0.000000 0.039090 0.000000 0.000000
# 5 0.000000 0.000000 0.000000 0.000000 0.043563 0.000000
# 6 0.000000 0.000000 0.000000 0.000000 0.000000 0.038489
#
#
# Mechanical properties :
#
#
# Convention : Reuss Voigt Hill
#
# Bulk Modulus (GPa) = 48.00278 60.36911 54.18595
# Shear Modulus (GPa) = 23.78575 25.24126 24.51350
#
# Velocity S-wave (km/s) = 3.67735 3.78819 3.73318
# Velocity P-wave (km/s) = 6.73213 7.31133 7.02770
#
# Compressibility (1/GPa) = 0.02083213
#
# Stress axis : x y z
#
# Youngs Moduli (GPa) = 44.34177 90.45578 55.95729
#
# Poissons Ratio (x) = 0.39229 0.25486
# Poissons Ratio (y) = 0.19230 0.35989
# Poissons Ratio (z) = 0.20196 0.58176
#
# Static dielectric constant tensor:
#      x y z
#    x 3.192180 0.000000 0.000000 
#    y 0.000000 3.365000 0.000000 
#    z 0.000000 0.000000 3.212210 
# 
# 
# High freq. dielectric constant tensor:
#      x y z
#    x 1.670880 0.000000 0.000000 
#    y 0.000000 1.665450 0.000000 
#    z 0.000000 0.000000 1.669290 
# 
# From -- ./inp_files/15874.got.cif
#   From: 2010.03.12/outbox.cif.g09.slc.cpg/sg40_8_cif.got.tgz:15874.got - 2010.04.14 01:38:03.
