data_PCOD8182925
_publ_section_title
;
Structure prediction by ZEFSAII (Michael W. Deem and Ramdas Pophale) SiO2 
 PCOD8182925
Probable space group: A M A 2
;
_chemical_formula_sum "Si O2"
_cell_formula_units_Z 48
_cell_length_a 8.690725
_cell_length_b 16.871103
_cell_length_c 18.496431
_cell_angle_alpha 90.000000
_cell_angle_beta 90.000000
_cell_angle_gamma 90.000000
_cell_volume 2711.985863
_symmetry_space_group_name_H-M "A M A 2"
_symmetry_group_IT_number 40
_symmetry_cell_setting 'orthorhombic'
loop_
_space_group_symop_operation_xyz
x,y,z
-x,-y,z
1/2-x,y,z
1/2+x,-y,z
x,1/2+y,1/2+z
-x,1/2-y,1/2+z
1/2-x,1/2+y,1/2+z
1/2+x,1/2-y,1/2+z
loop_
_atom_site_type_symbol
_atom_site_label
_atom_site_fract_x
_atom_site_fract_y
_atom_site_fract_z
Si Si1 0.082042 0.170683 0.748760
Si Si2 0.067940 0.084744 0.281910
Si Si3 0.569563 0.730096 0.036431
Si Si4 0.432737 0.774717 0.370592
Si Si5 0.566101 0.916212 0.616008
Si Si6 0.579686 0.172716 0.154414
O O1 0.250000 0.137487 0.769135
O O2 0.000633 0.199513 0.823139
O O3 0.000134 0.105020 0.697374
O O4 0.096220 0.247590 0.699094
O O5 0.250000 0.081219 0.282221
O O6 0.012268 0.145013 0.343908
O O7 0.012342 0.108421 0.201461
O O8 0.000000 0.000000 0.303086
O O9 0.750000 0.721034 0.049535
O O10 0.488765 0.648547 0.058833
O O11 0.508986 0.806754 0.080040
O O12 0.527641 0.743798 0.952919
O O13 0.250000 0.783373 0.356809
O O14 0.750000 0.917178 0.616756
O O15 0.500000 0.000000 0.591160
O O16 0.750000 0.139169 0.136339
#
# Coordination Sequence:
#
# PCOD8182925 Si02
#       6
#     8   8   8   8   8   8
#     4   7  13  28  48  66  86 119 158 195 236 277
#     4  11  21  33  51  74 100 130 166 205 248 297
#     4  10  19  31  50  75 100 128 164 201 240 292
#     4   9  18  33  51  72  99 129 161 200 245 291
#     4  10  19  31  48  69  96 128 161 200 244 290
#     4   9  17  32  51  70  96 128 164 203 242 287
#
# _framework density 17.699207000000001
#
# number of rings (size 3 to 8) (size 9 to 14) (size 15 to 20)
#    0.000    2.667    0.000    5.000    0.000    2.000 
#    0.000    0.833    0.000    1.000    0.000    2.333 
#    0.000    0.000    0.000    0.000    0.000    0.000 
#
# Total GULP energy -297361.222312 kJ/mol
# GULP energy per Si atom -12390.050930 kJ/mol
# Density = 1.765892 g / cm^3
# Si number density = 17.699207 Si / 1000 Ang^3
#
#
#
# Elastic Constant Matrix: (Units=GPa)
#
#
# Indices 1 2 3 4 5 6 
#
# 1 90.2710 11.5364 36.3424 0.0000 0.0000 0.0000
# 2 11.5364 9.8030 13.1410 0.0000 0.0000 0.0000
# 3 36.3424 13.1410 120.0598 0.0000 0.0000 0.0000
# 4 0.0000 0.0000 0.0000 18.1385 0.0000 0.0000
# 5 0.0000 0.0000 0.0000 0.0000 24.5073 0.0000
# 6 0.0000 0.0000 0.0000 0.0000 0.0000 21.2333
#
#
#
# Elastic Compliance Matrix: (Units=1/GPa)
#
#
# Indices 1 2 3 4 5 6 
#
# 1 0.013805 -0.012474 -0.002813 0.000000 0.000000 0.000000
# 2 -0.012474 0.130823 -0.010543 0.000000 0.000000 0.000000
# 3 -0.002813 -0.010543 0.010335 0.000000 0.000000 0.000000
# 4 0.000000 0.000000 0.000000 0.055131 0.000000 0.000000
# 5 0.000000 0.000000 0.000000 0.000000 0.040804 0.000000
# 6 0.000000 0.000000 0.000000 0.000000 0.000000 0.047096
#
#
# Mechanical properties :
#
#
# Convention : Reuss Voigt Hill
#
# Bulk Modulus (GPa) = 9.68046 38.01926 23.84986
# Shear Modulus (GPa) = 13.01782 23.38342 18.20062
#
# Velocity S-wave (km/s) = 2.71496 3.63872 3.21024
# Velocity P-wave (km/s) = 3.91271 6.25948 5.21969
#
# Compressibility (1/GPa) = 0.10330091
#
# Stress axis : x y z
#
# Youngs Moduli (GPa) = 72.43981 7.64391 96.76082
#
# Poissons Ratio (x) = 0.09535 0.27222
# Poissons Ratio (y) = 0.90364 1.02016
# Poissons Ratio (z) = 0.20380 0.08059
#
# Static dielectric constant tensor:
#      x y z
#    x 3.285120 0.000000 0.000000 
#    y 0.000000 3.252330 0.000000 
#    z 0.000000 0.000000 3.491180 
# 
# 
# High freq. dielectric constant tensor:
#      x y z
#    x 1.680590 0.000000 0.000000 
#    y 0.000000 1.657450 0.000000 
#    z 0.000000 0.000000 1.682020 
# 
# From -- ./inp_files/19188.got.cif
#   From: 2010.03.12/outbox.cif.g09.slc.cpg/sg40_10_cif.got.tgz:19188.got - 2010.04.14 01:38:03.
