data_PCOD8182795
_publ_section_title
;
Structure prediction by ZEFSAII (Michael W. Deem and Ramdas Pophale) SiO2 
 PCOD8182795
Probable space group: A M A 2
;
_chemical_formula_sum "Si O2"
_cell_formula_units_Z 64
_cell_length_a 17.360306
_cell_length_b 12.156381
_cell_length_c 15.299555
_cell_angle_alpha 90.000000
_cell_angle_beta 90.000000
_cell_angle_gamma 90.000000
_cell_volume 3228.795046
_symmetry_space_group_name_H-M "A M A 2"
_symmetry_group_IT_number 40
_symmetry_cell_setting 'orthorhombic'
loop_
_space_group_symop_operation_xyz
x,y,z
-x,-y,z
1/2-x,y,z
1/2+x,-y,z
x,1/2+y,1/2+z
-x,1/2-y,1/2+z
1/2-x,1/2+y,1/2+z
1/2+x,1/2-y,1/2+z
loop_
_atom_site_type_symbol
_atom_site_label
_atom_site_fract_x
_atom_site_fract_y
_atom_site_fract_z
Si Si1 0.909985 0.014340 0.597390
Si Si2 0.841994 0.478553 0.281717
Si Si3 0.663256 0.229895 0.538293
Si Si4 0.341670 0.043622 0.109648
Si Si5 0.342139 0.988383 0.301545
Si Si6 0.836414 0.748881 0.839097
Si Si7 0.658320 0.106977 0.952187
Si Si8 0.341607 0.142226 0.458328
O O1 0.873286 0.028978 0.692683
O O2 0.874278 0.911086 0.546606
O O3 0.892305 0.125835 0.545087
O O4 0.000000 0.000000 0.606535
O O5 0.750000 0.478205 0.281595
O O6 0.874885 0.353509 0.290879
O O7 0.872264 0.551576 0.362884
O O8 0.750000 0.194703 0.566403
O O9 0.631173 0.331128 0.594893
O O10 0.664215 0.276568 0.440864
O O11 0.250000 0.038245 0.106209
O O12 0.373457 0.015351 0.205388
O O13 0.374611 0.959176 0.036614
O O14 0.250000 0.987922 0.306144
O O15 0.372491 0.076260 0.372993
O O16 0.377876 0.867879 0.322296
O O17 0.750000 0.737175 0.802503
O O18 0.750000 0.105158 0.954029
O O19 0.628235 0.232543 0.954229
O O20 0.250000 0.137090 0.463168
#
# Coordination Sequence:
#
# PCOD8182795 Si02
#       8
#     8   8   8   8   8   8   8   8
#     4  12  26  40  54  79 115 157 199 239 279 331
#     4  10  20  36  60  88 114 147 186 232 286 342
#     4  10  18  35  61  82 107 147 192 235 278 334
#     4   9  17  29  52  87 117 138 172 229 289 339
#     4   9  17  28  49  85 118 140 171 222 280 332
#     4   9  16  30  55  86 114 141 180 226 275 334
#     4   9  18  32  55  90 122 141 173 231 292 341
#     4  10  20  36  58  84 115 148 183 232 288 338
#
# _framework density 19.821635000000001
#
# number of rings (size 3 to 8) (size 9 to 14) (size 15 to 20)
#    0.000    2.250    2.500    1.125    3.500    0.000 
#    0.000    1.250    0.000    0.000    0.000    0.000 
#    0.000    0.000    0.000    0.000    0.000    0.000 
#
# Total GULP energy -396704.894728 kJ/mol
# GULP energy per Si atom -12397.027960 kJ/mol
# Density = 1.977652 g / cm^3
# Si number density = 19.821635 Si / 1000 Ang^3
#
#
#
# Elastic Constant Matrix: (Units=GPa)
#
#
# Indices 1 2 3 4 5 6 
#
# 1 19.6569 19.6021 15.4143 0.0000 0.0000 0.0000
# 2 19.6021 135.9658 43.1412 0.0000 0.0000 0.0000
# 3 15.4143 43.1412 115.3102 0.0000 0.0000 0.0000
# 4 0.0000 0.0000 0.0000 35.5836 0.0000 0.0000
# 5 0.0000 0.0000 0.0000 0.0000 3.9345 0.0000
# 6 0.0000 0.0000 0.0000 0.0000 0.0000 5.5314
#
#
#
# Elastic Compliance Matrix: (Units=1/GPa)
#
#
# Indices 1 2 3 4 5 6 
#
# 1 0.062504 -0.007217 -0.005655 0.000000 0.000000 0.000000
# 2 -0.007217 0.009179 -0.002469 0.000000 0.000000 0.000000
# 3 -0.005655 -0.002469 0.010352 0.000000 0.000000 0.000000
# 4 0.000000 0.000000 0.000000 0.028103 0.000000 0.000000
# 5 0.000000 0.000000 0.000000 0.000000 0.254161 0.000000
# 6 0.000000 0.000000 0.000000 0.000000 0.000000 0.180785
#
#
# Mechanical properties :
#
#
# Convention : Reuss Voigt Hill
#
# Bulk Modulus (GPa) = 19.47339 47.47199 33.47269
# Shear Modulus (GPa) = 8.43336 21.86160 15.14748
#
# Velocity S-wave (km/s) = 2.06491 3.32462 2.76740
# Velocity P-wave (km/s) = 3.94091 6.22407 5.20912
#
# Compressibility (1/GPa) = 0.05135212
#
# Stress axis : x y z
#
# Youngs Moduli (GPa) = 15.99895 108.94750 96.59872
#
# Poissons Ratio (x) = 0.78625 0.54630
# Poissons Ratio (y) = 0.11546 0.23854
# Poissons Ratio (z) = 0.09048 0.26903
#
# Static dielectric constant tensor:
#      x y z
#    x 2.884950 0.000000 0.000000 
#    y 0.000000 3.864060 0.000000 
#    z 0.000000 0.000000 3.751280 
# 
# 
# High freq. dielectric constant tensor:
#      x y z
#    x 1.695360 0.000000 0.000000 
#    y 0.000000 1.792300 0.000000 
#    z 0.000000 0.000000 1.782960 
# 
# From -- ./inp_files/17864.got.cif
#   From: 2010.03.12/outbox.cif.g09.slc.cpg/sg40_9_cif.got.tgz:17864.got - 2010.04.14 01:38:03.
