data_PCOD8182373
_publ_section_title
;
Structure prediction by ZEFSAII (Michael W. Deem and Ramdas Pophale) SiO2 
 PCOD8182373
Probable space group: A M A 2
;
_chemical_formula_sum "Si O2"
_cell_formula_units_Z 32
_cell_length_a 8.826756
_cell_length_b 20.852616
_cell_length_c 9.558017
_cell_angle_alpha 90.000000
_cell_angle_beta 90.000000
_cell_angle_gamma 90.000000
_cell_volume 1759.257722
_symmetry_space_group_name_H-M "A M A 2"
_symmetry_group_IT_number 40
_symmetry_cell_setting 'orthorhombic'
loop_
_space_group_symop_operation_xyz
x,y,z
-x,-y,z
1/2-x,y,z
1/2+x,-y,z
x,1/2+y,1/2+z
-x,1/2-y,1/2+z
1/2-x,1/2+y,1/2+z
1/2+x,1/2-y,1/2+z
loop_
_atom_site_type_symbol
_atom_site_label
_atom_site_fract_x
_atom_site_fract_y
_atom_site_fract_z
Si Si1 0.923254 0.201479 0.506650
Si Si2 0.926441 0.191830 0.184125
Si Si3 0.571606 0.436639 0.686566
Si Si4 0.925526 0.560094 0.988627
O O1 0.750000 0.224320 0.525020
O O2 0.972856 0.204605 0.344690
O O3 0.942257 0.128557 0.565840
O O4 0.033443 0.246031 0.594565
O O5 0.750000 0.177083 0.174225
O O6 0.011868 0.129859 0.119376
O O7 0.500000 0.500000 0.612142
O O8 0.750000 0.439855 0.670717
O O9 0.520494 0.436008 0.846819
O O10 0.750000 0.546396 0.954460
O O11 0.000000 0.500000 0.075294
#
# Coordination Sequence:
#
# PCOD8182373 Si02
#       4
#     8   8   8   8
#     4   9  19  33  48  71 100 127 159 200 242 288
#     4  10  20  33  50  73  99 128 163 200 240 287
#     4  10  17  27  45  68  95 124 157 198 241 282
#     4   9  16  27  44  68  96 123 158 200 239 281
#
# _framework density 18.189488999999998
#
# number of rings (size 3 to 8) (size 9 to 14) (size 15 to 20)
#    0.000    2.500    0.000    6.750    0.000    6.000 
#    0.000    0.000    0.000    1.500    0.000    3.500 
#    0.000    0.000    0.000    0.000    0.000    0.000 
#
# Total GULP energy -198273.046621 kJ/mol
# GULP energy per Si atom -12392.065414 kJ/mol
# Density = 1.814809 g / cm^3
# Si number density = 18.189489 Si / 1000 Ang^3
#
#
#
# Elastic Constant Matrix: (Units=GPa)
#
#
# Indices 1 2 3 4 5 6 
#
# 1 120.0893 68.5552 26.4113 0.0000 0.0000 0.0000
# 2 68.5552 162.3299 37.3216 0.0000 0.0000 0.0000
# 3 26.4113 37.3216 31.7035 0.0000 0.0000 0.0000
# 4 0.0000 0.0000 0.0000 20.3889 0.0000 0.0000
# 5 0.0000 0.0000 0.0000 0.0000 18.8926 0.0000
# 6 0.0000 0.0000 0.0000 0.0000 0.0000 40.2482
#
#
#
# Elastic Compliance Matrix: (Units=1/GPa)
#
#
# Indices 1 2 3 4 5 6 
#
# 1 0.011597 -0.003670 -0.005341 0.000000 0.000000 0.000000
# 2 -0.003670 0.009607 -0.008253 0.000000 0.000000 0.000000
# 3 -0.005341 -0.008253 0.045707 0.000000 0.000000 0.000000
# 4 0.000000 0.000000 0.000000 0.049046 0.000000 0.000000
# 5 0.000000 0.000000 0.000000 0.000000 0.052931 0.000000
# 6 0.000000 0.000000 0.000000 0.000000 0.000000 0.024846
#
#
# Mechanical properties :
#
#
# Convention : Reuss Voigt Hill
#
# Bulk Modulus (GPa) = 30.87928 64.29985 47.58956
# Shear Modulus (GPa) = 20.91561 28.02824 24.47193
#
# Velocity S-wave (km/s) = 3.39466 3.92969 3.67193
# Velocity P-wave (km/s) = 5.69019 7.48443 6.64812
#
# Compressibility (1/GPa) = 0.03238417
#
# Stress axis : x y z
#
# Youngs Moduli (GPa) = 86.23218 104.08573 21.87842
#
# Poissons Ratio (x) = 0.38194 0.11685
# Poissons Ratio (y) = 0.31643 0.18056
# Poissons Ratio (z) = 0.46057 0.85902
#
# Static dielectric constant tensor:
#      x y z
#    x 3.421210 0.000000 0.000000 
#    y 0.000000 4.379180 0.000000 
#    z 0.000000 0.000000 2.716400 
# 
# 
# High freq. dielectric constant tensor:
#      x y z
#    x 1.718480 0.000000 0.000000 
#    y 0.000000 1.737250 0.000000 
#    z 0.000000 0.000000 1.622290 
# 
# From -- ./inp_files/4043.got.cif
#   From: 2010.03.12/outbox.cif.g09.slc.cpg/sg40_3_cif.got.tgz:4043.got - 2010.04.14 01:38:03.
