data_PCOD8182165
_publ_section_title
;
Structure prediction by ZEFSAII (Michael W. Deem and Ramdas Pophale) SiO2 
 PCOD8182165
Probable space group: A B M 2
;
_chemical_formula_sum "Si O2"
_cell_formula_units_Z 40
_cell_length_a 21.578398
_cell_length_b 9.555658
_cell_length_c 9.756010
_cell_angle_alpha 90.000000
_cell_angle_beta 90.000000
_cell_angle_gamma 90.000000
_cell_volume 2011.648204
_symmetry_space_group_name_H-M "A B M 2"
_symmetry_group_IT_number 39
_symmetry_cell_setting 'orthorhombic'
loop_
_space_group_symop_operation_xyz
x,y,z
-x,-y,z
-x,1/2+y,z
x,1/2-y,z
x,1/2+y,1/2+z
-x,1/2-y,1/2+z
-x,y,1/2+z
x,-y,1/2+z
loop_
_atom_site_type_symbol
_atom_site_label
_atom_site_fract_x
_atom_site_fract_y
_atom_site_fract_z
Si Si1 0.561968 0.588714 0.377800
Si Si2 0.776788 0.083730 0.609579
Si Si3 0.368730 0.906521 0.593496
Si Si4 0.851076 0.999905 0.859190
Si Si5 0.063353 0.250000 0.941525
Si Si6 0.936451 0.250000 0.775365
O O1 0.500000 0.500000 0.362456
O O2 0.546064 0.750000 0.414171
O O3 0.603750 0.524918 0.497018
O O4 0.600137 0.577313 0.239834
O O5 0.796651 0.250000 0.609822
O O6 0.703653 0.068096 0.610488
O O7 0.804591 0.994543 0.485907
O O8 0.803483 0.994387 0.734409
O O9 0.381087 0.750000 0.534571
O O10 0.897816 0.876373 0.884427
O O11 0.897515 0.123542 0.831827
O O12 0.999818 0.250000 0.858768
O O13 0.054186 0.250000 0.108466
#
# Coordination Sequence:
#
# PCOD8182165 Si02
#       6
#     8   8   8   8   4   4
#     4  11  23  41  65  97 133 175 220 267 326 384
#     4  11  23  44  66  97 133 168 219 274 325 389
#     4  10  23  42  66  95 132 173 219 274 322 384
#     4  12  22  46  67  93 132 170 215 271 330 387
#     4  12  28  46  66 100 128 170 219 270 326 392
#     4  12  28  46  68  96 134 166 221 272 324 392
#
# _framework density 19.884191999999999
#
# number of rings (size 3 to 8) (size 9 to 14) (size 15 to 20)
#    0.000    0.800    4.000    3.000    2.800    4.800 
#    3.600    0.000    0.000    0.000    0.000    0.000 
#    0.000    0.000    0.000    0.000    0.000    0.000 
#
# Total GULP energy -247811.187788 kJ/mol
# GULP energy per Si atom -12390.559389 kJ/mol
# Density = 1.983894 g / cm^3
# Si number density = 19.884192 Si / 1000 Ang^3
#
#
#
# Elastic Constant Matrix: (Units=GPa)
#
#
# Indices 1 2 3 4 5 6 
#
# 1 167.1967 81.1809 87.9264 0.0000 0.0000 0.0000
# 2 81.1809 140.5335 86.3616 0.0000 0.0000 0.0000
# 3 87.9264 86.3616 158.8568 0.0000 0.0000 0.0000
# 4 0.0000 0.0000 0.0000 40.9188 0.0000 0.0000
# 5 0.0000 0.0000 0.0000 0.0000 45.3111 0.0000
# 6 0.0000 0.0000 0.0000 0.0000 0.0000 -96.4503
#
#
#
# Elastic Compliance Matrix: (Units=1/GPa)
#
#
# Indices 1 2 3 4 5 6 
#
# 1 0.009379 -0.003345 -0.003372 0.000000 0.000000 0.000000
# 2 -0.003345 0.011879 -0.004606 0.000000 0.000000 0.000000
# 3 -0.003372 -0.004606 0.010666 0.000000 0.000000 0.000000
# 4 0.000000 0.000000 0.000000 0.024439 0.000000 0.000000
# 5 0.000000 0.000000 0.000000 0.000000 0.022070 0.000000
# 6 0.000000 0.000000 0.000000 0.000000 0.000000 -0.010368
#
#
# Mechanical properties :
#
#
# Convention : Reuss Voigt Hill
#
# Bulk Modulus (GPa) = 107.81224 108.61386 108.21305
# Shear Modulus (GPa) = 53.30288 12.03046 32.66667
#
# Velocity S-wave (km/s) = 5.18313 2.46240 4.05760
# Velocity P-wave (km/s) = 9.49514 7.92631 8.74597
#
# Compressibility (1/GPa) = 0.00927538
#
# Stress axis : x y z
#
# Youngs Moduli (GPa) = 106.62358 84.18312 93.75773
#
# Poissons Ratio (x) = 0.28162 0.31619
# Poissons Ratio (y) = 0.35669 0.43187
# Poissons Ratio (z) = 0.35958 0.38777
#
# Static dielectric constant tensor:
#      x y z
#    x 3.993830 0.000000 0.000000 
#    y 0.000000 3.720340 0.000000 
#    z 0.000000 0.000000 3.931640 
# 
# 
# High freq. dielectric constant tensor:
#      x y z
#    x 1.806220 0.000000 0.000000 
#    y 0.000000 1.780840 0.000000 
#    z 0.000000 0.000000 1.787140 
# 
# From -- ./inp_files/4047.got.cif
#   From: 2010.03.12/outbox.cif.g09.slc.cpg/sg39_3_cif.got.tgz:4047.got - 2010.04.14 02:53:20.
