data_PCOD8182344
_publ_section_title
;
Structure prediction by ZEFSAII (Michael W. Deem and Ramdas Pophale) SiO2 
 PCOD8182344
Probable space group: A M A 2
;
_chemical_formula_sum "Si O2"
_cell_formula_units_Z 64
_cell_length_a 9.042653
_cell_length_b 26.643445
_cell_length_c 18.475172
_cell_angle_alpha 90.000000
_cell_angle_beta 90.000000
_cell_angle_gamma 90.000000
_cell_volume 4451.175669
_symmetry_space_group_name_H-M "A M A 2"
_symmetry_group_IT_number 40
_symmetry_cell_setting 'orthorhombic'
loop_
_space_group_symop_operation_xyz
x,y,z
-x,-y,z
1/2-x,y,z
1/2+x,-y,z
x,1/2+y,1/2+z
-x,1/2-y,1/2+z
1/2-x,1/2+y,1/2+z
1/2+x,1/2-y,1/2+z
loop_
_atom_site_type_symbol
_atom_site_label
_atom_site_fract_x
_atom_site_fract_y
_atom_site_fract_z
Si Si1 0.925711 0.245194 0.894490
Si Si2 0.911726 0.804121 0.266019
Si Si3 0.923022 0.949725 0.047863
Si Si4 0.412050 0.797435 0.676209
Si Si5 0.424339 0.051268 0.881700
Si Si6 0.575272 0.145905 0.815589
Si Si7 0.075754 0.255994 0.558068
Si Si8 0.072716 0.649566 0.626871
O O1 0.750000 0.246280 0.883119
O O2 0.994328 0.289144 0.841393
O O3 0.980645 0.190131 0.869557
O O4 0.971976 0.257307 0.976148
O O5 0.750000 0.825557 0.285352
O O6 0.898129 0.753425 0.220556
O O7 0.987020 0.844124 0.210493
O O8 0.750000 0.957637 0.056010
O O9 0.979844 0.904046 0.097415
O O10 0.967009 0.938251 0.965139
O O11 0.000000 0.000000 0.076512
O O12 0.250000 0.811220 0.644683
O O13 0.464882 0.840392 0.732218
O O14 0.524837 0.790009 0.609394
O O15 0.250000 0.046648 0.870708
O O16 0.486119 0.096040 0.833415
O O17 0.500000 0.000000 0.855100
O O18 0.750000 0.136669 0.824859
O O19 0.250000 0.263333 0.565332
O O20 0.997120 0.308005 0.576516
O O21 0.250000 0.655686 0.623733
#
# Coordination Sequence:
#
# PCOD8182344 Si02
#       8
#     8   8   8   8   8   8   8   8
#     4   8  14  23  36  56  78 100 126 155 188 225
#     4   7  11  22  38  52  69  96 127 154 179 218
#     4   9  18  29  40  56  77 102 131 162 195 228
#     4   8  15  27  40  53  73 102 130 155 187 228
#     4  10  19  29  40  56  79 103 129 162 195 227
#     4   9  16  28  44  57  73 102 136 163 191 227
#     4  10  17  23  36  58  80 100 125 158 191 222
#     4   9  16  27  41  54  72 101 133 159 188 227
#
# _framework density 14.378223
#
# number of rings (size 3 to 8) (size 9 to 14) (size 15 to 20)
#    0.000    3.250    0.000    3.750    0.000    1.500 
#    0.000    0.625    0.000    6.000    0.000    0.000 
#    0.000    1.000    0.000    7.500    0.000    1.375 
#
# Total GULP energy -396438.644934 kJ/mol
# GULP energy per Si atom -12388.707654 kJ/mol
# Density = 1.434550 g / cm^3
# Si number density = 14.378223 Si / 1000 Ang^3
#
#
#
# Elastic Constant Matrix: (Units=GPa)
#
#
# Indices 1 2 3 4 5 6 
#
# 1 36.7585 29.2356 32.6738 0.0000 0.0000 0.0000
# 2 29.2356 91.5065 59.8202 0.0000 0.0000 0.0000
# 3 32.6738 59.8202 109.8498 0.0000 0.0000 0.0000
# 4 0.0000 0.0000 0.0000 26.0345 0.0000 0.0000
# 5 0.0000 0.0000 0.0000 0.0000 16.3585 0.0000
# 6 0.0000 0.0000 0.0000 0.0000 0.0000 19.5104
#
#
#
# Elastic Compliance Matrix: (Units=1/GPa)
#
#
# Indices 1 2 3 4 5 6 
#
# 1 0.040293 -0.007824 -0.007724 0.000000 0.000000 0.000000
# 2 -0.007824 0.018488 -0.007741 0.000000 0.000000 0.000000
# 3 -0.007724 -0.007741 0.015616 0.000000 0.000000 0.000000
# 4 0.000000 0.000000 0.000000 0.038411 0.000000 0.000000
# 5 0.000000 0.000000 0.000000 0.000000 0.061130 0.000000
# 6 0.000000 0.000000 0.000000 0.000000 0.000000 0.051255
#
#
# Mechanical properties :
#
#
# Convention : Reuss Voigt Hill
#
# Bulk Modulus (GPa) = 35.94574 53.50822 44.72698
# Shear Modulus (GPa) = 17.79079 20.13970 18.96524
#
# Velocity S-wave (km/s) = 3.52140 3.74666 3.63578
# Velocity P-wave (km/s) = 6.44888 7.48413 6.98571
#
# Compressibility (1/GPa) = 0.02781971
#
# Stress axis : x y z
#
# Youngs Moduli (GPa) = 24.81812 54.08838 64.03579
#
# Poissons Ratio (x) = 0.42318 0.49463
# Poissons Ratio (y) = 0.19417 0.49570
# Poissons Ratio (z) = 0.19170 0.41869
#
# Static dielectric constant tensor:
#      x y z
#    x 2.663730 0.000000 0.000000 
#    y 0.000000 2.742570 0.000000 
#    z 0.000000 0.000000 3.074160 
# 
# 
# High freq. dielectric constant tensor:
#      x y z
#    x 1.532710 0.000000 0.000000 
#    y 0.000000 1.519920 0.000000 
#    z 0.000000 0.000000 1.543070 
# 
# From -- ./inp_files/19783.got.cif
#   From: 2010.03.12/outbox.cif.g09.slc.cpg/sg40_10_cif.got.tgz:19783.got - 2010.04.14 01:38:03.
