data_PCOD8182472
_publ_section_title
;
Structure prediction by ZEFSAII (Michael W. Deem and Ramdas Pophale) SiO2 
 PCOD8182472
Probable space group: A M A 2
;
_chemical_formula_sum "Si O2"
_cell_formula_units_Z 64
_cell_length_a 9.014999
_cell_length_b 26.719437
_cell_length_c 17.978257
_cell_angle_alpha 90.000000
_cell_angle_beta 90.000000
_cell_angle_gamma 90.000000
_cell_volume 4330.525201
_symmetry_space_group_name_H-M "A M A 2"
_symmetry_group_IT_number 40
_symmetry_cell_setting 'orthorhombic'
loop_
_space_group_symop_operation_xyz
x,y,z
-x,-y,z
1/2-x,y,z
1/2+x,-y,z
x,1/2+y,1/2+z
-x,1/2-y,1/2+z
1/2-x,1/2+y,1/2+z
1/2+x,1/2-y,1/2+z
loop_
_atom_site_type_symbol
_atom_site_label
_atom_site_fract_x
_atom_site_fract_y
_atom_site_fract_z
Si Si1 0.577789 0.246610 0.410610
Si Si2 0.915968 0.301311 0.689056
Si Si3 0.076126 0.950197 0.570246
Si Si4 0.575640 0.151943 0.643014
Si Si5 0.423160 0.851245 0.316179
Si Si6 0.075288 0.449808 0.900429
Si Si7 0.586014 0.702603 0.287495
Si Si8 0.426058 0.244558 0.566343
O O1 0.750000 0.251968 0.431237
O O2 0.541768 0.193107 0.374036
O O3 0.532944 0.290991 0.353291
O O4 0.477482 0.253027 0.482484
O O5 0.750000 0.318297 0.666841
O O6 0.911156 0.251295 0.736597
O O7 0.991643 0.344601 0.738300
O O8 0.010460 0.290612 0.614946
O O9 0.250000 0.958248 0.575559
O O10 0.024268 0.903285 0.619529
O O11 0.025683 0.940472 0.485417
O O12 0.000000 0.000000 0.602461
O O13 0.750000 0.160949 0.626555
O O14 0.541238 0.157580 0.731361
O O15 0.485158 0.191278 0.594100
O O16 0.250000 0.852498 0.298014
O O17 0.479873 0.902747 0.352365
O O18 0.250000 0.456184 0.894341
O O19 0.000000 0.500000 0.868650
O O20 0.750000 0.693474 0.321681
O O21 0.250000 0.245123 0.571426
#
# Coordination Sequence:
#
# PCOD8182472 Si02
#       8
#     8   8   8   8   8   8   8   8
#     4  10  18  28  42  59  82 110 138 169 207 247
#     4   9  17  29  43  59  81 107 135 168 206 247
#     4   9  17  29  43  60  83 111 141 174 209 241
#     4   9  17  30  45  59  81 112 142 172 209 247
#     4   9  17  29  44  60  80 109 142 174 208 245
#     4   9  17  28  41  58  82 110 141 175 208 241
#     4   8  15  27  41  58  79 104 135 169 203 242
#     4  11  20  28  41  61  84 109 140 173 203 242
#
# _framework density 14.778809000000001
#
# number of rings (size 3 to 8) (size 9 to 14) (size 15 to 20)
#    0.000    2.750    0.000    3.375    0.000    6.500 
#    0.000    2.500    0.000    0.000    0.000    0.000 
#    0.000    1.000    0.000    6.250    0.000    4.250 
#
# Total GULP energy -396737.466617 kJ/mol
# GULP energy per Si atom -12398.045832 kJ/mol
# Density = 1.474517 g / cm^3
# Si number density = 14.778809 Si / 1000 Ang^3
#
#
#
# Elastic Constant Matrix: (Units=GPa)
#
#
# Indices 1 2 3 4 5 6 
#
# 1 71.8895 35.7058 47.1538 0.0000 0.0000 0.0000
# 2 35.7058 93.4568 55.1960 0.0000 0.0000 0.0000
# 3 47.1538 55.1960 84.8694 0.0000 0.0000 0.0000
# 4 0.0000 0.0000 0.0000 25.9405 0.0000 0.0000
# 5 0.0000 0.0000 0.0000 0.0000 25.4174 0.0000
# 6 0.0000 0.0000 0.0000 0.0000 0.0000 21.4724
#
#
#
# Elastic Compliance Matrix: (Units=1/GPa)
#
#
# Indices 1 2 3 4 5 6 
#
# 1 0.022100 -0.001935 -0.011021 0.000000 0.000000 0.000000
# 2 -0.001935 0.017543 -0.010334 0.000000 0.000000 0.000000
# 3 -0.011021 -0.010334 0.024627 0.000000 0.000000 0.000000
# 4 0.000000 0.000000 0.000000 0.038550 0.000000 0.000000
# 5 0.000000 0.000000 0.000000 0.000000 0.039343 0.000000
# 6 0.000000 0.000000 0.000000 0.000000 0.000000 0.046571
#
#
# Mechanical properties :
#
#
# Convention : Reuss Voigt Hill
#
# Bulk Modulus (GPa) = 56.52730 58.48075 57.50403
# Shear Modulus (GPa) = 20.72889 22.04339 21.38614
#
# Velocity S-wave (km/s) = 3.74921 3.86625 3.80818
# Velocity P-wave (km/s) = 7.55473 7.71927 7.63744
#
# Compressibility (1/GPa) = 0.01769057
#
# Stress axis : x y z
#
# Youngs Moduli (GPa) = 45.24953 57.00367 40.60601
#
# Poissons Ratio (x) = 0.11028 0.44750
# Poissons Ratio (y) = 0.08754 0.41963
# Poissons Ratio (z) = 0.49867 0.58909
#
# Static dielectric constant tensor:
#      x y z
#    x 2.911480 0.000000 0.000000 
#    y 0.000000 2.805540 0.000000 
#    z 0.000000 0.000000 2.899580 
# 
# 
# High freq. dielectric constant tensor:
#      x y z
#    x 1.571660 0.000000 0.000000 
#    y 0.000000 1.533680 0.000000 
#    z 0.000000 0.000000 1.552240 
# 
# From -- ./inp_files/15866.got.cif
#   From: 2010.03.12/outbox.cif.g09.slc.cpg/sg40_8_cif.got.tgz:15866.got - 2010.04.14 01:38:03.
