data_PCOD8182984
_publ_section_title
;
Structure prediction by ZEFSAII (Michael W. Deem and Ramdas Pophale) SiO2 
 PCOD8182984
Probable space group: A M A 2
;
_chemical_formula_sum "Si O2"
_cell_formula_units_Z 64
_cell_length_a 9.075049
_cell_length_b 29.978105
_cell_length_c 14.214718
_cell_angle_alpha 90.000000
_cell_angle_beta 90.000000
_cell_angle_gamma 90.000000
_cell_volume 3867.153432
_symmetry_space_group_name_H-M "A M A 2"
_symmetry_group_IT_number 40
_symmetry_cell_setting 'orthorhombic'
loop_
_space_group_symop_operation_xyz
x,y,z
-x,-y,z
1/2-x,y,z
1/2+x,-y,z
x,1/2+y,1/2+z
-x,1/2-y,1/2+z
1/2-x,1/2+y,1/2+z
1/2+x,1/2-y,1/2+z
loop_
_atom_site_type_symbol
_atom_site_label
_atom_site_fract_x
_atom_site_fract_y
_atom_site_fract_z
Si Si1 0.422313 0.455803 0.744130
Si Si2 0.916599 0.320774 0.670082
Si Si3 0.583122 0.265201 0.158408
Si Si4 0.423721 0.365102 0.835823
Si Si5 0.919463 0.802277 0.463253
Si Si6 0.576609 0.045240 0.026975
Si Si7 0.922216 0.282265 0.371081
Si Si8 0.582305 0.369401 0.479125
O O1 0.500000 0.500000 0.783069
O O2 0.250000 0.463105 0.753373
O O3 0.475986 0.414910 0.809233
O O4 0.465914 0.446572 0.636053
O O5 0.750000 0.317896 0.708617
O O6 0.927741 0.356784 0.588316
O O7 0.967718 0.273159 0.630964
O O8 0.028595 0.331865 0.753254
O O9 0.750000 0.246096 0.157028
O O10 0.547598 0.286427 0.259681
O O11 0.564045 0.301787 0.076275
O O12 0.250000 0.362243 0.848132
O O13 0.501486 0.348039 0.930692
O O14 0.750000 0.803553 0.432135
O O15 0.990517 0.759119 0.414151
O O16 0.750000 0.041001 0.011999
O O17 0.500000 0.000000 0.990866
O O18 0.516504 0.086501 0.964930
O O19 0.750000 0.275493 0.394683
O O20 0.979117 0.328715 0.415989
O O21 0.750000 0.380586 0.450480
#
# Coordination Sequence:
#
# PCOD8182984 Si02
#       8
#     8   8   8   8   8   8   8   8
#     4   9  19  32  48  70  96 127 161 196 240 295
#     4  11  20  29  47  74 100 130 169 208 242 286
#     4  10  21  35  50  68  99 135 168 208 251 291
#     4  11  21  34  49  70 100 137 169 199 249 297
#     4  11  22  33  48  74  99 129 172 210 244 291
#     4  10  19  32  49  71 100 131 164 200 245 294
#     4  10  20  35  51  69  96 135 169 204 251 295
#     4  10  20  32  48  72 100 132 170 203 246 297
#
# _framework density 16.549641000000001
#
# number of rings (size 3 to 8) (size 9 to 14) (size 15 to 20)
#    0.000    1.750    3.750    1.500    0.000    3.000 
#    0.000    0.000    0.000    0.000    0.000    0.875 
#    0.000    2.000    0.000    0.000    0.000    0.000 
#
# Total GULP energy -396808.414185 kJ/mol
# GULP energy per Si atom -12400.262943 kJ/mol
# Density = 1.651197 g / cm^3
# Si number density = 16.549641 Si / 1000 Ang^3
#
#
#
# Elastic Constant Matrix: (Units=GPa)
#
#
# Indices 1 2 3 4 5 6 
#
# 1 67.3728 47.2907 24.7803 0.0000 0.0000 0.0000
# 2 47.2907 110.4182 26.8044 0.0000 0.0000 0.0000
# 3 24.7803 26.8044 65.6218 0.0000 0.0000 0.0000
# 4 0.0000 0.0000 0.0000 25.2558 0.0000 0.0000
# 5 0.0000 0.0000 0.0000 0.0000 18.2531 0.0000
# 6 0.0000 0.0000 0.0000 0.0000 0.0000 31.2485
#
#
#
# Elastic Compliance Matrix: (Units=1/GPa)
#
#
# Indices 1 2 3 4 5 6 
#
# 1 0.022662 -0.008468 -0.005099 0.000000 0.000000 0.000000
# 2 -0.008468 0.013218 -0.002201 0.000000 0.000000 0.000000
# 3 -0.005099 -0.002201 0.018063 0.000000 0.000000 0.000000
# 4 0.000000 0.000000 0.000000 0.039595 0.000000 0.000000
# 5 0.000000 0.000000 0.000000 0.000000 0.054785 0.000000
# 6 0.000000 0.000000 0.000000 0.000000 0.000000 0.032002
#
#
# Mechanical properties :
#
#
# Convention : Reuss Voigt Hill
#
# Bulk Modulus (GPa) = 44.62913 49.01816 46.82364
# Shear Modulus (GPa) = 22.79670 24.58732 23.69201
#
# Velocity S-wave (km/s) = 3.71546 3.85862 3.78772
# Velocity P-wave (km/s) = 6.74029 7.03812 6.89082
#
# Compressibility (1/GPa) = 0.02240689
#
# Stress axis : x y z
#
# Youngs Moduli (GPa) = 44.12643 75.65658 55.36064
#
# Poissons Ratio (x) = 0.64067 0.28227
# Poissons Ratio (y) = 0.37367 0.12186
# Poissons Ratio (z) = 0.22499 0.16654
#
# Static dielectric constant tensor:
#      x y z
#    x 3.165410 0.000000 0.000000 
#    y 0.000000 3.136250 0.000000 
#    z 0.000000 0.000000 3.023230 
# 
# 
# High freq. dielectric constant tensor:
#      x y z
#    x 1.646230 0.000000 0.000000 
#    y 0.000000 1.626610 0.000000 
#    z 0.000000 0.000000 1.609130 
# 
# From -- ./inp_files/15868.got.cif
#   From: 2010.03.12/outbox.cif.g09.slc.cpg/sg40_8_cif.got.tgz:15868.got - 2010.04.14 01:38:03.
