data_PCOD8182161
_publ_section_title
;
Structure prediction by ZEFSAII (Michael W. Deem and Ramdas Pophale) SiO2 
 PCOD8182161
Probable space group: A B M 2
;
_chemical_formula_sum "Si O2"
_cell_formula_units_Z 40
_cell_length_a 20.964683
_cell_length_b 9.520531
_cell_length_c 9.628252
_cell_angle_alpha 90.000000
_cell_angle_beta 90.000000
_cell_angle_gamma 90.000000
_cell_volume 1921.750134
_symmetry_space_group_name_H-M "A B M 2"
_symmetry_group_IT_number 39
_symmetry_cell_setting 'orthorhombic'
loop_
_space_group_symop_operation_xyz
x,y,z
-x,-y,z
-x,1/2+y,z
x,1/2-y,z
x,1/2+y,1/2+z
-x,1/2-y,1/2+z
-x,y,1/2+z
x,-y,1/2+z
loop_
_atom_site_type_symbol
_atom_site_label
_atom_site_fract_x
_atom_site_fract_y
_atom_site_fract_z
Si Si1 0.438671 0.087351 0.968110
Si Si2 0.074295 0.750000 0.115085
Si Si3 0.223492 0.406091 0.293201
Si Si4 0.952056 0.750000 0.932034
Si Si5 0.855630 0.974946 0.034386
Si Si6 0.367013 0.411004 0.246352
O O1 0.456796 0.250000 0.937534
O O2 0.587660 0.984079 0.829351
O O3 0.500000 0.000000 0.018710
O O4 0.384645 0.077098 0.085045
O O5 0.040734 0.750000 0.265448
O O6 0.120174 0.618335 0.099997
O O7 0.022900 0.750000 0.992462
O O8 0.226423 0.250000 0.357178
O O9 0.184107 0.395453 0.151162
O O10 0.190269 0.507932 0.402577
O O11 0.294327 0.462433 0.262232
O O12 0.916562 0.887754 0.985524
O O13 0.376097 0.250000 0.297950
#
# Coordination Sequence:
#
# PCOD8182161 Si02
#       6
#     8   4   8   4   8   8
#     4  11  23  41  65  96 133 174 218 265 319 379
#     4  12  28  44  66 100 126 172 219 266 328 390
#     4  11  23  42  68  95 131 168 213 273 323 385
#     4  12  28  44  68  94 132 166 219 270 324 390
#     4  12  24  44  67  95 128 170 216 267 331 386
#     4  10  23  42  64  97 130 171 219 266 323 380
#
# _framework density 20.814360000000001
#
# number of rings (size 3 to 8) (size 9 to 14) (size 15 to 20)
#    0.000    0.800    4.000    3.000    2.800    4.800 
#    3.600    0.000    0.000    0.000    0.000    0.000 
#    0.000    0.000    0.000    0.000    0.000    0.000 
#
# Total GULP energy -248116.740955 kJ/mol
# GULP energy per Si atom -12405.837048 kJ/mol
# Density = 2.076699 g / cm^3
# Si number density = 20.814360 Si / 1000 Ang^3
#
#
#
# Elastic Constant Matrix: (Units=GPa)
#
#
# Indices 1 2 3 4 5 6 
#
# 1 93.3911 22.6594 15.3204 0.0000 0.0000 0.0000
# 2 22.6594 106.2689 19.1746 0.0000 0.0000 0.0000
# 3 15.3204 19.1746 98.6289 0.0000 0.0000 0.0000
# 4 0.0000 0.0000 0.0000 25.0930 0.0000 0.0000
# 5 0.0000 0.0000 0.0000 0.0000 38.0598 0.0000
# 6 0.0000 0.0000 0.0000 0.0000 0.0000 27.1871
#
#
#
# Elastic Compliance Matrix: (Units=1/GPa)
#
#
# Indices 1 2 3 4 5 6 
#
# 1 0.011463 -0.002200 -0.001353 0.000000 0.000000 0.000000
# 2 -0.002200 0.010174 -0.001636 0.000000 0.000000 0.000000
# 3 -0.001353 -0.001636 0.010667 0.000000 0.000000 0.000000
# 4 0.000000 0.000000 0.000000 0.039852 0.000000 0.000000
# 5 0.000000 0.000000 0.000000 0.000000 0.026274 0.000000
# 6 0.000000 0.000000 0.000000 0.000000 0.000000 0.036782
#
#
# Mechanical properties :
#
#
# Convention : Reuss Voigt Hill
#
# Bulk Modulus (GPa) = 45.60708 45.84418 45.72563
# Shear Modulus (GPa) = 32.70089 34.14362 33.42225
#
# Velocity S-wave (km/s) = 3.96798 4.05456 4.01150
# Velocity P-wave (km/s) = 6.55378 6.63268 6.59335
#
# Compressibility (1/GPa) = 0.02192642
#
# Stress axis : x y z
#
# Youngs Moduli (GPa) = 87.23387 98.28515 93.74464
#
# Poissons Ratio (x) = 0.21625 0.12683
# Poissons Ratio (y) = 0.19193 0.15339
# Poissons Ratio (z) = 0.11802 0.16082
#
# Static dielectric constant tensor:
#      x y z
#    x 3.776050 0.000000 0.000000 
#    y 0.000000 3.941190 0.000000 
#    z 0.000000 0.000000 3.668780 
# 
# 
# High freq. dielectric constant tensor:
#      x y z
#    x 1.824650 0.000000 0.000000 
#    y 0.000000 1.821600 0.000000 
#    z 0.000000 0.000000 1.819420 
# 
# From -- ./inp_files/3632.got.cif
#   From: 2010.03.12/outbox.cif.g09.slc.cpg/sg39_2_cif.got.tgz:3632.got - 2010.04.14 02:53:20.
