data_PCOD8182138
_publ_section_title
;
Structure prediction by ZEFSAII (Michael W. Deem and Ramdas Pophale) SiO2 
 PCOD8182138
Probable space group: A B M 2
;
_chemical_formula_sum "Si O2"
_cell_formula_units_Z 48
_cell_length_a 11.658322
_cell_length_b 15.900161
_cell_length_c 11.898501
_cell_angle_alpha 90.000000
_cell_angle_beta 90.000000
_cell_angle_gamma 90.000000
_cell_volume 2205.615573
_symmetry_space_group_name_H-M "A B M 2"
_symmetry_group_IT_number 39
_symmetry_cell_setting 'orthorhombic'
loop_
_space_group_symop_operation_xyz
x,y,z
-x,-y,z
-x,1/2+y,z
x,1/2-y,z
x,1/2+y,1/2+z
-x,1/2-y,1/2+z
-x,y,1/2+z
x,-y,1/2+z
loop_
_atom_site_type_symbol
_atom_site_label
_atom_site_fract_x
_atom_site_fract_y
_atom_site_fract_z
Si Si1 0.286783 0.153964 0.722670
Si Si2 0.925348 0.849795 0.588148
Si Si3 0.172259 0.348259 0.165742
Si Si4 0.440214 0.154174 0.529597
Si Si5 0.323720 0.092427 0.964691
Si Si6 0.233477 0.590804 0.905122
O O1 0.283869 0.250000 0.685281
O O2 0.164393 0.116629 0.682539
O O3 0.392391 0.116679 0.648839
O O4 0.303714 0.147018 0.853929
O O5 0.931745 0.750000 0.577255
O O6 0.885773 0.887106 0.467957
O O7 0.050122 0.883724 0.622824
O O8 0.165829 0.250000 0.199097
O O9 0.212293 0.402867 0.272390
O O10 0.262365 0.361560 0.067078
O O11 0.486822 0.250000 0.538591
O O12 0.540934 0.091892 0.490571
O O13 0.335049 0.154170 0.440732
O O14 0.275711 0.000863 0.941081
#
# Coordination Sequence:
#
# PCOD8182138 Si02
#       6
#     8   8   8   8   8   8
#     4   9  20  41  68  95 130 176 226 277 335 405
#     4   9  21  44  70  93 127 179 229 274 332 406
#     4  11  25  44  71 100 133 182 237 280 329 414
#     4  10  22  44  71  94 131 182 227 275 336 414
#     4  12  26  41  65 104 138 173 223 284 347 402
#     4  11  25  44  66 102 139 177 219 285 352 398
#
# _framework density 21.762630999999999
#
# number of rings (size 3 to 8) (size 9 to 14) (size 15 to 20)
#    0.000    1.667    0.000    4.500    9.333    0.667 
#    0.000    0.000    0.000    0.000    0.000    0.000 
#    0.000    0.000    0.000    0.000    0.000    0.000 
#
# Total GULP energy -297592.646161 kJ/mol
# GULP energy per Si atom -12399.693590 kJ/mol
# Density = 2.171310 g / cm^3
# Si number density = 21.762631 Si / 1000 Ang^3
#
#
#
# Elastic Constant Matrix: (Units=GPa)
#
#
# Indices 1 2 3 4 5 6 
#
# 1 124.4625 23.4682 68.6778 0.0000 0.0000 0.0000
# 2 23.4682 58.9842 12.8866 0.0000 0.0000 0.0000
# 3 68.6778 12.8866 169.0724 0.0000 0.0000 0.0000
# 4 0.0000 0.0000 0.0000 23.2102 0.0000 0.0000
# 5 0.0000 0.0000 0.0000 0.0000 31.9722 0.0000
# 6 0.0000 0.0000 0.0000 0.0000 0.0000 -32.7367
#
#
#
# Elastic Compliance Matrix: (Units=1/GPa)
#
#
# Indices 1 2 3 4 5 6 
#
# 1 0.011009 -0.003461 -0.004208 0.000000 0.000000 0.000000
# 2 -0.003461 0.018329 0.000009 0.000000 0.000000 0.000000
# 3 -0.004208 0.000009 0.007623 0.000000 0.000000 0.000000
# 4 0.000000 0.000000 0.000000 0.043084 0.000000 0.000000
# 5 0.000000 0.000000 0.000000 0.000000 0.031277 0.000000
# 6 0.000000 0.000000 0.000000 0.000000 0.000000 -0.030547
#
#
# Mechanical properties :
#
#
# Convention : Reuss Voigt Hill
#
# Bulk Modulus (GPa) = 46.20905 62.50938 54.35922
# Shear Modulus (GPa) = 48.39795 20.98825 34.69310
#
# Velocity S-wave (km/s) = 4.72094 3.10888 3.99702
# Velocity P-wave (km/s) = 7.14113 6.45542 6.80691
#
# Compressibility (1/GPa) = 0.02164078
#
# Stress axis : x y z
#
# Youngs Moduli (GPa) = 90.83331 54.55908 131.17624
#
# Poissons Ratio (x) = 0.18882 0.55201
# Poissons Ratio (y) = 0.31436 -0.00116
# Poissons Ratio (z) = 0.38224 -0.00048
#
# Static dielectric constant tensor:
#      x y z
#    x 4.104020 0.000000 0.000000 
#    y 0.000000 3.701410 0.000000 
#    z 0.000000 0.000000 3.923320 
# 
# 
# High freq. dielectric constant tensor:
#      x y z
#    x 1.863180 0.000000 0.000000 
#    y 0.000000 1.845470 0.000000 
#    z 0.000000 0.000000 1.856660 
# 
# From -- ./inp_files/5803.got.cif
#   From: 2010.03.12/outbox.cif.g09.slc.cpg/sg39_3_cif.got.tgz:5803.got - 2010.04.14 02:53:20.
