data_PCOD8182711
_publ_section_title
;
Structure prediction by ZEFSAII (Michael W. Deem and Ramdas Pophale) SiO2 
 PCOD8182711
Probable space group: A M A 2
;
_chemical_formula_sum "Si O2"
_cell_formula_units_Z 64
_cell_length_a 8.718824
_cell_length_b 33.674877
_cell_length_c 11.856570
_cell_angle_alpha 90.000000
_cell_angle_beta 90.000000
_cell_angle_gamma 90.000000
_cell_volume 3481.152098
_symmetry_space_group_name_H-M "A M A 2"
_symmetry_group_IT_number 40
_symmetry_cell_setting 'orthorhombic'
loop_
_space_group_symop_operation_xyz
x,y,z
-x,-y,z
1/2-x,y,z
1/2+x,-y,z
x,1/2+y,1/2+z
-x,1/2-y,1/2+z
1/2-x,1/2+y,1/2+z
1/2+x,1/2-y,1/2+z
loop_
_atom_site_type_symbol
_atom_site_label
_atom_site_fract_x
_atom_site_fract_y
_atom_site_fract_z
Si Si1 0.571040 0.457970 0.177280
Si Si2 0.931793 0.733190 0.474953
Si Si3 0.074351 0.383262 0.506125
Si Si4 0.570201 0.330004 0.322473
Si Si5 0.429945 0.314684 0.927749
Si Si6 0.428600 0.540779 0.440099
Si Si7 0.571226 0.624250 0.115979
Si Si8 0.074401 0.319399 0.677984
O O1 0.500000 0.500000 0.135656
O O2 0.750000 0.459868 0.151632
O O3 0.536216 0.451505 0.308906
O O4 0.501913 0.419754 0.113618
O O5 0.750000 0.728344 0.467808
O O6 0.997231 0.711541 0.587746
O O7 0.001416 0.712402 0.362592
O O8 0.981058 0.778577 0.486301
O O9 0.250000 0.379821 0.463605
O O10 0.055992 0.363731 0.628894
O O11 0.962638 0.362577 0.417146
O O12 0.019554 0.428112 0.516743
O O13 0.750000 0.325062 0.303736
O O14 0.497959 0.345391 0.206723
O O15 0.250000 0.304893 0.927755
O O16 0.501455 0.318503 0.801658
O O17 0.460759 0.355549 0.994636
O O18 0.500000 0.500000 0.480504
O O19 0.250000 0.542128 0.466917
O O20 0.750000 0.619216 0.141348
O O21 0.250000 0.307731 0.694400
#
# Coordination Sequence:
#
# PCOD8182711 Si02
#       8
#     8   8   8   8   8   8   8   8
#     4  10  20  34  54  80 114 150 183 225 280 336
#     4  10  21  37  57  81 107 140 182 229 279 326
#     4  10  18  32  55  78 104 139 176 220 268 321
#     4  11  21  34  53  77 108 145 182 221 271 327
#     4  10  22  39  57  80 109 145 185 227 274 329
#     4  10  19  30  48  78 112 145 174 215 267 324
#     4  11  22  35  55  83 115 147 186 231 276 331
#     4   8  18  37  56  75 103 141 179 218 270 324
#
# _framework density 18.384719
#
# number of rings (size 3 to 8) (size 9 to 14) (size 15 to 20)
#    0.000    2.000    1.250    3.750    1.750    2.000 
#    0.000    3.125    0.000    0.750    0.000    0.000 
#    0.000    0.000    0.000    0.000    0.000    0.000 
#
# Total GULP energy -396745.388616 kJ/mol
# GULP energy per Si atom -12398.293394 kJ/mol
# Density = 1.834287 g / cm^3
# Si number density = 18.384719 Si / 1000 Ang^3
#
#
#
# Elastic Constant Matrix: (Units=GPa)
#
#
# Indices 1 2 3 4 5 6 
#
# 1 87.6279 52.1762 34.6512 0.0000 0.0000 0.0000
# 2 52.1762 144.0626 49.1269 0.0000 0.0000 0.0000
# 3 34.6512 49.1269 95.5510 0.0000 0.0000 0.0000
# 4 0.0000 0.0000 0.0000 21.3365 0.0000 0.0000
# 5 0.0000 0.0000 0.0000 0.0000 14.7172 0.0000
# 6 0.0000 0.0000 0.0000 0.0000 0.0000 36.5845
#
#
#
# Elastic Compliance Matrix: (Units=1/GPa)
#
#
# Indices 1 2 3 4 5 6 
#
# 1 0.015355 -0.004441 -0.003285 0.000000 0.000000 0.000000
# 2 -0.004441 0.009702 -0.003378 0.000000 0.000000 0.000000
# 3 -0.003285 -0.003378 0.013394 0.000000 0.000000 0.000000
# 4 0.000000 0.000000 0.000000 0.046868 0.000000 0.000000
# 5 0.000000 0.000000 0.000000 0.000000 0.067948 0.000000
# 6 0.000000 0.000000 0.000000 0.000000 0.000000 0.027334
#
#
# Mechanical properties :
#
#
# Convention : Reuss Voigt Hill
#
# Bulk Modulus (GPa) = 61.56526 66.57224 64.06875
# Shear Modulus (GPa) = 24.01284 27.28011 25.64647
#
# Velocity S-wave (km/s) = 3.61796 3.85625 3.73901
# Velocity P-wave (km/s) = 7.14232 7.49112 7.31880
#
# Compressibility (1/GPa) = 0.01624293
#
# Stress axis : x y z
#
# Youngs Moduli (GPa) = 65.12405 103.07539 74.66306
#
# Poissons Ratio (x) = 0.45776 0.24528
# Poissons Ratio (y) = 0.28922 0.25217
# Poissons Ratio (z) = 0.21395 0.34814
#
# Static dielectric constant tensor:
#      x y z
#    x 3.323670 0.000000 0.000000 
#    y 0.000000 3.479740 0.000000 
#    z 0.000000 0.000000 3.341390 
# 
# 
# High freq. dielectric constant tensor:
#      x y z
#    x 1.713030 0.000000 0.000000 
#    y 0.000000 1.719900 0.000000 
#    z 0.000000 0.000000 1.683880 
# 
# From -- ./inp_files/10659.got.cif
#   From: 2010.03.12/outbox.cif.g09.slc.cpg/sg40_6_cif.got.tgz:10659.got - 2010.04.14 01:38:03.
