data_PCOD8182029
_publ_section_title
;
Structure prediction by ZEFSAII (Michael W. Deem and Ramdas Pophale) SiO2 
 PCOD8182029
Probable space group: A B M 2
;
_chemical_formula_sum "Si O2"
_cell_formula_units_Z 48
_cell_length_a 7.752156
_cell_length_b 10.105646
_cell_length_c 30.913299
_cell_angle_alpha 90.000000
_cell_angle_beta 90.000000
_cell_angle_gamma 90.000000
_cell_volume 2421.764669
_symmetry_space_group_name_H-M "A B M 2"
_symmetry_group_IT_number 39
_symmetry_cell_setting 'orthorhombic'
loop_
_space_group_symop_operation_xyz
x,y,z
-x,-y,z
-x,1/2+y,z
x,1/2-y,z
x,1/2+y,1/2+z
-x,1/2-y,1/2+z
-x,y,1/2+z
x,-y,1/2+z
loop_
_atom_site_type_symbol
_atom_site_label
_atom_site_fract_x
_atom_site_fract_y
_atom_site_fract_z
Si Si1 0.146548 0.396780 0.845250
Si Si2 0.714247 0.250000 0.981763
Si Si3 0.000000 0.500000 0.112969
Si Si4 0.328306 0.250000 0.991181
Si Si5 0.666786 0.908467 0.664307
Si Si6 0.630322 0.108020 0.261969
Si Si7 0.205923 0.489665 0.934151
Si Si8 0.021901 0.750000 0.552547
O O1 0.079442 0.250000 0.859042
O O2 0.229618 0.384559 0.798778
O O3 0.262698 0.453545 0.884906
O O4 0.000000 0.500000 0.837151
O O5 0.528997 0.250000 0.005914
O O6 0.869438 0.250000 0.016517
O O7 0.716099 0.372715 0.949261
O O8 0.830121 0.475742 0.141491
O O9 0.013556 0.376334 0.082118
O O10 0.212661 0.250000 0.033504
O O11 0.282937 0.379761 0.964830
O O12 0.642492 0.750000 0.652434
O O13 0.709012 0.925675 0.715117
O O14 0.500000 0.000000 0.652259
O O15 0.534623 0.250000 0.258442
O O16 0.500000 0.000000 0.278481
O O17 0.000000 0.500000 0.937444
#
# Coordination Sequence:
#
# PCOD8182029 Si02
#       8
#     8   4   4   4   8   8   8   4
#     4  10  22  37  60  93 128 170 213 257 308 371
#     4  12  26  42  70  95 123 172 217 265 328 388
#     4  12  26  44  72  94 134 172 214 268 344 402
#     4  12  24  44  70  93 125 168 217 263 322 392
#     4  10  23  44  71 101 134 174 220 269 327 393
#     4   9  20  40  61  92 134 169 210 264 311 371
#     4  11  21  42  65  91 133 170 213 270 318 374
#     4  12  26  46  66  98 130 166 212 280 334 394
#
# _framework density 19.820259
#
# number of rings (size 3 to 8) (size 9 to 14) (size 15 to 20)
#    0.000    1.333    3.333    1.500    5.833    3.333 
#    0.000    0.000    0.000    0.000    0.000    0.000 
#    0.000    0.000    0.000    0.000    0.000    0.000 
#
# Total GULP energy -297361.381863 kJ/mol
# GULP energy per Si atom -12390.057578 kJ/mol
# Density = 1.977515 g / cm^3
# Si number density = 19.820259 Si / 1000 Ang^3
#
#
#
# Elastic Constant Matrix: (Units=GPa)
#
#
# Indices 1 2 3 4 5 6 
#
# 1 116.8933 54.6440 51.2347 0.0000 0.0000 0.0000
# 2 54.6440 181.1353 66.5702 0.0000 0.0000 0.0000
# 3 51.2347 66.5702 104.8300 0.0000 0.0000 0.0000
# 4 0.0000 0.0000 0.0000 36.9779 0.0000 0.0000
# 5 0.0000 0.0000 0.0000 0.0000 9.7758 0.0000
# 6 0.0000 0.0000 0.0000 0.0000 0.0000 42.7097
#
#
#
# Elastic Compliance Matrix: (Units=1/GPa)
#
#
# Indices 1 2 3 4 5 6 
#
# 1 0.011321 -0.001802 -0.004388 0.000000 0.000000 0.000000
# 2 -0.001802 0.007488 -0.003874 0.000000 0.000000 0.000000
# 3 -0.004388 -0.003874 0.014144 0.000000 0.000000 0.000000
# 4 0.000000 0.000000 0.000000 0.027043 0.000000 0.000000
# 5 0.000000 0.000000 0.000000 0.000000 0.102294 0.000000
# 6 0.000000 0.000000 0.000000 0.000000 0.000000 0.023414
#
#
# Mechanical properties :
#
#
# Convention : Reuss Voigt Hill
#
# Bulk Modulus (GPa) = 77.98366 83.08403 80.53385
# Shear Modulus (GPa) = 23.79713 33.25332 28.52522
#
# Velocity S-wave (km/s) = 3.46879 4.10047 3.79779
# Velocity P-wave (km/s) = 7.44810 8.02672 7.74282
#
# Compressibility (1/GPa) = 0.01282320
#
# Stress axis : x y z
#
# Youngs Moduli (GPa) = 88.33286 133.53982 70.69929
#
# Poissons Ratio (x) = 0.24069 0.31025
# Poissons Ratio (y) = 0.15921 0.27392
# Poissons Ratio (z) = 0.38764 0.51739
#
# Static dielectric constant tensor:
#      x y z
#    x 3.808310 0.000000 0.000000 
#    y 0.000000 4.155930 0.000000 
#    z 0.000000 0.000000 3.923170 
# 
# 
# High freq. dielectric constant tensor:
#      x y z
#    x 1.754430 0.000000 0.000000 
#    y 0.000000 1.803690 0.000000 
#    z 0.000000 0.000000 1.785300 
# 
# From -- ./inp_files/17710.got.cif
#   From: 2010.03.12/outbox.cif.g09.slc.cpg/sg39_9_cif.got.tgz:17710.got - 2010.04.14 02:53:20.
