data_PCOD8182435
_publ_section_title
;
Structure prediction by ZEFSAII (Michael W. Deem and Ramdas Pophale) SiO2 
 PCOD8182435
Probable space group: A M A 2
;
_chemical_formula_sum "Si O2"
_cell_formula_units_Z 64
_cell_length_a 9.247158
_cell_length_b 18.689983
_cell_length_c 21.210098
_cell_angle_alpha 90.000000
_cell_angle_beta 90.000000
_cell_angle_gamma 90.000000
_cell_volume 3665.724817
_symmetry_space_group_name_H-M "A M A 2"
_symmetry_group_IT_number 40
_symmetry_cell_setting 'orthorhombic'
loop_
_space_group_symop_operation_xyz
x,y,z
-x,-y,z
1/2-x,y,z
1/2+x,-y,z
x,1/2+y,1/2+z
-x,1/2-y,1/2+z
1/2-x,1/2+y,1/2+z
1/2+x,1/2-y,1/2+z
loop_
_atom_site_type_symbol
_atom_site_label
_atom_site_fract_x
_atom_site_fract_y
_atom_site_fract_z
Si Si1 0.578832 0.926802 0.699650
Si Si2 0.906525 0.062174 0.883399
Si Si3 0.413034 0.667426 0.316536
Si Si4 0.407695 0.935090 0.030686
Si Si5 0.582056 0.367803 0.069214
Si Si6 0.078656 0.277696 0.510531
Si Si7 0.923363 0.927245 0.435957
Si Si8 0.417425 0.793931 0.396447
O O1 0.750000 0.940420 0.696883
O O2 0.540757 0.861853 0.747892
O O3 0.512415 0.900557 0.632522
O O4 0.500000 0.000000 0.719728
O O5 0.750000 0.061183 0.850863
O O6 0.983542 0.136593 0.870481
O O7 0.891946 0.049248 0.957090
O O8 0.000000 0.000000 0.850505
O O9 0.250000 0.642025 0.330774
O O10 0.425705 0.753098 0.328230
O O11 0.250000 0.938233 0.062997
O O12 0.472506 0.854645 0.038924
O O13 0.500000 0.000000 0.061645
O O14 0.750000 0.382258 0.073881
O O15 0.551822 0.282728 0.063860
O O16 0.524725 0.408559 0.007052
O O17 0.250000 0.281288 0.491486
O O18 0.983314 0.257602 0.450166
O O19 0.750000 0.931345 0.429003
O O20 0.986948 0.865592 0.390541
O O21 0.000000 0.000000 0.414896
O O22 0.250000 0.811756 0.412953
#
# Coordination Sequence:
#
# PCOD8182435 Si02
#       8
#     8   8   8   8   8   8   8   8
#     4  10  20  34  48  67  93 126 162 197 228 266
#     4  10  18  27  40  58  84 119 154 187 223 265
#     4  10  20  31  44  63  91 123 159 193 225 266
#     4   9  17  26  39  60  87 116 147 183 224 275
#     4   8  16  30  50  69  91 121 157 196 234 273
#     4   9  16  30  47  66  89 119 156 195 237 285
#     4  10  19  32  51  74  97 122 151 190 237 285
#     4  10  19  30  45  67  93 122 153 191 233 279
#
# _framework density 17.459029999999998
#
# number of rings (size 3 to 8) (size 9 to 14) (size 15 to 20)
#    0.000    2.500    1.250    2.625    0.000    3.000 
#    0.000    2.500    0.000    0.000    0.000    0.875 
#    0.000    2.000    0.000    0.000    0.000    0.000 
#
# Total GULP energy -396458.502300 kJ/mol
# GULP energy per Si atom -12389.328197 kJ/mol
# Density = 1.741929 g / cm^3
# Si number density = 17.459030 Si / 1000 Ang^3
#
#
#
# Elastic Constant Matrix: (Units=GPa)
#
#
# Indices 1 2 3 4 5 6 
#
# 1 77.3308 48.2630 20.3126 0.0000 0.0000 0.0000
# 2 48.2630 138.3192 30.9998 0.0000 0.0000 0.0000
# 3 20.3126 30.9998 48.9239 0.0000 0.0000 0.0000
# 4 0.0000 0.0000 0.0000 21.5137 0.0000 0.0000
# 5 0.0000 0.0000 0.0000 0.0000 10.6396 0.0000
# 6 0.0000 0.0000 0.0000 0.0000 0.0000 30.7365
#
#
#
# Elastic Compliance Matrix: (Units=1/GPa)
#
#
# Indices 1 2 3 4 5 6 
#
# 1 0.017140 -0.005112 -0.003877 0.000000 0.000000 0.000000
# 2 -0.005112 0.009951 -0.004183 0.000000 0.000000 0.000000
# 3 -0.003877 -0.004183 0.024700 0.000000 0.000000 0.000000
# 4 0.000000 0.000000 0.000000 0.046482 0.000000 0.000000
# 5 0.000000 0.000000 0.000000 0.000000 0.093989 0.000000
# 6 0.000000 0.000000 0.000000 0.000000 0.000000 0.032535
#
#
# Mechanical properties :
#
#
# Convention : Reuss Voigt Hill
#
# Bulk Modulus (GPa) = 39.29708 51.52495 45.41101
# Shear Modulus (GPa) = 19.25875 23.57787 21.41831
#
# Velocity S-wave (km/s) = 3.32487 3.67886 3.50633
# Velocity P-wave (km/s) = 6.10710 6.90082 6.51606
#
# Compressibility (1/GPa) = 0.02544718
#
# Stress axis : x y z
#
# Youngs Moduli (GPa) = 58.34250 100.49590 40.48561
#
# Poissons Ratio (x) = 0.51370 0.15698
# Poissons Ratio (y) = 0.29822 0.16934
# Poissons Ratio (z) = 0.22622 0.42035
#
# Static dielectric constant tensor:
#      x y z
#    x 3.373330 0.000000 0.000000 
#    y 0.000000 3.438840 0.000000 
#    z 0.000000 0.000000 2.990050 
# 
# 
# High freq. dielectric constant tensor:
#      x y z
#    x 1.671900 0.000000 0.000000 
#    y 0.000000 1.682500 0.000000 
#    z 0.000000 0.000000 1.618580 
# 
# From -- ./inp_files/22538.got.cif
#   From: 2010.03.12/outbox.cif.g09.slc.cpg/sg40_12_cif.got.tgz:22538.got - 2010.04.14 01:38:03.
