data_PCOD8182775
_publ_section_title
;
Structure prediction by ZEFSAII (Michael W. Deem and Ramdas Pophale) SiO2 
 PCOD8182775
Probable space group: A M A 2
;
_chemical_formula_sum "Si O2"
_cell_formula_units_Z 52
_cell_length_a 14.873616
_cell_length_b 10.210873
_cell_length_c 17.321384
_cell_angle_alpha 90.000000
_cell_angle_beta 90.000000
_cell_angle_gamma 90.000000
_cell_volume 2630.643693
_symmetry_space_group_name_H-M "A M A 2"
_symmetry_group_IT_number 40
_symmetry_cell_setting 'orthorhombic'
loop_
_space_group_symop_operation_xyz
x,y,z
-x,-y,z
1/2-x,y,z
1/2+x,-y,z
x,1/2+y,1/2+z
-x,1/2-y,1/2+z
1/2-x,1/2+y,1/2+z
1/2+x,1/2-y,1/2+z
loop_
_atom_site_type_symbol
_atom_site_label
_atom_site_fract_x
_atom_site_fract_y
_atom_site_fract_z
Si Si1 0.750000 0.108196 0.312351
Si Si2 0.427811 0.384021 0.547236
Si Si3 0.956019 0.141674 0.877578
Si Si4 0.043981 0.358326 0.073686
Si Si5 0.750000 0.608196 0.638914
Si Si6 0.427811 0.884021 0.404029
Si Si7 0.750000 0.855833 0.725632
Si Si8 0.597709 0.062266 0.725632
O O1 0.750000 0.043417 0.225632
O O2 0.661111 0.067090 0.359624
O O3 0.750000 0.265816 0.302637
O O4 0.500000 0.500000 0.550402
O O5 0.403083 0.343978 0.458697
O O6 0.469477 0.254461 0.585913
O O7 0.338889 0.432910 0.591641
O O8 0.889077 0.149863 0.803366
O O9 0.030523 0.254461 0.865352
O O10 0.000000 0.000000 0.877556
O O11 0.110923 0.350137 0.147899
O O12 0.000000 0.500000 0.073709
O O13 0.096917 0.343978 0.992568
O O14 0.750000 0.765816 0.648628
O O15 0.500000 0.000000 0.400862
O O16 0.662896 0.941738 0.725632
O O17 0.500000 0.000000 0.725632
#
# Coordination Sequence:
#
# PCOD8182775 Si02
#       8
#     4   8   8   8   4   8   4   8
#     4  10  22  37  58  87 114 163 207 239 300 367
#     4  10  21  39  59  88 122 161 202 243 302 362
#     4   9  19  36  61  87 117 154 195 243 301 349
#     4   9  19  36  61  87 117 154 195 243 301 349
#     4  10  22  37  58  87 114 163 207 239 300 367
#     4  10  21  39  59  88 122 161 202 243 302 362
#     4  10  22  36  58  94 108 150 206 236 304 366
#     4  10  18  34  58  85 114 145 189 245 285 339
#
# _framework density 19.767025
#
# number of rings (size 3 to 8) (size 9 to 14) (size 15 to 20)
#    0.462    1.846    0.000    3.692    2.154    1.846 
#    0.000   15.385    0.000    0.000    0.000    0.000 
#    0.000    0.000    0.000    0.000    0.000    0.000 
#
# Total GULP energy -322128.279390 kJ/mol
# GULP energy per Si atom -12389.549207 kJ/mol
# Density = 1.972203 g / cm^3
# Si number density = 19.767025 Si / 1000 Ang^3
#
#
#
# Elastic Constant Matrix: (Units=GPa)
#
#
# Indices 1 2 3 4 5 6 
#
# 1 113.1839 22.1875 52.2351 0.0000 0.0000 0.0000
# 2 22.1875 80.6004 16.9821 0.0000 0.0000 0.0000
# 3 52.2351 16.9821 151.2615 0.0000 0.0000 0.0000
# 4 0.0000 0.0000 0.0000 26.0295 0.0000 0.0000
# 5 0.0000 0.0000 0.0000 0.0000 28.0439 0.0000
# 6 0.0000 0.0000 0.0000 0.0000 0.0000 31.1120
#
#
#
# Elastic Compliance Matrix: (Units=1/GPa)
#
#
# Indices 1 2 3 4 5 6 
#
# 1 0.010898 -0.002261 -0.003510 0.000000 0.000000 0.000000
# 2 -0.002261 0.013176 -0.000699 0.000000 0.000000 0.000000
# 3 -0.003510 -0.000699 0.007901 0.000000 0.000000 0.000000
# 4 0.000000 0.000000 0.000000 0.038418 0.000000 0.000000
# 5 0.000000 0.000000 0.000000 0.000000 0.035658 0.000000
# 6 0.000000 0.000000 0.000000 0.000000 0.000000 0.032142
#
#
# Mechanical properties :
#
#
# Convention : Reuss Voigt Hill
#
# Bulk Modulus (GPa) = 52.52591 58.65057 55.58824
# Shear Modulus (GPa) = 31.75048 33.94647 32.84848
#
# Velocity S-wave (km/s) = 4.01213 4.14856 4.08092
# Velocity P-wave (km/s) = 6.93492 7.25829 7.09845
#
# Compressibility (1/GPa) = 0.01903822
#
# Stress axis : x y z
#
# Youngs Moduli (GPa) = 91.75971 75.89344 126.55846
#
# Poissons Ratio (x) = 0.17156 0.44417
# Poissons Ratio (y) = 0.20742 0.08842
# Poissons Ratio (z) = 0.32204 0.05303
#
# Static dielectric constant tensor:
#      x y z
#    x 3.143430 0.000000 0.000000 
#    y 0.000000 3.469570 0.000000 
#    z 0.000000 0.000000 5.536690 
# 
# 
# High freq. dielectric constant tensor:
#      x y z
#    x 1.735250 0.000000 0.000000 
#    y 0.000000 1.758670 0.000000 
#    z 0.000000 0.000000 1.795200 
# 
# From -- ./inp_files/20710.got.cif
#   From: 2010.03.12/outbox.cif.g09.slc.cpg/sg40_11_cif.got.tgz:20710.got - 2010.04.14 01:38:03.
