data_PCOD8182572
_publ_section_title
;
Structure prediction by ZEFSAII (Michael W. Deem and Ramdas Pophale) SiO2 
 PCOD8182572
Probable space group: A M A 2
;
_chemical_formula_sum "Si O2"
_cell_formula_units_Z 40
_cell_length_a 8.850927
_cell_length_b 21.034670
_cell_length_c 12.567780
_cell_angle_alpha 90.000000
_cell_angle_beta 90.000000
_cell_angle_gamma 90.000000
_cell_volume 2339.823140
_symmetry_space_group_name_H-M "A M A 2"
_symmetry_group_IT_number 40
_symmetry_cell_setting 'orthorhombic'
loop_
_space_group_symop_operation_xyz
x,y,z
-x,-y,z
1/2-x,y,z
1/2+x,-y,z
x,1/2+y,1/2+z
-x,1/2-y,1/2+z
1/2-x,1/2+y,1/2+z
1/2+x,1/2-y,1/2+z
loop_
_atom_site_type_symbol
_atom_site_label
_atom_site_fract_x
_atom_site_fract_y
_atom_site_fract_z
Si Si1 0.426895 0.166169 0.377520
Si Si2 0.926511 0.832990 0.724546
Si Si3 0.927870 0.296123 0.649554
Si Si4 0.074614 0.567860 0.044757
Si Si5 0.429418 0.805905 0.935192
O O1 0.250000 0.167283 0.399676
O O2 0.463386 0.159352 0.252053
O O3 0.496877 0.108293 0.445899
O O4 0.488408 0.233748 0.419249
O O5 0.750000 0.817135 0.734218
O O6 0.955667 0.895370 0.654508
O O7 0.007332 0.774028 0.667776
O O8 0.997924 0.847393 0.840328
O O9 0.750000 0.290359 0.630301
O O10 0.007818 0.329504 0.548846
O O11 0.250000 0.557015 0.024688
O O12 0.000000 0.500000 0.051212
O O13 0.250000 0.812872 0.930584
#
# Coordination Sequence:
#
# PCOD8182572 Si02
#       5
#     8   8   8   8   8
#     4   8  16  31  47  68 100 132 160 199 250 296
#     4  10  19  32  49  72 103 134 167 208 257 302
#     4  10  18  29  50  76 102 132 165 204 257 309
#     4  10  20  35  52  71 101 136 169 209 250 296
#     4  10  18  31  50  73 104 133 163 207 256 304
#
# _framework density 17.095310999999999
#
# number of rings (size 3 to 8) (size 9 to 14) (size 15 to 20)
#    0.000    2.400    2.000    3.000    0.000    1.600 
#    0.000    2.000    0.000    1.200    0.000    2.800 
#    0.000    0.000    0.000    0.000    0.000    0.000 
#
# Total GULP energy -247931.794299 kJ/mol
# GULP energy per Si atom -12396.589715 kJ/mol
# Density = 1.705640 g / cm^3
# Si number density = 17.095311 Si / 1000 Ang^3
#
#
#
# Elastic Constant Matrix: (Units=GPa)
#
#
# Indices 1 2 3 4 5 6 
#
# 1 68.7917 33.9464 55.0560 0.0000 0.0000 0.0000
# 2 33.9464 81.0406 47.1028 0.0000 0.0000 0.0000
# 3 55.0560 47.1028 150.0815 0.0000 0.0000 0.0000
# 4 0.0000 0.0000 0.0000 17.4690 0.0000 0.0000
# 5 0.0000 0.0000 0.0000 0.0000 31.2508 0.0000
# 6 0.0000 0.0000 0.0000 0.0000 0.0000 22.1228
#
#
#
# Elastic Compliance Matrix: (Units=1/GPa)
#
#
# Indices 1 2 3 4 5 6 
#
# 1 0.022521 -0.005665 -0.006484 0.000000 0.000000 0.000000
# 2 -0.005665 0.016518 -0.003106 0.000000 0.000000 0.000000
# 3 -0.006484 -0.003106 0.010016 0.000000 0.000000 0.000000
# 4 0.000000 0.000000 0.000000 0.057244 0.000000 0.000000
# 5 0.000000 0.000000 0.000000 0.000000 0.031999 0.000000
# 6 0.000000 0.000000 0.000000 0.000000 0.000000 0.045202
#
#
# Mechanical properties :
#
#
# Convention : Reuss Voigt Hill
#
# Bulk Modulus (GPa) = 53.92061 63.56937 58.74499
# Shear Modulus (GPa) = 22.70739 25.08909 23.89824
#
# Velocity S-wave (km/s) = 3.64851 3.83508 3.74296
# Velocity P-wave (km/s) = 7.02556 7.54165 7.28818
#
# Compressibility (1/GPa) = 0.01854578
#
# Stress axis : x y z
#
# Youngs Moduli (GPa) = 44.40232 60.54095 99.83738
#
# Poissons Ratio (x) = 0.34298 0.64732
# Poissons Ratio (y) = 0.25155 0.31008
# Poissons Ratio (z) = 0.28789 0.18803
#
# Static dielectric constant tensor:
#      x y z
#    x 3.131390 0.000000 0.000000 
#    y 0.000000 2.908660 0.000000 
#    z 0.000000 0.000000 3.602470 
# 
# 
# High freq. dielectric constant tensor:
#      x y z
#    x 1.656080 0.000000 0.000000 
#    y 0.000000 1.608930 0.000000 
#    z 0.000000 0.000000 1.680310 
# 
# From -- ./inp_files/10008.got.cif
#   From: 2010.03.12/outbox.cif.g09.slc.cpg/sg40_6_cif.got.tgz:10008.got - 2010.04.14 01:38:03.
