data_PCOD8182985
_publ_section_title
;
Structure prediction by ZEFSAII (Michael W. Deem and Ramdas Pophale) SiO2 
 PCOD8182985
Probable space group: A M A 2
;
_chemical_formula_sum "Si O2"
_cell_formula_units_Z 64
_cell_length_a 8.904141
_cell_length_b 14.697925
_cell_length_c 27.359746
_cell_angle_alpha 90.000000
_cell_angle_beta 90.000000
_cell_angle_gamma 90.000000
_cell_volume 3580.635530
_symmetry_space_group_name_H-M "A M A 2"
_symmetry_group_IT_number 40
_symmetry_cell_setting 'orthorhombic'
loop_
_space_group_symop_operation_xyz
x,y,z
-x,-y,z
1/2-x,y,z
1/2+x,-y,z
x,1/2+y,1/2+z
-x,1/2-y,1/2+z
1/2-x,1/2+y,1/2+z
1/2+x,1/2-y,1/2+z
loop_
_atom_site_type_symbol
_atom_site_label
_atom_site_fract_x
_atom_site_fract_y
_atom_site_fract_z
Si Si1 0.573554 0.408343 0.035520
Si Si2 0.426498 0.591471 0.146047
Si Si3 0.576286 0.218730 0.186020
Si Si4 0.571105 0.404700 0.492155
Si Si5 0.926865 0.266933 0.954320
Si Si6 0.425955 0.592866 0.872906
Si Si7 0.426227 0.407499 0.595223
Si Si8 0.073943 0.093200 0.261754
O O1 0.500000 0.500000 0.014502
O O2 0.750000 0.422299 0.033044
O O3 0.516995 0.389984 0.090737
O O4 0.525270 0.323870 0.002142
O O5 0.500000 0.500000 0.167705
O O6 0.250000 0.578023 0.146038
O O7 0.472573 0.676298 0.179998
O O8 0.750000 0.209048 0.200468
O O9 0.544983 0.170304 0.134584
O O10 0.477900 0.177421 0.229161
O O11 0.500000 0.500000 0.474690
O O12 0.750000 0.412606 0.493543
O O13 0.519190 0.327013 0.454289
O O14 0.507242 0.378204 0.545365
O O15 0.750000 0.245543 0.954151
O O16 0.976646 0.322565 0.906192
O O17 0.500000 0.500000 0.892051
O O18 0.250000 0.577800 0.877363
O O19 0.475715 0.613625 0.817338
O O20 0.500000 0.500000 0.615611
O O21 0.250000 0.422411 0.584832
O O22 0.250000 0.080942 0.256734
O O23 0.000000 0.000000 0.242533
#
# Coordination Sequence:
#
# PCOD8182985 Si02
#       8
#     8   8   8   8   8   8   8   8
#     4   9  17  29  47  71 100 131 160 195 237 284
#     4   9  18  32  47  67  96 128 163 200 240 284
#     4  10  20  33  51  73  98 131 169 208 250 296
#     4  11  22  35  51  72  99 132 169 207 248 293
#     4  10  19  33  52  73 100 133 167 203 244 289
#     4   9  19  34  53  77 105 134 162 199 246 296
#     4  10  19  32  49  71 101 133 165 202 246 295
#     4  10  20  34  52  76 104 132 163 200 247 299
#
# _framework density 17.873923000000001
#
# number of rings (size 3 to 8) (size 9 to 14) (size 15 to 20)
#    0.000    2.250    0.000    4.125    0.000    6.000 
#    0.000    2.500    0.000    0.750    0.000    1.750 
#    0.000    0.000    0.000    0.000    0.000    0.000 
#
# Total GULP energy -396848.262361 kJ/mol
# GULP energy per Si atom -12401.508199 kJ/mol
# Density = 1.783324 g / cm^3
# Si number density = 17.873923 Si / 1000 Ang^3
#
#
#
# Elastic Constant Matrix: (Units=GPa)
#
#
# Indices 1 2 3 4 5 6 
#
# 1 72.9037 54.4387 37.1203 0.0000 0.0000 0.0000
# 2 54.4387 147.8319 64.0190 0.0000 0.0000 0.0000
# 3 37.1203 64.0190 73.7354 0.0000 0.0000 0.0000
# 4 0.0000 0.0000 0.0000 25.1556 0.0000 0.0000
# 5 0.0000 0.0000 0.0000 0.0000 20.9788 0.0000
# 6 0.0000 0.0000 0.0000 0.0000 0.0000 34.0706
#
#
#
# Elastic Compliance Matrix: (Units=1/GPa)
#
#
# Indices 1 2 3 4 5 6 
#
# 1 0.020463 -0.004927 -0.006024 0.000000 0.000000 0.000000
# 2 -0.004927 0.012026 -0.007961 0.000000 0.000000 0.000000
# 3 -0.006024 -0.007961 0.023507 0.000000 0.000000 0.000000
# 4 0.000000 0.000000 0.000000 0.039753 0.000000 0.000000
# 5 0.000000 0.000000 0.000000 0.000000 0.047667 0.000000
# 6 0.000000 0.000000 0.000000 0.000000 0.000000 0.029351
#
#
# Mechanical properties :
#
#
# Convention : Reuss Voigt Hill
#
# Bulk Modulus (GPa) = 55.02993 67.29188 61.16090
# Shear Modulus (GPa) = 23.07889 25.30055 24.18972
#
# Velocity S-wave (km/s) = 3.59723 3.76640 3.68278
# Velocity P-wave (km/s) = 6.93600 7.52623 7.23713
#
# Compressibility (1/GPa) = 0.01817193
#
# Stress axis : x y z
#
# Youngs Moduli (GPa) = 48.86916 83.15062 42.54050
#
# Poissons Ratio (x) = 0.40965 0.25627
# Poissons Ratio (y) = 0.24076 0.33868
# Poissons Ratio (z) = 0.29439 0.66200
#
# Static dielectric constant tensor:
#      x y z
#    x 3.267560 0.000000 0.000000 
#    y 0.000000 3.424730 0.000000 
#    z 0.000000 0.000000 3.258940 
# 
# 
# High freq. dielectric constant tensor:
#      x y z
#    x 1.690890 0.000000 0.000000 
#    y 0.000000 1.694360 0.000000 
#    z 0.000000 0.000000 1.669560 
# 
# From -- ./inp_files/24311.got.cif
#   From: 2010.03.12/outbox.cif.g09.slc.cpg/sg40_13_cif.got.tgz:24311.got - 2010.04.14 01:38:03.
