data_PCOD8182565
_publ_section_title
;
Structure prediction by ZEFSAII (Michael W. Deem and Ramdas Pophale) SiO2 
 PCOD8182565
Probable space group: A M A 2
;
_chemical_formula_sum "Si O2"
_cell_formula_units_Z 64
_cell_length_a 18.828068
_cell_length_b 20.878413
_cell_length_c 9.181177
_cell_angle_alpha 90.000000
_cell_angle_beta 90.000000
_cell_angle_gamma 90.000000
_cell_volume 3609.122329
_symmetry_space_group_name_H-M "A M A 2"
_symmetry_group_IT_number 40
_symmetry_cell_setting 'orthorhombic'
loop_
_space_group_symop_operation_xyz
x,y,z
-x,-y,z
1/2-x,y,z
1/2+x,-y,z
x,1/2+y,1/2+z
-x,1/2-y,1/2+z
1/2-x,1/2+y,1/2+z
1/2+x,1/2-y,1/2+z
loop_
_atom_site_type_symbol
_atom_site_label
_atom_site_fract_x
_atom_site_fract_y
_atom_site_fract_z
Si Si1 0.540452 0.933239 0.555760
Si Si2 0.975014 0.904559 0.872833
Si Si3 0.977774 0.682541 0.903574
Si Si4 0.384267 0.480569 0.398963
Si Si5 0.032602 0.799670 0.066206
Si Si6 0.671188 0.506884 0.085312
Si Si7 0.670562 0.637026 0.928534
Si Si8 0.328507 0.877032 0.095554
O O1 0.547280 0.891992 0.705184
O O2 0.504280 0.890501 0.430680
O O3 0.500000 0.000000 0.587491
O O4 0.619476 0.955258 0.508411
O O5 0.053386 0.932398 0.857880
O O6 0.919359 0.952583 0.951864
O O7 0.976924 0.840955 0.970577
O O8 0.990016 0.698739 0.734704
O O9 0.893687 0.688371 0.947292
O O10 0.025566 0.728067 0.004745
O O11 0.335750 0.493923 0.259433
O O12 0.338569 0.447145 0.524924
O O13 0.113272 0.824749 0.044882
O O14 0.750000 0.486529 0.039202
O O15 0.654680 0.579190 0.036994
O O16 0.750000 0.666751 0.957100
O O17 0.665594 0.609473 0.766146
O O18 0.250000 0.850515 0.054162
#
# Coordination Sequence:
#
# PCOD8182565 Si02
#       8
#     8   8   8   8   8   8   8   8
#     4  11  18  33  53  77 106 137 167 216 259 305
#     4   9  16  31  49  75 104 133 170 210 255 299
#     4  11  21  36  54  76 104 137 179 217 257 311
#     4   9  15  27  48  74 103 132 164 209 251 299
#     4  10  22  35  54  78 102 141 179 215 256 309
#     4  10  18  29  48  77 106 135 169 206 259 311
#     4   9  18  32  51  74 100 128 165 216 262 305
#     4   9  18  32  50  76 105 133 169 212 261 308
#
# _framework density 17.732844
#
# number of rings (size 3 to 8) (size 9 to 14) (size 15 to 20)
#    0.000    2.250    3.750    1.125    0.000    2.000 
#    2.250    0.625    0.000    9.000    0.000    0.000 
#    0.000    0.000    0.000    0.000    0.000    0.000 
#
# Total GULP energy -396569.019592 kJ/mol
# GULP energy per Si atom -12392.781862 kJ/mol
# Density = 1.769248 g / cm^3
# Si number density = 17.732844 Si / 1000 Ang^3
#
#
#
# Elastic Constant Matrix: (Units=GPa)
#
#
# Indices 1 2 3 4 5 6 
#
# 1 97.3016 35.0234 31.6761 0.0000 0.0000 0.0000
# 2 35.0234 64.9541 31.1780 0.0000 0.0000 0.0000
# 3 31.6761 31.1780 65.1883 0.0000 0.0000 0.0000
# 4 0.0000 0.0000 0.0000 30.7811 0.0000 0.0000
# 5 0.0000 0.0000 0.0000 0.0000 23.1852 0.0000
# 6 0.0000 0.0000 0.0000 0.0000 0.0000 21.8828
#
#
#
# Elastic Compliance Matrix: (Units=1/GPa)
#
#
# Indices 1 2 3 4 5 6 
#
# 1 0.013510 -0.005365 -0.003999 0.000000 0.000000 0.000000
# 2 -0.005365 0.022114 -0.007969 0.000000 0.000000 0.000000
# 3 -0.003999 -0.007969 0.021095 0.000000 0.000000 0.000000
# 4 0.000000 0.000000 0.000000 0.032487 0.000000 0.000000
# 5 0.000000 0.000000 0.000000 0.000000 0.043131 0.000000
# 6 0.000000 0.000000 0.000000 0.000000 0.000000 0.045698
#
#
# Mechanical properties :
#
#
# Convention : Reuss Voigt Hill
#
# Bulk Modulus (GPa) = 45.34757 47.02212 46.18484
# Shear Modulus (GPa) = 22.72177 23.80758 23.26468
#
# Velocity S-wave (km/s) = 3.58346 3.66808 3.62602
# Velocity P-wave (km/s) = 6.53833 6.67191 6.60546
#
# Compressibility (1/GPa) = 0.02205190
#
# Stress axis : x y z
#
# Youngs Moduli (GPa) = 74.01719 45.22048 47.40495
#
# Poissons Ratio (x) = 0.24263 0.18956
# Poissons Ratio (y) = 0.39713 0.37779
# Poissons Ratio (z) = 0.29598 0.36038
#
# Static dielectric constant tensor:
#      x y z
#    x 3.522180 0.000000 0.000000 
#    y 0.000000 3.111720 0.000000 
#    z 0.000000 0.000000 3.254360 
# 
# 
# High freq. dielectric constant tensor:
#      x y z
#    x 1.687700 0.000000 0.000000 
#    y 0.000000 1.654730 0.000000 
#    z 0.000000 0.000000 1.681550 
# 
# From -- ./inp_files/7780.got.cif
#   From: 2010.03.12/outbox.cif.g09.slc.cpg/sg40_4_cif.got.tgz:7780.got - 2010.04.14 01:38:03.
