data_PCOD8182513
_publ_section_title
;
Structure prediction by ZEFSAII (Michael W. Deem and Ramdas Pophale) SiO2 
 PCOD8182513
Probable space group: A M A 2
;
_chemical_formula_sum "Si O2"
_cell_formula_units_Z 64
_cell_length_a 8.745483
_cell_length_b 30.031515
_cell_length_c 14.478204
_cell_angle_alpha 90.000000
_cell_angle_beta 90.000000
_cell_angle_gamma 90.000000
_cell_volume 3802.557003
_symmetry_space_group_name_H-M "A M A 2"
_symmetry_group_IT_number 40
_symmetry_cell_setting 'orthorhombic'
loop_
_space_group_symop_operation_xyz
x,y,z
-x,-y,z
1/2-x,y,z
1/2+x,-y,z
x,1/2+y,1/2+z
-x,1/2-y,1/2+z
1/2-x,1/2+y,1/2+z
1/2+x,1/2-y,1/2+z
loop_
_atom_site_type_symbol
_atom_site_label
_atom_site_fract_x
_atom_site_fract_y
_atom_site_fract_z
Si Si1 0.579384 0.673941 0.519910
Si Si2 0.930443 0.046552 0.918863
Si Si3 0.575096 0.277091 0.032975
Si Si4 0.925316 0.627352 0.708871
Si Si5 0.430634 0.800002 0.349329
Si Si6 0.927037 0.869114 0.856535
Si Si7 0.067529 0.214164 0.739223
Si Si8 0.930589 0.453536 0.617805
O O1 0.750000 0.659228 0.487411
O O2 0.557031 0.725924 0.507215
O O3 0.555714 0.662371 0.626254
O O4 0.452303 0.649348 0.459600
O O5 0.750000 0.042176 0.924348
O O6 0.979708 0.084717 0.845946
O O7 0.000000 0.000000 0.884533
O O8 0.993801 0.059528 0.020015
O O9 0.750000 0.292697 0.031711
O O10 0.503934 0.285702 0.134474
O O11 0.486245 0.304469 0.954618
O O12 0.750000 0.611564 0.718810
O O13 0.982418 0.654431 0.798650
O O14 0.030067 0.584053 0.693277
O O15 0.250000 0.796149 0.347217
O O16 0.498935 0.756237 0.297080
O O17 0.750000 0.879473 0.841191
O O18 0.988113 0.832206 0.784609
O O19 0.250000 0.217423 0.738749
O O20 0.750000 0.458130 0.604791
O O21 0.000000 0.500000 0.653567
#
# Coordination Sequence:
#
# PCOD8182513 Si02
#       8
#     8   8   8   8   8   8   8   8
#     4  10  18  28  46  69  97 133 169 205 245 290
#     4  11  21  34  50  71 101 131 164 201 248 298
#     4  10  19  33  49  69  98 135 173 211 249 289
#     4  10  19  32  50  70  99 137 171 202 250 298
#     4  10  19  33  50  71  98 134 171 208 249 293
#     4  11  20  31  49  72  98 132 172 207 245 294
#     4   9  18  32  49  69  98 134 169 203 247 295
#     4  11  21  33  50  73 101 130 166 203 246 296
#
# _framework density 16.830779
#
# number of rings (size 3 to 8) (size 9 to 14) (size 15 to 20)
#    0.000    1.750    3.750    3.375    0.000    0.500 
#    0.000    1.875    0.000    0.000    0.000    0.875 
#    0.000    6.000    0.000    0.000    0.000    0.000 
#
# Total GULP energy -396777.248385 kJ/mol
# GULP energy per Si atom -12399.289012 kJ/mol
# Density = 1.679247 g / cm^3
# Si number density = 16.830779 Si / 1000 Ang^3
#
#
#
# Elastic Constant Matrix: (Units=GPa)
#
#
# Indices 1 2 3 4 5 6 
#
# 1 71.5332 40.2698 19.3891 0.0000 0.0000 0.0000
# 2 40.2698 100.1965 41.1816 0.0000 0.0000 0.0000
# 3 19.3891 41.1816 76.4677 0.0000 0.0000 0.0000
# 4 0.0000 0.0000 0.0000 26.0821 0.0000 0.0000
# 5 0.0000 0.0000 0.0000 0.0000 21.4087 0.0000
# 6 0.0000 0.0000 0.0000 0.0000 0.0000 22.4629
#
#
#
# Elastic Compliance Matrix: (Units=1/GPa)
#
#
# Indices 1 2 3 4 5 6 
#
# 1 0.018112 -0.006924 -0.000863 0.000000 0.000000 0.000000
# 2 -0.006924 0.015465 -0.006573 0.000000 0.000000 0.000000
# 3 -0.000863 -0.006573 0.016836 0.000000 0.000000 0.000000
# 4 0.000000 0.000000 0.000000 0.038340 0.000000 0.000000
# 5 0.000000 0.000000 0.000000 0.000000 0.046710 0.000000
# 6 0.000000 0.000000 0.000000 0.000000 0.000000 0.044518
#
#
# Mechanical properties :
#
#
# Convention : Reuss Voigt Hill
#
# Bulk Modulus (GPa) = 46.10080 49.98651 48.04366
# Shear Modulus (GPa) = 23.15540 23.81453 23.48497
#
# Velocity S-wave (km/s) = 3.71317 3.76565 3.73950
# Velocity P-wave (km/s) = 6.77006 6.97644 6.87403
#
# Compressibility (1/GPa) = 0.02169160
#
# Stress axis : x y z
#
# Youngs Moduli (GPa) = 55.21317 64.66269 59.39615
#
# Poissons Ratio (x) = 0.44775 0.05127
# Poissons Ratio (y) = 0.38232 0.39040
# Poissons Ratio (z) = 0.04766 0.42502
#
# Static dielectric constant tensor:
#      x y z
#    x 3.036600 0.000000 0.000000 
#    y 0.000000 3.260240 0.000000 
#    z 0.000000 0.000000 3.037100 
# 
# 
# High freq. dielectric constant tensor:
#      x y z
#    x 1.639480 0.000000 0.000000 
#    y 0.000000 1.647520 0.000000 
#    z 0.000000 0.000000 1.617550 
# 
# From -- ./inp_files/15900.got.cif
#   From: 2010.03.12/outbox.cif.g09.slc.cpg/sg40_8_cif.got.tgz:15900.got - 2010.04.14 01:38:03.
