data_PCOD8182153
_publ_section_title
;
Structure prediction by ZEFSAII (Michael W. Deem and Ramdas Pophale) SiO2 
 PCOD8182153
Probable space group: A B M 2
;
_chemical_formula_sum "Si O2"
_cell_formula_units_Z 64
_cell_length_a 23.440374
_cell_length_b 8.529741
_cell_length_c 15.145408
_cell_angle_alpha 90.000000
_cell_angle_beta 90.000000
_cell_angle_gamma 90.000000
_cell_volume 3028.177709
_symmetry_space_group_name_H-M "A B M 2"
_symmetry_group_IT_number 39
_symmetry_cell_setting 'orthorhombic'
loop_
_space_group_symop_operation_xyz
x,y,z
-x,-y,z
-x,1/2+y,z
x,1/2-y,z
x,1/2+y,1/2+z
-x,1/2-y,1/2+z
-x,y,1/2+z
x,-y,1/2+z
loop_
_atom_site_type_symbol
_atom_site_label
_atom_site_fract_x
_atom_site_fract_y
_atom_site_fract_z
Si Si1 0.260644 0.069500 0.036070
Si Si2 0.938371 0.932615 0.452215
Si Si3 0.438384 0.934539 0.942354
Si Si4 0.246837 0.431838 0.349093
Si Si5 0.638449 0.564966 0.790907
Si Si6 0.147922 0.933746 0.100626
Si Si7 0.127799 0.569818 0.297450
Si Si8 0.383723 0.567707 0.610414
O O1 0.258015 0.250000 0.005399
O O2 0.317550 0.035404 0.090709
O O3 0.207080 0.028488 0.097920
O O4 0.261090 0.957963 0.951387
O O5 0.942847 0.750000 0.464730
O O6 0.893247 0.999115 0.523630
O O7 0.917588 0.971038 0.353557
O O8 0.000000 0.000000 0.472303
O O9 0.435863 0.750000 0.925347
O O10 0.500000 0.000000 0.917161
O O11 0.392551 0.021329 0.881497
O O12 0.424010 0.973493 0.043540
O O13 0.234309 0.250000 0.331787
O O14 0.299231 0.486921 0.289040
O O15 0.192026 0.531482 0.323853
O O16 0.644827 0.750000 0.783971
O O17 0.603038 0.497439 0.708109
O O18 0.161211 0.750000 0.088551
O O19 0.117948 0.967556 0.194359
O O20 0.115878 0.750000 0.318868
O O21 0.399739 0.750000 0.604721
#
# Coordination Sequence:
#
# PCOD8182153 Si02
#       8
#     8   8   8   8   8   8   8   8
#     4  11  22  37  64  96 130 168 209 256 315 382
#     4  11  24  43  64  89 122 165 212 264 317 373
#     4  12  26  46  70  96 129 171 218 271 325 382
#     4  12  23  38  63  95 132 171 211 259 320 384
#     4  12  25  43  67  98 133 172 218 267 323 385
#     4  10  23  41  63  92 128 164 206 257 315 377
#     4  11  23  41  65  95 128 165 208 260 318 378
#     4  11  24  43  67  99 134 170 216 265 321 387
#
# _framework density 21.134823000000001
#
# number of rings (size 3 to 8) (size 9 to 14) (size 15 to 20)
#    0.000    0.750    2.500    5.625    0.000    6.000 
#    0.000    3.750    0.000    0.000    0.000    0.000 
#    0.000    0.000    0.000    0.000    0.000    0.000 
#
# Total GULP energy -397058.044995 kJ/mol
# GULP energy per Si atom -12408.063906 kJ/mol
# Density = 2.108672 g / cm^3
# Si number density = 21.134823 Si / 1000 Ang^3
#
#
#
# Elastic Constant Matrix: (Units=GPa)
#
#
# Indices 1 2 3 4 5 6 
#
# 1 79.2094 15.4313 2.3283 0.0000 0.0000 0.0000
# 2 15.4313 57.8503 18.7691 0.0000 0.0000 0.0000
# 3 2.3283 18.7691 90.7725 0.0000 0.0000 0.0000
# 4 0.0000 0.0000 0.0000 35.4439 0.0000 0.0000
# 5 0.0000 0.0000 0.0000 0.0000 20.0765 0.0000
# 6 0.0000 0.0000 0.0000 0.0000 0.0000 36.4588
#
#
#
# Elastic Compliance Matrix: (Units=1/GPa)
#
#
# Indices 1 2 3 4 5 6 
#
# 1 0.013332 -0.003693 0.000422 0.000000 0.000000 0.000000
# 2 -0.003693 0.019552 -0.003948 0.000000 0.000000 0.000000
# 3 0.000422 -0.003948 0.011822 0.000000 0.000000 0.000000
# 4 0.000000 0.000000 0.000000 0.028214 0.000000 0.000000
# 5 0.000000 0.000000 0.000000 0.000000 0.049810 0.000000
# 6 0.000000 0.000000 0.000000 0.000000 0.000000 0.027428
#
#
# Mechanical properties :
#
#
# Convention : Reuss Voigt Hill
#
# Bulk Modulus (GPa) = 33.03918 33.43217 33.23567
# Shear Modulus (GPa) = 28.62293 31.14940 29.88617
#
# Velocity S-wave (km/s) = 3.68408 3.84323 3.76449
# Velocity P-wave (km/s) = 5.81060 5.96211 5.88684
#
# Compressibility (1/GPa) = 0.03026709
#
# Stress axis : x y z
#
# Youngs Moduli (GPa) = 75.00851 51.14562 84.58744
#
# Poissons Ratio (x) = 0.18888 -0.03567
# Poissons Ratio (y) = 0.27701 0.33396
# Poissons Ratio (z) = -0.03163 0.20193
#
# Static dielectric constant tensor:
#      x y z
#    x 3.860670 0.000000 0.000000 
#    y 0.000000 3.834650 0.000000 
#    z 0.000000 0.000000 3.976810 
# 
# 
# High freq. dielectric constant tensor:
#      x y z
#    x 1.823240 0.000000 0.000000 
#    y 0.000000 1.836420 0.000000 
#    z 0.000000 0.000000 1.839930 
# 
# From -- ./inp_files/10608.got.cif
#   From: 2010.03.12/outbox.cif.g09.slc.cpg/sg39_6_cif.got.tgz:10608.got - 2010.04.14 02:53:20.
