data_PCOD8182920
_publ_section_title
;
Structure prediction by ZEFSAII (Michael W. Deem and Ramdas Pophale) SiO2 
 PCOD8182920
Probable space group: A M A 2
;
_chemical_formula_sum "Si O2"
_cell_formula_units_Z 64
_cell_length_a 8.710038
_cell_length_b 14.772324
_cell_length_c 27.463958
_cell_angle_alpha 90.000000
_cell_angle_beta 90.000000
_cell_angle_gamma 90.000000
_cell_volume 3533.718909
_symmetry_space_group_name_H-M "A M A 2"
_symmetry_group_IT_number 40
_symmetry_cell_setting 'orthorhombic'
loop_
_space_group_symop_operation_xyz
x,y,z
-x,-y,z
1/2-x,y,z
1/2+x,-y,z
x,1/2+y,1/2+z
-x,1/2-y,1/2+z
1/2-x,1/2+y,1/2+z
1/2+x,1/2-y,1/2+z
loop_
_atom_site_type_symbol
_atom_site_label
_atom_site_fract_x
_atom_site_fract_y
_atom_site_fract_z
Si Si1 0.431061 0.094452 0.091190
Si Si2 0.932372 0.904563 0.473865
Si Si3 0.432036 0.727667 0.507398
Si Si4 0.928147 0.090693 0.820246
Si Si5 0.932299 0.594166 0.431181
Si Si6 0.069702 0.093838 0.200314
Si Si7 0.431397 0.905899 0.368805
Si Si8 0.569926 0.283956 0.788293
O O1 0.250000 0.084462 0.089798
O O2 0.490460 0.116452 0.145912
O O3 0.500000 0.000000 0.072406
O O4 0.485729 0.174629 0.055833
O O5 0.750000 0.909177 0.473901
O O6 0.991739 0.826680 0.510159
O O7 0.991699 0.881169 0.419992
O O8 0.000000 0.000000 0.492137
O O9 0.250000 0.737049 0.504204
O O10 0.493293 0.676643 0.459969
O O11 0.750000 0.073084 0.821382
O O12 0.985872 0.106866 0.875379
O O13 0.970525 0.177368 0.787232
O O14 0.000000 0.000000 0.797141
O O15 0.750000 0.595730 0.437771
O O16 0.000000 0.500000 0.451761
O O17 0.250000 0.081158 0.199997
O O18 0.020684 0.174736 0.236314
O O19 0.000000 0.000000 0.219754
O O20 0.250000 0.915013 0.375989
O O21 0.470226 0.828210 0.330664
O O22 0.500000 0.000000 0.348702
O O23 0.750000 0.299718 0.799364
#
# Coordination Sequence:
#
# PCOD8182920 Si02
#       8
#     8   8   8   8   8   8   8   8
#     4   9  19  34  52  75 103 133 165 204 250 301
#     4  11  22  37  54  73 100 133 170 209 250 295
#     4  11  21  33  51  75 101 131 169 208 251 304
#     4   9  19  33  48  67  94 128 163 202 243 287
#     4  10  19  31  47  70 101 134 168 206 250 300
#     4   9  18  33  52  74 101 132 164 202 250 300
#     4  11  21  33  50  74 105 137 168 203 246 295
#     4  10  19  32  51  74 100 132 171 210 251 298
#
# _framework density 18.111229999999999
#
# number of rings (size 3 to 8) (size 9 to 14) (size 15 to 20)
#    0.000    2.000    0.000    5.250    0.000    5.500 
#    0.000    0.000    0.000    0.750    0.000    1.750 
#    0.000    0.000    0.000    0.000    0.000    0.000 
#
# Total GULP energy -396856.357720 kJ/mol
# GULP energy per Si atom -12401.761179 kJ/mol
# Density = 1.807001 g / cm^3
# Si number density = 18.111230 Si / 1000 Ang^3
#
#
#
# Elastic Constant Matrix: (Units=GPa)
#
#
# Indices 1 2 3 4 5 6 
#
# 1 80.3274 48.8442 33.1211 0.0000 0.0000 0.0000
# 2 48.8442 160.3976 74.6032 0.0000 0.0000 0.0000
# 3 33.1211 74.6032 81.7022 0.0000 0.0000 0.0000
# 4 0.0000 0.0000 0.0000 32.7039 0.0000 0.0000
# 5 0.0000 0.0000 0.0000 0.0000 16.0186 0.0000
# 6 0.0000 0.0000 0.0000 0.0000 0.0000 33.0500
#
#
#
# Elastic Compliance Matrix: (Units=1/GPa)
#
#
# Indices 1 2 3 4 5 6 
#
# 1 0.015835 -0.003192 -0.003505 0.000000 0.000000 0.000000
# 2 -0.003192 0.011480 -0.009189 0.000000 0.000000 0.000000
# 3 -0.003505 -0.009189 0.022051 0.000000 0.000000 0.000000
# 4 0.000000 0.000000 0.000000 0.030577 0.000000 0.000000
# 5 0.000000 0.000000 0.000000 0.000000 0.062427 0.000000
# 6 0.000000 0.000000 0.000000 0.000000 0.000000 0.030257
#
#
# Mechanical properties :
#
#
# Convention : Reuss Voigt Hill
#
# Bulk Modulus (GPa) = 56.83397 70.61826 63.72611
# Shear Modulus (GPa) = 23.77955 27.41174 25.59565
#
# Velocity S-wave (km/s) = 3.62743 3.89462 3.76340
# Velocity P-wave (km/s) = 6.99950 7.70066 7.35843
#
# Compressibility (1/GPa) = 0.01759511
#
# Stress axis : x y z
#
# Youngs Moduli (GPa) = 63.15097 87.10485 45.34977
#
# Poissons Ratio (x) = 0.27804 0.15894
# Poissons Ratio (y) = 0.20158 0.41671
# Poissons Ratio (z) = 0.22133 0.80040
#
# Static dielectric constant tensor:
#      x y z
#    x 3.349200 0.000000 0.000000 
#    y 0.000000 3.498180 0.000000 
#    z 0.000000 0.000000 3.385860 
# 
# 
# High freq. dielectric constant tensor:
#      x y z
#    x 1.705620 0.000000 0.000000 
#    y 0.000000 1.705690 0.000000 
#    z 0.000000 0.000000 1.676320 
# 
# From -- ./inp_files/26491.got.cif
#   From: 2010.03.12/outbox.cif.g09.slc.cpg/sg40_14_cif.got.tgz:26491.got - 2010.04.14 01:38:03.
