data_PCOD8182190
_publ_section_title
;
Structure prediction by ZEFSAII (Michael W. Deem and Ramdas Pophale) SiO2 
 PCOD8182190
Probable space group: A B M 2
;
_chemical_formula_sum "Si O2"
_cell_formula_units_Z 36
_cell_length_a 9.052857
_cell_length_b 19.948947
_cell_length_c 8.976222
_cell_angle_alpha 90.000000
_cell_angle_beta 90.000000
_cell_angle_gamma 90.000000
_cell_volume 1621.060493
_symmetry_space_group_name_H-M "A B M 2"
_symmetry_group_IT_number 39
_symmetry_cell_setting 'orthorhombic'
loop_
_space_group_symop_operation_xyz
x,y,z
-x,-y,z
-x,1/2+y,z
x,1/2-y,z
x,1/2+y,1/2+z
-x,1/2-y,1/2+z
-x,y,1/2+z
x,-y,1/2+z
loop_
_atom_site_type_symbol
_atom_site_label
_atom_site_fract_x
_atom_site_fract_y
_atom_site_fract_z
Si Si1 0.500000 0.000000 0.497661
Si Si2 0.193192 0.125619 0.695114
Si Si3 0.394006 0.750000 0.144603
Si Si4 0.702534 0.976457 0.245890
Si Si5 0.900133 0.370647 0.856898
Si Si6 0.309490 0.750000 0.811075
O O1 0.394084 0.044198 0.391805
O O2 0.606212 0.046185 0.601864
O O3 0.314103 0.183746 0.706786
O O4 0.115129 0.122053 0.534053
O O5 0.070074 0.143181 0.818697
O O6 0.272158 0.055944 0.734989
O O7 0.565767 0.750000 0.185633
O O8 0.391870 0.750000 0.967597
O O9 0.856315 0.938189 0.265710
O O10 0.795046 0.313754 0.791520
#
# Coordination Sequence:
#
# PCOD8182190 Si02
#       6
#     4   8   4   8   8   4
#     4  10  24  38  62  96 136 162 202 268 316 374
#     4  11  25  43  65  94 130 168 211 261 315 377
#     4  10  25  44  66  94 126 164 213 260 316 375
#     4  11  23  40  66  94 130 164 214 256 322 368
#     4  11  25  43  65  94 130 168 211 261 315 377
#     4  10  25  44  66  94 126 164 213 260 316 375
#
# _framework density 22.207685999999999
#
# number of rings (size 3 to 8) (size 9 to 14) (size 15 to 20)
#    0.000    1.333    2.222    1.333    9.333    3.556 
#    0.000    0.000    0.000    0.000    0.000    0.000 
#    0.000    0.000    0.000    0.000    0.000    0.000 
#
# Total GULP energy -223193.749097 kJ/mol
# GULP energy per Si atom -12399.652728 kJ/mol
# Density = 2.215714 g / cm^3
# Si number density = 22.207686 Si / 1000 Ang^3
#
#
#
# Elastic Constant Matrix: (Units=GPa)
#
#
# Indices 1 2 3 4 5 6 
#
# 1 95.8419 25.2780 29.0262 0.0000 0.0000 0.0000
# 2 25.2780 123.1292 17.0130 0.0000 0.0000 0.0000
# 3 29.0262 17.0130 90.6660 0.0000 0.0000 0.0000
# 4 0.0000 0.0000 0.0000 23.1261 0.0000 0.0000
# 5 0.0000 0.0000 0.0000 0.0000 44.0710 0.0000
# 6 0.0000 0.0000 0.0000 0.0000 0.0000 25.4992
#
#
#
# Elastic Compliance Matrix: (Units=1/GPa)
#
#
# Indices 1 2 3 4 5 6 
#
# 1 0.012009 -0.001986 -0.003472 0.000000 0.000000 0.000000
# 2 -0.001986 0.008666 -0.000990 0.000000 0.000000 0.000000
# 3 -0.003472 -0.000990 0.012327 0.000000 0.000000 0.000000
# 4 0.000000 0.000000 0.000000 0.043241 0.000000 0.000000
# 5 0.000000 0.000000 0.000000 0.000000 0.022691 0.000000
# 6 0.000000 0.000000 0.000000 0.000000 0.000000 0.039217
#
#
# Mechanical properties :
#
#
# Convention : Reuss Voigt Hill
#
# Bulk Modulus (GPa) = 49.73706 50.25237 49.99471
# Shear Modulus (GPa) = 31.69590 34.42725 33.06158
#
# Velocity S-wave (km/s) = 3.78199 3.94158 3.86261
# Velocity P-wave (km/s) = 6.44331 6.58728 6.51569
#
# Compressibility (1/GPa) = 0.02010573
#
# Stress axis : x y z
#
# Youngs Moduli (GPa) = 83.27022 115.39278 81.12346
#
# Poissons Ratio (x) = 0.22913 0.28166
# Poissons Ratio (y) = 0.16535 0.08035
# Poissons Ratio (z) = 0.28912 0.11429
#
# Static dielectric constant tensor:
#      x y z
#    x 4.013890 0.000000 0.000000 
#    y 0.000000 3.898610 0.000000 
#    z 0.000000 0.000000 4.091790 
# 
# 
# High freq. dielectric constant tensor:
#      x y z
#    x 1.887650 0.000000 0.000000 
#    y 0.000000 1.859880 0.000000 
#    z 0.000000 0.000000 1.880890 
# 
# From -- ./inp_files/2052.got.cif
#   From: 2010.03.12/outbox.cif.g09.slc.cpg/sg39_2_cif.got.tgz:2052.got - 2010.04.14 02:53:20.
