data_PCOD8182126
_publ_section_title
;
Structure prediction by ZEFSAII (Michael W. Deem and Ramdas Pophale) SiO2 
 PCOD8182126
Probable space group: A B M 2
;
_chemical_formula_sum "Si O2"
_cell_formula_units_Z 64
_cell_length_a 12.893494
_cell_length_b 23.532611
_cell_length_c 9.879373
_cell_angle_alpha 90.000000
_cell_angle_beta 90.000000
_cell_angle_gamma 90.000000
_cell_volume 2997.575435
_symmetry_space_group_name_H-M "A B M 2"
_symmetry_group_IT_number 39
_symmetry_cell_setting 'orthorhombic'
loop_
_space_group_symop_operation_xyz
x,y,z
-x,-y,z
-x,1/2+y,z
x,1/2-y,z
x,1/2+y,1/2+z
-x,1/2-y,1/2+z
-x,y,1/2+z
x,-y,1/2+z
loop_
_atom_site_type_symbol
_atom_site_label
_atom_site_fract_x
_atom_site_fract_y
_atom_site_fract_z
Si Si1 0.617834 0.514398 0.090050
Si Si2 0.254876 0.983287 0.338028
Si Si3 0.210272 0.313601 0.655879
Si Si4 0.602091 0.856159 0.035077
Si Si5 0.182709 0.357363 0.934056
Si Si6 0.565904 0.683892 0.741727
Si Si7 0.017573 0.381787 0.580107
Si Si8 0.060126 0.053273 0.326422
O O1 0.500000 0.500000 0.087306
O O2 0.673357 0.478023 0.206945
O O3 0.672661 0.493111 0.955289
O O4 0.619501 0.582047 0.097517
O O5 0.199899 0.923224 0.379156
O O6 0.179186 0.036196 0.306464
O O7 0.207783 0.250000 0.598032
O O8 0.168602 0.315597 0.808419
O O9 0.330172 0.336305 0.659540
O O10 0.128150 0.349676 0.567884
O O11 0.720030 0.833590 0.021255
O O12 0.553170 0.852369 0.881767
O O13 0.532845 0.822218 0.143024
O O14 0.079755 0.347521 0.020811
O O15 0.577099 0.750000 0.782689
O O16 0.981813 0.395497 0.732993
O O17 0.034215 0.436304 0.483914
O O18 0.000000 0.000000 0.269828
#
# Coordination Sequence:
#
# PCOD8182126 Si02
#       8
#     8   8   8   8   8   8   8   8
#     4  11  26  40  62  94 135 177 214 258 328 388
#     4  11  24  41  62  96 133 173 218 262 321 394
#     4  10  23  43  67  92 129 173 217 276 342 394
#     4  10  23  41  67  95 133 166 220 273 326 392
#     4  10  22  43  65  95 132 173 218 269 332 395
#     4  10  22  44  72  96 125 172 224 278 336 395
#     4  12  23  42  63 100 127 169 222 266 327 389
#     4  12  24  37  66  92 132 168 214 265 314 385
#
# _framework density 21.350587999999998
#
# number of rings (size 3 to 8) (size 9 to 14) (size 15 to 20)
#    0.000    1.250    2.500    2.625   10.500    1.000 
#    2.250    0.000    0.000    0.000    0.000    0.000 
#    0.000    0.000    0.000    0.000    0.000    0.000 
#
# Total GULP energy -396423.596344 kJ/mol
# GULP energy per Si atom -12388.237386 kJ/mol
# Density = 2.130199 g / cm^3
# Si number density = 21.350588 Si / 1000 Ang^3
#
#
#
# Elastic Constant Matrix: (Units=GPa)
#
#
# Indices 1 2 3 4 5 6 
#
# 1 102.1142 13.0519 23.4153 0.0000 0.0000 0.0000
# 2 13.0519 42.0080 11.1831 0.0000 0.0000 0.0000
# 3 23.4153 11.1831 81.3012 0.0000 0.0000 0.0000
# 4 0.0000 0.0000 0.0000 42.1373 0.0000 0.0000
# 5 0.0000 0.0000 0.0000 0.0000 47.9837 0.0000
# 6 0.0000 0.0000 0.0000 0.0000 0.0000 37.6084
#
#
#
# Elastic Compliance Matrix: (Units=1/GPa)
#
#
# Indices 1 2 3 4 5 6 
#
# 1 0.010755 -0.002613 -0.002738 0.000000 0.000000 0.000000
# 2 -0.002613 0.025344 -0.002734 0.000000 0.000000 0.000000
# 3 -0.002738 -0.002734 0.013465 0.000000 0.000000 0.000000
# 4 0.000000 0.000000 0.000000 0.023732 0.000000 0.000000
# 5 0.000000 0.000000 0.000000 0.000000 0.020840 0.000000
# 6 0.000000 0.000000 0.000000 0.000000 0.000000 0.026590
#
#
# Mechanical properties :
#
#
# Convention : Reuss Voigt Hill
#
# Bulk Modulus (GPa) = 29.94463 35.63601 32.79032
# Shear Modulus (GPa) = 33.77777 37.39742 35.58759
#
# Velocity S-wave (km/s) = 3.98182 4.18974 4.08710
# Velocity P-wave (km/s) = 5.93258 6.33501 6.13709
#
# Compressibility (1/GPa) = 0.03339497
#
# Stress axis : x y z
#
# Youngs Moduli (GPa) = 92.98224 39.45636 74.26905
#
# Poissons Ratio (x) = 0.10308 0.20335
# Poissons Ratio (y) = 0.24292 0.20303
# Poissons Ratio (z) = 0.25459 0.10786
#
# Static dielectric constant tensor:
#      x y z
#    x 4.221380 0.000000 0.000000 
#    y 0.000000 3.559000 0.000000 
#    z 0.000000 0.000000 3.740080 
# 
# 
# High freq. dielectric constant tensor:
#      x y z
#    x 1.859060 0.000000 0.000000 
#    y 0.000000 1.811320 0.000000 
#    z 0.000000 0.000000 1.829800 
# 
# From -- ./inp_files/3508.got.cif
#   From: 2010.03.12/outbox.cif.g09.slc.cpg/sg39_2_cif.got.tgz:3508.got - 2010.04.14 02:53:20.
