data_PCOD8182729
_publ_section_title
;
Structure prediction by ZEFSAII (Michael W. Deem and Ramdas Pophale) SiO2 
 PCOD8182729
Probable space group: A M A 2
;
_chemical_formula_sum "Si O2"
_cell_formula_units_Z 64
_cell_length_a 20.988237
_cell_length_b 29.961093
_cell_length_c 5.096565
_cell_angle_alpha 90.000000
_cell_angle_beta 90.000000
_cell_angle_gamma 90.000000
_cell_volume 3204.875623
_symmetry_space_group_name_H-M "A M A 2"
_symmetry_group_IT_number 40
_symmetry_cell_setting 'orthorhombic'
loop_
_space_group_symop_operation_xyz
x,y,z
-x,-y,z
1/2-x,y,z
1/2+x,-y,z
x,1/2+y,1/2+z
-x,1/2-y,1/2+z
1/2-x,1/2+y,1/2+z
1/2+x,1/2-y,1/2+z
loop_
_atom_site_type_symbol
_atom_site_label
_atom_site_fract_x
_atom_site_fract_y
_atom_site_fract_z
Si Si1 0.397469 0.361544 0.848900
Si Si2 0.324873 0.270286 0.874031
Si Si3 0.822764 0.551263 0.808776
Si Si4 0.174357 0.615173 0.807866
Si Si5 0.106618 0.080888 0.804785
Si Si6 0.175928 0.215258 0.362806
Si Si7 0.532807 0.606935 0.354994
Si Si8 0.110359 0.979572 0.813439
O O1 0.366207 0.313561 0.815054
O O2 0.340468 0.396683 0.814062
O O3 0.451202 0.369508 0.629784
O O4 0.430100 0.366107 0.131039
O O5 0.250000 0.282957 0.888145
O O6 0.338639 0.234514 0.647818
O O7 0.351634 0.248301 0.140903
O O8 0.750000 0.545723 0.886853
O O9 0.833741 0.531386 0.519837
O O10 0.864510 0.524359 0.017811
O O11 0.250000 0.611831 0.844487
O O12 0.156328 0.597793 0.521058
O O13 0.147792 0.665523 0.843118
O O14 0.140331 0.584566 0.023737
O O15 0.042629 0.110300 0.812296
O O16 0.086609 0.029771 0.856219
O O17 0.250000 0.211405 0.302604
O O18 0.552563 0.554804 0.359807
#
# Coordination Sequence:
#
# PCOD8182729 Si02
#       8
#     8   8   8   8   8   8   8   8
#     4  10  20  35  56  83 113 146 184 225 264 321
#     4  10  18  32  59  87 111 144 183 220 270 331
#     4  10  20  34  52  80 119 148 172 221 286 329
#     4  11  24  40  60  87 113 138 177 232 287 328
#     4  12  23  39  62  80 106 148 190 227 268 329
#     4   9  19  35  55  82 113 142 175 223 276 327
#     4  10  22  39  56  79 112 148 188 227 268 311
#     4  10  22  36  55  80 108 148 191 231 263 314
#
# _framework density 19.969574000000001
#
# number of rings (size 3 to 8) (size 9 to 14) (size 15 to 20)
#    0.000    1.750    0.000    4.500    0.000    5.000 
#    0.000    8.750    0.000   15.000    0.000    0.000 
#    0.000    0.000    0.000    0.000    0.000    0.000 
#
# Total GULP energy -396920.760117 kJ/mol
# GULP energy per Si atom -12403.773754 kJ/mol
# Density = 1.992412 g / cm^3
# Si number density = 19.969574 Si / 1000 Ang^3
#
#
#
# Elastic Constant Matrix: (Units=GPa)
#
#
# Indices 1 2 3 4 5 6 
#
# 1 73.3296 16.0508 10.7058 0.0000 0.0000 0.0000
# 2 16.0508 90.0659 12.4532 0.0000 0.0000 0.0000
# 3 10.7058 12.4532 78.5077 0.0000 0.0000 0.0000
# 4 0.0000 0.0000 0.0000 24.2826 0.0000 0.0000
# 5 0.0000 0.0000 0.0000 0.0000 20.5681 0.0000
# 6 0.0000 0.0000 0.0000 0.0000 0.0000 15.3608
#
#
#
# Elastic Compliance Matrix: (Units=1/GPa)
#
#
# Indices 1 2 3 4 5 6 
#
# 1 0.014382 -0.002343 -0.001590 0.000000 0.000000 0.000000
# 2 -0.002343 0.011734 -0.001542 0.000000 0.000000 0.000000
# 3 -0.001590 -0.001542 0.013199 0.000000 0.000000 0.000000
# 4 0.000000 0.000000 0.000000 0.041182 0.000000 0.000000
# 5 0.000000 0.000000 0.000000 0.000000 0.048619 0.000000
# 6 0.000000 0.000000 0.000000 0.000000 0.000000 0.065101
#
#
# Mechanical properties :
#
#
# Convention : Reuss Voigt Hill
#
# Bulk Modulus (GPa) = 35.25385 35.59141 35.42263
# Shear Modulus (GPa) = 23.29691 25.55517 24.42604
#
# Velocity S-wave (km/s) = 3.41929 3.58118 3.50117
# Velocity P-wave (km/s) = 5.76895 5.91281 5.84132
#
# Compressibility (1/GPa) = 0.02836570
#
# Stress axis : x y z
#
# Youngs Moduli (GPa) = 69.53117 85.22424 75.76379
#
# Poissons Ratio (x) = 0.19970 0.12043
# Poissons Ratio (y) = 0.16293 0.11681
# Poissons Ratio (z) = 0.11052 0.13139
#
# Static dielectric constant tensor:
#      x y z
#    x 3.309890 0.000000 0.000000 
#    y 0.000000 3.650750 0.000000 
#    z 0.000000 0.000000 3.723370 
# 
# 
# High freq. dielectric constant tensor:
#      x y z
#    x 1.757010 0.000000 0.000000 
#    y 0.000000 1.780280 0.000000 
#    z 0.000000 0.000000 1.796840 
# 
# From -- ./inp_files/2036.got.cif
#   From: 2010.03.12/outbox.cif.g09.slc.cpg/sg40_2_cif.got.tgz:2036.got - 2010.04.14 01:38:03.
