data_PCOD8182761
_publ_section_title
;
Structure prediction by ZEFSAII (Michael W. Deem and Ramdas Pophale) SiO2 
 PCOD8182761
Probable space group: A M A 2
;
_chemical_formula_sum "Si O2"
_cell_formula_units_Z 56
_cell_length_a 25.878938
_cell_length_b 5.022586
_cell_length_c 26.801786
_cell_angle_alpha 90.000000
_cell_angle_beta 90.000000
_cell_angle_gamma 90.000000
_cell_volume 3483.674480
_symmetry_space_group_name_H-M "A M A 2"
_symmetry_group_IT_number 40
_symmetry_cell_setting 'orthorhombic'
loop_
_space_group_symop_operation_xyz
x,y,z
-x,-y,z
1/2-x,y,z
1/2+x,-y,z
x,1/2+y,1/2+z
-x,1/2-y,1/2+z
1/2-x,1/2+y,1/2+z
1/2+x,1/2-y,1/2+z
loop_
_atom_site_type_symbol
_atom_site_label
_atom_site_fract_x
_atom_site_fract_y
_atom_site_fract_z
Si Si1 0.189784 0.038930 0.196570
Si Si2 0.630583 0.982921 0.297324
Si Si3 0.967134 0.250000 0.829324
Si Si4 0.310216 0.961073 0.962078
Si Si5 0.189830 0.473491 0.024395
Si Si6 0.310170 0.526510 0.134253
Si Si7 0.130583 0.982923 0.861324
O O1 0.250000 0.055160 0.211096
O O2 0.158648 0.962340 0.245734
O O3 0.179423 0.818942 0.154602
O O4 0.167401 0.311948 0.173473
O O5 0.630189 0.249999 0.329324
O O6 0.571334 0.878542 0.287259
O O7 0.659667 0.749999 0.329324
O O8 0.928666 0.121456 0.871388
O O9 0.000000 0.500000 0.851038
O O10 0.000000 0.000000 0.807610
O O11 0.250000 0.944847 0.947552
O O12 0.341352 0.037662 0.912914
O O13 0.332599 0.688054 0.985175
O O14 0.320578 0.181061 0.004046
O O15 0.250000 0.541751 0.029450
O O16 0.164118 0.500002 0.079324
O O17 0.250000 0.458245 0.129198
#
# Coordination Sequence:
#
# PCOD8182761 Si02
#       7
#     8   8   8   8   8   8   8
#     4  10  19  30  45  67  99 132 160 188 222 269
#     4  10  20  31  47  70  95 127 152 193 221 284
#     4  10  18  34  51  66  89 120 148 198 244 270
#     4  10  19  30  45  67  99 132 160 188 222 269
#     4   9  17  29  45  64  90 129 168 197 223 253
#     4   9  17  29  45  64  90 129 168 197 223 253
#     4  10  20  31  47  70  95 127 152 193 221 284
#
# _framework density 16.074981999999999
#
# number of rings (size 3 to 8) (size 9 to 14) (size 15 to 20)
#    0.857    1.429    1.429    2.571    0.000    4.571 
#    0.000    0.000    0.000    0.000    0.000    0.000 
#    0.000   17.143    0.000    0.000    0.000    0.000 
#
# Total GULP energy -346879.554807 kJ/mol
# GULP energy per Si atom -12388.555529 kJ/mol
# Density = 1.603839 g / cm^3
# Si number density = 16.074982 Si / 1000 Ang^3
#
#
#
# Elastic Constant Matrix: (Units=GPa)
#
#
# Indices 1 2 3 4 5 6 
#
# 1 52.4309 25.3104 37.7924 0.0000 0.0000 0.0000
# 2 25.3104 97.6454 21.9804 0.0000 0.0000 0.0000
# 3 37.7924 21.9804 87.5123 0.0000 0.0000 0.0000
# 4 0.0000 0.0000 0.0000 24.8006 0.0000 0.0000
# 5 0.0000 0.0000 0.0000 0.0000 -1.7386 0.0000
# 6 0.0000 0.0000 0.0000 0.0000 0.0000 8.0766
#
#
#
# Elastic Compliance Matrix: (Units=1/GPa)
#
#
# Indices 1 2 3 4 5 6 
#
# 1 0.029945 -0.005142 -0.011641 0.000000 0.000000 0.000000
# 2 -0.005142 0.011738 -0.000728 0.000000 0.000000 0.000000
# 3 -0.011641 -0.000728 0.016637 0.000000 0.000000 0.000000
# 4 0.000000 0.000000 0.000000 0.040322 0.000000 0.000000
# 5 0.000000 0.000000 0.000000 0.000000 -0.575172 0.000000
# 6 0.000000 0.000000 0.000000 0.000000 0.000000 0.123815
#
#
# Mechanical properties :
#
#
# Convention : Reuss Voigt Hill
#
# Bulk Modulus (GPa) = 42.91861 45.30610 44.11236
# Shear Modulus (GPa) = -16.13269 16.39473 0.13102
#
# Velocity S-wave (km/s) = -3.17139 3.19704 0.28580
# Velocity P-wave (km/s) = 3.65332 6.47097 5.25453
#
# Compressibility (1/GPa) = 0.02329991
#
# Stress axis : x y z
#
# Youngs Moduli (GPa) = 33.39417 85.19540 60.10797
#
# Poissons Ratio (x) = 0.43805 0.69969
# Poissons Ratio (y) = 0.17170 0.04374
# Poissons Ratio (z) = 0.38873 0.06199
#
# Static dielectric constant tensor:
#      x y z
#    x 2.748280 0.000000 0.000000 
#    y 0.000000 3.254030 0.000000 
#    z 0.000000 0.000000 2.965620 
# 
# 
# High freq. dielectric constant tensor:
#      x y z
#    x 1.565700 0.000000 0.000000 
#    y 0.000000 1.648150 0.000000 
#    z 0.000000 0.000000 1.600900 
# 
# From -- ./inp_files/2404.got.cif
#   From: 2010.03.12/outbox.cif.g09.slc.cpg/sg40_2_cif.got.tgz:2404.got - 2010.04.14 01:38:03.
