data_PCOD8182968
_publ_section_title
;
Structure prediction by ZEFSAII (Michael W. Deem and Ramdas Pophale) SiO2 
 PCOD8182968
Probable space group: A M A 2
;
_chemical_formula_sum "Si O2"
_cell_formula_units_Z 64
_cell_length_a 8.596939
_cell_length_b 20.814411
_cell_length_c 19.663882
_cell_angle_alpha 90.000000
_cell_angle_beta 90.000000
_cell_angle_gamma 90.000000
_cell_volume 3518.659404
_symmetry_space_group_name_H-M "A M A 2"
_symmetry_group_IT_number 40
_symmetry_cell_setting 'orthorhombic'
loop_
_space_group_symop_operation_xyz
x,y,z
-x,-y,z
1/2-x,y,z
1/2+x,-y,z
x,1/2+y,1/2+z
-x,1/2-y,1/2+z
1/2-x,1/2+y,1/2+z
1/2+x,1/2-y,1/2+z
loop_
_atom_site_type_symbol
_atom_site_label
_atom_site_fract_x
_atom_site_fract_y
_atom_site_fract_z
Si Si1 0.933748 0.736308 0.143510
Si Si2 0.067256 0.683649 0.426222
Si Si3 0.566563 0.566655 0.508314
Si Si4 0.065406 0.618543 0.644332
Si Si5 0.932973 0.732455 0.293238
Si Si6 0.430783 0.932812 0.424212
Si Si7 0.568349 0.128301 0.284379
Si Si8 0.435320 0.810962 0.503126
O O1 0.750000 0.739713 0.140499
O O2 0.994560 0.808754 0.132370
O O3 0.984836 0.709262 0.217277
O O4 0.995434 0.692284 0.081462
O O5 0.250000 0.673962 0.437035
O O6 0.005512 0.748008 0.463113
O O7 0.980374 0.622920 0.457217
O O8 0.027036 0.689011 0.346466
O O9 0.500000 0.500000 0.478559
O O10 0.750000 0.563114 0.514133
O O11 0.495011 0.575407 0.583135
O O12 0.250000 0.613390 0.649257
O O13 0.990904 0.594562 0.715333
O O14 0.750000 0.723222 0.305079
O O15 0.973568 0.807231 0.300749
O O16 0.250000 0.935134 0.439213
O O17 0.466206 0.921450 0.344874
O O18 0.505516 0.874909 0.468746
O O19 0.500000 0.000000 0.448580
O O20 0.750000 0.145856 0.280369
O O21 0.250000 0.812033 0.498625
#
# Coordination Sequence:
#
# PCOD8182968 Si02
#       8
#     8   8   8   8   8   8   8   8
#     4   8  15  29  53  80 107 139 176 220 272 329
#     4  11  20  36  60  82 110 146 184 231 282 334
#     4  12  25  40  57  82 113 148 188 230 278 336
#     4  10  19  34  55  80 110 147 184 225 276 328
#     4  10  19  31  52  84 113 140 182 232 280 332
#     4  10  21  35  52  75 106 146 185 226 276 328
#     4  10  19  33  51  76 110 150 190 228 274 331
#     4   9  16  32  56  79 103 139 183 224 277 331
#
# _framework density 18.188745999999998
#
# number of rings (size 3 to 8) (size 9 to 14) (size 15 to 20)
#    0.000    2.000    2.500    3.375    0.000    1.500 
#    0.000    1.250    0.000    0.750    0.000    1.750 
#    0.000    0.000    0.000    0.000    0.000    0.000 
#
# Total GULP energy -396756.418436 kJ/mol
# GULP energy per Si atom -12398.638076 kJ/mol
# Density = 1.814735 g / cm^3
# Si number density = 18.188746 Si / 1000 Ang^3
#
#
#
# Elastic Constant Matrix: (Units=GPa)
#
#
# Indices 1 2 3 4 5 6 
#
# 1 40.8180 14.0682 24.5314 0.0000 0.0000 0.0000
# 2 14.0682 107.4484 58.8861 0.0000 0.0000 0.0000
# 3 24.5314 58.8861 120.7375 0.0000 0.0000 0.0000
# 4 0.0000 0.0000 0.0000 -53.0545 0.0000 0.0000
# 5 0.0000 0.0000 0.0000 0.0000 26.7276 0.0000
# 6 0.0000 0.0000 0.0000 0.0000 0.0000 26.0619
#
#
#
# Elastic Compliance Matrix: (Units=1/GPa)
#
#
# Indices 1 2 3 4 5 6 
#
# 1 0.027951 -0.000747 -0.005315 0.000000 0.000000 0.000000
# 2 -0.000747 0.012722 -0.006053 0.000000 0.000000 0.000000
# 3 -0.005315 -0.006053 0.012314 0.000000 0.000000 0.000000
# 4 0.000000 0.000000 0.000000 -0.018849 0.000000 0.000000
# 5 0.000000 0.000000 0.000000 0.000000 0.037414 0.000000
# 6 0.000000 0.000000 0.000000 0.000000 0.000000 0.038370
#
#
# Mechanical properties :
#
#
# Convention : Reuss Voigt Hill
#
# Bulk Modulus (GPa) = 34.77329 51.55280 43.16304
# Shear Modulus (GPa) = 34.78553 11.38154 23.08354
#
# Velocity S-wave (km/s) = 4.37793 2.50421 3.56632
# Velocity P-wave (km/s) = 6.68689 6.06351 6.38282
#
# Compressibility (1/GPa) = 0.02875771
#
# Stress axis : x y z
#
# Youngs Moduli (GPa) = 35.77753 78.60496 81.20563
#
# Poissons Ratio (x) = 0.05871 0.43158
# Poissons Ratio (y) = 0.02672 0.49153
# Poissons Ratio (z) = 0.19015 0.47579
#
# Static dielectric constant tensor:
#      x y z
#    x 3.197890 0.000000 0.000000 
#    y 0.000000 4.203450 0.000000 
#    z 0.000000 0.000000 3.704170 
# 
# 
# High freq. dielectric constant tensor:
#      x y z
#    x 1.692610 0.000000 0.000000 
#    y 0.000000 1.678580 0.000000 
#    z 0.000000 0.000000 1.712740 
# 
# From -- ./inp_files/22383.got.cif
#   From: 2010.03.12/outbox.cif.g09.slc.cpg/sg40_12_cif.got.tgz:22383.got - 2010.04.14 01:38:03.
