data_PCOD8182971
_publ_section_title
;
Structure prediction by ZEFSAII (Michael W. Deem and Ramdas Pophale) SiO2 
 PCOD8182971
Probable space group: A M A 2
;
_chemical_formula_sum "Si O2"
_cell_formula_units_Z 56
_cell_length_a 9.259088
_cell_length_b 15.364835
_cell_length_c 19.452125
_cell_angle_alpha 90.000000
_cell_angle_beta 90.000000
_cell_angle_gamma 90.000000
_cell_volume 2767.344102
_symmetry_space_group_name_H-M "A M A 2"
_symmetry_group_IT_number 40
_symmetry_cell_setting 'orthorhombic'
loop_
_space_group_symop_operation_xyz
x,y,z
-x,-y,z
1/2-x,y,z
1/2+x,-y,z
x,1/2+y,1/2+z
-x,1/2-y,1/2+z
1/2-x,1/2+y,1/2+z
1/2+x,1/2-y,1/2+z
loop_
_atom_site_type_symbol
_atom_site_label
_atom_site_fract_x
_atom_site_fract_y
_atom_site_fract_z
Si Si1 0.910724 0.731515 0.865080
Si Si2 0.579392 0.761188 0.230548
Si Si3 0.089523 0.572993 0.402808
Si Si4 0.917736 0.703547 0.019456
Si Si5 0.082840 0.410469 0.147560
Si Si6 0.589545 0.128366 0.028782
Si Si7 0.411197 0.419364 0.676849
O O1 0.750000 0.698359 0.844012
O O2 0.907707 0.835476 0.866121
O O3 0.029821 0.712938 0.807684
O O4 0.954791 0.687737 0.938302
O O5 0.750000 0.774850 0.224690
O O6 0.536885 0.664727 0.202559
O O7 0.497270 0.829972 0.184056
O O8 0.250000 0.537497 0.415810
O O9 0.000000 0.500000 0.359024
O O10 0.008436 0.578666 0.474934
O O11 0.750000 0.732638 0.024606
O O12 0.946919 0.620384 0.068504
O O13 0.017015 0.779693 0.048304
O O14 0.250000 0.431776 0.157389
O O15 0.000000 0.500000 0.162704
O O16 0.750000 0.146534 0.998741
O O17 0.602416 0.067576 0.095375
O O18 0.500000 0.500000 0.709661
O O19 0.250000 0.415645 0.710024
#
# Coordination Sequence:
#
# PCOD8182971 Si02
#       7
#     8   8   8   8   8   8   8
#     4   9  20  37  58  80 111 156 197 243 303 361
#     4  11  23  40  61  86 120 159 200 251 305 364
#     4  10  20  33  51  77 112 151 189 235 285 344
#     4   9  18  37  60  83 115 155 196 243 299 352
#     4  10  22  39  62  91 122 161 206 255 308 363
#     4  10  19  31  53  84 114 146 182 229 285 343
#     4  11  23  37  57  85 116 150 189 236 293 355
#
# _framework density 20.23601
#
# number of rings (size 3 to 8) (size 9 to 14) (size 15 to 20)
#    0.000    2.000    1.429    3.000    0.000    8.000 
#    0.000    3.571    0.000    1.714    0.000    0.000 
#    0.000    0.000    0.000    0.000    0.000    0.000 
#
# Total GULP energy -346944.922610 kJ/mol
# GULP energy per Si atom -12390.890093 kJ/mol
# Density = 2.018995 g / cm^3
# Si number density = 20.236010 Si / 1000 Ang^3
#
#
#
# Elastic Constant Matrix: (Units=GPa)
#
#
# Indices 1 2 3 4 5 6 
#
# 1 125.9697 42.9273 25.9491 0.0000 0.0000 0.0000
# 2 42.9273 81.7147 6.4841 0.0000 0.0000 0.0000
# 3 25.9491 6.4841 80.8656 0.0000 0.0000 0.0000
# 4 0.0000 0.0000 0.0000 13.9510 0.0000 0.0000
# 5 0.0000 0.0000 0.0000 0.0000 19.5184 0.0000
# 6 0.0000 0.0000 0.0000 0.0000 0.0000 22.4191
#
#
#
# Elastic Compliance Matrix: (Units=1/GPa)
#
#
# Indices 1 2 3 4 5 6 
#
# 1 0.010299 -0.005181 -0.002890 0.000000 0.000000 0.000000
# 2 -0.005181 0.014923 0.000466 0.000000 0.000000 0.000000
# 3 -0.002890 0.000466 0.013256 0.000000 0.000000 0.000000
# 4 0.000000 0.000000 0.000000 0.071679 0.000000 0.000000
# 5 0.000000 0.000000 0.000000 0.000000 0.051234 0.000000
# 6 0.000000 0.000000 0.000000 0.000000 0.000000 0.044605
#
#
# Mechanical properties :
#
#
# Convention : Reuss Voigt Hill
#
# Bulk Modulus (GPa) = 42.97643 48.80787 45.89215
# Shear Modulus (GPa) = 21.83774 25.39033 23.61403
#
# Velocity S-wave (km/s) = 3.28861 3.54603 3.41974
# Velocity P-wave (km/s) = 5.97525 6.39824 6.19036
#
# Compressibility (1/GPa) = 0.02326857
#
# Stress axis : x y z
#
# Youngs Moduli (GPa) = 97.09410 67.01250 75.43722
#
# Poissons Ratio (x) = 0.34721 0.21798
# Poissons Ratio (y) = 0.50307 -0.03516
# Poissons Ratio (z) = 0.28055 -0.03123
#
# Static dielectric constant tensor:
#      x y z
#    x 3.917200 0.000000 0.000000 
#    y 0.000000 3.674990 0.000000 
#    z 0.000000 0.000000 3.596770 
# 
# 
# High freq. dielectric constant tensor:
#      x y z
#    x 1.799750 0.000000 0.000000 
#    y 0.000000 1.773090 0.000000 
#    z 0.000000 0.000000 1.777050 
# 
# From -- ./inp_files/22135.got.cif
#   From: 2010.03.12/outbox.cif.g09.slc.cpg/sg40_12_cif.got.tgz:22135.got - 2010.04.14 01:38:03.
