data_PCOD8182481
_publ_section_title
;
Structure prediction by ZEFSAII (Michael W. Deem and Ramdas Pophale) SiO2 
 PCOD8182481
Probable space group: A M A 2
;
_chemical_formula_sum "Si O2"
_cell_formula_units_Z 64
_cell_length_a 8.865549
_cell_length_b 18.385288
_cell_length_c 26.232498
_cell_angle_alpha 90.000000
_cell_angle_beta 90.000000
_cell_angle_gamma 90.000000
_cell_volume 4275.783630
_symmetry_space_group_name_H-M "A M A 2"
_symmetry_group_IT_number 40
_symmetry_cell_setting 'orthorhombic'
loop_
_space_group_symop_operation_xyz
x,y,z
-x,-y,z
1/2-x,y,z
1/2+x,-y,z
x,1/2+y,1/2+z
-x,1/2-y,1/2+z
1/2-x,1/2+y,1/2+z
1/2+x,1/2-y,1/2+z
loop_
_atom_site_type_symbol
_atom_site_label
_atom_site_fract_x
_atom_site_fract_y
_atom_site_fract_z
Si Si1 0.929402 0.576841 0.570000
Si Si2 0.425090 0.162785 0.160226
Si Si3 0.929209 0.078422 0.564054
Si Si4 0.919564 0.295272 0.116814
Si Si5 0.074536 0.076130 0.261149
Si Si6 0.926921 0.661611 0.963889
Si Si7 0.429802 0.922055 0.365227
Si Si8 0.583461 0.712087 0.510619
O O1 0.750000 0.571660 0.576082
O O2 0.974222 0.630582 0.523107
O O3 0.000000 0.500000 0.555779
O O4 0.995310 0.605290 0.623153
O O5 0.250000 0.167090 0.145152
O O6 0.496932 0.243261 0.157409
O O7 0.449200 0.135476 0.217545
O O8 0.750000 0.073484 0.566823
O O9 0.986553 0.110318 0.509745
O O10 0.988612 0.129823 0.609778
O O11 0.000000 0.000000 0.571958
O O12 0.750000 0.312264 0.135915
O O13 0.915482 0.253176 0.063984
O O14 0.250000 0.061762 0.272406
O O15 0.994504 0.107505 0.311820
O O16 0.000000 0.000000 0.244553
O O17 0.750000 0.661995 0.965687
O O18 0.985346 0.631727 0.909930
O O19 0.979931 0.745081 0.970517
O O20 0.250000 0.927858 0.362868
O O21 0.500000 0.000000 0.377570
O O22 0.750000 0.709701 0.486772
#
# Coordination Sequence:
#
# PCOD8182481 Si02
#       8
#     8   8   8   8   8   8   8   8
#     4  10  19  29  42  62  85 111 142 172 206 246
#     4  10  19  30  44  61  82 110 142 174 209 248
#     4  10  18  28  42  61  86 113 142 174 208 246
#     4   9  17  29  43  60  82 108 139 172 207 247
#     4  10  20  31  43  60  82 109 141 175 210 245
#     4   9  18  29  42  60  81 109 142 173 207 246
#     4  10  19  30  43  60  82 108 140 175 209 243
#     4   8  16  28  41  58  80 106 136 169 203 243
#
# _framework density 14.968017
#
# number of rings (size 3 to 8) (size 9 to 14) (size 15 to 20)
#    0.000    2.500    0.000    4.500    0.000    8.000 
#    0.000    0.000    0.000    0.000    0.000    0.000 
#    0.000    1.000    0.000    9.000    0.000    6.750 
#
# Total GULP energy -396715.263398 kJ/mol
# GULP energy per Si atom -12397.351981 kJ/mol
# Density = 1.493395 g / cm^3
# Si number density = 14.968017 Si / 1000 Ang^3
#
#
#
# Elastic Constant Matrix: (Units=GPa)
#
#
# Indices 1 2 3 4 5 6 
#
# 1 83.4334 47.0099 38.6439 0.0000 0.0000 0.0000
# 2 47.0099 115.4360 52.4320 0.0000 0.0000 0.0000
# 3 38.6439 52.4320 74.1650 0.0000 0.0000 0.0000
# 4 0.0000 0.0000 0.0000 24.2453 0.0000 0.0000
# 5 0.0000 0.0000 0.0000 0.0000 18.0690 0.0000
# 6 0.0000 0.0000 0.0000 0.0000 0.0000 29.0874
#
#
#
# Elastic Compliance Matrix: (Units=1/GPa)
#
#
# Indices 1 2 3 4 5 6 
#
# 1 0.017138 -0.004306 -0.005886 0.000000 0.000000 0.000000
# 2 -0.004306 0.013842 -0.007542 0.000000 0.000000 0.000000
# 3 -0.005886 -0.007542 0.021882 0.000000 0.000000 0.000000
# 4 0.000000 0.000000 0.000000 0.041245 0.000000 0.000000
# 5 0.000000 0.000000 0.000000 0.000000 0.055343 0.000000
# 6 0.000000 0.000000 0.000000 0.000000 0.000000 0.034379
#
#
# Mechanical properties :
#
#
# Convention : Reuss Voigt Hill
#
# Bulk Modulus (GPa) = 57.48891 61.02289 59.25590
# Shear Modulus (GPa) = 22.21283 23.27694 22.74488
#
# Velocity S-wave (km/s) = 3.85648 3.94777 3.90239
# Velocity P-wave (km/s) = 7.63682 7.85094 7.74462
#
# Compressibility (1/GPa) = 0.01739466
#
# Stress axis : x y z
#
# Youngs Moduli (GPa) = 58.35079 72.24343 45.69909
#
# Poissons Ratio (x) = 0.31107 0.26897
# Poissons Ratio (y) = 0.25125 0.34468
# Poissons Ratio (z) = 0.34343 0.54488
#
# Static dielectric constant tensor:
#      x y z
#    x 3.066490 0.000000 0.000000 
#    y 0.000000 2.991260 0.000000 
#    z 0.000000 0.000000 2.785060 
# 
# 
# High freq. dielectric constant tensor:
#      x y z
#    x 1.590050 0.000000 0.000000 
#    y 0.000000 1.563580 0.000000 
#    z 0.000000 0.000000 1.537340 
# 
# From -- ./inp_files/25530.got.cif
#   From: 2010.03.12/outbox.cif.g09.slc.cpg/sg40_13_cif.got.tgz:25530.got - 2010.04.14 01:38:03.
