data_PCOD8182723
_publ_section_title
;
Structure prediction by ZEFSAII (Michael W. Deem and Ramdas Pophale) SiO2 
 PCOD8182723
Probable space group: A M A 2
;
_chemical_formula_sum "Si O2"
_cell_formula_units_Z 64
_cell_length_a 17.654821
_cell_length_b 12.094000
_cell_length_c 16.367470
_cell_angle_alpha 90.000000
_cell_angle_beta 90.000000
_cell_angle_gamma 90.000000
_cell_volume 3494.739724
_symmetry_space_group_name_H-M "A M A 2"
_symmetry_group_IT_number 40
_symmetry_cell_setting 'orthorhombic'
loop_
_space_group_symop_operation_xyz
x,y,z
-x,-y,z
1/2-x,y,z
1/2+x,-y,z
x,1/2+y,1/2+z
-x,1/2-y,1/2+z
1/2-x,1/2+y,1/2+z
1/2+x,1/2-y,1/2+z
loop_
_atom_site_type_symbol
_atom_site_label
_atom_site_fract_x
_atom_site_fract_y
_atom_site_fract_z
Si Si1 0.160707 0.112620 0.291010
Si Si2 0.338824 0.368838 0.525174
Si Si3 0.838595 0.900983 0.106681
Si Si4 0.660208 0.649677 0.341013
Si Si5 0.586855 0.003940 0.434228
Si Si6 0.095037 0.323021 0.063041
Si Si7 0.338202 0.985416 0.688467
Si Si8 0.418616 0.655616 0.081745
O O1 0.250000 0.114947 0.295735
O O2 0.133129 0.087105 0.199643
O O3 0.125751 0.231276 0.316083
O O4 0.133775 0.016241 0.352039
O O5 0.250000 0.340555 0.530111
O O6 0.359006 0.485621 0.563451
O O7 0.367864 0.376270 0.432097
O O8 0.384111 0.277561 0.576480
O O9 0.750000 0.872931 0.101810
O O10 0.884316 0.805614 0.059269
O O11 0.750000 0.657148 0.336551
O O12 0.633824 0.553414 0.278559
O O13 0.607543 0.123299 0.473244
O O14 0.500000 0.000000 0.408742
O O15 0.606832 0.910509 0.501027
O O16 0.149551 0.381901 0.128169
O O17 0.008697 0.341596 0.090928
O O18 0.250000 0.017502 0.688223
O O19 0.386088 0.092591 0.661327
#
# Coordination Sequence:
#
# PCOD8182723 Si02
#       8
#     8   8   8   8   8   8   8   8
#     4  10  18  33  56  82 105 136 185 226 259 316
#     4  10  20  36  57  81 109 144 185 227 272 323
#     4  10  21  37  57  80 110 144 182 227 274 326
#     4   9  17  31  56  83 105 135 179 223 265 317
#     4   9  19  34  53  79 109 140 178 228 269 315
#     4  10  20  35  54  78 115 145 180 221 277 327
#     4  10  18  32  57  85 108 136 182 232 269 314
#     4  10  20  34  55  79 112 145 181 226 273 324
#
# _framework density 18.313236
#
# number of rings (size 3 to 8) (size 9 to 14) (size 15 to 20)
#    0.000    2.250    2.500    1.875    0.000    3.000 
#    2.250    1.250    8.250    4.500    0.000    0.000 
#    0.000    0.000    0.000    0.000    0.000    0.000 
#
# Total GULP energy -396813.130634 kJ/mol
# GULP energy per Si atom -12400.410332 kJ/mol
# Density = 1.827155 g / cm^3
# Si number density = 18.313236 Si / 1000 Ang^3
#
#
#
# Elastic Constant Matrix: (Units=GPa)
#
#
# Indices 1 2 3 4 5 6 
#
# 1 42.7080 40.6073 28.5652 0.0000 0.0000 0.0000
# 2 40.6073 126.8114 72.9474 0.0000 0.0000 0.0000
# 3 28.5652 72.9474 125.9936 0.0000 0.0000 0.0000
# 4 0.0000 0.0000 0.0000 33.4027 0.0000 0.0000
# 5 0.0000 0.0000 0.0000 0.0000 12.9345 0.0000
# 6 0.0000 0.0000 0.0000 0.0000 0.0000 24.1485
#
#
#
# Elastic Compliance Matrix: (Units=1/GPa)
#
#
# Indices 1 2 3 4 5 6 
#
# 1 0.034034 -0.009685 -0.002109 0.000000 0.000000 0.000000
# 2 -0.009685 0.014580 -0.006246 0.000000 0.000000 0.000000
# 3 -0.002109 -0.006246 0.012031 0.000000 0.000000 0.000000
# 4 0.000000 0.000000 0.000000 0.029938 0.000000 0.000000
# 5 0.000000 0.000000 0.000000 0.000000 0.077313 0.000000
# 6 0.000000 0.000000 0.000000 0.000000 0.000000 0.041410
#
#
# Mechanical properties :
#
#
# Convention : Reuss Voigt Hill
#
# Bulk Modulus (GPa) = 40.70676 64.41700 52.56188
# Shear Modulus (GPa) = 19.71815 24.32335 22.02075
#
# Velocity S-wave (km/s) = 3.28489 3.64838 3.47140
# Velocity P-wave (km/s) = 6.05505 7.28004 6.69562
#
# Compressibility (1/GPa) = 0.02456594
#
# Stress axis : x y z
#
# Youngs Moduli (GPa) = 29.38229 68.58766 83.11866
#
# Poissons Ratio (x) = 0.66430 0.17526
# Poissons Ratio (y) = 0.28458 0.51912
# Poissons Ratio (z) = 0.06195 0.42837
#
# Static dielectric constant tensor:
#      x y z
#    x 3.144900 0.000000 0.000000 
#    y 0.000000 3.348180 0.000000 
#    z 0.000000 0.000000 3.423830 
# 
# 
# High freq. dielectric constant tensor:
#      x y z
#    x 1.692250 0.000000 0.000000 
#    y 0.000000 1.705730 0.000000 
#    z 0.000000 0.000000 1.704810 
# 
# From -- ./inp_files/17852.got.cif
#   From: 2010.03.12/outbox.cif.g09.slc.cpg/sg40_9_cif.got.tgz:17852.got - 2010.04.14 01:38:03.
