data_PCOD8182531
_publ_section_title
;
Structure prediction by ZEFSAII (Michael W. Deem and Ramdas Pophale) SiO2 
 PCOD8182531
Probable space group: A M A 2
;
_chemical_formula_sum "Si O2"
_cell_formula_units_Z 64
_cell_length_a 8.989477
_cell_length_b 18.261559
_cell_length_c 25.905233
_cell_angle_alpha 90.000000
_cell_angle_beta 90.000000
_cell_angle_gamma 90.000000
_cell_volume 4252.651353
_symmetry_space_group_name_H-M "A M A 2"
_symmetry_group_IT_number 40
_symmetry_cell_setting 'orthorhombic'
loop_
_space_group_symop_operation_xyz
x,y,z
-x,-y,z
1/2-x,y,z
1/2+x,-y,z
x,1/2+y,1/2+z
-x,1/2-y,1/2+z
1/2-x,1/2+y,1/2+z
1/2+x,1/2-y,1/2+z
loop_
_atom_site_type_symbol
_atom_site_label
_atom_site_fract_x
_atom_site_fract_y
_atom_site_fract_z
Si Si1 0.926053 0.576890 0.905400
Si Si2 0.925373 0.424678 0.604317
Si Si3 0.578747 0.667644 0.521021
Si Si4 0.414209 0.788467 0.468770
Si Si5 0.076299 0.421948 0.417593
Si Si6 0.921619 0.927018 0.221002
Si Si7 0.075407 0.668316 0.816443
Si Si8 0.417303 0.701582 0.362511
O O1 0.750000 0.569277 0.895522
O O2 0.958658 0.628031 0.955457
O O3 0.000000 0.500000 0.918514
O O4 0.000220 0.610218 0.854498
O O5 0.750000 0.432534 0.597498
O O6 0.973782 0.406901 0.663070
O O7 0.000000 0.500000 0.585385
O O8 0.983065 0.358577 0.569418
O O9 0.750000 0.667804 0.536697
O O10 0.530666 0.750895 0.507590
O O11 0.546084 0.615358 0.472634
O O12 0.250000 0.784767 0.493910
O O13 0.412940 0.746454 0.414932
O O14 0.250000 0.430373 0.406341
O O15 0.000000 0.500000 0.418261
O O16 0.004369 0.374272 0.371558
O O17 0.750000 0.946933 0.220911
O O18 0.955760 0.858836 0.258247
O O19 0.000000 0.000000 0.241859
O O20 0.250000 0.672875 0.829299
O O21 0.004003 0.749087 0.820567
O O22 0.250000 0.685034 0.342894
#
# Coordination Sequence:
#
# PCOD8182531 Si02
#       8
#     8   8   8   8   8   8   8   8
#     4  10  19  29  42  62  86 112 142 172 206 246
#     4  10  19  31  44  59  82 110 141 176 211 244
#     4  10  19  29  43  62  82 108 141 173 208 247
#     4   8  16  29  42  57  80 109 138 169 203 242
#     4  10  19  29  42  61  85 112 141 173 208 247
#     4   9  19  31  43  60  82 110 142 176 210 244
#     4  10  18  29  44  61  83 111 143 175 209 247
#     4   9  17  29  43  60  82 108 139 172 207 247
#
# _framework density 15.049435000000001
#
# number of rings (size 3 to 8) (size 9 to 14) (size 15 to 20)
#    0.000    2.500    0.000    3.750    0.000    8.500 
#    0.000    0.000    0.000    0.000    0.000    0.000 
#    0.000    1.000    0.000    6.500    0.000    4.875 
#
# Total GULP energy -396765.482387 kJ/mol
# GULP energy per Si atom -12398.921325 kJ/mol
# Density = 1.501518 g / cm^3
# Si number density = 15.049435 Si / 1000 Ang^3
#
#
#
# Elastic Constant Matrix: (Units=GPa)
#
#
# Indices 1 2 3 4 5 6 
#
# 1 99.9691 53.8762 40.0142 0.0000 0.0000 0.0000
# 2 53.8762 92.2454 35.6015 0.0000 0.0000 0.0000
# 3 40.0142 35.6015 55.8027 0.0000 0.0000 0.0000
# 4 0.0000 0.0000 0.0000 20.0231 0.0000 0.0000
# 5 0.0000 0.0000 0.0000 0.0000 19.2868 0.0000
# 6 0.0000 0.0000 0.0000 0.0000 0.0000 29.6163
#
#
#
# Elastic Compliance Matrix: (Units=1/GPa)
#
#
# Indices 1 2 3 4 5 6 
#
# 1 0.016745 -0.006827 -0.007652 0.000000 0.000000 0.000000
# 2 -0.006827 0.017165 -0.006056 0.000000 0.000000 0.000000
# 3 -0.007652 -0.006056 0.027271 0.000000 0.000000 0.000000
# 4 0.000000 0.000000 0.000000 0.049942 0.000000 0.000000
# 5 0.000000 0.000000 0.000000 0.000000 0.051849 0.000000
# 6 0.000000 0.000000 0.000000 0.000000 0.000000 0.033765
#
#
# Mechanical properties :
#
#
# Convention : Reuss Voigt Hill
#
# Bulk Modulus (GPa) = 49.72207 56.33346 53.02776
# Shear Modulus (GPa) = 20.44902 21.68691 21.06797
#
# Velocity S-wave (km/s) = 3.69018 3.80023 3.74561
# Velocity P-wave (km/s) = 7.16013 7.53453 7.34971
#
# Compressibility (1/GPa) = 0.02011179
#
# Stress axis : x y z
#
# Youngs Moduli (GPa) = 59.71916 58.25771 36.66932
#
# Poissons Ratio (x) = 0.39771 0.28059
# Poissons Ratio (y) = 0.40769 0.22206
# Poissons Ratio (z) = 0.45696 0.35280
#
# Static dielectric constant tensor:
#      x y z
#    x 3.103250 0.000000 0.000000 
#    y 0.000000 2.970510 0.000000 
#    z 0.000000 0.000000 2.753460 
# 
# 
# High freq. dielectric constant tensor:
#      x y z
#    x 1.595410 0.000000 0.000000 
#    y 0.000000 1.565670 0.000000 
#    z 0.000000 0.000000 1.538570 
# 
# From -- ./inp_files/24383.got.cif
#   From: 2010.03.12/outbox.cif.g09.slc.cpg/sg40_13_cif.got.tgz:24383.got - 2010.04.14 01:38:03.
