data_PCOD8182715
_publ_section_title
;
Structure prediction by ZEFSAII (Michael W. Deem and Ramdas Pophale) SiO2 
 PCOD8182715
Probable space group: A M A 2
;
_chemical_formula_sum "Si O2"
_cell_formula_units_Z 64
_cell_length_a 8.936795
_cell_length_b 33.300319
_cell_length_c 11.639655
_cell_angle_alpha 90.000000
_cell_angle_beta 90.000000
_cell_angle_gamma 90.000000
_cell_volume 3463.939496
_symmetry_space_group_name_H-M "A M A 2"
_symmetry_group_IT_number 40
_symmetry_cell_setting 'orthorhombic'
loop_
_space_group_symop_operation_xyz
x,y,z
-x,-y,z
1/2-x,y,z
1/2+x,-y,z
x,1/2+y,1/2+z
-x,1/2-y,1/2+z
1/2-x,1/2+y,1/2+z
1/2+x,1/2-y,1/2+z
loop_
_atom_site_type_symbol
_atom_site_label
_atom_site_fract_x
_atom_site_fract_y
_atom_site_fract_z
Si Si1 0.572162 0.041971 0.140100
Si Si2 0.579520 0.673763 0.136189
Si Si3 0.075519 0.815999 0.372887
Si Si4 0.917788 0.887852 0.775605
Si Si5 0.919302 0.328194 0.486639
Si Si6 0.923680 0.734361 0.338184
Si Si7 0.071720 0.623481 0.710246
Si Si8 0.576012 0.039933 0.876597
O O1 0.750000 0.040397 0.159042
O O2 0.502509 0.079421 0.208667
O O3 0.500000 0.000000 0.184000
O O4 0.527209 0.048805 0.007413
O O5 0.750000 0.659476 0.151513
O O6 0.472936 0.636452 0.164894
O O7 0.544896 0.710346 0.221394
O O8 0.544789 0.687464 0.008045
O O9 0.250000 0.820652 0.343756
O O10 0.013167 0.775272 0.318280
O O11 0.986722 0.854298 0.323949
O O12 0.750000 0.903038 0.753774
O O13 0.026120 0.925168 0.791968
O O14 0.927493 0.861042 0.888238
O O15 0.750000 0.312607 0.504762
O O16 0.980548 0.349134 0.602211
O O17 0.019615 0.290135 0.450233
O O18 0.750000 0.743968 0.356511
O O19 0.250000 0.618444 0.711817
O O20 0.750000 0.033749 0.867739
O O21 0.500000 0.000000 0.830025
#
# Coordination Sequence:
#
# PCOD8182715 Si02
#       8
#     8   8   8   8   8   8   8   8
#     4  10  20  34  55  83 117 154 190 231 283 341
#     4   9  21  40  57  75 106 145 184 227 276 329
#     4  11  24  40  57  80 111 148 190 234 282 335
#     4  10  18  32  55  80 107 141 180 222 271 326
#     4   9  19  34  53  78 110 145 179 223 276 330
#     4  10  21  37  58  82 107 142 185 231 282 332
#     4  11  22  37  57  83 117 151 189 235 284 338
#     4  10  19  30  49  79 115 148 181 221 271 329
#
# _framework density 18.476071999999998
#
# number of rings (size 3 to 8) (size 9 to 14) (size 15 to 20)
#    0.000    2.000    1.250    2.250    1.750    4.000 
#    0.000    0.000    0.000    0.750    0.000    0.000 
#    0.000    0.000    0.000    0.000    0.000    0.000 
#
# Total GULP energy -396889.402170 kJ/mol
# GULP energy per Si atom -12402.793818 kJ/mol
# Density = 1.843402 g / cm^3
# Si number density = 18.476072 Si / 1000 Ang^3
#
#
#
# Elastic Constant Matrix: (Units=GPa)
#
#
# Indices 1 2 3 4 5 6 
#
# 1 83.2249 52.7331 30.7952 0.0000 0.0000 0.0000
# 2 52.7331 124.5309 36.8665 0.0000 0.0000 0.0000
# 3 30.7952 36.8665 66.8223 0.0000 0.0000 0.0000
# 4 0.0000 0.0000 0.0000 18.9477 0.0000 0.0000
# 5 0.0000 0.0000 0.0000 0.0000 24.1047 0.0000
# 6 0.0000 0.0000 0.0000 0.0000 0.0000 39.9493
#
#
#
# Elastic Compliance Matrix: (Units=1/GPa)
#
#
# Indices 1 2 3 4 5 6 
#
# 1 0.017615 -0.006043 -0.004784 0.000000 0.000000 0.000000
# 2 -0.006043 0.011671 -0.003654 0.000000 0.000000 0.000000
# 3 -0.004784 -0.003654 0.019186 0.000000 0.000000 0.000000
# 4 0.000000 0.000000 0.000000 0.052777 0.000000 0.000000
# 5 0.000000 0.000000 0.000000 0.000000 0.041486 0.000000
# 6 0.000000 0.000000 0.000000 0.000000 0.000000 0.025032
#
#
# Mechanical properties :
#
#
# Convention : Reuss Voigt Hill
#
# Bulk Modulus (GPa) = 51.25658 57.26305 54.25982
# Shear Modulus (GPa) = 24.60268 26.87921 25.74094
#
# Velocity S-wave (km/s) = 3.65306 3.81834 3.73661
# Velocity P-wave (km/s) = 6.75245 7.10633 6.93165
#
# Compressibility (1/GPa) = 0.01950969
#
# Stress axis : x y z
#
# Youngs Moduli (GPa) = 56.77107 85.68462 52.12217
#
# Poissons Ratio (x) = 0.51777 0.24935
# Poissons Ratio (y) = 0.34305 0.19046
# Poissons Ratio (z) = 0.27159 0.31309
#
# Static dielectric constant tensor:
#      x y z
#    x 3.498780 0.000000 0.000000 
#    y 0.000000 3.701660 0.000000 
#    z 0.000000 0.000000 3.209030 
# 
# 
# High freq. dielectric constant tensor:
#      x y z
#    x 1.728570 0.000000 0.000000 
#    y 0.000000 1.718980 0.000000 
#    z 0.000000 0.000000 1.688370 
# 
# From -- ./inp_files/10560.got.cif
#   From: 2010.03.12/outbox.cif.g09.slc.cpg/sg40_6_cif.got.tgz:10560.got - 2010.04.14 01:38:03.
