data_PCOD8182981
_publ_section_title
;
Structure prediction by ZEFSAII (Michael W. Deem and Ramdas Pophale) SiO2 
 PCOD8182981
Probable space group: A M A 2
;
_chemical_formula_sum "Si O2"
_cell_formula_units_Z 56
_cell_length_a 8.878633
_cell_length_b 18.817504
_cell_length_c 17.665425
_cell_angle_alpha 90.000000
_cell_angle_beta 90.000000
_cell_angle_gamma 90.000000
_cell_volume 2951.428129
_symmetry_space_group_name_H-M "A M A 2"
_symmetry_group_IT_number 40
_symmetry_cell_setting 'orthorhombic'
loop_
_space_group_symop_operation_xyz
x,y,z
-x,-y,z
1/2-x,y,z
1/2+x,-y,z
x,1/2+y,1/2+z
-x,1/2-y,1/2+z
1/2-x,1/2+y,1/2+z
1/2+x,1/2-y,1/2+z
loop_
_atom_site_type_symbol
_atom_site_label
_atom_site_fract_x
_atom_site_fract_y
_atom_site_fract_z
Si Si1 0.429369 0.203623 0.698300
Si Si2 0.574265 0.430695 0.839449
Si Si3 0.417799 0.936270 0.180075
Si Si4 0.917014 0.705205 0.837237
Si Si5 0.582073 0.847063 0.923572
Si Si6 0.083245 0.806230 0.071165
Si Si7 0.570266 0.077278 0.785355
O O1 0.250000 0.191263 0.706926
O O2 0.483274 0.262562 0.759255
O O3 0.471433 0.233262 0.613869
O O4 0.512658 0.129607 0.718167
O O5 0.500000 0.500000 0.879191
O O6 0.750000 0.437100 0.849224
O O7 0.521335 0.425228 0.753085
O O8 0.518876 0.356309 0.875046
O O9 0.250000 0.960682 0.204070
O O10 0.407818 0.863878 0.136240
O O11 0.500000 0.000000 0.132798
O O12 0.750000 0.674061 0.821477
O O13 0.911933 0.766241 0.898654
O O14 0.750000 0.880526 0.923981
O O15 0.479551 0.894817 0.868436
O O16 0.522810 0.840866 0.008675
O O17 0.250000 0.793215 0.036685
O O18 0.750000 0.072794 0.782942
O O19 0.500000 0.000000 0.770444
#
# Coordination Sequence:
#
# PCOD8182981 Si02
#       7
#     8   8   8   8   8   8   8
#     4   9  18  35  57  80 109 144 180 226 278 324
#     4  11  20  29  47  73 100 131 168 210 253 302
#     4  10  19  32  47  70 103 139 171 207 251 298
#     4   9  17  34  53  72 102 137 173 216 265 314
#     4  10  22  37  55  79 110 145 180 223 275 330
#     4  10  20  35  54  77 111 149 183 222 271 326
#     4  11  22  38  60  85 112 145 189 236 284 339
#
# _framework density 18.973865
#
# number of rings (size 3 to 8) (size 9 to 14) (size 15 to 20)
#    0.000    2.000    1.429    5.143    0.000    5.143 
#    0.000    1.429    0.000    0.857    0.000    6.000 
#    0.000    0.000    0.000    0.000    0.000    0.000 
#
# Total GULP energy -346937.183227 kJ/mol
# GULP energy per Si atom -12390.613687 kJ/mol
# Density = 1.893068 g / cm^3
# Si number density = 18.973865 Si / 1000 Ang^3
#
#
#
# Elastic Constant Matrix: (Units=GPa)
#
#
# Indices 1 2 3 4 5 6 
#
# 1 121.7251 48.9722 7.8153 0.0000 0.0000 0.0000
# 2 48.9722 111.1276 7.7506 0.0000 0.0000 0.0000
# 3 7.8153 7.7506 33.4777 0.0000 0.0000 0.0000
# 4 0.0000 0.0000 0.0000 13.9457 0.0000 0.0000
# 5 0.0000 0.0000 0.0000 0.0000 15.8872 0.0000
# 6 0.0000 0.0000 0.0000 0.0000 0.0000 33.5536
#
#
#
# Elastic Compliance Matrix: (Units=1/GPa)
#
#
# Indices 1 2 3 4 5 6 
#
# 1 0.010045 -0.004333 -0.001342 0.000000 0.000000 0.000000
# 2 -0.004333 0.011015 -0.001539 0.000000 0.000000 0.000000
# 3 -0.001342 -0.001539 0.030540 0.000000 0.000000 0.000000
# 4 0.000000 0.000000 0.000000 0.071707 0.000000 0.000000
# 5 0.000000 0.000000 0.000000 0.000000 0.062944 0.000000
# 6 0.000000 0.000000 0.000000 0.000000 0.000000 0.029803
#
#
# Mechanical properties :
#
#
# Convention : Reuss Voigt Hill
#
# Bulk Modulus (GPa) = 26.90105 43.93411 35.41758
# Shear Modulus (GPa) = 20.58704 26.13014 23.35859
#
# Velocity S-wave (km/s) = 3.29754 3.71504 3.51250
# Velocity P-wave (km/s) = 5.35790 6.45038 5.92935
#
# Compressibility (1/GPa) = 0.03717327
#
# Stress axis : x y z
#
# Youngs Moduli (GPa) = 99.55607 90.78175 32.74387
#
# Poissons Ratio (x) = 0.39335 0.04393
# Poissons Ratio (y) = 0.43137 0.05038
# Poissons Ratio (z) = 0.13358 0.13969
#
# Static dielectric constant tensor:
#      x y z
#    x 3.953410 0.000000 0.000000 
#    y 0.000000 4.053080 0.000000 
#    z 0.000000 0.000000 3.133280 
# 
# 
# High freq. dielectric constant tensor:
#      x y z
#    x 1.741950 0.000000 0.000000 
#    y 0.000000 1.748930 0.000000 
#    z 0.000000 0.000000 1.694190 
# 
# From -- ./inp_files/19483.got.cif
#   From: 2010.03.12/outbox.cif.g09.slc.cpg/sg40_10_cif.got.tgz:19483.got - 2010.04.14 01:38:03.
