data_PCOD8182079
_publ_section_title
;
Structure prediction by ZEFSAII (Michael W. Deem and Ramdas Pophale) SiO2 
 PCOD8182079
Probable space group: A B M 2
;
_chemical_formula_sum "Si O2"
_cell_formula_units_Z 40
_cell_length_a 4.745370
_cell_length_b 15.681961
_cell_length_c 17.700430
_cell_angle_alpha 90.000000
_cell_angle_beta 90.000000
_cell_angle_gamma 90.000000
_cell_volume 1317.207718
_symmetry_space_group_name_H-M "A B M 2"
_symmetry_group_IT_number 39
_symmetry_cell_setting 'orthorhombic'
loop_
_space_group_symop_operation_xyz
x,y,z
-x,-y,z
-x,1/2+y,z
x,1/2-y,z
x,1/2+y,1/2+z
-x,1/2-y,1/2+z
-x,y,1/2+z
x,-y,1/2+z
loop_
_atom_site_type_symbol
_atom_site_label
_atom_site_fract_x
_atom_site_fract_y
_atom_site_fract_z
Si Si1 0.090377 0.348537 0.934180
Si Si2 0.689956 0.075898 0.823521
Si Si3 0.064599 0.750000 0.183616
Si Si4 0.181131 0.578140 0.647494
Si Si5 0.442452 0.250000 0.286892
Si Si6 0.594782 0.848729 0.537404
O O1 0.032497 0.250000 0.909236
O O2 0.988679 0.412649 0.866898
O O3 0.409083 0.362788 0.961169
O O4 0.906872 0.372204 0.009108
O O5 0.752319 0.062077 0.735369
O O6 0.502429 0.163699 0.834793
O O7 0.500000 0.000000 0.856588
O O8 0.387345 0.750000 0.209016
O O9 0.006850 0.835529 0.134938
O O10 0.882795 0.750000 0.260439
O O11 0.000000 0.500000 0.615096
O O12 0.478198 0.589041 0.603652
O O13 0.580206 0.750000 0.566523
#
# Coordination Sequence:
#
# PCOD8182079 Si02
#       6
#     8   8   4   8   4   8
#     4  10  23  44  69  99 135 180 230 280 341 409
#     4  11  24  43  69 104 139 180 231 284 340 414
#     4  10  22  40  62  92 132 174 213 274 335 386
#     4  11  24  43  69 104 139 180 231 284 340 414
#     4  10  22  40  62  92 132 174 213 274 335 386
#     4  10  23  44  69  99 135 180 230 280 341 409
#
# _framework density 30.367266999999998
#
# number of rings (size 3 to 8) (size 9 to 14) (size 15 to 20)
#    0.000    1.600    2.000    1.200    0.000   11.200 
#    0.000    0.000    0.000    0.000    0.000    0.000 
#    0.000    0.000    0.000    0.000    0.000    0.000 
#
# Total GULP energy -248139.844944 kJ/mol
# GULP energy per Si atom -12406.992247 kJ/mol
# Density = 3.029815 g / cm^3
# Si number density = 30.367267 Si / 1000 Ang^3
#
#
#
# Elastic Constant Matrix: (Units=GPa)
#
#
# Indices 1 2 3 4 5 6 
#
# 1 58.8609 8.2876 -24.1649 0.0000 0.0000 0.0000
# 2 8.2876 154.1416 -16.5305 0.0000 0.0000 0.0000
# 3 -24.1649 -16.5305 114.0822 0.0000 0.0000 0.0000
# 4 0.0000 0.0000 0.0000 16.4263 0.0000 0.0000
# 5 0.0000 0.0000 0.0000 0.0000 16.3447 0.0000
# 6 0.0000 0.0000 0.0000 0.0000 0.0000 44.7437
#
#
#
# Elastic Compliance Matrix: (Units=1/GPa)
#
#
# Indices 1 2 3 4 5 6 
#
# 1 0.018660 -0.000589 0.003867 0.000000 0.000000 0.000000
# 2 -0.000589 0.006609 0.000833 0.000000 0.000000 0.000000
# 3 0.003867 0.000833 0.009705 0.000000 0.000000 0.000000
# 4 0.000000 0.000000 0.000000 0.060878 0.000000 0.000000
# 5 0.000000 0.000000 0.000000 0.000000 0.061182 0.000000
# 6 0.000000 0.000000 0.000000 0.000000 0.000000 0.022350
#
#
# Mechanical properties :
#
#
# Convention : Reuss Voigt Hill
#
# Bulk Modulus (GPa) = 23.14981 29.14101 26.14541
# Shear Modulus (GPa) = 26.94564 39.46912 33.20738
#
# Velocity S-wave (km/s) = 2.98203 3.60908 3.31044
# Velocity P-wave (km/s) = 4.41549 5.19464 4.82083
#
# Compressibility (1/GPa) = 0.04319690
#
# Stress axis : x y z
#
# Youngs Moduli (GPa) = 53.59133 151.32012 103.03486
#
# Poissons Ratio (x) = 0.08906 -0.39846
# Poissons Ratio (y) = 0.03154 -0.08582
# Poissons Ratio (z) = -0.20725 -0.12604
#
# Static dielectric constant tensor:
#      x y z
#    x 5.718420 0.000000 0.000000 
#    y 0.000000 5.865860 0.000000 
#    z 0.000000 0.000000 5.282040 
# 
# 
# High freq. dielectric constant tensor:
#      x y z
#    x 2.255400 0.000000 0.000000 
#    y 0.000000 2.235280 0.000000 
#    z 0.000000 0.000000 2.271750 
# 
# From -- ./inp_files/10929.got.cif
#   From: 2010.03.12/outbox.cif.g09.slc.cpg/sg39_6_cif.got.tgz:10929.got - 2010.04.14 02:53:20.
