data_PCOD8182342
_publ_section_title
;
Structure prediction by ZEFSAII (Michael W. Deem and Ramdas Pophale) SiO2 
 PCOD8182342
Probable space group: A M A 2
;
_chemical_formula_sum "Si O2"
_cell_formula_units_Z 36
_cell_length_a 17.024284
_cell_length_b 7.284767
_cell_length_c 16.884977
_cell_angle_alpha 90.000000
_cell_angle_beta 90.000000
_cell_angle_gamma 90.000000
_cell_volume 2094.040103
_symmetry_space_group_name_H-M "A M A 2"
_symmetry_group_IT_number 40
_symmetry_cell_setting 'orthorhombic'
loop_
_space_group_symop_operation_xyz
x,y,z
-x,-y,z
1/2-x,y,z
1/2+x,-y,z
x,1/2+y,1/2+z
-x,1/2-y,1/2+z
1/2-x,1/2+y,1/2+z
1/2+x,1/2-y,1/2+z
loop_
_atom_site_type_symbol
_atom_site_label
_atom_site_fract_x
_atom_site_fract_y
_atom_site_fract_z
Si Si1 0.500000 0.500000 0.108480
Si Si2 0.660864 0.738239 0.870950
Si Si3 0.514784 0.789883 0.975430
Si Si4 0.085993 0.977995 0.759952
Si Si5 0.425056 0.609839 0.832377
O O1 0.507293 0.682838 0.057563
O O2 0.423078 0.517512 0.165960
O O3 0.750000 0.759931 0.899913
O O4 0.646753 0.530272 0.842402
O O5 0.646525 0.880916 0.798960
O O6 0.603615 0.776522 0.944033
O O7 0.500000 0.000000 0.994579
O O8 0.451815 0.700074 0.915593
O O9 0.109084 0.765597 0.774110
O O10 0.000000 0.000000 0.803017
O O11 0.500000 0.500000 0.795512
#
# Coordination Sequence:
#
# PCOD8182342 Si02
#       5
#     4   8   8   8   8
#     4  10  20  32  60  84 106 140 188 232 268 316
#     4  11  21  34  57  86 112 143 184 229 274 328
#     4  11  18  34  58  83 106 142 190 226 266 322
#     4  10  19  36  56  82 104 146 185 230 269 320
#     4  10  16  33  58  78 103 139 190 222 258 326
#
# _framework density 17.191647
#
# number of rings (size 3 to 8) (size 9 to 14) (size 15 to 20)
#    0.667    0.889   10.000    0.000    0.000    3.556 
#    0.000    1.111    0.000    2.667    0.000    0.000 
#    0.000    0.000    0.000    0.000    0.000    0.000 
#
# Total GULP energy -223095.766964 kJ/mol
# GULP energy per Si atom -12394.209276 kJ/mol
# Density = 1.715252 g / cm^3
# Si number density = 17.191647 Si / 1000 Ang^3
#
#
#
# Elastic Constant Matrix: (Units=GPa)
#
#
# Indices 1 2 3 4 5 6 
#
# 1 81.9892 45.2184 34.5236 0.0000 0.0000 0.0000
# 2 45.2184 163.6831 62.1593 0.0000 0.0000 0.0000
# 3 34.5236 62.1593 106.3117 0.0000 0.0000 0.0000
# 4 0.0000 0.0000 0.0000 29.9717 0.0000 0.0000
# 5 0.0000 0.0000 0.0000 0.0000 12.6297 0.0000
# 6 0.0000 0.0000 0.0000 0.0000 0.0000 17.0726
#
#
#
# Elastic Compliance Matrix: (Units=1/GPa)
#
#
# Indices 1 2 3 4 5 6 
#
# 1 0.015184 -0.002985 -0.003186 0.000000 0.000000 0.000000
# 2 -0.002985 0.008440 -0.003965 0.000000 0.000000 0.000000
# 3 -0.003186 -0.003965 0.012759 0.000000 0.000000 0.000000
# 4 0.000000 0.000000 0.000000 0.033365 0.000000 0.000000
# 5 0.000000 0.000000 0.000000 0.000000 0.079179 0.000000
# 6 0.000000 0.000000 0.000000 0.000000 0.000000 0.058573
#
#
# Mechanical properties :
#
#
# Convention : Reuss Voigt Hill
#
# Bulk Modulus (GPa) = 62.06738 70.64295 66.35516
# Shear Modulus (GPa) = 21.44606 25.94030 23.69318
#
# Velocity S-wave (km/s) = 3.53579 3.88866 3.71641
# Velocity P-wave (km/s) = 7.26984 7.83217 7.55624
#
# Compressibility (1/GPa) = 0.01611152
#
# Stress axis : x y z
#
# Youngs Moduli (GPa) = 65.85696 118.48560 78.37413
#
# Poissons Ratio (x) = 0.35368 0.24968
# Poissons Ratio (y) = 0.19658 0.31078
# Poissons Ratio (z) = 0.20980 0.46983
#
# Static dielectric constant tensor:
#      x y z
#    x 2.801810 0.000000 0.000000 
#    y 0.000000 3.509450 0.000000 
#    z 0.000000 0.000000 2.984610 
# 
# 
# High freq. dielectric constant tensor:
#      x y z
#    x 1.620670 0.000000 0.000000 
#    y 0.000000 1.690970 0.000000 
#    z 0.000000 0.000000 1.640490 
# 
# From -- ./inp_files/20372.got.cif
#   From: 2010.03.12/outbox.cif.g09.slc.cpg/sg40_11_cif.got.tgz:20372.got - 2010.04.14 01:38:03.
