data_PCOD8182473
_publ_section_title
;
Structure prediction by ZEFSAII (Michael W. Deem and Ramdas Pophale) SiO2 
 PCOD8182473
Probable space group: A M A 2
;
_chemical_formula_sum "Si O2"
_cell_formula_units_Z 64
_cell_length_a 8.724167
_cell_length_b 18.421974
_cell_length_c 26.556816
_cell_angle_alpha 90.000000
_cell_angle_beta 90.000000
_cell_angle_gamma 90.000000
_cell_volume 4268.115269
_symmetry_space_group_name_H-M "A M A 2"
_symmetry_group_IT_number 40
_symmetry_cell_setting 'orthorhombic'
loop_
_space_group_symop_operation_xyz
x,y,z
-x,-y,z
1/2-x,y,z
1/2+x,-y,z
x,1/2+y,1/2+z
-x,1/2-y,1/2+z
1/2-x,1/2+y,1/2+z
1/2+x,1/2-y,1/2+z
loop_
_atom_site_type_symbol
_atom_site_label
_atom_site_fract_x
_atom_site_fract_y
_atom_site_fract_z
Si Si1 0.929964 0.575532 0.231640
Si Si2 0.569346 0.575981 0.119058
Si Si3 0.567908 0.420817 0.418028
Si Si4 0.068482 0.328637 0.027354
Si Si5 0.927742 0.215823 0.381389
Si Si6 0.431742 0.332634 0.325287
Si Si7 0.574941 0.576183 0.934264
Si Si8 0.070320 0.296651 0.473476
O O1 0.750000 0.564733 0.231615
O O2 0.988593 0.595695 0.175416
O O3 0.978764 0.638624 0.270130
O O4 0.000000 0.500000 0.250384
O O5 0.500000 0.500000 0.100658
O O6 0.750000 0.567109 0.117234
O O7 0.516987 0.639597 0.081279
O O8 0.500000 0.500000 0.425152
O O9 0.750000 0.424221 0.414386
O O10 0.500866 0.386033 0.367121
O O11 0.515923 0.373769 0.466890
O O12 0.250000 0.318318 0.022458
O O13 0.008459 0.384020 0.984012
O O14 0.990876 0.249366 0.021396
O O15 0.750000 0.237504 0.389943
O O16 0.946802 0.128622 0.385175
O O17 0.992352 0.251809 0.329962
O O18 0.033083 0.249883 0.424378
O O19 0.250000 0.328495 0.332175
O O20 0.500000 0.500000 0.921977
O O21 0.750000 0.559130 0.944832
O O22 0.250000 0.310687 0.478994
#
# Coordination Sequence:
#
# PCOD8182473 Si02
#       8
#     8   8   8   8   8   8   8   8
#     4   9  18  29  41  59  82 108 139 174 207 240
#     4   9  17  29  43  59  82 110 140 174 208 240
#     4  11  20  30  43  60  83 109 138 169 203 242
#     4   9  17  29  42  57  80 110 139 166 200 239
#     4   9  17  29  41  56  79 106 135 166 202 242
#     4  10  18  28  42  60  81 108 142 173 205 243
#     4   9  17  26  38  57  79 103 132 164 196 235
#     4  10  18  28  42  60  80 104 135 168 202 239
#
# _framework density 14.994909
#
# number of rings (size 3 to 8) (size 9 to 14) (size 15 to 20)
#    0.000    2.500    0.000    6.000    0.000    5.000 
#    0.000    0.000    0.000    0.000    0.000    0.000 
#    0.000    1.000    0.000    4.250    0.000    3.875 
#
# Total GULP energy -396575.779764 kJ/mol
# GULP energy per Si atom -12392.993118 kJ/mol
# Density = 1.496078 g / cm^3
# Si number density = 14.994909 Si / 1000 Ang^3
#
#
#
# Elastic Constant Matrix: (Units=GPa)
#
#
# Indices 1 2 3 4 5 6 
#
# 1 58.0062 38.3856 28.0993 0.0000 0.0000 0.0000
# 2 38.3856 106.4958 51.5021 0.0000 0.0000 0.0000
# 3 28.0993 51.5021 77.7325 0.0000 0.0000 0.0000
# 4 0.0000 0.0000 0.0000 20.2064 0.0000 0.0000
# 5 0.0000 0.0000 0.0000 0.0000 14.1286 0.0000
# 6 0.0000 0.0000 0.0000 0.0000 0.0000 27.6689
#
#
#
# Elastic Compliance Matrix: (Units=1/GPa)
#
#
# Indices 1 2 3 4 5 6 
#
# 1 0.023558 -0.006435 -0.004252 0.000000 0.000000 0.000000
# 2 -0.006435 0.015575 -0.007993 0.000000 0.000000 0.000000
# 3 -0.004252 -0.007993 0.019698 0.000000 0.000000 0.000000
# 4 0.000000 0.000000 0.000000 0.049489 0.000000 0.000000
# 5 0.000000 0.000000 0.000000 0.000000 0.070778 0.000000
# 6 0.000000 0.000000 0.000000 0.000000 0.000000 0.036142
#
#
# Mechanical properties :
#
#
# Convention : Reuss Voigt Hill
#
# Bulk Modulus (GPa) = 46.57727 53.13426 49.85577
# Shear Modulus (GPa) = 19.24877 20.68396 19.96636
#
# Velocity S-wave (km/s) = 3.58674 3.71805 3.65299
# Velocity P-wave (km/s) = 6.94856 7.34464 7.14934
#
# Compressibility (1/GPa) = 0.02146970
#
# Stress axis : x y z
#
# Youngs Moduli (GPa) = 42.44913 64.20575 50.76716
#
# Poissons Ratio (x) = 0.41314 0.21589
# Poissons Ratio (y) = 0.27314 0.40579
# Poissons Ratio (z) = 0.18051 0.51321
#
# Static dielectric constant tensor:
#      x y z
#    x 3.030770 0.000000 0.000000 
#    y 0.000000 3.128590 0.000000 
#    z 0.000000 0.000000 2.998170 
# 
# 
# High freq. dielectric constant tensor:
#      x y z
#    x 1.583420 0.000000 0.000000 
#    y 0.000000 1.565000 0.000000 
#    z 0.000000 0.000000 1.539440 
# 
# From -- ./inp_files/25535.got.cif
#   From: 2010.03.12/outbox.cif.g09.slc.cpg/sg40_13_cif.got.tgz:25535.got - 2010.04.14 01:38:03.
