data_PCOD8182813
_publ_section_title
;
Structure prediction by ZEFSAII (Michael W. Deem and Ramdas Pophale) SiO2 
 PCOD8182813
Probable space group: A M A 2
;
_chemical_formula_sum "Si O2"
_cell_formula_units_Z 48
_cell_length_a 13.716534
_cell_length_b 11.433042
_cell_length_c 16.943416
_cell_angle_alpha 90.000000
_cell_angle_beta 90.000000
_cell_angle_gamma 90.000000
_cell_volume 2657.095459
_symmetry_space_group_name_H-M "A M A 2"
_symmetry_group_IT_number 40
_symmetry_cell_setting 'orthorhombic'
loop_
_space_group_symop_operation_xyz
x,y,z
-x,-y,z
1/2-x,y,z
1/2+x,-y,z
x,1/2+y,1/2+z
-x,1/2-y,1/2+z
1/2-x,1/2+y,1/2+z
1/2+x,1/2-y,1/2+z
loop_
_atom_site_type_symbol
_atom_site_label
_atom_site_fract_x
_atom_site_fract_y
_atom_site_fract_z
Si Si1 0.139472 0.545535 0.235330
Si Si2 0.946931 0.113711 0.205062
Si Si3 0.638713 0.560368 0.870907
Si Si4 0.860296 0.293259 0.091636
Si Si5 0.961478 0.677669 0.285481
Si Si6 0.049061 0.675281 0.927153
O O1 0.250000 0.568819 0.262328
O O2 0.122490 0.592013 0.146128
O O3 0.114646 0.407970 0.241554
O O4 0.068248 0.617369 0.292982
O O5 0.879372 0.073982 0.277773
O O6 0.879950 0.174016 0.139347
O O7 0.030053 0.204349 0.234106
O O8 0.000000 0.000000 0.168736
O O9 0.750000 0.593403 0.891462
O O10 0.565466 0.644550 0.918701
O O11 0.618233 0.427886 0.896393
O O12 0.750000 0.290486 0.060375
O O13 0.932796 0.298106 0.018246
O O14 0.926894 0.710293 0.373921
#
# Coordination Sequence:
#
# PCOD8182813 Si02
#       6
#     8   8   8   8   8   8
#     4   9  19  35  56  80 106 143 188 224 268 331
#     4  10  18  37  56  83 112 149 187 228 278 336
#     4  10  19  34  59  84 109 145 195 236 276 334
#     4  10  21  36  58  82 111 150 185 227 282 339
#     4   9  18  34  55  80 110 140 181 228 274 318
#     4  10  20  35  53  84 114 145 181 233 287 327
#
# _framework density 18.06484
#
# number of rings (size 3 to 8) (size 9 to 14) (size 15 to 20)
#    0.000    2.333    3.333    1.000    0.000   10.667 
#    3.000    0.000    0.000    2.000    0.000    0.000 
#    0.000    0.000    0.000    0.000    0.000    0.000 
#
# Total GULP energy -297537.107083 kJ/mol
# GULP energy per Si atom -12397.379462 kJ/mol
# Density = 1.802372 g / cm^3
# Si number density = 18.064840 Si / 1000 Ang^3
#
#
#
# Elastic Constant Matrix: (Units=GPa)
#
#
# Indices 1 2 3 4 5 6 
#
# 1 104.4334 29.8860 42.8786 0.0000 0.0000 0.0000
# 2 29.8860 102.1211 40.6122 0.0000 0.0000 0.0000
# 3 42.8786 40.6122 107.8571 0.0000 0.0000 0.0000
# 4 0.0000 0.0000 0.0000 23.5219 0.0000 0.0000
# 5 0.0000 0.0000 0.0000 0.0000 20.4242 0.0000
# 6 0.0000 0.0000 0.0000 0.0000 0.0000 15.9865
#
#
#
# Elastic Compliance Matrix: (Units=1/GPa)
#
#
# Indices 1 2 3 4 5 6 
#
# 1 0.011735 -0.001857 -0.003966 0.000000 0.000000 0.000000
# 2 -0.001857 0.011811 -0.003709 0.000000 0.000000 0.000000
# 3 -0.003966 -0.003709 0.012245 0.000000 0.000000 0.000000
# 4 0.000000 0.000000 0.000000 0.042514 0.000000 0.000000
# 5 0.000000 0.000000 0.000000 0.000000 0.048962 0.000000
# 6 0.000000 0.000000 0.000000 0.000000 0.000000 0.062553
#
#
# Mechanical properties :
#
#
# Convention : Reuss Voigt Hill
#
# Bulk Modulus (GPa) = 59.78479 60.12946 59.95713
# Shear Modulus (GPa) = 23.31453 25.38884 24.35169
#
# Velocity S-wave (km/s) = 3.59639 3.75297 3.67552
# Velocity P-wave (km/s) = 7.10013 7.22062 7.16063
#
# Compressibility (1/GPa) = 0.01672666
#
# Stress axis : x y z
#
# Youngs Moduli (GPa) = 85.21257 84.66855 81.66738
#
# Poissons Ratio (x) = 0.15724 0.32390
# Poissons Ratio (y) = 0.15825 0.30290
# Poissons Ratio (z) = 0.33796 0.31403
#
# Static dielectric constant tensor:
#      x y z
#    x 3.315200 0.000000 0.000000 
#    y 0.000000 3.546610 0.000000 
#    z 0.000000 0.000000 3.183610 
# 
# 
# High freq. dielectric constant tensor:
#      x y z
#    x 1.694550 0.000000 0.000000 
#    y 0.000000 1.700650 0.000000 
#    z 0.000000 0.000000 1.676110 
# 
# From -- ./inp_files/16999.got.cif
#   From: 2010.03.12/outbox.cif.g09.slc.cpg/sg40_9_cif.got.tgz:16999.got - 2010.04.14 01:38:03.
