data_PCOD8182979
_publ_section_title
;
Structure prediction by ZEFSAII (Michael W. Deem and Ramdas Pophale) SiO2 
 PCOD8182979
Probable space group: A M A 2
;
_chemical_formula_sum "Si O2"
_cell_formula_units_Z 56
_cell_length_a 8.870094
_cell_length_b 22.505583
_cell_length_c 17.542823
_cell_angle_alpha 90.000000
_cell_angle_beta 90.000000
_cell_angle_gamma 90.000000
_cell_volume 3502.014754
_symmetry_space_group_name_H-M "A M A 2"
_symmetry_group_IT_number 40
_symmetry_cell_setting 'orthorhombic'
loop_
_space_group_symop_operation_xyz
x,y,z
-x,-y,z
1/2-x,y,z
1/2+x,-y,z
x,1/2+y,1/2+z
-x,1/2-y,1/2+z
1/2-x,1/2+y,1/2+z
1/2+x,1/2-y,1/2+z
loop_
_atom_site_type_symbol
_atom_site_label
_atom_site_fract_x
_atom_site_fract_y
_atom_site_fract_z
Si Si1 0.426387 0.780721 0.693700
Si Si2 0.573002 0.773586 0.540962
Si Si3 0.928994 0.850804 0.998674
Si Si4 0.083975 0.813650 0.399847
Si Si5 0.916674 0.818802 0.836396
Si Si6 0.426685 0.936859 0.114467
Si Si7 0.425308 0.840506 0.238527
O O1 0.250000 0.785244 0.680570
O O2 0.510930 0.803781 0.617941
O O3 0.471579 0.823525 0.764436
O O4 0.471710 0.712719 0.708485
O O5 0.750000 0.765228 0.545726
O O6 0.499010 0.708974 0.533095
O O7 0.532460 0.816851 0.469958
O O8 0.750000 0.847235 0.010041
O O9 0.997406 0.907501 0.040652
O O10 0.970550 0.858179 0.908753
O O11 0.250000 0.831171 0.430610
O O12 0.088179 0.748052 0.365885
O O13 0.036954 0.855100 0.327760
O O14 0.750000 0.838602 0.809614
O O15 0.250000 0.943336 0.099060
O O16 0.461408 0.898614 0.189780
O O17 0.500000 0.000000 0.129447
O O18 0.250000 0.821217 0.230374
#
# Coordination Sequence:
#
# PCOD8182979 Si02
#       7
#     8   8   8   8   8   8   8
#     4  11  19  26  42  65  89 118 152 183 216 263
#     4  11  19  27  41  63  91 120 149 180 221 267
#     4  10  19  32  47  63  85 116 151 188 228 269
#     4   8  15  28  43  60  83 112 147 181 218 266
#     4   8  16  29  43  60  86 115 144 180 223 268
#     4  11  22  34  49  67  89 120 156 195 230 266
#     4   9  18  32  46  60  84 117 148 185 230 266
#
# _framework density 15.990796
#
# number of rings (size 3 to 8) (size 9 to 14) (size 15 to 20)
#    0.000    2.286    1.429    5.143    0.000    6.286 
#    0.000    0.000    0.000    0.000    0.000    0.000 
#    0.000    1.143    0.000   10.571    0.000    4.429 
#
# Total GULP energy -347073.420289 kJ/mol
# GULP energy per Si atom -12395.479296 kJ/mol
# Density = 1.595440 g / cm^3
# Si number density = 15.990796 Si / 1000 Ang^3
#
#
#
# Elastic Constant Matrix: (Units=GPa)
#
#
# Indices 1 2 3 4 5 6 
#
# 1 104.2340 23.3397 59.3221 0.0000 0.0000 0.0000
# 2 23.3397 44.2560 38.6954 0.0000 0.0000 0.0000
# 3 59.3221 38.6954 135.7998 0.0000 0.0000 0.0000
# 4 0.0000 0.0000 0.0000 15.6538 0.0000 0.0000
# 5 0.0000 0.0000 0.0000 0.0000 28.7477 0.0000
# 6 0.0000 0.0000 0.0000 0.0000 0.0000 11.4761
#
#
#
# Elastic Compliance Matrix: (Units=1/GPa)
#
#
# Indices 1 2 3 4 5 6 
#
# 1 0.012975 -0.002513 -0.004952 0.000000 0.000000 0.000000
# 2 -0.002513 0.030580 -0.007616 0.000000 0.000000 0.000000
# 3 -0.004952 -0.007616 0.011697 0.000000 0.000000 0.000000
# 4 0.000000 0.000000 0.000000 0.063882 0.000000 0.000000
# 5 0.000000 0.000000 0.000000 0.000000 0.034785 0.000000
# 6 0.000000 0.000000 0.000000 0.000000 0.000000 0.087138
#
#
# Mechanical properties :
#
#
# Convention : Reuss Voigt Hill
#
# Bulk Modulus (GPa) = 39.85568 58.55602 49.20585
# Shear Modulus (GPa) = 17.88386 22.03768 19.96077
#
# Velocity S-wave (km/s) = 3.34785 3.71637 3.53691
# Velocity P-wave (km/s) = 6.31842 7.42383 6.89332
#
# Compressibility (1/GPa) = 0.02509053
#
# Stress axis : x y z
#
# Youngs Moduli (GPa) = 77.07340 32.70106 85.49237
#
# Poissons Ratio (x) = 0.08218 0.42333
# Poissons Ratio (y) = 0.19369 0.65110
# Poissons Ratio (z) = 0.38165 0.24905
#
# Static dielectric constant tensor:
#      x y z
#    x 3.083880 0.000000 0.000000 
#    y 0.000000 2.561130 0.000000 
#    z 0.000000 0.000000 3.624970 
# 
# 
# High freq. dielectric constant tensor:
#      x y z
#    x 1.623840 0.000000 0.000000 
#    y 0.000000 1.537230 0.000000 
#    z 0.000000 0.000000 1.634540 
# 
# From -- ./inp_files/19520.got.cif
#   From: 2010.03.12/outbox.cif.g09.slc.cpg/sg40_10_cif.got.tgz:19520.got - 2010.04.14 01:38:03.
