data_PCOD8182965
_publ_section_title
;
Structure prediction by ZEFSAII (Michael W. Deem and Ramdas Pophale) SiO2 
 PCOD8182965
Probable space group: A M A 2
;
_chemical_formula_sum "Si O2"
_cell_formula_units_Z 64
_cell_length_a 8.916491
_cell_length_b 24.649042
_cell_length_c 15.333850
_cell_angle_alpha 90.000000
_cell_angle_beta 90.000000
_cell_angle_gamma 90.000000
_cell_volume 3370.118959
_symmetry_space_group_name_H-M "A M A 2"
_symmetry_group_IT_number 40
_symmetry_cell_setting 'orthorhombic'
loop_
_space_group_symop_operation_xyz
x,y,z
-x,-y,z
1/2-x,y,z
1/2+x,-y,z
x,1/2+y,1/2+z
-x,1/2-y,1/2+z
1/2-x,1/2+y,1/2+z
1/2+x,1/2-y,1/2+z
loop_
_atom_site_type_symbol
_atom_site_label
_atom_site_fract_x
_atom_site_fract_y
_atom_site_fract_z
Si Si1 0.077224 0.233754 0.255520
Si Si2 0.072529 0.161695 0.952275
Si Si3 0.571450 0.556139 0.135019
Si Si4 0.924955 0.363142 0.638705
Si Si5 0.927277 0.941610 0.287336
Si Si6 0.074461 0.784363 0.429654
Si Si7 0.075824 0.856301 0.774986
Si Si8 0.573596 0.390643 0.972483
O O1 0.250000 0.226680 0.286525
O O2 0.045735 0.198865 0.169114
O O3 0.039736 0.296561 0.236987
O O4 0.969478 0.209248 0.328799
O O5 0.250000 0.157743 0.943753
O O6 0.023832 0.224600 0.959984
O O7 0.003184 0.133268 0.867622
O O8 0.011935 0.131582 0.039874
O O9 0.500000 0.500000 0.166824
O O10 0.750000 0.551765 0.130347
O O11 0.516548 0.601061 0.204330
O O12 0.508556 0.570180 0.040097
O O13 0.750000 0.374571 0.635815
O O14 0.994637 0.406648 0.706163
O O15 0.750000 0.947872 0.280272
O O16 0.970519 0.911365 0.376462
O O17 0.000000 0.000000 0.284240
O O18 0.250000 0.794256 0.442919
O O19 0.986294 0.829382 0.485613
O O20 0.250000 0.864399 0.791939
O O21 0.750000 0.392518 0.989662
#
# Coordination Sequence:
#
# PCOD8182965 Si02
#       8
#     8   8   8   8   8   8   8   8
#     4   9  16  32  56  78 108 148 185 223 274 337
#     4   9  19  34  57  83 114 151 187 230 279 335
#     4  11  24  41  60  84 111 147 191 238 288 341
#     4   9  17  33  56  80 108 147 189 223 271 334
#     4  10  21  37  56  78 107 145 186 224 270 326
#     4  10  19  31  51  83 118 147 183 227 275 331
#     4   9  20  37  59  82 110 146 186 233 286 335
#     4  11  22  37  57  82 113 152 189 229 279 339
#
# _framework density 18.990427
#
# number of rings (size 3 to 8) (size 9 to 14) (size 15 to 20)
#    0.000    2.250    1.250    1.500    1.750    3.500 
#    0.000    1.875    0.000    3.000    0.000    0.000 
#    0.000    0.000    0.000    0.000    0.000    0.000 
#
# Total GULP energy -396759.730534 kJ/mol
# GULP energy per Si atom -12398.741579 kJ/mol
# Density = 1.894720 g / cm^3
# Si number density = 18.990427 Si / 1000 Ang^3
#
#
#
# Elastic Constant Matrix: (Units=GPa)
#
#
# Indices 1 2 3 4 5 6 
#
# 1 42.5879 37.1584 37.6516 0.0000 0.0000 0.0000
# 2 37.1584 108.7420 52.4874 0.0000 0.0000 0.0000
# 3 37.6516 52.4874 116.7637 0.0000 0.0000 0.0000
# 4 0.0000 0.0000 0.0000 30.3105 0.0000 0.0000
# 5 0.0000 0.0000 0.0000 0.0000 26.5859 0.0000
# 6 0.0000 0.0000 0.0000 0.0000 0.0000 29.7980
#
#
#
# Elastic Compliance Matrix: (Units=1/GPa)
#
#
# Indices 1 2 3 4 5 6 
#
# 1 0.039003 -0.009268 -0.008411 0.000000 0.000000 0.000000
# 2 -0.009268 0.013947 -0.003281 0.000000 0.000000 0.000000
# 3 -0.008411 -0.003281 0.012751 0.000000 0.000000 0.000000
# 4 0.000000 0.000000 0.000000 0.032992 0.000000 0.000000
# 5 0.000000 0.000000 0.000000 0.000000 0.037614 0.000000
# 6 0.000000 0.000000 0.000000 0.000000 0.000000 0.033559
#
#
# Mechanical properties :
#
#
# Convention : Reuss Voigt Hill
#
# Bulk Modulus (GPa) = 42.04879 58.07649 50.06264
# Shear Modulus (GPa) = 22.75698 26.72529 24.74113
#
# Velocity S-wave (km/s) = 3.46546 3.75547 3.61338
# Velocity P-wave (km/s) = 6.18083 7.03229 6.62027
#
# Compressibility (1/GPa) = 0.02378190
#
# Stress axis : x y z
#
# Youngs Moduli (GPa) = 25.63880 71.70203 78.42418
#
# Poissons Ratio (x) = 0.66455 0.65961
# Poissons Ratio (y) = 0.23762 0.25728
# Poissons Ratio (z) = 0.21564 0.23523
#
# Static dielectric constant tensor:
#      x y z
#    x 3.318630 0.000000 0.000000 
#    y 0.000000 3.593400 0.000000 
#    z 0.000000 0.000000 3.631280 
# 
# 
# High freq. dielectric constant tensor:
#      x y z
#    x 1.721310 0.000000 0.000000 
#    y 0.000000 1.734630 0.000000 
#    z 0.000000 0.000000 1.737840 
# 
# From -- ./inp_files/15702.got.cif
#   From: 2010.03.12/outbox.cif.g09.slc.cpg/sg40_8_cif.got.tgz:15702.got - 2010.04.14 01:38:03.
