data_PCOD8182793
_publ_section_title
;
Structure prediction by ZEFSAII (Michael W. Deem and Ramdas Pophale) SiO2 
 PCOD8182793
Probable space group: A M A 2
;
_chemical_formula_sum "Si O2"
_cell_formula_units_Z 64
_cell_length_a 18.962179
_cell_length_b 9.619491
_cell_length_c 17.990314
_cell_angle_alpha 90.000000
_cell_angle_beta 90.000000
_cell_angle_gamma 90.000000
_cell_volume 3281.550395
_symmetry_space_group_name_H-M "A M A 2"
_symmetry_group_IT_number 40
_symmetry_cell_setting 'orthorhombic'
loop_
_space_group_symop_operation_xyz
x,y,z
-x,-y,z
1/2-x,y,z
1/2+x,-y,z
x,1/2+y,1/2+z
-x,1/2-y,1/2+z
1/2-x,1/2+y,1/2+z
1/2+x,1/2-y,1/2+z
loop_
_atom_site_type_symbol
_atom_site_label
_atom_site_fract_x
_atom_site_fract_y
_atom_site_fract_z
Si Si1 0.168458 0.521558 0.118030
Si Si2 0.826823 0.894089 0.453411
Si Si3 0.328090 0.848044 0.348089
Si Si4 0.072067 0.829428 0.957918
Si Si5 0.409806 0.147413 0.955991
Si Si6 0.403910 0.241636 0.123055
Si Si7 0.061915 0.242936 0.620916
Si Si8 0.575720 0.512853 0.727361
O O1 0.250000 0.553676 0.137532
O O2 0.151130 0.364022 0.141824
O O3 0.115874 0.631978 0.159058
O O4 0.149582 0.538839 0.031457
O O5 0.750000 0.822190 0.461987
O O6 0.880516 0.784072 0.414257
O O7 0.821688 0.021726 0.399917
O O8 0.250000 0.797392 0.323658
O O9 0.364148 0.723217 0.393421
O O10 0.369154 0.902095 0.276237
O O11 0.990192 0.807749 0.940903
O O12 0.098441 0.983807 0.940728
O O13 0.091121 0.785135 0.041040
O O14 0.386963 0.177857 0.041187
O O15 0.481480 0.312906 0.120254
O O16 0.395251 0.130526 0.190632
O O17 0.057489 0.390766 0.658712
O O18 0.500000 0.500000 0.770581
#
# Coordination Sequence:
#
# PCOD8182793 Si02
#       8
#     8   8   8   8   8   8   8   8
#     4  10  19  32  54  85 115 147 191 238 287 346
#     4   9  19  34  51  80 119 150 185 234 287 344
#     4  11  24  39  55  83 122 157 193 237 291 359
#     4   9  18  33  59  88 110 141 194 246 296 342
#     4  10  19  34  59  87 114 145 196 248 292 345
#     4  10  18  35  59  85 114 148 192 247 292 343
#     4   9  18  35  57  85 113 145 187 247 294 340
#     4  10  22  39  61  84 116 153 197 239 294 358
#
# _framework density 19.502976
#
# number of rings (size 3 to 8) (size 9 to 14) (size 15 to 20)
#    0.000    2.250    2.500    0.375    1.750    1.500 
#    0.000    1.250    2.750    0.000    0.000    0.000 
#    0.000    0.000    0.000    0.000    0.000    0.000 
#
# Total GULP energy -396485.661017 kJ/mol
# GULP energy per Si atom -12390.176907 kJ/mol
# Density = 1.945859 g / cm^3
# Si number density = 19.502976 Si / 1000 Ang^3
#
#
#
# Elastic Constant Matrix: (Units=GPa)
#
#
# Indices 1 2 3 4 5 6 
#
# 1 107.2293 54.4894 25.6276 0.0000 0.0000 0.0000
# 2 54.4894 95.1637 17.5218 0.0000 0.0000 0.0000
# 3 25.6276 17.5218 40.3890 0.0000 0.0000 0.0000
# 4 0.0000 0.0000 0.0000 18.6545 0.0000 0.0000
# 5 0.0000 0.0000 0.0000 0.0000 24.5865 0.0000
# 6 0.0000 0.0000 0.0000 0.0000 0.0000 31.0811
#
#
#
# Elastic Compliance Matrix: (Units=1/GPa)
#
#
# Indices 1 2 3 4 5 6 
#
# 1 0.014392 -0.007128 -0.006039 0.000000 0.000000 0.000000
# 2 -0.007128 0.014951 -0.001963 0.000000 0.000000 0.000000
# 3 -0.006039 -0.001963 0.029443 0.000000 0.000000 0.000000
# 4 0.000000 0.000000 0.000000 0.053606 0.000000 0.000000
# 5 0.000000 0.000000 0.000000 0.000000 0.040673 0.000000
# 6 0.000000 0.000000 0.000000 0.000000 0.000000 0.032174
#
#
# Mechanical properties :
#
#
# Convention : Reuss Voigt Hill
#
# Bulk Modulus (GPa) = 35.05804 48.67330 41.86567
# Shear Modulus (GPa) = 22.22141 24.54064 23.38102
#
# Velocity S-wave (km/s) = 3.37914 3.55110 3.46619
# Velocity P-wave (km/s) = 5.76537 6.46721 6.12635
#
# Compressibility (1/GPa) = 0.02852413
#
# Stress axis : x y z
#
# Youngs Moduli (GPa) = 69.48524 66.88377 33.96411
#
# Poissons Ratio (x) = 0.47678 0.20512
# Poissons Ratio (y) = 0.49532 0.06668
# Poissons Ratio (z) = 0.41964 0.13130
#
# Static dielectric constant tensor:
#      x y z
#    x 4.105180 0.000000 0.000000 
#    y 0.000000 3.654210 0.000000 
#    z 0.000000 0.000000 3.308620 
# 
# 
# High freq. dielectric constant tensor:
#      x y z
#    x 1.763060 0.000000 0.000000 
#    y 0.000000 1.766670 0.000000 
#    z 0.000000 0.000000 1.723810 
# 
# From -- ./inp_files/21360.got.cif
#   From: 2010.03.12/outbox.cif.g09.slc.cpg/sg40_11_cif.got.tgz:21360.got - 2010.04.14 01:38:03.
