data_PCOD8182561
_publ_section_title
;
Structure prediction by ZEFSAII (Michael W. Deem and Ramdas Pophale) SiO2 
 PCOD8182561
Probable space group: A M A 2
;
_chemical_formula_sum "Si O2"
_cell_formula_units_Z 64
_cell_length_a 23.084931
_cell_length_b 24.943829
_cell_length_c 6.812827
_cell_angle_alpha 90.000000
_cell_angle_beta 90.000000
_cell_angle_gamma 90.000000
_cell_volume 3923.006813
_symmetry_space_group_name_H-M "A M A 2"
_symmetry_group_IT_number 40
_symmetry_cell_setting 'orthorhombic'
loop_
_space_group_symop_operation_xyz
x,y,z
-x,-y,z
1/2-x,y,z
1/2+x,-y,z
x,1/2+y,1/2+z
-x,1/2-y,1/2+z
1/2-x,1/2+y,1/2+z
1/2+x,1/2-y,1/2+z
loop_
_atom_site_type_symbol
_atom_site_label
_atom_site_fract_x
_atom_site_fract_y
_atom_site_fract_z
Si Si1 0.532925 0.634848 0.470890
Si Si2 0.906055 0.018054 0.350431
Si Si3 0.485308 0.185004 0.579574
Si Si4 0.479349 0.584950 0.812032
Si Si5 0.646357 0.080669 0.016169
Si Si6 0.185868 0.935773 0.605111
Si Si7 0.184653 0.338039 0.834738
Si Si8 0.426035 0.277525 0.774418
O O1 0.512561 0.663189 0.277482
O O2 0.482271 0.600615 0.580408
O O3 0.586518 0.597692 0.411204
O O4 0.554807 0.674007 0.639477
O O5 0.867708 0.030832 0.158457
O O6 0.862874 0.022231 0.535177
O O7 0.958351 0.060715 0.375370
O O8 0.928668 0.957746 0.339465
O O9 0.463067 0.136005 0.446702
O O10 0.431861 0.222451 0.650446
O O11 0.532242 0.222071 0.466195
O O12 0.676904 0.128404 0.135111
O O13 0.688442 0.063745 0.840736
O O14 0.250000 0.952611 0.529577
O O15 0.170961 0.876635 0.519648
O O16 0.250000 0.315177 0.844818
O O17 0.140497 0.287458 0.840503
#
# Coordination Sequence:
#
# PCOD8182561 Si02
#       8
#     8   8   8   8   8   8   8   8
#     4   9  17  29  44  67  94 125 154 195 235 283
#     4   9  18  33  46  69  99 126 154 198 234 279
#     4  11  18  30  47  71  97 126 158 196 238 284
#     4   9  19  31  48  69  96 126 161 190 238 285
#     4   9  16  28  47  67  95 124 155 188 237 284
#     4  10  18  29  48  72  95 124 157 191 238 290
#     4   9  18  31  45  67  97 125 155 195 238 285
#     4  10  19  29  46  70  96 126 157 195 240 286
#
# _framework density 16.314018000000001
#
# number of rings (size 3 to 8) (size 9 to 14) (size 15 to 20)
#    0.000    2.500    1.250    4.125    0.000    1.500 
#    0.000    2.500    0.000    0.750    0.000    0.875 
#    0.000    0.000    0.000    0.000    0.000    0.000 
#
# Total GULP energy -396636.428320 kJ/mol
# GULP energy per Si atom -12394.888385 kJ/mol
# Density = 1.627689 g / cm^3
# Si number density = 16.314018 Si / 1000 Ang^3
#
#
#
# Elastic Constant Matrix: (Units=GPa)
#
#
# Indices 1 2 3 4 5 6 
#
# 1 77.1216 39.6695 30.7651 0.0000 0.0000 0.0000
# 2 39.6695 72.2599 19.5073 0.0000 0.0000 0.0000
# 3 30.7651 19.5073 77.4857 0.0000 0.0000 0.0000
# 4 0.0000 0.0000 0.0000 19.9470 0.0000 0.0000
# 5 0.0000 0.0000 0.0000 0.0000 19.3022 0.0000
# 6 0.0000 0.0000 0.0000 0.0000 0.0000 23.7694
#
#
#
# Elastic Compliance Matrix: (Units=1/GPa)
#
#
# Indices 1 2 3 4 5 6 
#
# 1 0.020091 -0.009523 -0.005579 0.000000 0.000000 0.000000
# 2 -0.009523 0.019362 -0.001093 0.000000 0.000000 0.000000
# 3 -0.005579 -0.001093 0.015396 0.000000 0.000000 0.000000
# 4 0.000000 0.000000 0.000000 0.050133 0.000000 0.000000
# 5 0.000000 0.000000 0.000000 0.000000 0.051808 0.000000
# 6 0.000000 0.000000 0.000000 0.000000 0.000000 0.042071
#
#
# Mechanical properties :
#
#
# Convention : Reuss Voigt Hill
#
# Bulk Modulus (GPa) = 44.52940 45.19457 44.86199
# Shear Modulus (GPa) = 20.94344 21.73207 21.33776
#
# Velocity S-wave (km/s) = 3.58686 3.65377 3.62047
# Velocity P-wave (km/s) = 6.67147 6.75004 6.71087
#
# Compressibility (1/GPa) = 0.02245707
#
# Stress axis : x y z
#
# Youngs Moduli (GPa) = 49.77399 51.64692 64.95143
#
# Poissons Ratio (x) = 0.49185 0.36239
# Poissons Ratio (y) = 0.47401 0.07101
# Poissons Ratio (z) = 0.27771 0.05647
#
# Static dielectric constant tensor:
#      x y z
#    x 3.084020 0.000000 0.000000 
#    y 0.000000 2.916990 0.000000 
#    z 0.000000 0.000000 3.218750 
# 
# 
# High freq. dielectric constant tensor:
#      x y z
#    x 1.610850 0.000000 0.000000 
#    y 0.000000 1.595380 0.000000 
#    z 0.000000 0.000000 1.637450 
# 
# From -- ./inp_files/2880.got.cif
#   From: 2010.03.12/outbox.cif.g09.slc.cpg/sg40_2_cif.got.tgz:2880.got - 2010.04.14 01:38:03.
