data_PCOD8182313
_publ_section_title
;
Structure prediction by ZEFSAII (Michael W. Deem and Ramdas Pophale) SiO2 
 PCOD8182313
Probable space group: A B M 2
;
_chemical_formula_sum "Si O2"
_cell_formula_units_Z 32
_cell_length_a 7.482848
_cell_length_b 9.856656
_cell_length_c 20.530468
_cell_angle_alpha 90.000000
_cell_angle_beta 90.000000
_cell_angle_gamma 90.000000
_cell_volume 1514.242296
_symmetry_space_group_name_H-M "A B M 2"
_symmetry_group_IT_number 39
_symmetry_cell_setting 'orthorhombic'
loop_
_space_group_symop_operation_xyz
x,y,z
-x,-y,z
-x,1/2+y,z
x,1/2-y,z
x,1/2+y,1/2+z
-x,1/2-y,1/2+z
-x,y,1/2+z
x,-y,1/2+z
loop_
_atom_site_type_symbol
_atom_site_label
_atom_site_fract_x
_atom_site_fract_y
_atom_site_fract_z
Si Si1 0.289919 0.250000 0.689090
Si Si2 0.206074 0.983768 0.615698
Si Si3 0.331921 0.911600 0.476942
Si Si4 0.693857 0.250000 0.710202
Si Si5 0.000000 0.000000 0.896777
Si Si6 0.006345 0.750000 0.803435
O O1 0.283387 0.374558 0.639664
O O2 0.482618 0.250000 0.723938
O O3 0.135231 0.250000 0.743495
O O4 0.313559 0.926142 0.554444
O O5 0.233314 0.881817 0.674474
O O6 0.000000 0.000000 0.596960
O O7 0.346064 0.750000 0.459224
O O8 0.169762 0.990768 0.443441
O O9 0.500000 0.000000 0.452936
O O10 0.789628 0.250000 0.779694
O O11 0.981867 0.875789 0.849182
#
# Coordination Sequence:
#
# PCOD8182313 Si02
#       6
#     4   8   8   4   4   4
#     4  12  26  43  73 106 145 185 229 290 364 431
#     4  12  23  44  73 106 144 182 226 294 370 432
#     4  12  28  48  75 109 144 189 242 303 370 433
#     4  12  24  45  71 104 141 183 235 292 356 427
#     4  12  28  48  76  98 144 196 252 294 350 424
#     4  12  26  46  72 104 140 194 248 294 350 420
#
# _framework density 21.132681999999999
#
# number of rings (size 3 to 8) (size 9 to 14) (size 15 to 20)
#    0.000    0.000    6.250    3.750    3.500    2.000 
#    0.000    0.000    0.000    0.000    0.000    0.000 
#    0.000    0.000    0.000    0.000    0.000    0.000 
#
# Total GULP energy -198396.214329 kJ/mol
# GULP energy per Si atom -12399.763396 kJ/mol
# Density = 2.108458 g / cm^3
# Si number density = 21.132682 Si / 1000 Ang^3
#
#
#
# Elastic Constant Matrix: (Units=GPa)
#
#
# Indices 1 2 3 4 5 6 
#
# 1 153.7426 19.9907 19.4929 0.0000 0.0000 0.0000
# 2 19.9907 124.4711 12.6677 0.0000 0.0000 0.0000
# 3 19.4929 12.6677 72.1179 0.0000 0.0000 0.0000
# 4 0.0000 0.0000 0.0000 0.0805 0.0000 0.0000
# 5 0.0000 0.0000 0.0000 0.0000 6.7144 0.0000
# 6 0.0000 0.0000 0.0000 0.0000 0.0000 38.6378
#
#
#
# Elastic Compliance Matrix: (Units=1/GPa)
#
#
# Indices 1 2 3 4 5 6 
#
# 1 0.006839 -0.000927 -0.001686 0.000000 0.000000 0.000000
# 2 -0.000927 0.008306 -0.001208 0.000000 0.000000 0.000000
# 3 -0.001686 -0.001208 0.014534 0.000000 0.000000 0.000000
# 4 0.000000 0.000000 0.000000 12.426765 0.000000 0.000000
# 5 0.000000 0.000000 0.000000 0.000000 0.148933 0.000000
# 6 0.000000 0.000000 0.000000 0.000000 0.000000 0.025881
#
#
# Mechanical properties :
#
#
# Convention : Reuss Voigt Hill
#
# Bulk Modulus (GPa) = 45.37861 50.51489 47.94675
# Shear Modulus (GPa) = 0.39537 28.96523 14.68030
#
# Velocity S-wave (km/s) = 0.43301 3.70623 2.63852
# Velocity P-wave (km/s) = 4.66581 6.50157 5.65863
#
# Compressibility (1/GPa) = 0.02203682
#
# Stress axis : x y z
#
# Youngs Moduli (GPa) = 146.22869 120.39747 68.80393
#
# Poissons Ratio (x) = 0.11158 0.11598
# Poissons Ratio (y) = 0.13552 0.08315
# Poissons Ratio (z) = 0.24649 0.14549
#
# Static dielectric constant tensor:
#      x y z
#    x 4.050830 0.000000 0.000000 
#    y 0.000000 3.969590 0.000000 
#    z 0.000000 0.000000 3.808750 
# 
# 
# High freq. dielectric constant tensor:
#      x y z
#    x 1.844170 0.000000 0.000000 
#    y 0.000000 1.848610 0.000000 
#    z 0.000000 0.000000 1.828560 
# 
# From -- ./inp_files/13754.got.cif
#   From: 2010.03.12/outbox.cif.g09.slc.cpg/sg39_7_cif.got.tgz:13754.got - 2010.04.14 02:53:20.
