data_PCOD8182827
_publ_section_title
;
Structure prediction by ZEFSAII (Michael W. Deem and Ramdas Pophale) SiO2 
 PCOD8182827
Probable space group: A M A 2
;
_chemical_formula_sum "Si O2"
_cell_formula_units_Z 44
_cell_length_a 19.071858
_cell_length_b 11.469297
_cell_length_c 9.082146
_cell_angle_alpha 90.000000
_cell_angle_beta 90.000000
_cell_angle_gamma 90.000000
_cell_volume 1986.635916
_symmetry_space_group_name_H-M "A M A 2"
_symmetry_group_IT_number 40
_symmetry_cell_setting 'orthorhombic'
loop_
_space_group_symop_operation_xyz
x,y,z
-x,-y,z
1/2-x,y,z
1/2+x,-y,z
x,1/2+y,1/2+z
-x,1/2-y,1/2+z
1/2-x,1/2+y,1/2+z
1/2+x,1/2-y,1/2+z
loop_
_atom_site_type_symbol
_atom_site_label
_atom_site_fract_x
_atom_site_fract_y
_atom_site_fract_z
Si Si1 0.601608 0.090847 0.532360
Si Si2 0.100385 0.643340 0.476987
Si Si3 0.750000 0.321574 0.433977
Si Si4 0.250000 0.731046 0.904242
Si Si5 0.500000 0.500000 0.271668
Si Si6 0.250000 0.872744 0.198654
Si Si7 0.362368 0.057322 0.279703
Si Si8 0.250000 0.369399 0.143096
O O1 0.592804 0.218279 0.463893
O O2 0.681437 0.064468 0.584462
O O3 0.550624 0.076305 0.670287
O O4 0.585898 0.998671 0.402100
O O5 0.178220 0.605108 0.414391
O O6 0.042116 0.587022 0.375631
O O7 0.090664 0.610320 0.648478
O O8 0.750000 0.200256 0.347510
O O9 0.750000 0.270559 0.601209
O O10 0.318996 0.656552 0.865640
O O11 0.250000 0.856114 0.819378
O O12 0.250000 0.773501 0.072957
O O13 0.317291 0.956129 0.200055
#
# Coordination Sequence:
#
# PCOD8182827 Si02
#       8
#     8   8   4   4   4   4   8   4
#     4  11  25  48  70 100 140 175 234 285 340 407
#     4  11  25  48  70 100 140 175 234 285 340 407
#     4  10  18  44  72  99 139 166 217 309 322 387
#     4  11  22  36  68 115 137 167 223 284 352 401
#     4  12  32  44  68 102 132 200 228 268 352 422
#     4  11  22  36  68 115 137 167 223 284 352 401
#     4  11  22  41  70 100 136 182 216 282 356 394
#     4  10  18  44  72  99 139 166 217 309 322 387
#
# _framework density 22.147994000000001
#
# number of rings (size 3 to 8) (size 9 to 14) (size 15 to 20)
#    0.000    1.091    7.273    1.091    5.091    4.364 
#    0.000    0.000    0.000    0.000    0.000    0.000 
#    0.000    0.000    0.000    0.000    0.000    0.000 
#
# Total GULP energy -272731.353227 kJ/mol
# GULP energy per Si atom -12396.879692 kJ/mol
# Density = 2.209758 g / cm^3
# Si number density = 22.147994 Si / 1000 Ang^3
#
#
#
# Elastic Constant Matrix: (Units=GPa)
#
#
# Indices 1 2 3 4 5 6 
#
# 1 96.5754 13.0316 32.4053 0.0000 0.0000 0.0000
# 2 13.0316 65.9359 36.2479 0.0000 0.0000 0.0000
# 3 32.4053 36.2479 90.9705 0.0000 0.0000 0.0000
# 4 0.0000 0.0000 0.0000 45.1504 0.0000 0.0000
# 5 0.0000 0.0000 0.0000 0.0000 36.0834 0.0000
# 6 0.0000 0.0000 0.0000 0.0000 0.0000 20.0273
#
#
#
# Elastic Compliance Matrix: (Units=1/GPa)
#
#
# Indices 1 2 3 4 5 6 
#
# 1 0.011760 -0.000027 -0.004178 0.000000 0.000000 0.000000
# 2 -0.000027 0.019420 -0.007728 0.000000 0.000000 0.000000
# 3 -0.004178 -0.007728 0.015560 0.000000 0.000000 0.000000
# 4 0.000000 0.000000 0.000000 0.022148 0.000000 0.000000
# 5 0.000000 0.000000 0.000000 0.000000 0.027714 0.000000
# 6 0.000000 0.000000 0.000000 0.000000 0.000000 0.049932
#
#
# Mechanical properties :
#
#
# Convention : Reuss Voigt Hill
#
# Bulk Modulus (GPa) = 43.71994 46.31685 45.01840
# Shear Modulus (GPa) = 28.08558 31.70534 29.89546
#
# Velocity S-wave (km/s) = 3.56488 3.78765 3.67795
# Velocity P-wave (km/s) = 6.06030 6.33137 6.19732
#
# Compressibility (1/GPa) = 0.02287286
#
# Stress axis : x y z
#
# Youngs Moduli (GPa) = 85.03181 51.49246 64.26550
#
# Poissons Ratio (x) = 0.00140 0.26852
# Poissons Ratio (y) = 0.00232 0.49667
# Poissons Ratio (z) = 0.35529 0.39796
#
# Static dielectric constant tensor:
#      x y z
#    x 3.891600 0.000000 0.000000 
#    y 0.000000 3.794700 0.000000 
#    z 0.000000 0.000000 4.092900 
# 
# 
# High freq. dielectric constant tensor:
#      x y z
#    x 1.847240 0.000000 0.000000 
#    y 0.000000 1.868110 0.000000 
#    z 0.000000 0.000000 1.886990 
# 
# From -- ./inp_files/8713.got.cif
#   From: 2010.03.12/outbox.cif.g09.slc.cpg/sg40_5_cif.got.tgz:8713.got - 2010.04.14 01:38:03.
