data_PCOD8182282
_publ_section_title
;
Structure prediction by ZEFSAII (Michael W. Deem and Ramdas Pophale) SiO2 
 PCOD8182282
Probable space group: A B M 2
;
_chemical_formula_sum "Si O2"
_cell_formula_units_Z 48
_cell_length_a 14.619232
_cell_length_b 17.511989
_cell_length_c 8.729352
_cell_angle_alpha 90.000000
_cell_angle_beta 90.000000
_cell_angle_gamma 90.000000
_cell_volume 2234.817380
_symmetry_space_group_name_H-M "A B M 2"
_symmetry_group_IT_number 39
_symmetry_cell_setting 'orthorhombic'
loop_
_space_group_symop_operation_xyz
x,y,z
-x,-y,z
-x,1/2+y,z
x,1/2-y,z
x,1/2+y,1/2+z
-x,1/2-y,1/2+z
-x,y,1/2+z
x,-y,1/2+z
loop_
_atom_site_type_symbol
_atom_site_label
_atom_site_fract_x
_atom_site_fract_y
_atom_site_fract_z
Si Si1 0.563734 0.424165 0.836600
Si Si2 0.257048 0.892839 0.362844
Si Si3 0.054160 0.077706 0.506337
Si Si4 0.255457 0.541541 0.024095
Si Si5 0.066442 0.665479 0.298651
Si Si6 0.572996 0.163465 0.526378
O O1 0.500000 0.500000 0.836265
O O2 0.582665 0.396950 0.664099
O O3 0.660621 0.436419 0.916412
O O4 0.517312 0.356347 0.931087
O O5 0.274761 0.936399 0.200593
O O6 0.170420 0.837374 0.357645
O O7 0.344272 0.842212 0.405274
O O8 0.241199 0.951097 0.503809
O O9 0.161023 0.077691 0.459047
O O10 0.049265 0.094801 0.685845
O O11 0.006325 0.150929 0.431712
O O12 0.000000 0.000000 0.469146
O O13 0.049724 0.750000 0.230393
O O14 0.566024 0.250000 0.588466
#
# Coordination Sequence:
#
# PCOD8182282 Si02
#       6
#     8   8   8   8   8   8
#     4  12  25  44  70 100 130 176 222 274 325 392
#     4  11  23  42  67  97 134 171 222 273 331 383
#     4  11  23  42  68  95 130 175 222 271 320 390
#     4  11  24  41  70 101 129 170 230 278 319 390
#     4  11  24  42  65  98 135 174 217 270 331 386
#     4  12  26  45  68  99 137 176 217 270 335 395
#
# _framework density 21.478266000000001
#
# number of rings (size 3 to 8) (size 9 to 14) (size 15 to 20)
#    0.000    0.667    3.333    4.500    2.333    1.333 
#    0.000   10.833    0.000    0.000    0.000    0.000 
#    0.000    0.000    0.000    0.000    0.000    0.000 
#
# Total GULP energy -297544.257822 kJ/mol
# GULP energy per Si atom -12397.677409 kJ/mol
# Density = 2.142938 g / cm^3
# Si number density = 21.478266 Si / 1000 Ang^3
#
#
#
# Elastic Constant Matrix: (Units=GPa)
#
#
# Indices 1 2 3 4 5 6 
#
# 1 154.7066 44.7696 58.3762 0.0000 0.0000 0.0000
# 2 44.7696 116.1575 33.2300 0.0000 0.0000 0.0000
# 3 58.3762 33.2300 87.0001 0.0000 0.0000 0.0000
# 4 0.0000 0.0000 0.0000 30.6510 0.0000 0.0000
# 5 0.0000 0.0000 0.0000 0.0000 31.0844 0.0000
# 6 0.0000 0.0000 0.0000 0.0000 0.0000 25.6795
#
#
#
# Elastic Compliance Matrix: (Units=1/GPa)
#
#
# Indices 1 2 3 4 5 6 
#
# 1 0.009037 -0.001963 -0.005314 0.000000 0.000000 0.000000
# 2 -0.001963 0.010091 -0.002537 0.000000 0.000000 0.000000
# 3 -0.005314 -0.002537 0.016029 0.000000 0.000000 0.000000
# 4 0.000000 0.000000 0.000000 0.032625 0.000000 0.000000
# 5 0.000000 0.000000 0.000000 0.000000 0.032171 0.000000
# 6 0.000000 0.000000 0.000000 0.000000 0.000000 0.038942
#
#
# Mechanical properties :
#
#
# Convention : Reuss Voigt Hill
#
# Bulk Modulus (GPa) = 64.39588 70.06844 67.23216
# Shear Modulus (GPa) = 30.54370 32.24887 31.39629
#
# Velocity S-wave (km/s) = 3.77513 3.87908 3.82746
# Velocity P-wave (km/s) = 7.00351 7.26339 7.13463
#
# Compressibility (1/GPa) = 0.01552894
#
# Stress axis : x y z
#
# Youngs Moduli (GPa) = 110.65569 99.09407 62.38658
#
# Poissons Ratio (x) = 0.19451 0.33153
# Poissons Ratio (y) = 0.21720 0.15830
# Poissons Ratio (z) = 0.58803 0.25144
#
# Static dielectric constant tensor:
#      x y z
#    x 4.163060 0.000000 0.000000 
#    y 0.000000 3.711050 0.000000 
#    z 0.000000 0.000000 3.813420 
# 
# 
# High freq. dielectric constant tensor:
#      x y z
#    x 1.862630 0.000000 0.000000 
#    y 0.000000 1.835200 0.000000 
#    z 0.000000 0.000000 1.842790 
# 
# From -- ./inp_files/3231.got.cif
#   From: 2010.03.12/outbox.cif.g09.slc.cpg/sg39_2_cif.got.tgz:3231.got - 2010.04.14 02:53:20.
