data_PCOD8182810
_publ_section_title
;
Structure prediction by ZEFSAII (Michael W. Deem and Ramdas Pophale) SiO2 
 PCOD8182810
Probable space group: A M A 2
;
_chemical_formula_sum "Si O2"
_cell_formula_units_Z 64
_cell_length_a 8.853875
_cell_length_b 30.839915
_cell_length_c 11.878357
_cell_angle_alpha 90.000000
_cell_angle_beta 90.000000
_cell_angle_gamma 90.000000
_cell_volume 3243.418073
_symmetry_space_group_name_H-M "A M A 2"
_symmetry_group_IT_number 40
_symmetry_cell_setting 'orthorhombic'
loop_
_space_group_symop_operation_xyz
x,y,z
-x,-y,z
1/2-x,y,z
1/2+x,-y,z
x,1/2+y,1/2+z
-x,1/2-y,1/2+z
1/2-x,1/2+y,1/2+z
1/2+x,1/2-y,1/2+z
loop_
_atom_site_type_symbol
_atom_site_label
_atom_site_fract_x
_atom_site_fract_y
_atom_site_fract_z
Si Si1 0.072795 0.543457 0.240930
Si Si2 0.928399 0.543020 0.717592
Si Si3 0.928784 0.432857 0.490476
Si Si4 0.073391 0.124691 0.593183
Si Si5 0.571367 0.835528 0.980598
Si Si6 0.428438 0.703338 0.713143
Si Si7 0.573034 0.794934 0.750975
Si Si8 0.428500 0.372263 0.852537
O O1 0.250000 0.539719 0.228900
O O2 0.024963 0.546746 0.371268
O O3 0.016973 0.585747 0.173547
O O4 0.000000 0.500000 0.188866
O O5 0.750000 0.539322 0.723559
O O6 0.986435 0.586048 0.781920
O O7 0.000000 0.500000 0.775513
O O8 0.982858 0.542705 0.588593
O O9 0.750000 0.435531 0.512932
O O10 0.990537 0.383937 0.490064
O O11 0.250000 0.120108 0.565018
O O12 0.040448 0.170267 0.653678
O O13 0.977290 0.121997 0.480582
O O14 0.750000 0.837379 0.971050
O O15 0.514956 0.809445 0.089026
O O16 0.508638 0.813158 0.868466
O O17 0.250000 0.699280 0.724995
O O18 0.478612 0.752215 0.728967
O O19 0.500571 0.671748 0.805079
O O20 0.750000 0.783730 0.757798
O O21 0.250000 0.368106 0.845255
#
# Coordination Sequence:
#
# PCOD8182810 Si02
#       8
#     8   8   8   8   8   8   8   8
#     4  10  21  37  60  89 121 156 196 241 296 354
#     4  11  24  40  60  88 119 154 196 244 297 352
#     4  10  18  36  63  89 120 156 194 238 290 353
#     4  10  22  41  63  86 117 159 203 244 294 355
#     4   9  18  36  63  88 117 157 194 235 294 351
#     4  11  23  39  62  92 121 157 200 241 294 358
#     4  10  21  40  63  89 122 158 196 245 296 349
#     4  11  25  43  61  85 119 157 200 250 299 346
#
# _framework density 19.732268999999999
#
# number of rings (size 3 to 8) (size 9 to 14) (size 15 to 20)
#    0.000    1.750    2.500    1.500    1.750    4.500 
#    0.000    3.750    0.000    0.000    0.000    0.000 
#    0.000    0.000    0.000    0.000    0.000    0.000 
#
# Total GULP energy -396875.900864 kJ/mol
# GULP energy per Si atom -12402.371902 kJ/mol
# Density = 1.968736 g / cm^3
# Si number density = 19.732269 Si / 1000 Ang^3
#
#
#
# Elastic Constant Matrix: (Units=GPa)
#
#
# Indices 1 2 3 4 5 6 
#
# 1 48.5978 37.3533 35.0779 0.0000 0.0000 0.0000
# 2 37.3533 149.1709 43.6814 0.0000 0.0000 0.0000
# 3 35.0779 43.6814 109.1161 0.0000 0.0000 0.0000
# 4 0.0000 0.0000 0.0000 22.8423 0.0000 0.0000
# 5 0.0000 0.0000 0.0000 0.0000 23.7095 0.0000
# 6 0.0000 0.0000 0.0000 0.0000 0.0000 36.2905
#
#
#
# Elastic Compliance Matrix: (Units=1/GPa)
#
#
# Indices 1 2 3 4 5 6 
#
# 1 0.030125 -0.005333 -0.007550 0.000000 0.000000 0.000000
# 2 -0.005333 0.008538 -0.001704 0.000000 0.000000 0.000000
# 3 -0.007550 -0.001704 0.012274 0.000000 0.000000 0.000000
# 4 0.000000 0.000000 0.000000 0.043778 0.000000 0.000000
# 5 0.000000 0.000000 0.000000 0.000000 0.042177 0.000000
# 6 0.000000 0.000000 0.000000 0.000000 0.000000 0.027555
#
#
# Mechanical properties :
#
#
# Convention : Reuss Voigt Hill
#
# Bulk Modulus (GPa) = 45.94584 59.90110 52.92347
# Shear Modulus (GPa) = 24.89113 29.28661 27.08887
#
# Velocity S-wave (km/s) = 3.55553 3.85671 3.70918
# Velocity P-wave (km/s) = 6.33963 7.08908 6.72481
#
# Compressibility (1/GPa) = 0.02176476
#
# Stress axis : x y z
#
# Youngs Moduli (GPa) = 33.19465 117.12431 81.47612
#
# Poissons Ratio (x) = 0.62460 0.61512
# Poissons Ratio (y) = 0.17702 0.13880
# Poissons Ratio (z) = 0.25061 0.19953
#
# Static dielectric constant tensor:
#      x y z
#    x 3.328600 0.000000 0.000000 
#    y 0.000000 3.805300 0.000000 
#    z 0.000000 0.000000 3.712300 
# 
# 
# High freq. dielectric constant tensor:
#      x y z
#    x 1.749980 0.000000 0.000000 
#    y 0.000000 1.788650 0.000000 
#    z 0.000000 0.000000 1.772830 
# 
# From -- ./inp_files/10646.got.cif
#   From: 2010.03.12/outbox.cif.g09.slc.cpg/sg40_6_cif.got.tgz:10646.got - 2010.04.14 01:38:03.
