data_PCOD8182685
_publ_section_title
;
Structure prediction by ZEFSAII (Michael W. Deem and Ramdas Pophale) SiO2 
 PCOD8182685
Probable space group: A M A 2
;
_chemical_formula_sum "Si O2"
_cell_formula_units_Z 64
_cell_length_a 8.637350
_cell_length_b 23.416031
_cell_length_c 19.114233
_cell_angle_alpha 90.000000
_cell_angle_beta 90.000000
_cell_angle_gamma 90.000000
_cell_volume 3865.900557
_symmetry_space_group_name_H-M "A M A 2"
_symmetry_group_IT_number 40
_symmetry_cell_setting 'orthorhombic'
loop_
_space_group_symop_operation_xyz
x,y,z
-x,-y,z
1/2-x,y,z
1/2+x,-y,z
x,1/2+y,1/2+z
-x,1/2-y,1/2+z
1/2-x,1/2+y,1/2+z
1/2+x,1/2-y,1/2+z
loop_
_atom_site_type_symbol
_atom_site_label
_atom_site_fract_x
_atom_site_fract_y
_atom_site_fract_z
Si Si1 0.567574 0.335669 0.427940
Si Si2 0.928767 0.734173 0.540531
Si Si3 0.567910 0.939343 0.553290
Si Si4 0.067586 0.771273 0.340309
Si Si5 0.567441 0.438998 0.333695
Si Si6 0.431943 0.841212 0.466804
Si Si7 0.431934 0.387466 0.193242
Si Si8 0.429622 0.236364 0.692988
O O1 0.750000 0.331560 0.440250
O O2 0.482576 0.324040 0.502052
O O3 0.506307 0.287816 0.373597
O O4 0.519067 0.396738 0.396782
O O5 0.750000 0.747647 0.524047
O O6 0.954948 0.725969 0.623606
O O7 0.032982 0.787136 0.516004
O O8 0.750000 0.943266 0.563142
O O9 0.528313 0.895754 0.490951
O O10 0.494106 0.919508 0.625532
O O11 0.500000 0.000000 0.530807
O O12 0.250000 0.769886 0.344566
O O13 0.013075 0.825273 0.387318
O O14 0.012722 0.774262 0.259465
O O15 0.500000 0.500000 0.354070
O O16 0.750000 0.442503 0.325906
O O17 0.502259 0.417152 0.260790
O O18 0.250000 0.854894 0.471816
O O19 0.250000 0.395107 0.195749
O O20 0.473296 0.321238 0.189158
O O21 0.250000 0.218821 0.702238
#
# Coordination Sequence:
#
# PCOD8182685 Si02
#       8
#     8   8   8   8   8   8   8   8
#     4   9  18  33  51  68  96 135 167 203 251 301
#     4  10  19  29  49  75 102 131 165 210 250 294
#     4  12  24  38  53  71  98 135 173 212 249 296
#     4   8  15  30  51  71  96 130 164 198 245 300
#     4  11  22  37  53  71  98 135 173 212 253 297
#     4  10  19  33  51  73  99 131 168 207 251 299
#     4  12  23  34  49  73 102 136 172 209 243 292
#     4  10  18  32  51  74 102 136 168 202 249 297
#
# _framework density 16.555002999999999
#
# number of rings (size 3 to 8) (size 9 to 14) (size 15 to 20)
#    0.000    1.750    2.500    4.500    0.000    1.500 
#    0.000    0.625    0.000    0.000    0.000    0.875 
#    0.000    2.000    0.000    0.000    0.000    0.000 
#
# Total GULP energy -396739.825009 kJ/mol
# GULP energy per Si atom -12398.119532 kJ/mol
# Density = 1.651732 g / cm^3
# Si number density = 16.555003 Si / 1000 Ang^3
#
#
#
# Elastic Constant Matrix: (Units=GPa)
#
#
# Indices 1 2 3 4 5 6 
#
# 1 27.2380 33.8454 20.6944 0.0000 0.0000 0.0000
# 2 33.8454 103.4889 67.3243 0.0000 0.0000 0.0000
# 3 20.6944 67.3243 123.7084 0.0000 0.0000 0.0000
# 4 0.0000 0.0000 0.0000 732.7842 0.0000 0.0000
# 5 0.0000 0.0000 0.0000 0.0000 19.3333 0.0000
# 6 0.0000 0.0000 0.0000 0.0000 0.0000 19.1481
#
#
#
# Elastic Compliance Matrix: (Units=1/GPa)
#
#
# Indices 1 2 3 4 5 6 
#
# 1 0.061931 -0.020921 0.001026 0.000000 0.000000 0.000000
# 2 -0.020921 0.022027 -0.008487 0.000000 0.000000 0.000000
# 3 0.001026 -0.008487 0.012531 0.000000 0.000000 0.000000
# 4 0.000000 0.000000 0.000000 0.001365 0.000000 0.000000
# 5 0.000000 0.000000 0.000000 0.000000 0.051724 0.000000
# 6 0.000000 0.000000 0.000000 0.000000 0.000000 0.052224
#
#
# Mechanical properties :
#
#
# Convention : Reuss Voigt Hill
#
# Bulk Modulus (GPa) = 25.17493 55.35151 40.26322
# Shear Modulus (GPa) = 18.39533 163.09120 90.74326
#
# Velocity S-wave (km/s) = 3.33703 9.93623 7.41163
# Velocity P-wave (km/s) = 5.48521 12.85090 9.88011
#
# Compressibility (1/GPa) = 0.03972206
#
# Stress axis : x y z
#
# Youngs Moduli (GPa) = 16.14712 45.39968 79.80245
#
# Poissons Ratio (x) = 0.94982 -0.08186
# Poissons Ratio (y) = 0.33782 0.67732
# Poissons Ratio (z) = -0.01656 0.38533
#
# Static dielectric constant tensor:
#      x y z
#    x 3.157400 0.000000 0.000000 
#    y 0.000000 3.055970 0.000000 
#    z 0.000000 0.000000 3.461850 
# 
# 
# High freq. dielectric constant tensor:
#      x y z
#    x 1.641370 0.000000 0.000000 
#    y 0.000000 1.610390 0.000000 
#    z 0.000000 0.000000 1.636300 
# 
# From -- ./inp_files/22533.got.cif
#   From: 2010.03.12/outbox.cif.g09.slc.cpg/sg40_12_cif.got.tgz:22533.got - 2010.04.14 01:38:03.
