data_PCOD8182092
_publ_section_title
;
Structure prediction by ZEFSAII (Michael W. Deem and Ramdas Pophale) SiO2 
 PCOD8182092
Probable space group: A B M 2
;
_chemical_formula_sum "Si O2"
_cell_formula_units_Z 64
_cell_length_a 15.353430
_cell_length_b 22.062314
_cell_length_c 9.092961
_cell_angle_alpha 90.000000
_cell_angle_beta 90.000000
_cell_angle_gamma 90.000000
_cell_volume 3080.078626
_symmetry_space_group_name_H-M "A B M 2"
_symmetry_group_IT_number 39
_symmetry_cell_setting 'orthorhombic'
loop_
_space_group_symop_operation_xyz
x,y,z
-x,-y,z
-x,1/2+y,z
x,1/2-y,z
x,1/2+y,1/2+z
-x,1/2-y,1/2+z
-x,y,1/2+z
x,-y,1/2+z
loop_
_atom_site_type_symbol
_atom_site_label
_atom_site_fract_x
_atom_site_fract_y
_atom_site_fract_z
Si Si1 0.572873 0.681992 0.353770
Si Si2 0.702801 0.024009 0.069307
Si Si3 0.085744 0.177201 0.912858
Si Si4 0.237512 0.614578 0.589377
Si Si5 0.081567 0.181935 0.584139
Si Si6 0.574408 0.137918 0.542321
Si Si7 0.412433 0.524455 0.343664
Si Si8 0.757744 0.136599 0.926839
O O1 0.587845 0.750000 0.292820
O O2 0.489389 0.684814 0.461489
O O3 0.551379 0.637056 0.216794
O O4 0.659254 0.661742 0.442562
O O5 0.656578 0.044744 0.220494
O O6 0.746644 0.957692 0.072526
O O7 0.771883 0.075203 0.023061
O O8 0.631996 0.028811 0.938097
O O9 0.101728 0.250000 0.925999
O O10 0.159675 0.138854 0.992981
O O11 0.995104 0.154247 0.983864
O O12 0.086991 0.152355 0.745724
O O13 0.322411 0.652688 0.535066
O O14 0.216563 0.627578 0.758217
O O15 0.053200 0.250000 0.614767
O O16 0.173084 0.182079 0.498066
O O17 0.560128 0.073853 0.464653
O O18 0.500000 0.500000 0.266054
#
# Coordination Sequence:
#
# PCOD8182092 Si02
#       8
#     8   8   8   8   8   8   8   8
#     4  11  24  42  59  86 127 172 219 267 322 382
#     4  11  23  40  60  93 124 163 215 266 318 383
#     4  10  22  41  68  98 129 163 210 262 321 384
#     4  10  23  42  61  92 128 168 208 264 327 376
#     4  10  22  40  67 100 126 164 212 263 317 382
#     4  10  25  38  59  88 122 167 215 264 318 378
#     4  11  23  37  62  87 118 163 215 271 318 373
#     4  11  23  40  65  90 127 170 209 263 322 380
#
# _framework density 20.778690999999998
#
# number of rings (size 3 to 8) (size 9 to 14) (size 15 to 20)
#    0.000    1.500    1.250    2.625   10.500    4.000 
#    0.000    1.875    0.000    3.000    0.000    0.000 
#    0.000    0.000    0.000    0.000    0.000    0.000 
#
# Total GULP energy -396607.150833 kJ/mol
# GULP energy per Si atom -12393.973464 kJ/mol
# Density = 2.073140 g / cm^3
# Si number density = 20.778691 Si / 1000 Ang^3
#
#
#
# Elastic Constant Matrix: (Units=GPa)
#
#
# Indices 1 2 3 4 5 6 
#
# 1 126.6215 37.6097 78.2906 0.0000 0.0000 0.0000
# 2 37.6097 55.2125 29.9065 0.0000 0.0000 0.0000
# 3 78.2906 29.9065 148.9289 0.0000 0.0000 0.0000
# 4 0.0000 0.0000 0.0000 30.9303 0.0000 0.0000
# 5 0.0000 0.0000 0.0000 0.0000 43.9275 0.0000
# 6 0.0000 0.0000 0.0000 0.0000 0.0000 24.0189
#
#
#
# Elastic Compliance Matrix: (Units=1/GPa)
#
#
# Indices 1 2 3 4 5 6 
#
# 1 0.013205 -0.005874 -0.005762 0.000000 0.000000 0.000000
# 2 -0.005874 0.022935 -0.001518 0.000000 0.000000 0.000000
# 3 -0.005762 -0.001518 0.010049 0.000000 0.000000 0.000000
# 4 0.000000 0.000000 0.000000 0.032331 0.000000 0.000000
# 5 0.000000 0.000000 0.000000 0.000000 0.022765 0.000000
# 6 0.000000 0.000000 0.000000 0.000000 0.000000 0.041634
#
#
# Mechanical properties :
#
#
# Convention : Reuss Voigt Hill
#
# Bulk Modulus (GPa) = 50.29932 69.15295 59.72613
# Shear Modulus (GPa) = 28.43284 32.10573 30.26928
#
# Velocity S-wave (km/s) = 3.70315 3.93508 3.82088
# Velocity P-wave (km/s) = 6.52259 7.34843 6.94779
#
# Compressibility (1/GPa) = 0.01988099
#
# Stress axis : x y z
#
# Youngs Moduli (GPa) = 75.72854 43.60122 99.51664
#
# Poissons Ratio (x) = 0.25611 0.57344
# Poissons Ratio (y) = 0.44482 0.15105
# Poissons Ratio (z) = 0.43637 0.06618
#
# Static dielectric constant tensor:
#      x y z
#    x 3.745270 0.000000 0.000000 
#    y 0.000000 3.601480 0.000000 
#    z 0.000000 0.000000 3.915540 
# 
# 
# High freq. dielectric constant tensor:
#      x y z
#    x 1.805170 0.000000 0.000000 
#    y 0.000000 1.794510 0.000000 
#    z 0.000000 0.000000 1.830220 
# 
# From -- ./inp_files/3502.got.cif
#   From: 2010.03.12/outbox.cif.g09.slc.cpg/sg39_2_cif.got.tgz:3502.got - 2010.04.14 02:53:20.
