data_PCOD8182693
_publ_section_title
;
Structure prediction by ZEFSAII (Michael W. Deem and Ramdas Pophale) SiO2 
 PCOD8182693
Probable space group: A M A 2
;
_chemical_formula_sum "Si O2"
_cell_formula_units_Z 56
_cell_length_a 8.763631
_cell_length_b 19.151384
_cell_length_c 18.147632
_cell_angle_alpha 90.000000
_cell_angle_beta 90.000000
_cell_angle_gamma 90.000000
_cell_volume 3045.819840
_symmetry_space_group_name_H-M "A M A 2"
_symmetry_group_IT_number 40
_symmetry_cell_setting 'orthorhombic'
loop_
_space_group_symop_operation_xyz
x,y,z
-x,-y,z
1/2-x,y,z
1/2+x,-y,z
x,1/2+y,1/2+z
-x,1/2-y,1/2+z
1/2-x,1/2+y,1/2+z
1/2+x,1/2-y,1/2+z
loop_
_atom_site_type_symbol
_atom_site_label
_atom_site_fract_x
_atom_site_fract_y
_atom_site_fract_z
Si Si1 0.577448 0.788124 0.054570
Si Si2 0.432477 0.423821 0.092127
Si Si3 0.428495 0.668389 0.970827
Si Si4 0.431203 0.196532 0.307262
Si Si5 0.919063 0.067906 0.237598
Si Si6 0.079924 0.931644 0.064122
Si Si7 0.577863 0.198429 0.693979
O O1 0.750000 0.778731 0.024480
O O2 0.526558 0.867082 0.043485
O O3 0.570015 0.764518 0.139215
O O4 0.458497 0.741215 0.010351
O O5 0.500000 0.500000 0.107552
O O6 0.250000 0.426378 0.092222
O O7 0.497549 0.370674 0.156108
O O8 0.485349 0.395035 0.012319
O O9 0.250000 0.650679 0.970459
O O10 0.494801 0.679641 0.888458
O O11 0.250000 0.201283 0.308791
O O12 0.479930 0.134577 0.254303
O O13 0.493710 0.270343 0.270659
O O14 0.750000 0.075329 0.272158
O O15 0.906314 0.059232 0.150838
O O16 0.000000 0.000000 0.272649
O O17 0.250000 0.922442 0.030505
O O18 0.000000 0.000000 0.029421
O O19 0.750000 0.175850 0.709869
#
# Coordination Sequence:
#
# PCOD8182693 Si02
#       7
#     8   8   8   8   8   8   8
#     4  10  18  32  53  73 100 134 170 215 257 307
#     4  10  20  36  57  80 106 138 177 222 270 321
#     4  10  21  34  52  77 105 137 174 216 262 317
#     4  10  19  34  53  74 103 139 175 214 262 314
#     4  10  20  31  46  71 102 135 167 205 245 295
#     4  10  19  30  47  73 101 130 166 207 252 299
#     4   8  16  31  53  76  97 129 172 215 262 308
#
# _framework density 18.385853999999998
#
# number of rings (size 3 to 8) (size 9 to 14) (size 15 to 20)
#    0.000    2.286    1.429    3.000    0.000    2.857 
#    0.000    0.714    0.000    0.857    0.000    2.000 
#    0.000    0.000    0.000    0.000    0.000    0.000 
#
# Total GULP energy -346935.910883 kJ/mol
# GULP energy per Si atom -12390.568246 kJ/mol
# Density = 1.834401 g / cm^3
# Si number density = 18.385854 Si / 1000 Ang^3
#
#
#
# Elastic Constant Matrix: (Units=GPa)
#
#
# Indices 1 2 3 4 5 6 
#
# 1 45.8065 23.4968 19.2533 0.0000 0.0000 0.0000
# 2 23.4968 139.7150 36.5981 0.0000 0.0000 0.0000
# 3 19.2533 36.5981 58.6462 0.0000 0.0000 0.0000
# 4 0.0000 0.0000 0.0000 14.6413 0.0000 0.0000
# 5 0.0000 0.0000 0.0000 0.0000 15.8720 0.0000
# 6 0.0000 0.0000 0.0000 0.0000 0.0000 28.4755
#
#
#
# Elastic Compliance Matrix: (Units=1/GPa)
#
#
# Indices 1 2 3 4 5 6 
#
# 1 0.026070 -0.002561 -0.006960 0.000000 0.000000 0.000000
# 2 -0.002561 0.008808 -0.004656 0.000000 0.000000 0.000000
# 3 -0.006960 -0.004656 0.022242 0.000000 0.000000 0.000000
# 4 0.000000 0.000000 0.000000 0.068300 0.000000 0.000000
# 5 0.000000 0.000000 0.000000 0.000000 0.063004 0.000000
# 6 0.000000 0.000000 0.000000 0.000000 0.000000 0.035118
#
#
# Mechanical properties :
#
#
# Convention : Reuss Voigt Hill
#
# Bulk Modulus (GPa) = 34.76405 44.76267 39.76336
# Shear Modulus (GPa) = 19.12159 22.78574 20.95367
#
# Velocity S-wave (km/s) = 3.22843 3.52420 3.37955
# Velocity P-wave (km/s) = 5.73115 6.39993 6.07475
#
# Compressibility (1/GPa) = 0.02876535
#
# Stress axis : x y z
#
# Youngs Moduli (GPa) = 38.35781 113.53725 44.96034
#
# Poissons Ratio (x) = 0.29078 0.31295
# Poissons Ratio (y) = 0.09824 0.20932
# Poissons Ratio (z) = 0.26699 0.52859
#
# Static dielectric constant tensor:
#      x y z
#    x 3.397560 0.000000 0.000000 
#    y 0.000000 3.484930 0.000000 
#    z 0.000000 0.000000 3.345250 
# 
# 
# High freq. dielectric constant tensor:
#      x y z
#    x 1.708740 0.000000 0.000000 
#    y 0.000000 1.715890 0.000000 
#    z 0.000000 0.000000 1.677050 
# 
# From -- ./inp_files/22297.got.cif
#   From: 2010.03.12/outbox.cif.g09.slc.cpg/sg40_12_cif.got.tgz:22297.got - 2010.04.14 01:38:03.
