data_PCOD8182385
_publ_section_title
;
Structure prediction by ZEFSAII (Michael W. Deem and Ramdas Pophale) SiO2 
 PCOD8182385
Probable space group: A M A 2
;
_chemical_formula_sum "Si O2"
_cell_formula_units_Z 64
_cell_length_a 14.826110
_cell_length_b 18.880329
_cell_length_c 11.256036
_cell_angle_alpha 90.000000
_cell_angle_beta 90.000000
_cell_angle_gamma 90.000000
_cell_volume 3150.810247
_symmetry_space_group_name_H-M "A M A 2"
_symmetry_group_IT_number 40
_symmetry_cell_setting 'orthorhombic'
loop_
_space_group_symop_operation_xyz
x,y,z
-x,-y,z
1/2-x,y,z
1/2+x,-y,z
x,1/2+y,1/2+z
-x,1/2-y,1/2+z
1/2-x,1/2+y,1/2+z
1/2+x,1/2-y,1/2+z
loop_
_atom_site_type_symbol
_atom_site_label
_atom_site_fract_x
_atom_site_fract_y
_atom_site_fract_z
Si Si1 0.151710 0.279147 0.228310
Si Si2 0.652007 0.646889 0.720873
Si Si3 0.145957 0.196440 0.708181
Si Si4 0.039046 0.142288 0.495250
Si Si5 0.003040 0.700217 0.401074
Si Si6 0.847852 0.637742 0.995426
Si Si7 0.147171 0.615344 0.771158
Si Si8 0.994367 0.422429 0.592757
O O1 0.250000 0.300106 0.280754
O O2 0.137204 0.196190 0.234673
O O3 0.075981 0.317890 0.306202
O O4 0.146309 0.297656 0.088965
O O5 0.750000 0.615677 0.684755
O O6 0.637461 0.723121 0.657625
O O7 0.650532 0.664953 0.860774
O O8 0.576083 0.590890 0.685516
O O9 0.250000 0.173458 0.722068
O O10 0.097210 0.144555 0.614972
O O11 0.098541 0.191756 0.835709
O O12 0.099257 0.102538 0.397613
O O13 0.010801 0.221786 0.454957
O O14 0.944487 0.097471 0.514563
O O15 0.001465 0.639578 0.498686
O O16 0.750000 0.597188 0.016857
O O17 0.250000 0.589288 0.780810
O O18 0.097790 0.572742 0.667476
O O19 0.000000 0.500000 0.531939
#
# Coordination Sequence:
#
# PCOD8182385 Si02
#       8
#     8   8   8   8   8   8   8   8
#     4   9  18  32  56  88 116 144 176 232 304 351
#     4  10  20  35  55  84 116 145 187 238 289 347
#     4  11  21  33  56  88 118 148 180 235 308 356
#     4  11  18  33  58  84 118 142 180 240 309 347
#     4  11  21  33  53  80 117 151 188 234 278 346
#     4  10  17  28  53  84 112 141 176 225 290 352
#     4  10  21  36  55  82 116 150 190 236 287 347
#     4  12  25  40  56  78 114 165 202 227 271 335
#
# _framework density 20.312234
#
# number of rings (size 3 to 8) (size 9 to 14) (size 15 to 20)
#    0.000    1.500    5.000    1.875    0.000    2.000 
#    0.000    0.000    0.000    3.000    0.000    1.750 
#    0.000    0.000    0.000    0.000    0.000    0.000 
#
# Total GULP energy -396431.290300 kJ/mol
# GULP energy per Si atom -12388.477822 kJ/mol
# Density = 2.026600 g / cm^3
# Si number density = 20.312234 Si / 1000 Ang^3
#
#
#
# Elastic Constant Matrix: (Units=GPa)
#
#
# Indices 1 2 3 4 5 6 
#
# 1 185.1456 21.0921 37.2059 0.0000 0.0000 0.0000
# 2 21.0921 30.5061 14.2294 0.0000 0.0000 0.0000
# 3 37.2059 14.2294 73.7335 0.0000 0.0000 0.0000
# 4 0.0000 0.0000 0.0000 8.6011 0.0000 0.0000
# 5 0.0000 0.0000 0.0000 0.0000 29.6910 0.0000
# 6 0.0000 0.0000 0.0000 0.0000 0.0000 7.3705
#
#
#
# Elastic Compliance Matrix: (Units=1/GPa)
#
#
# Indices 1 2 3 4 5 6 
#
# 1 0.006274 -0.003144 -0.002559 0.000000 0.000000 0.000000
# 2 -0.003144 0.037599 -0.005670 0.000000 0.000000 0.000000
# 3 -0.002559 -0.005670 0.015948 0.000000 0.000000 0.000000
# 4 0.000000 0.000000 0.000000 0.116264 0.000000 0.000000
# 5 0.000000 0.000000 0.000000 0.000000 0.033680 0.000000
# 6 0.000000 0.000000 0.000000 0.000000 0.000000 0.135676
#
#
# Mechanical properties :
#
#
# Convention : Reuss Voigt Hill
#
# Bulk Modulus (GPa) = 26.97227 48.27110 37.62169
# Shear Modulus (GPa) = 13.13911 23.58970 18.36441
#
# Velocity S-wave (km/s) = 2.54610 3.41156 3.01010
# Velocity P-wave (km/s) = 4.68520 6.27172 5.53559
#
# Compressibility (1/GPa) = 0.03707512
#
# Stress axis : x y z
#
# Youngs Moduli (GPa) = 159.39955 26.59672 62.70497
#
# Poissons Ratio (x) = 0.08362 0.16045
# Poissons Ratio (y) = 0.50115 0.35551
# Poissons Ratio (z) = 0.40789 0.15079
#
# Static dielectric constant tensor:
#      x y z
#    x 4.456180 0.000000 0.000000 
#    y 0.000000 2.977380 0.000000 
#    z 0.000000 0.000000 3.657330 
# 
# 
# High freq. dielectric constant tensor:
#      x y z
#    x 1.829980 0.000000 0.000000 
#    y 0.000000 1.717280 0.000000 
#    z 0.000000 0.000000 1.791870 
# 
# From -- ./inp_files/12469.got.cif
#   From: 2010.03.12/outbox.cif.g09.slc.cpg/sg40_7_cif.got.tgz:12469.got - 2010.04.14 01:38:03.
