data_PCOD8182141
_publ_section_title
;
Structure prediction by ZEFSAII (Michael W. Deem and Ramdas Pophale) SiO2 
 PCOD8182141
Probable space group: A B M 2
;
_chemical_formula_sum "Si O2"
_cell_formula_units_Z 40
_cell_length_a 11.491713
_cell_length_b 13.969189
_cell_length_c 10.824402
_cell_angle_alpha 90.000000
_cell_angle_beta 90.000000
_cell_angle_gamma 90.000000
_cell_volume 1737.640288
_symmetry_space_group_name_H-M "A B M 2"
_symmetry_group_IT_number 39
_symmetry_cell_setting 'orthorhombic'
loop_
_space_group_symop_operation_xyz
x,y,z
-x,-y,z
-x,1/2+y,z
x,1/2-y,z
x,1/2+y,1/2+z
-x,1/2-y,1/2+z
-x,y,1/2+z
x,-y,1/2+z
loop_
_atom_site_type_symbol
_atom_site_label
_atom_site_fract_x
_atom_site_fract_y
_atom_site_fract_z
Si Si1 0.127918 0.040207 0.987340
Si Si2 0.684502 0.750000 0.477127
Si Si3 0.778945 0.944424 0.732730
Si Si4 0.131495 0.750000 0.553019
Si Si5 0.635598 0.750000 0.201149
Si Si6 0.114266 0.250000 0.661360
Si Si7 0.451885 0.401350 0.625280
O O1 0.189202 0.001005 0.861264
O O2 0.121881 0.154581 0.971880
O O3 0.000000 0.000000 0.997318
O O4 0.195051 0.009794 0.112225
O O5 0.697105 0.750000 0.332339
O O6 0.815351 0.750000 0.531073
O O7 0.612926 0.656446 0.517899
O O8 0.851215 0.845910 0.733146
O O9 0.641424 0.921778 0.734323
O O10 0.259750 0.750000 0.607207
O O11 0.024792 0.750000 0.649260
O O12 0.558012 0.844018 0.184823
O O13 0.500000 0.500000 0.568309
#
# Coordination Sequence:
#
# PCOD8182141 Si02
#       7
#     8   4   8   4   4   4   8
#     4  12  26  46  70 108 141 188 239 297 360 436
#     4   9  23  43  69  99 138 184 242 294 354 426
#     4  11  25  46  71 102 145 184 239 294 360 426
#     4  12  26  45  69 102 142 182 238 295 360 424
#     4  11  25  43  71 107 138 190 246 294 352 437
#     4  10  22  45  67 100 136 188 222 299 358 423
#     4  10  23  44  66 100 142 188 235 295 356 422
#
# _framework density 23.019725000000001
#
# number of rings (size 3 to 8) (size 9 to 14) (size 15 to 20)
#    0.000    1.200    2.000    3.000    0.000   13.600 
#    0.000    0.000    0.000    0.000    0.000    0.000 
#    0.000    0.000    0.000    0.000    0.000    0.000 
#
# Total GULP energy -247988.199045 kJ/mol
# GULP energy per Si atom -12399.409952 kJ/mol
# Density = 2.296733 g / cm^3
# Si number density = 23.019725 Si / 1000 Ang^3
#
#
#
# Elastic Constant Matrix: (Units=GPa)
#
#
# Indices 1 2 3 4 5 6 
#
# 1 164.5473 28.4239 35.2682 0.0000 0.0000 0.0000
# 2 28.4239 131.8265 30.5968 0.0000 0.0000 0.0000
# 3 35.2682 30.5968 131.7966 0.0000 0.0000 0.0000
# 4 0.0000 0.0000 0.0000 -176.3580 0.0000 0.0000
# 5 0.0000 0.0000 0.0000 0.0000 13.4085 0.0000
# 6 0.0000 0.0000 0.0000 0.0000 0.0000 37.2051
#
#
#
# Elastic Compliance Matrix: (Units=1/GPa)
#
#
# Indices 1 2 3 4 5 6 
#
# 1 0.006586 -0.001069 -0.001514 0.000000 0.000000 0.000000
# 2 -0.001069 0.008191 -0.001616 0.000000 0.000000 0.000000
# 3 -0.001514 -0.001616 0.008368 0.000000 0.000000 0.000000
# 4 0.000000 0.000000 0.000000 -0.005670 0.000000 0.000000
# 5 0.000000 0.000000 0.000000 0.000000 0.074579 0.000000
# 6 0.000000 0.000000 0.000000 0.000000 0.000000 0.026878
#
#
# Mechanical properties :
#
#
# Convention : Reuss Voigt Hill
#
# Bulk Modulus (GPa) = 67.80585 68.52756 68.16671
# Shear Modulus (GPa) = 37.80839 -2.89009 17.45915
#
# Velocity S-wave (km/s) = 4.05709 -1.12170 2.75697
# Velocity P-wave (km/s) = 7.17399 5.30623 6.30961
#
# Compressibility (1/GPa) = 0.01474799
#
# Stress axis : x y z
#
# Youngs Moduli (GPa) = 151.82636 122.08333 119.50611
#
# Poissons Ratio (x) = 0.13046 0.18098
# Poissons Ratio (y) = 0.16225 0.19308
# Poissons Ratio (z) = 0.22993 0.19724
#
# Static dielectric constant tensor:
#      x y z
#    x 4.248650 0.000000 0.000000 
#    y 0.000000 8.494690 0.000000 
#    z 0.000000 0.000000 3.800340 
# 
# 
# High freq. dielectric constant tensor:
#      x y z
#    x 1.923330 0.000000 0.000000 
#    y 0.000000 1.924580 0.000000 
#    z 0.000000 0.000000 1.889260 
# 
# From -- ./inp_files/5720.got.cif
#   From: 2010.03.12/outbox.cif.g09.slc.cpg/sg39_3_cif.got.tgz:5720.got - 2010.04.14 02:53:20.
