data_PCOD8182596
_publ_section_title
;
Structure prediction by ZEFSAII (Michael W. Deem and Ramdas Pophale) SiO2 
 PCOD8182596
Probable space group: A M A 2
;
_chemical_formula_sum "Si O2"
_cell_formula_units_Z 60
_cell_length_a 8.769540
_cell_length_b 14.444832
_cell_length_c 24.338969
_cell_angle_alpha 90.000000
_cell_angle_beta 90.000000
_cell_angle_gamma 90.000000
_cell_volume 3083.127508
_symmetry_space_group_name_H-M "A M A 2"
_symmetry_group_IT_number 40
_symmetry_cell_setting 'orthorhombic'
loop_
_space_group_symop_operation_xyz
x,y,z
-x,-y,z
1/2-x,y,z
1/2+x,-y,z
x,1/2+y,1/2+z
-x,1/2-y,1/2+z
1/2-x,1/2+y,1/2+z
1/2+x,1/2-y,1/2+z
loop_
_atom_site_type_symbol
_atom_site_label
_atom_site_fract_x
_atom_site_fract_y
_atom_site_fract_z
Si Si1 0.430326 0.598263 0.798630
Si Si2 0.428667 0.788446 0.211070
Si Si3 0.572179 0.704380 0.897670
Si Si4 0.567840 0.398422 0.999949
Si Si5 0.579795 0.827753 0.612857
Si Si6 0.926902 0.912916 0.879222
Si Si7 0.583994 0.630565 0.269533
Si Si8 0.000000 0.000000 0.681122
O O1 0.500000 0.500000 0.815530
O O2 0.250000 0.592766 0.803422
O O3 0.480337 0.623566 0.735799
O O4 0.496908 0.675609 0.839882
O O5 0.250000 0.811932 0.208590
O O6 0.494870 0.753237 0.151469
O O7 0.455604 0.704592 0.253185
O O8 0.750000 0.677201 0.897099
O O9 0.485311 0.652255 0.945612
O O10 0.549227 0.813901 0.908402
O O11 0.500000 0.500000 0.000914
O O12 0.750000 0.405196 0.001727
O O13 0.502400 0.341298 0.053018
O O14 0.750000 0.793251 0.602922
O O15 0.587783 0.927030 0.642878
O O16 0.750000 0.930711 0.867635
O O17 0.023785 0.918024 0.823628
O O18 0.000000 0.000000 0.913917
O O19 0.750000 0.678209 0.279790
O O20 0.613342 0.555969 0.221122
#
# Coordination Sequence:
#
# PCOD8182596 Si02
#       8
#     8   8   8   8   8   8   8   4
#     4  12  24  39  61  88 118 157 201 247 297 354
#     4  10  20  36  55  80 117 153 189 234 287 343
#     4  11  24  42  60  83 117 157 197 247 299 351
#     4  11  22  39  61  87 117 155 200 246 294 350
#     4   9  19  34  54  81 117 156 190 231 285 342
#     4  11  23  37  57  81 115 151 191 238 292 351
#     4  11  20  29  49  78 113 151 187 222 274 337
#     4  10  18  30  48  78 120 154 186 224 276 338
#
# _framework density 19.460757999999998
#
# number of rings (size 3 to 8) (size 9 to 14) (size 15 to 20)
#    0.000    1.333    2.667    4.000    0.000    2.667 
#    0.000    2.000    0.000    0.800    0.000    1.867 
#    0.000    0.000    0.000    0.000    0.000    0.000 
#
# Total GULP energy -371722.397792 kJ/mol
# GULP energy per Si atom -12390.746593 kJ/mol
# Density = 1.941646 g / cm^3
# Si number density = 19.460758 Si / 1000 Ang^3
#
#
#
# Elastic Constant Matrix: (Units=GPa)
#
#
# Indices 1 2 3 4 5 6 
#
# 1 105.6857 34.1721 31.0848 0.0000 0.0000 0.0000
# 2 34.1721 81.4505 32.0746 0.0000 0.0000 0.0000
# 3 31.0848 32.0746 101.3496 0.0000 0.0000 0.0000
# 4 0.0000 0.0000 0.0000 403.0318 0.0000 0.0000
# 5 0.0000 0.0000 0.0000 0.0000 14.8119 0.0000
# 6 0.0000 0.0000 0.0000 0.0000 0.0000 29.9528
#
#
#
# Elastic Compliance Matrix: (Units=1/GPa)
#
#
# Indices 1 2 3 4 5 6 
#
# 1 0.011384 -0.003885 -0.002262 0.000000 0.000000 0.000000
# 2 -0.003885 0.015351 -0.003667 0.000000 0.000000 0.000000
# 3 -0.002262 -0.003667 0.011721 0.000000 0.000000 0.000000
# 4 0.000000 0.000000 0.000000 0.002481 0.000000 0.000000
# 5 0.000000 0.000000 0.000000 0.000000 0.067513 0.000000
# 6 0.000000 0.000000 0.000000 0.000000 0.000000 0.033386
#
#
# Mechanical properties :
#
#
# Convention : Reuss Voigt Hill
#
# Bulk Modulus (GPa) = 53.11139 53.68320 53.39729
# Shear Modulus (GPa) = 29.80807 102.30294 66.05551
#
# Velocity S-wave (km/s) = 3.91794 7.25830 5.83238
# Velocity P-wave (km/s) = 6.91504 9.89390 8.53543
#
# Compressibility (1/GPa) = 0.01882835
#
# Stress axis : x y z
#
# Youngs Moduli (GPa) = 87.84643 65.14103 85.31713
#
# Poissons Ratio (x) = 0.25308 0.19297
# Poissons Ratio (y) = 0.34130 0.31283
# Poissons Ratio (z) = 0.19870 0.23885
#
# Static dielectric constant tensor:
#      x y z
#    x 3.492250 0.000000 0.000000 
#    y 0.000000 -1.521550 0.000000 
#    z 0.000000 0.000000 3.611400 
# 
# 
# High freq. dielectric constant tensor:
#      x y z
#    x 1.758590 0.000000 0.000000 
#    y 0.000000 1.752080 0.000000 
#    z 0.000000 0.000000 1.735740 
# 
# From -- ./inp_files/24176.got.cif
#   From: 2010.03.12/outbox.cif.g09.slc.cpg/sg40_13_cif.got.tgz:24176.got - 2010.04.14 01:38:03.
