data_PCOD8182325
_publ_section_title
;
Structure prediction by ZEFSAII (Michael W. Deem and Ramdas Pophale) SiO2 
 PCOD8182325
Probable space group: A B M 2
;
_chemical_formula_sum "Si O2"
_cell_formula_units_Z 64
_cell_length_a 20.891205
_cell_length_b 9.334789
_cell_length_c 19.532363
_cell_angle_alpha 90.000000
_cell_angle_beta 90.000000
_cell_angle_gamma 90.000000
_cell_volume 3809.103587
_symmetry_space_group_name_H-M "A B M 2"
_symmetry_group_IT_number 39
_symmetry_cell_setting 'orthorhombic'
loop_
_space_group_symop_operation_xyz
x,y,z
-x,-y,z
-x,1/2+y,z
x,1/2-y,z
x,1/2+y,1/2+z
-x,1/2-y,1/2+z
-x,y,1/2+z
x,-y,1/2+z
loop_
_atom_site_type_symbol
_atom_site_label
_atom_site_fract_x
_atom_site_fract_y
_atom_site_fract_z
Si Si1 0.938570 0.414388 0.296400
Si Si2 0.056564 0.907055 0.460009
Si Si3 0.809439 0.586017 0.938963
Si Si4 0.669346 0.085845 0.444522
Si Si5 0.562911 0.917549 0.204832
Si Si6 0.182638 0.583287 0.803610
Si Si7 0.437347 0.918103 0.548292
Si Si8 0.324595 0.583451 0.804632
O O1 0.941166 0.250000 0.271309
O O2 0.938606 0.425311 0.378331
O O3 0.873546 0.489882 0.267663
O O4 0.000000 0.500000 0.267138
O O5 0.035559 0.750000 0.481423
O O6 0.128545 0.942559 0.488243
O O7 0.000000 0.000000 0.492791
O O8 0.816686 0.750000 0.908879
O O9 0.741172 0.571850 0.976782
O O10 0.810678 0.464776 0.881729
O O11 0.653675 0.250000 0.427259
O O12 0.621232 0.026721 0.501807
O O13 0.662269 0.001174 0.374178
O O14 0.549427 0.750000 0.213170
O O15 0.578331 0.958687 0.126512
O O16 0.623772 0.967416 0.248937
O O17 0.500000 0.000000 0.231146
O O18 0.163098 0.750000 0.800020
O O19 0.253623 0.555425 0.772170
O O20 0.449226 0.750000 0.540008
O O21 0.500000 0.000000 0.522190
O O22 0.332143 0.750000 0.822478
#
# Coordination Sequence:
#
# PCOD8182325 Si02
#       8
#     8   8   8   8   8   8   8   8
#     4   9  15  22  32  48  72 104 139 172 206 245
#     4   8  13  19  28  43  65  95 127 157 189 228
#     4   8  14  24  35  49  73 103 133 166 203 243
#     4   9  17  29  45  64  85 111 143 177 213 254
#     4   9  18  33  49  65  86 112 143 177 215 259
#     4   9  15  23  35  52  75 104 136 169 208 249
#     4   9  18  32  49  66  85 111 141 176 216 257
#     4   9  18  30  44  63  88 116 143 176 217 259
#
# _framework density 16.801853000000001
#
# number of rings (size 3 to 8) (size 9 to 14) (size 15 to 20)
#    0.000    3.250    0.000    1.500    0.000    5.000 
#    0.000    2.500    0.000    0.000    0.000    0.000 
#    0.000    1.000    0.000    3.000    0.000    9.875 
#
# Total GULP energy -396437.769780 kJ/mol
# GULP energy per Si atom -12388.680306 kJ/mol
# Density = 1.676361 g / cm^3
# Si number density = 16.801853 Si / 1000 Ang^3
#
#
#
# Elastic Constant Matrix: (Units=GPa)
#
#
# Indices 1 2 3 4 5 6 
#
# 1 189.2286 68.7866 51.6827 0.0000 0.0000 0.0000
# 2 68.7866 74.1952 23.2402 0.0000 0.0000 0.0000
# 3 51.6827 23.2402 36.4043 0.0000 0.0000 0.0000
# 4 0.0000 0.0000 0.0000 11.7846 0.0000 0.0000
# 5 0.0000 0.0000 0.0000 0.0000 2.7338 0.0000
# 6 0.0000 0.0000 0.0000 0.0000 0.0000 31.9970
#
#
#
# Elastic Compliance Matrix: (Units=1/GPa)
#
#
# Indices 1 2 3 4 5 6 
#
# 1 0.010608 -0.006396 -0.010976 0.000000 0.000000 0.000000
# 2 -0.006396 0.020704 -0.004136 0.000000 0.000000 0.000000
# 3 -0.010976 -0.004136 0.045693 0.000000 0.000000 0.000000
# 4 0.000000 0.000000 0.000000 0.084857 0.000000 0.000000
# 5 0.000000 0.000000 0.000000 0.000000 0.365797 0.000000
# 6 0.000000 0.000000 0.000000 0.000000 0.000000 0.031253
#
#
# Mechanical properties :
#
#
# Convention : Reuss Voigt Hill
#
# Bulk Modulus (GPa) = 29.42361 65.24968 47.33665
# Shear Modulus (GPa) = 8.15319 19.71097 13.93208
#
# Velocity S-wave (km/s) = 2.20524 3.42883 2.88271
# Velocity P-wave (km/s) = 4.90248 7.38884 6.27014
#
# Compressibility (1/GPa) = 0.03398631
#
# Stress axis : x y z
#
# Youngs Moduli (GPa) = 94.27264 48.30083 21.88540
#
# Poissons Ratio (x) = 0.30894 0.24022
# Poissons Ratio (y) = 0.60299 0.09053
# Poissons Ratio (z) = 1.03474 0.19979
#
# Static dielectric constant tensor:
#      x y z
#    x 3.737400 0.000000 0.000000 
#    y 0.000000 3.202080 0.000000 
#    z 0.000000 0.000000 2.568910 
# 
# 
# High freq. dielectric constant tensor:
#      x y z
#    x 1.675410 0.000000 0.000000 
#    y 0.000000 1.652080 0.000000 
#    z 0.000000 0.000000 1.568010 
# 
# From -- ./inp_files/13265.got.cif
#   From: 2010.03.12/outbox.cif.g09.slc.cpg/sg39_7_cif.got.tgz:13265.got - 2010.04.14 02:53:20.
