data_PCOD8182043
_publ_section_title
;
Structure prediction by ZEFSAII (Michael W. Deem and Ramdas Pophale) SiO2 
 PCOD8182043
Probable space group: A B M 2
;
_chemical_formula_sum "Si O2"
_cell_formula_units_Z 64
_cell_length_a 11.878429
_cell_length_b 17.882604
_cell_length_c 14.343560
_cell_angle_alpha 90.000000
_cell_angle_beta 90.000000
_cell_angle_gamma 90.000000
_cell_volume 3046.819455
_symmetry_space_group_name_H-M "A B M 2"
_symmetry_group_IT_number 39
_symmetry_cell_setting 'orthorhombic'
loop_
_space_group_symop_operation_xyz
x,y,z
-x,-y,z
-x,1/2+y,z
x,1/2-y,z
x,1/2+y,1/2+z
-x,1/2-y,1/2+z
-x,y,1/2+z
x,-y,1/2+z
loop_
_atom_site_type_symbol
_atom_site_label
_atom_site_fract_x
_atom_site_fract_y
_atom_site_fract_z
Si Si1 0.653476 0.558528 0.867720
Si Si2 0.881240 0.667438 0.118381
Si Si3 0.639921 0.112753 0.651992
Si Si4 0.278961 0.053827 0.664548
Si Si5 0.847522 0.836911 0.912886
Si Si6 0.415954 0.834425 0.052573
Si Si7 0.956588 0.077079 0.245726
Si Si8 0.404256 0.399111 0.365258
O O1 0.664605 0.579456 0.759983
O O2 0.736444 0.611769 0.925907
O O3 0.681061 0.469745 0.881210
O O4 0.526784 0.572632 0.894331
O O5 0.920391 0.750000 0.148387
O O6 0.746404 0.663909 0.128675
O O7 0.941881 0.609506 0.185310
O O8 0.914683 0.654359 0.009964
O O9 0.536857 0.132283 0.583633
O O10 0.605159 0.129259 0.759370
O O11 0.674223 0.026786 0.633580
O O12 0.314632 0.115888 0.591076
O O13 0.144448 0.056731 0.675350
O O14 0.814744 0.750000 0.894874
O O15 0.923276 0.866214 0.827742
O O16 0.407132 0.750000 0.089511
O O17 0.388819 0.833818 0.941250
O O18 0.000000 0.000000 0.292160
#
# Coordination Sequence:
#
# PCOD8182043 Si02
#       8
#     8   8   8   8   8   8   8   8
#     4   9  19  38  64  91 123 169 215 259 314 380
#     4  11  24  42  67  98 130 169 217 266 327 384
#     4  11  22  44  67  93 132 169 218 270 318 385
#     4  10  22  42  66  90 126 166 220 265 313 384
#     4  10  23  42  67  98 129 167 217 269 325 387
#     4  12  26  39  61  99 136 172 211 260 333 393
#     4  11  23  45  69  95 126 170 218 271 322 384
#     4  10  22  38  61  94 130 170 214 262 317 383
#
# _framework density 21.005510999999998
#
# number of rings (size 3 to 8) (size 9 to 14) (size 15 to 20)
#    0.000    1.500    2.500    1.875    5.250    5.500 
#    2.250    0.000    0.000    0.000    0.000    0.000 
#    0.000    0.000    0.000    0.000    0.000    0.000 
#
# Total GULP energy -396660.785689 kJ/mol
# GULP energy per Si atom -12395.649553 kJ/mol
# Density = 2.095770 g / cm^3
# Si number density = 21.005511 Si / 1000 Ang^3
#
#
#
# Elastic Constant Matrix: (Units=GPa)
#
#
# Indices 1 2 3 4 5 6 
#
# 1 75.6004 25.0673 26.6525 0.0000 0.0000 0.0000
# 2 25.0673 110.7865 42.2136 0.0000 0.0000 0.0000
# 3 26.6525 42.2136 102.4077 0.0000 0.0000 0.0000
# 4 0.0000 0.0000 0.0000 30.3125 0.0000 0.0000
# 5 0.0000 0.0000 0.0000 0.0000 17.6633 0.0000
# 6 0.0000 0.0000 0.0000 0.0000 0.0000 22.2736
#
#
#
# Elastic Compliance Matrix: (Units=1/GPa)
#
#
# Indices 1 2 3 4 5 6 
#
# 1 0.015028 -0.002266 -0.002977 0.000000 0.000000 0.000000
# 2 -0.002266 0.011050 -0.003965 0.000000 0.000000 0.000000
# 3 -0.002977 -0.003965 0.012174 0.000000 0.000000 0.000000
# 4 0.000000 0.000000 0.000000 0.032990 0.000000 0.000000
# 5 0.000000 0.000000 0.000000 0.000000 0.056615 0.000000
# 6 0.000000 0.000000 0.000000 0.000000 0.000000 0.044896
#
#
# Mechanical properties :
#
#
# Convention : Reuss Voigt Hill
#
# Bulk Modulus (GPa) = 50.41383 52.96238 51.68810
# Shear Modulus (GPa) = 25.28039 27.04062 26.16050
#
# Velocity S-wave (km/s) = 3.47293 3.59180 3.53287
# Velocity P-wave (km/s) = 6.33514 6.51688 6.42665
#
# Compressibility (1/GPa) = 0.01983583
#
# Stress axis : x y z
#
# Youngs Moduli (GPa) = 66.54075 90.49799 82.14077
#
# Poissons Ratio (x) = 0.20507 0.24455
# Poissons Ratio (y) = 0.15078 0.32570
# Poissons Ratio (z) = 0.19810 0.35884
#
# Static dielectric constant tensor:
#      x y z
#    x 3.682960 0.000000 0.000000 
#    y 0.000000 3.837850 0.000000 
#    z 0.000000 0.000000 3.849600 
# 
# 
# High freq. dielectric constant tensor:
#      x y z
#    x 1.807180 0.000000 0.000000 
#    y 0.000000 1.825620 0.000000 
#    z 0.000000 0.000000 1.828590 
# 
# From -- ./inp_files/9421.got.cif
#   From: 2010.03.12/outbox.cif.g09.slc.cpg/sg39_5_cif.got.tgz:9421.got - 2010.04.14 02:53:20.
