data_PCOD8182530
_publ_section_title
;
Structure prediction by ZEFSAII (Michael W. Deem and Ramdas Pophale) SiO2 
 PCOD8182530
Probable space group: A M A 2
;
_chemical_formula_sum "Si O2"
_cell_formula_units_Z 64
_cell_length_a 8.701127
_cell_length_b 18.406960
_cell_length_c 26.390287
_cell_angle_alpha 90.000000
_cell_angle_beta 90.000000
_cell_angle_gamma 90.000000
_cell_volume 4226.702585
_symmetry_space_group_name_H-M "A M A 2"
_symmetry_group_IT_number 40
_symmetry_cell_setting 'orthorhombic'
loop_
_space_group_symop_operation_xyz
x,y,z
-x,-y,z
1/2-x,y,z
1/2+x,-y,z
x,1/2+y,1/2+z
-x,1/2-y,1/2+z
1/2-x,1/2+y,1/2+z
1/2+x,1/2-y,1/2+z
loop_
_atom_site_type_symbol
_atom_site_label
_atom_site_fract_x
_atom_site_fract_y
_atom_site_fract_z
Si Si1 0.067936 0.669126 0.666970
Si Si2 0.069048 0.421317 0.759400
Si Si3 0.926843 0.783849 0.724793
Si Si4 0.069808 0.575246 0.573953
Si Si5 0.430953 0.338737 0.371421
Si Si6 0.068316 0.076710 0.959734
Si Si7 0.573649 0.924401 0.778572
Si Si8 0.927466 0.299280 0.814301
O O1 0.250000 0.676861 0.671927
O O2 0.019008 0.639050 0.611967
O O3 0.007288 0.614221 0.709916
O O4 0.985503 0.748699 0.671874
O O5 0.250000 0.426673 0.751655
O O6 0.000000 0.500000 0.768837
O O7 0.029458 0.372405 0.809429
O O8 0.750000 0.760779 0.735347
O O9 0.944081 0.870873 0.729695
O O10 0.042434 0.748955 0.764946
O O11 0.250000 0.564504 0.574765
O O12 0.013330 0.593708 0.517109
O O13 0.000000 0.500000 0.593624
O O14 0.250000 0.350523 0.372843
O O15 0.504135 0.358719 0.425172
O O16 0.496226 0.391318 0.328240
O O17 0.471819 0.253477 0.361388
O O18 0.250000 0.073142 0.954972
O O19 0.000000 0.000000 0.941151
O O20 0.750000 0.936997 0.792473
O O21 0.500000 0.000000 0.762224
O O22 0.750000 0.322263 0.816609
#
# Coordination Sequence:
#
# PCOD8182530 Si02
#       8
#     8   8   8   8   8   8   8   8
#     4  10  18  29  44  61  82 109 141 172 206 244
#     4  11  20  29  42  61  85 111 140 170 203 242
#     4   9  17  28  41  59  81 106 136 168 203 243
#     4   9  19  31  43  60  81 108 140 174 207 240
#     4  10  19  30  44  61  82 109 140 171 206 245
#     4  10  19  31  44  59  82 109 140 175 208 241
#     4  10  19  29  42  60  83 110 140 171 203 242
#     4   9  17  29  43  59  80 106 136 169 203 241
#
# _framework density 15.141826999999999
#
# number of rings (size 3 to 8) (size 9 to 14) (size 15 to 20)
#    0.000    2.250    0.000    5.625    0.000    5.500 
#    0.000    0.000    0.000    0.000    0.000    0.000 
#    0.000    1.000    0.000    6.500    0.000    5.250 
#
# Total GULP energy -396600.990923 kJ/mol
# GULP energy per Si atom -12393.780966 kJ/mol
# Density = 1.510736 g / cm^3
# Si number density = 15.141827 Si / 1000 Ang^3
#
#
#
# Elastic Constant Matrix: (Units=GPa)
#
#
# Indices 1 2 3 4 5 6 
#
# 1 67.1453 39.3959 30.1051 0.0000 0.0000 0.0000
# 2 39.3959 102.1638 48.8239 0.0000 0.0000 0.0000
# 3 30.1051 48.8239 73.5392 0.0000 0.0000 0.0000
# 4 0.0000 0.0000 0.0000 20.6019 0.0000 0.0000
# 5 0.0000 0.0000 0.0000 0.0000 18.7310 0.0000
# 6 0.0000 0.0000 0.0000 0.0000 0.0000 25.9564
#
#
#
# Elastic Compliance Matrix: (Units=1/GPa)
#
#
# Indices 1 2 3 4 5 6 
#
# 1 0.020235 -0.005631 -0.004545 0.000000 0.000000 0.000000
# 2 -0.005631 0.015904 -0.008254 0.000000 0.000000 0.000000
# 3 -0.004545 -0.008254 0.020939 0.000000 0.000000 0.000000
# 4 0.000000 0.000000 0.000000 0.048539 0.000000 0.000000
# 5 0.000000 0.000000 0.000000 0.000000 0.053387 0.000000
# 6 0.000000 0.000000 0.000000 0.000000 0.000000 0.038526
#
#
# Mechanical properties :
#
#
# Convention : Reuss Voigt Hill
#
# Bulk Modulus (GPa) = 49.46125 53.27756 51.36940
# Shear Modulus (GPa) = 20.73579 21.35942 21.04760
#
# Velocity S-wave (km/s) = 3.70461 3.75990 3.73236
# Velocity P-wave (km/s) = 7.14388 7.35603 7.25073
#
# Compressibility (1/GPa) = 0.02021785
#
# Stress axis : x y z
#
# Youngs Moduli (GPa) = 49.42029 62.87748 47.75817
#
# Poissons Ratio (x) = 0.35404 0.21708
# Poissons Ratio (y) = 0.27826 0.39419
# Poissons Ratio (z) = 0.22463 0.51898
#
# Static dielectric constant tensor:
#      x y z
#    x 3.033070 0.000000 0.000000 
#    y 0.000000 3.188810 0.000000 
#    z 0.000000 0.000000 2.962820 
# 
# 
# High freq. dielectric constant tensor:
#      x y z
#    x 1.599850 0.000000 0.000000 
#    y 0.000000 1.571560 0.000000 
#    z 0.000000 0.000000 1.543040 
# 
# From -- ./inp_files/25526.got.cif
#   From: 2010.03.12/outbox.cif.g09.slc.cpg/sg40_13_cif.got.tgz:25526.got - 2010.04.14 01:38:03.
