data_PCOD8182734
_publ_section_title
;
Structure prediction by ZEFSAII (Michael W. Deem and Ramdas Pophale) SiO2 
 PCOD8182734
Probable space group: A M A 2
;
_chemical_formula_sum "Si O2"
_cell_formula_units_Z 64
_cell_length_a 18.781246
_cell_length_b 16.263040
_cell_length_c 12.071541
_cell_angle_alpha 90.000000
_cell_angle_beta 90.000000
_cell_angle_gamma 90.000000
_cell_volume 3687.133353
_symmetry_space_group_name_H-M "A M A 2"
_symmetry_group_IT_number 40
_symmetry_cell_setting 'orthorhombic'
loop_
_space_group_symop_operation_xyz
x,y,z
-x,-y,z
1/2-x,y,z
1/2+x,-y,z
x,1/2+y,1/2+z
-x,1/2-y,1/2+z
1/2-x,1/2+y,1/2+z
1/2+x,1/2-y,1/2+z
loop_
_atom_site_type_symbol
_atom_site_label
_atom_site_fract_x
_atom_site_fract_y
_atom_site_fract_z
Si Si1 0.168383 0.611632 0.206450
Si Si2 0.088965 0.844061 0.264979
Si Si3 0.668149 0.780058 0.905585
Si Si4 0.167457 0.449179 0.089328
Si Si5 0.927889 0.267983 0.072976
Si Si6 0.418759 0.006466 0.380068
Si Si7 0.931917 0.810365 0.331673
Si Si8 0.908588 0.721613 0.113750
O O1 0.250000 0.636213 0.181423
O O2 0.148997 0.638927 0.332282
O O3 0.156773 0.514041 0.190077
O O4 0.119822 0.658590 0.118929
O O5 0.153028 0.801120 0.331720
O O6 0.090470 0.818132 0.135159
O O7 0.016869 0.809554 0.319475
O O8 0.093628 0.942426 0.278277
O O9 0.750000 0.778915 0.941113
O O10 0.621449 0.779861 0.016534
O O11 0.250000 0.432068 0.066272
O O12 0.130455 0.364951 0.121722
O O13 0.134089 0.485887 0.978575
O O14 0.008782 0.295124 0.093136
O O15 0.912524 0.259400 0.942518
O O16 0.401811 0.097042 0.335964
O O17 0.500000 0.000000 0.423438
O O18 0.893721 0.767009 0.229150
#
# Coordination Sequence:
#
# PCOD8182734 Si02
#       8
#     8   8   8   8   8   8   8   8
#     4   9  20  34  53  77 104 139 177 220 265 313
#     4   9  18  30  53  79 102 137 176 217 257 312
#     4  10  18  33  52  75 104 137 176 215 260 315
#     4  11  21  34  52  79 106 135 179 227 264 310
#     4  10  18  34  54  77 109 139 178 216 265 320
#     4  10  18  33  53  78 105 137 177 221 266 306
#     4  10  19  33  51  78 109 138 169 217 270 316
#     4  11  21  32  53  81 110 140 174 218 272 314
#
# _framework density 17.357658000000001
#
# number of rings (size 3 to 8) (size 9 to 14) (size 15 to 20)
#    0.000    2.000    3.750    1.125    0.000    0.000 
#    0.000    3.750    0.000    0.000    0.000    0.000 
#    0.000    0.000    0.000    0.000    0.000    0.000 
#
# Total GULP energy -396747.427000 kJ/mol
# GULP energy per Si atom -12398.357094 kJ/mol
# Density = 1.731815 g / cm^3
# Si number density = 17.357658 Si / 1000 Ang^3
#
#
#
# Elastic Constant Matrix: (Units=GPa)
#
#
# Indices 1 2 3 4 5 6 
#
# 1 75.4116 40.2040 43.2413 0.0000 0.0000 0.0000
# 2 40.2040 110.8746 72.7941 0.0000 0.0000 0.0000
# 3 43.2413 72.7941 147.6173 0.0000 0.0000 0.0000
# 4 0.0000 0.0000 0.0000 29.9813 0.0000 0.0000
# 5 0.0000 0.0000 0.0000 0.0000 19.0180 0.0000
# 6 0.0000 0.0000 0.0000 0.0000 0.0000 14.5431
#
#
#
# Elastic Compliance Matrix: (Units=1/GPa)
#
#
# Indices 1 2 3 4 5 6 
#
# 1 0.017244 -0.004342 -0.002910 0.000000 0.000000 0.000000
# 2 -0.004342 0.014431 -0.005844 0.000000 0.000000 0.000000
# 3 -0.002910 -0.005844 0.010509 0.000000 0.000000 0.000000
# 4 0.000000 0.000000 0.000000 0.033354 0.000000 0.000000
# 5 0.000000 0.000000 0.000000 0.000000 0.052582 0.000000
# 6 0.000000 0.000000 0.000000 0.000000 0.000000 0.068761
#
#
# Mechanical properties :
#
#
# Convention : Reuss Voigt Hill
#
# Bulk Modulus (GPa) = 62.53714 71.82026 67.17870
# Shear Modulus (GPa) = 21.89107 24.55275 23.22191
#
# Velocity S-wave (km/s) = 3.55516 3.76509 3.66163
# Velocity P-wave (km/s) = 7.27729 7.76967 7.52751
#
# Compressibility (1/GPa) = 0.01599050
#
# Stress axis : x y z
#
# Youngs Moduli (GPa) = 57.99060 69.29649 95.15996
#
# Poissons Ratio (x) = 0.30091 0.27691
# Poissons Ratio (y) = 0.25182 0.55613
# Poissons Ratio (z) = 0.16875 0.40498
#
# Static dielectric constant tensor:
#      x y z
#    x 3.251400 0.000000 0.000000 
#    y 0.000000 3.384090 0.000000 
#    z 0.000000 0.000000 3.330820 
# 
# 
# High freq. dielectric constant tensor:
#      x y z
#    x 1.670430 0.000000 0.000000 
#    y 0.000000 1.661290 0.000000 
#    z 0.000000 0.000000 1.661690 
# 
# From -- ./inp_files/12466.got.cif
#   From: 2010.03.12/outbox.cif.g09.slc.cpg/sg40_7_cif.got.tgz:12466.got - 2010.04.14 01:38:03.
