data_PCOD8182343
_publ_section_title
;
Structure prediction by ZEFSAII (Michael W. Deem and Ramdas Pophale) SiO2 
 PCOD8182343
Probable space group: A M A 2
;
_chemical_formula_sum "Si O2"
_cell_formula_units_Z 32
_cell_length_a 10.338818
_cell_length_b 9.977953
_cell_length_c 15.297240
_cell_angle_alpha 90.000000
_cell_angle_beta 90.000000
_cell_angle_gamma 90.000000
_cell_volume 1578.066951
_symmetry_space_group_name_H-M "A M A 2"
_symmetry_group_IT_number 40
_symmetry_cell_setting 'orthorhombic'
loop_
_space_group_symop_operation_xyz
x,y,z
-x,-y,z
1/2-x,y,z
1/2+x,-y,z
x,1/2+y,1/2+z
-x,1/2-y,1/2+z
1/2-x,1/2+y,1/2+z
1/2+x,1/2-y,1/2+z
loop_
_atom_site_type_symbol
_atom_site_label
_atom_site_fract_x
_atom_site_fract_y
_atom_site_fract_z
Si Si1 0.021028 0.238818 0.500000
Si Si2 0.750000 0.620599 0.184247
Si Si3 0.750000 0.666352 0.986537
Si Si4 0.250000 0.088737 0.217080
Si Si5 0.250000 0.614495 0.908853
Si Si6 0.500000 0.500000 0.607623
Si Si7 0.000000 0.500000 0.134787
O O1 0.125293 0.208162 0.424960
O O2 0.881038 0.235157 0.450645
O O3 0.047354 0.380949 0.544915
O O4 0.030081 0.127493 0.575172
O O5 0.750000 0.752712 0.243829
O O6 0.877472 0.529450 0.197612
O O7 0.750000 0.692604 0.089905
O O8 0.750000 0.506331 0.978165
O O9 0.250000 0.034263 0.316455
O O10 0.379064 0.043088 0.167320
#
# Coordination Sequence:
#
# PCOD8182343 Si02
#       7
#     8   4   4   4   4   4   4
#     4  11  20  38  66  92 115 171 216 254 306 398
#     4  10  18  38  59  93 119 155 213 265 295 377
#     4  10  18  36  61  89 115 161 217 261 277 387
#     4  12  27  40  58 104 141 160 205 292 328 374
#     4  12  23  38  66  94 127 162 223 260 328 372
#     4  12  24  43  65  92 138 170 212 266 338 377
#     4  10  16  35  67  86 110 160 222 252 286 363
#
# _framework density 20.277974
#
# number of rings (size 3 to 8) (size 9 to 14) (size 15 to 20)
#    0.000    1.000   10.000    0.750    3.500    0.000 
#    0.000    1.250    0.000    3.000    0.000    0.000 
#    0.000    0.000    0.000    0.000    0.000    0.000 
#
# Total GULP energy -198311.636846 kJ/mol
# GULP energy per Si atom -12394.477303 kJ/mol
# Density = 2.023182 g / cm^3
# Si number density = 20.277974 Si / 1000 Ang^3
#
#
#
# Elastic Constant Matrix: (Units=GPa)
#
#
# Indices 1 2 3 4 5 6 
#
# 1 199.4811 36.3681 31.4302 0.0000 0.0000 0.0000
# 2 36.3681 115.7998 18.6691 0.0000 0.0000 0.0000
# 3 31.4302 18.6691 47.8132 0.0000 0.0000 0.0000
# 4 0.0000 0.0000 0.0000 12.5689 0.0000 0.0000
# 5 0.0000 0.0000 0.0000 0.0000 16.3215 0.0000
# 6 0.0000 0.0000 0.0000 0.0000 0.0000 25.7785
#
#
#
# Elastic Compliance Matrix: (Units=1/GPa)
#
#
# Indices 1 2 3 4 5 6 
#
# 1 0.005765 -0.001280 -0.003290 0.000000 0.000000 0.000000
# 2 -0.001280 0.009500 -0.002868 0.000000 0.000000 0.000000
# 3 -0.003290 -0.002868 0.024197 0.000000 0.000000 0.000000
# 4 0.000000 0.000000 0.000000 0.079562 0.000000 0.000000
# 5 0.000000 0.000000 0.000000 0.000000 0.061269 0.000000
# 6 0.000000 0.000000 0.000000 0.000000 0.000000 0.038792
#
#
# Mechanical properties :
#
#
# Convention : Reuss Voigt Hill
#
# Bulk Modulus (GPa) = 40.67284 59.55876 50.11580
# Shear Modulus (GPa) = 20.64794 29.37555 25.01175
#
# Velocity S-wave (km/s) = 3.19446 3.81023 3.51585
# Velocity P-wave (km/s) = 5.80580 6.98513 6.42259
#
# Compressibility (1/GPa) = 0.02458643
#
# Stress axis : x y z
#
# Youngs Moduli (GPa) = 173.46956 105.26344 41.32755
#
# Poissons Ratio (x) = 0.13475 0.13595
# Poissons Ratio (y) = 0.22206 0.11852
# Poissons Ratio (z) = 0.57065 0.30188
#
# Static dielectric constant tensor:
#      x y z
#    x 4.418960 0.000000 0.000000 
#    y 0.000000 3.726560 0.000000 
#    z 0.000000 0.000000 3.139400 
# 
# 
# High freq. dielectric constant tensor:
#      x y z
#    x 1.819140 0.000000 0.000000 
#    y 0.000000 1.788880 0.000000 
#    z 0.000000 0.000000 1.743400 
# 
# From -- ./inp_files/16062.got.cif
#   From: 2010.03.12/outbox.cif.g09.slc.cpg/sg40_9_cif.got.tgz:16062.got - 2010.04.14 01:38:03.
