data_PCOD8182297
_publ_section_title
;
Structure prediction by ZEFSAII (Michael W. Deem and Ramdas Pophale) SiO2 
 PCOD8182297
Probable space group: A B M 2
;
_chemical_formula_sum "Si O2"
_cell_formula_units_Z 40
_cell_length_a 7.513874
_cell_length_b 9.480181
_cell_length_c 25.391241
_cell_angle_alpha 90.000000
_cell_angle_beta 90.000000
_cell_angle_gamma 90.000000
_cell_volume 1808.691364
_symmetry_space_group_name_H-M "A B M 2"
_symmetry_group_IT_number 39
_symmetry_cell_setting 'orthorhombic'
loop_
_space_group_symop_operation_xyz
x,y,z
-x,-y,z
-x,1/2+y,z
x,1/2-y,z
x,1/2+y,1/2+z
-x,1/2-y,1/2+z
-x,y,1/2+z
x,-y,1/2+z
loop_
_atom_site_type_symbol
_atom_site_label
_atom_site_fract_x
_atom_site_fract_y
_atom_site_fract_z
Si Si1 0.315080 0.418873 0.531890
Si Si2 0.320216 0.750000 0.821110
Si Si3 0.200381 0.518236 0.743747
Si Si4 0.021579 0.250000 0.883163
Si Si5 0.000000 0.500000 0.455512
Si Si6 0.677187 0.584604 0.133155
Si Si7 0.697118 0.250000 0.293739
O O1 0.500000 0.500000 0.516693
O O2 0.347885 0.250000 0.540608
O O3 0.163788 0.437806 0.488462
O O4 0.238954 0.497812 0.584096
O O5 0.291780 0.616753 0.785357
O O6 0.531223 0.750000 0.834990
O O7 0.192732 0.750000 0.872303
O O8 0.198003 0.576419 0.684170
O O9 0.308892 0.375027 0.751294
O O10 0.000000 0.500000 0.762273
O O11 0.122888 0.250000 0.827741
O O12 0.080836 0.382341 0.917568
O O13 0.500000 0.500000 0.148291
O O14 0.645419 0.750000 0.118282
#
# Coordination Sequence:
#
# PCOD8182297 Si02
#       7
#     8   4   8   4   4   8   4
#     4  11  26  48  76 108 143 185 238 292 359 429
#     4  12  24  48  69 103 138 183 235 284 351 414
#     4  12  24  43  67 105 147 184 229 284 343 417
#     4  12  26  48  72 104 138 180 244 304 358 416
#     4  12  28  48  76 100 146 182 236 308 364 422
#     4  11  24  42  70 107 146 186 232 278 345 427
#     4  12  26  44  77  97 142 189 233 288 347 414
#
# _framework density 22.115437
#
# number of rings (size 3 to 8) (size 9 to 14) (size 15 to 20)
#    0.000    0.400    4.000    5.400    7.000    1.600 
#    0.000    0.000    0.000    0.000    0.000    0.000 
#    0.000    0.000    0.000    0.000    0.000    0.000 
#
# Total GULP energy -247871.445425 kJ/mol
# GULP energy per Si atom -12393.572271 kJ/mol
# Density = 2.206510 g / cm^3
# Si number density = 22.115437 Si / 1000 Ang^3
#
#
#
# Elastic Constant Matrix: (Units=GPa)
#
#
# Indices 1 2 3 4 5 6 
#
# 1 86.9746 24.3540 16.1907 0.0000 0.0000 0.0000
# 2 24.3540 196.5844 41.7674 0.0000 0.0000 0.0000
# 3 16.1907 41.7674 96.2724 0.0000 0.0000 0.0000
# 4 0.0000 0.0000 0.0000 56.0741 0.0000 0.0000
# 5 0.0000 0.0000 0.0000 0.0000 28.7339 0.0000
# 6 0.0000 0.0000 0.0000 0.0000 0.0000 20.6059
#
#
#
# Elastic Compliance Matrix: (Units=1/GPa)
#
#
# Indices 1 2 3 4 5 6 
#
# 1 0.012111 -0.001176 -0.001527 0.000000 0.000000 0.000000
# 2 -0.001176 0.005718 -0.002283 0.000000 0.000000 0.000000
# 3 -0.001527 -0.002283 0.011634 0.000000 0.000000 0.000000
# 4 0.000000 0.000000 0.000000 0.017834 0.000000 0.000000
# 5 0.000000 0.000000 0.000000 0.000000 0.034802 0.000000
# 6 0.000000 0.000000 0.000000 0.000000 0.000000 0.048530
#
#
# Mechanical properties :
#
#
# Convention : Reuss Voigt Hill
#
# Bulk Modulus (GPa) = 51.30258 60.49508 55.89883
# Shear Modulus (GPa) = 33.99129 40.91740 37.45434
#
# Velocity S-wave (km/s) = 3.92470 4.30603 4.11978
# Velocity P-wave (km/s) = 6.61708 7.22054 6.92538
#
# Compressibility (1/GPa) = 0.01949220
#
# Stress axis : x y z
#
# Youngs Moduli (GPa) = 82.56887 174.89921 85.95278
#
# Poissons Ratio (x) = 0.20569 0.13121
# Poissons Ratio (y) = 0.09711 0.19621
# Poissons Ratio (z) = 0.12605 0.39925
#
# Static dielectric constant tensor:
#      x y z
#    x 3.972580 0.000000 0.000000 
#    y 0.000000 4.225030 0.000000 
#    z 0.000000 0.000000 3.955860 
# 
# 
# High freq. dielectric constant tensor:
#      x y z
#    x 1.866330 0.000000 0.000000 
#    y 0.000000 1.896120 0.000000 
#    z 0.000000 0.000000 1.866470 
# 
# From -- ./inp_files/15489.got.cif
#   From: 2010.03.12/outbox.cif.g09.slc.cpg/sg39_8_cif.got.tgz:15489.got - 2010.04.14 02:53:20.
