data_PCOD8182914
_publ_section_title
;
Structure prediction by ZEFSAII (Michael W. Deem and Ramdas Pophale) SiO2 
 PCOD8182914
Probable space group: A M A 2
;
_chemical_formula_sum "Si O2"
_cell_formula_units_Z 64
_cell_length_a 9.089707
_cell_length_b 23.159029
_cell_length_c 19.093861
_cell_angle_alpha 90.000000
_cell_angle_beta 90.000000
_cell_angle_gamma 90.000000
_cell_volume 4019.425538
_symmetry_space_group_name_H-M "A M A 2"
_symmetry_group_IT_number 40
_symmetry_cell_setting 'orthorhombic'
loop_
_space_group_symop_operation_xyz
x,y,z
-x,-y,z
1/2-x,y,z
1/2+x,-y,z
x,1/2+y,1/2+z
-x,1/2-y,1/2+z
1/2-x,1/2+y,1/2+z
1/2+x,1/2-y,1/2+z
loop_
_atom_site_type_symbol
_atom_site_label
_atom_site_fract_x
_atom_site_fract_y
_atom_site_fract_z
Si Si1 0.423057 0.438828 0.464500
Si Si2 0.924805 0.667787 0.829925
Si Si3 0.077979 0.940484 0.246734
Si Si4 0.421707 0.652394 0.378981
Si Si5 0.075657 0.765330 0.458586
Si Si6 0.579309 0.125336 0.107224
Si Si7 0.424343 0.246357 0.112556
Si Si8 0.079215 0.721491 0.244524
O O1 0.500000 0.500000 0.468618
O O2 0.250000 0.447784 0.456374
O O3 0.485015 0.404337 0.397459
O O4 0.464533 0.403681 0.534231
O O5 0.750000 0.666779 0.827537
O O6 0.985692 0.606879 0.801808
O O7 0.981111 0.681850 0.909173
O O8 0.977989 0.719154 0.779218
O O9 0.250000 0.949594 0.257715
O O10 0.042656 0.920439 0.167977
O O11 0.000000 0.000000 0.263795
O O12 0.250000 0.640219 0.392750
O O13 0.481129 0.704470 0.427789
O O14 0.449138 0.668406 0.297570
O O15 0.250000 0.763517 0.453926
O O16 0.021815 0.773098 0.538209
O O17 0.750000 0.143441 0.109658
O O18 0.483104 0.181693 0.120287
O O19 0.250000 0.244922 0.117348
O O20 0.488216 0.287756 0.173084
O O21 0.250000 0.725911 0.225156
#
# Coordination Sequence:
#
# PCOD8182914 Si02
#       8
#     8   8   8   8   8   8   8   8
#     4  11  22  33  48  68  96 130 164 202 235 279
#     4   8  14  28  47  63  85 121 157 186 221 277
#     4  10  19  31  47  64  88 123 160 193 222 264
#     4   9  17  32  51  68  90 123 160 198 237 282
#     4   8  15  27  45  68  90 117 153 189 232 280
#     4  10  20  33  45  63  94 131 164 189 223 275
#     4  11  19  27  46  73  98 121 151 198 236 274
#     4   9  17  31  50  67  91 125 158 189 233 292
#
# _framework density 15.922673
#
# number of rings (size 3 to 8) (size 9 to 14) (size 15 to 20)
#    0.000    2.500    2.500    2.625    0.000    1.500 
#    0.000    0.000    0.000    1.500    0.000    0.875 
#    0.000    4.000    0.000    0.000    0.000    0.000 
#
# Total GULP energy -396682.520373 kJ/mol
# GULP energy per Si atom -12396.328762 kJ/mol
# Density = 1.588643 g / cm^3
# Si number density = 15.922673 Si / 1000 Ang^3
#
#
#
# Elastic Constant Matrix: (Units=GPa)
#
#
# Indices 1 2 3 4 5 6 
#
# 1 47.0623 27.8260 37.9530 0.0000 0.0000 0.0000
# 2 27.8260 55.9106 39.4365 0.0000 0.0000 0.0000
# 3 37.9530 39.4365 113.0821 0.0000 0.0000 0.0000
# 4 0.0000 0.0000 0.0000 22.4961 0.0000 0.0000
# 5 0.0000 0.0000 0.0000 0.0000 20.4366 0.0000
# 6 0.0000 0.0000 0.0000 0.0000 0.0000 23.1549
#
#
#
# Elastic Compliance Matrix: (Units=1/GPa)
#
#
# Indices 1 2 3 4 5 6 
#
# 1 0.034159 -0.011822 -0.007342 0.000000 0.000000 0.000000
# 2 -0.011822 0.027812 -0.005731 0.000000 0.000000 0.000000
# 3 -0.007342 -0.005731 0.013306 0.000000 0.000000 0.000000
# 4 0.000000 0.000000 0.000000 0.044452 0.000000 0.000000
# 5 0.000000 0.000000 0.000000 0.000000 0.048932 0.000000
# 6 0.000000 0.000000 0.000000 0.000000 0.000000 0.043187
#
#
# Mechanical properties :
#
#
# Convention : Reuss Voigt Hill
#
# Bulk Modulus (GPa) = 39.23633 47.38733 43.31183
# Shear Modulus (GPa) = 18.50929 20.60680 19.55805
#
# Velocity S-wave (km/s) = 3.41317 3.60137 3.50853
# Velocity P-wave (km/s) = 6.34258 6.86431 6.60859
#
# Compressibility (1/GPa) = 0.02548658
#
# Stress axis : x y z
#
# Youngs Moduli (GPa) = 29.27489 35.95562 75.15403
#
# Poissons Ratio (x) = 0.42507 0.55176
# Poissons Ratio (y) = 0.34609 0.43074
# Poissons Ratio (z) = 0.21493 0.20608
#
# Static dielectric constant tensor:
#      x y z
#    x 2.809450 0.000000 0.000000 
#    y 0.000000 2.914970 0.000000 
#    z 0.000000 0.000000 3.339490 
# 
# 
# High freq. dielectric constant tensor:
#      x y z
#    x 1.593210 0.000000 0.000000 
#    y 0.000000 1.584960 0.000000 
#    z 0.000000 0.000000 1.613960 
# 
# From -- ./inp_files/19702.got.cif
#   From: 2010.03.12/outbox.cif.g09.slc.cpg/sg40_10_cif.got.tgz:19702.got - 2010.04.14 01:38:03.
