data_PCOD8182032
_publ_section_title
;
Structure prediction by ZEFSAII (Michael W. Deem and Ramdas Pophale) SiO2 
 PCOD8182032
Probable space group: A B M 2
;
_chemical_formula_sum "Si O2"
_cell_formula_units_Z 40
_cell_length_a 5.684516
_cell_length_b 14.475057
_cell_length_c 20.358825
_cell_angle_alpha 90.000000
_cell_angle_beta 90.000000
_cell_angle_gamma 90.000000
_cell_volume 1675.199309
_symmetry_space_group_name_H-M "A B M 2"
_symmetry_group_IT_number 39
_symmetry_cell_setting 'orthorhombic'
loop_
_space_group_symop_operation_xyz
x,y,z
-x,-y,z
-x,1/2+y,z
x,1/2-y,z
x,1/2+y,1/2+z
-x,1/2-y,1/2+z
-x,y,1/2+z
x,-y,1/2+z
loop_
_atom_site_type_symbol
_atom_site_label
_atom_site_fract_x
_atom_site_fract_y
_atom_site_fract_z
Si Si1 0.171036 0.750000 0.168061
Si Si2 0.808723 0.250000 0.401455
Si Si3 0.171038 0.750000 0.790672
Si Si4 0.808718 0.250000 0.557277
Si Si5 0.443605 0.104849 0.605140
Si Si6 0.556391 0.104850 0.853592
Si Si7 0.754604 0.552477 0.479365
O O1 0.336797 0.658626 0.168370
O O2 0.000002 0.750000 0.229367
O O3 0.044866 0.750000 0.098422
O O4 0.862748 0.250000 0.479366
O O5 0.672574 0.343372 0.381162
O O6 0.044874 0.250000 0.360311
O O7 0.336800 0.841373 0.790362
O O8 0.672568 0.156628 0.577568
O O9 0.248356 0.110205 0.546709
O O10 0.500000 0.000000 0.626629
O O11 0.500000 0.000000 0.832103
O O12 0.751639 0.110209 0.912023
O O13 0.500000 0.500000 0.479365
O O14 0.000000 0.500000 0.479364
#
# Coordination Sequence:
#
# PCOD8182032 Si02
#       7
#     4   4   4   4   8   8   8
#     4  11  28  46  69 101 151 192 247 315 388 475
#     4  11  24  43  72 107 140 184 248 314 394 447
#     4  11  28  46  69 101 151 192 247 315 388 475
#     4  11  24  43  72 107 140 184 248 314 394 447
#     4  10  24  43  71 104 144 191 249 312 385 454
#     4  10  24  43  71 104 144 191 249 312 385 454
#     4  10  22  37  70 113 149 182 253 319 376 451
#
# _framework density 23.877755000000001
#
# number of rings (size 3 to 8) (size 9 to 14) (size 15 to 20)
#    0.000    1.600    2.000    0.000   14.000    3.200 
#    0.000    6.000    0.000    0.000    0.000    0.000 
#    0.000    0.000    0.000    0.000    0.000    0.000 
#
# Total GULP energy -247785.239769 kJ/mol
# GULP energy per Si atom -12389.261988 kJ/mol
# Density = 2.382341 g / cm^3
# Si number density = 23.877755 Si / 1000 Ang^3
#
#
#
# Elastic Constant Matrix: (Units=GPa)
#
#
# Indices 1 2 3 4 5 6 
#
# 1 89.0082 39.8266 35.7605 0.0000 0.0000 0.0000
# 2 39.8266 191.0847 55.3933 0.0000 0.0000 0.0000
# 3 35.7605 55.3933 108.5312 0.0000 0.0000 0.0000
# 4 0.0000 0.0000 0.0000 17.8014 0.0000 0.0000
# 5 0.0000 0.0000 0.0000 0.0000 52.0694 0.0000
# 6 0.0000 0.0000 0.0000 0.0000 0.0000 38.1230
#
#
#
# Elastic Compliance Matrix: (Units=1/GPa)
#
#
# Indices 1 2 3 4 5 6 
#
# 1 0.013447 -0.001782 -0.003521 0.000000 0.000000 0.000000
# 2 -0.001782 0.006378 -0.002668 0.000000 0.000000 0.000000
# 3 -0.003521 -0.002668 0.011736 0.000000 0.000000 0.000000
# 4 0.000000 0.000000 0.000000 0.056175 0.000000 0.000000
# 5 0.000000 0.000000 0.000000 0.000000 0.019205 0.000000
# 6 0.000000 0.000000 0.000000 0.000000 0.000000 0.026231
#
#
# Mechanical properties :
#
#
# Convention : Reuss Voigt Hill
#
# Bulk Modulus (GPa) = 64.02712 72.28723 68.15717
# Shear Modulus (GPa) = 32.39992 38.77500 35.58746
#
# Velocity S-wave (km/s) = 3.68762 4.03413 3.86476
# Velocity P-wave (km/s) = 6.70851 7.21378 6.96573
#
# Compressibility (1/GPa) = 0.01561838
#
# Stress axis : x y z
#
# Youngs Moduli (GPa) = 74.36637 156.78498 85.20782
#
# Poissons Ratio (x) = 0.27937 0.30004
# Poissons Ratio (y) = 0.13251 0.22735
# Poissons Ratio (z) = 0.26186 0.41834
#
# Static dielectric constant tensor:
#      x y z
#    x 4.259940 0.000000 0.000000 
#    y 0.000000 4.872180 0.000000 
#    z 0.000000 0.000000 4.308340 
# 
# 
# High freq. dielectric constant tensor:
#      x y z
#    x 1.959550 0.000000 0.000000 
#    y 0.000000 1.957270 0.000000 
#    z 0.000000 0.000000 1.928670 
# 
# From -- ./inp_files/15223.got.cif
#   From: 2010.03.12/outbox.cif.g09.slc.cpg/sg39_8_cif.got.tgz:15223.got - 2010.04.14 02:53:20.
