data_PCOD8182195
_publ_section_title
;
Structure prediction by ZEFSAII (Michael W. Deem and Ramdas Pophale) SiO2 
 PCOD8182195
Probable space group: A B M 2
;
_chemical_formula_sum "Si O2"
_cell_formula_units_Z 36
_cell_length_a 9.169696
_cell_length_b 19.845712
_cell_length_c 8.515922
_cell_angle_alpha 90.000000
_cell_angle_beta 90.000000
_cell_angle_gamma 90.000000
_cell_volume 1549.720212
_symmetry_space_group_name_H-M "A B M 2"
_symmetry_group_IT_number 39
_symmetry_cell_setting 'orthorhombic'
loop_
_space_group_symop_operation_xyz
x,y,z
-x,-y,z
-x,1/2+y,z
x,1/2-y,z
x,1/2+y,1/2+z
-x,1/2-y,1/2+z
-x,y,1/2+z
x,-y,1/2+z
loop_
_atom_site_type_symbol
_atom_site_label
_atom_site_fract_x
_atom_site_fract_y
_atom_site_fract_z
Si Si1 0.500000 0.000000 0.528930
Si Si2 0.196313 0.130936 0.740378
Si Si3 0.618998 0.750000 0.869409
Si Si4 0.710012 0.977090 0.278661
Si Si5 0.891071 0.363844 0.878706
Si Si6 0.304662 0.750000 0.736820
O O1 0.393651 0.045525 0.423549
O O2 0.611131 0.045925 0.630794
O O3 0.320906 0.183859 0.781967
O O4 0.143566 0.139952 0.562186
O O5 0.062051 0.148449 0.855662
O O6 0.258914 0.056525 0.771127
O O7 0.445867 0.750000 0.847376
O O8 0.655555 0.750000 0.053507
O O9 0.859878 0.937298 0.300776
O O10 0.792840 0.314087 0.778018
#
# Coordination Sequence:
#
# PCOD8182195 Si02
#       6
#     4   8   4   8   8   4
#     4  10  24  42  66 108 144 178 226 292 344 406
#     4  12  27  47  72 103 143 185 232 286 348 414
#     4  12  29  48  75 102 140 182 234 286 347 414
#     4  11  25  42  74 102 144 178 234 282 352 406
#     4  12  27  47  72 103 143 185 232 286 348 414
#     4  12  29  48  75 102 140 182 234 286 347 414
#
# _framework density 23.229998999999999
#
# number of rings (size 3 to 8) (size 9 to 14) (size 15 to 20)
#    0.000    0.444    2.222    4.667   12.444    1.778 
#    0.000    0.000    0.000    0.000    0.000    0.000 
#    0.000    0.000    0.000    0.000    0.000    0.000 
#
# Total GULP energy -223143.987180 kJ/mol
# GULP energy per Si atom -12396.888177 kJ/mol
# Density = 2.317713 g / cm^3
# Si number density = 23.229999 Si / 1000 Ang^3
#
#
#
# Elastic Constant Matrix: (Units=GPa)
#
#
# Indices 1 2 3 4 5 6 
#
# 1 117.8672 32.4100 17.7459 0.0000 0.0000 0.0000
# 2 32.4100 130.4192 20.0027 0.0000 0.0000 0.0000
# 3 17.7459 20.0027 140.9862 0.0000 0.0000 0.0000
# 4 0.0000 0.0000 0.0000 23.6883 0.0000 0.0000
# 5 0.0000 0.0000 0.0000 0.0000 24.0036 0.0000
# 6 0.0000 0.0000 0.0000 0.0000 0.0000 86.0180
#
#
#
# Elastic Compliance Matrix: (Units=1/GPa)
#
#
# Indices 1 2 3 4 5 6 
#
# 1 0.009206 -0.002157 -0.000853 0.000000 0.000000 0.000000
# 2 -0.002157 0.008343 -0.000912 0.000000 0.000000 0.000000
# 3 -0.000853 -0.000912 0.007330 0.000000 0.000000 0.000000
# 4 0.000000 0.000000 0.000000 0.042215 0.000000 0.000000
# 5 0.000000 0.000000 0.000000 0.000000 0.041660 0.000000
# 6 0.000000 0.000000 0.000000 0.000000 0.000000 0.011625
#
#
# Mechanical properties :
#
#
# Convention : Reuss Voigt Hill
#
# Bulk Modulus (GPa) = 58.70241 58.84331 58.77286
# Shear Modulus (GPa) = 37.34090 48.01625 42.67858
#
# Velocity S-wave (km/s) = 4.01364 4.55135 4.29093
# Velocity P-wave (km/s) = 6.84135 7.28049 7.06433
#
# Compressibility (1/GPa) = 0.01703507
#
# Stress axis : x y z
#
# Youngs Moduli (GPa) = 108.62974 119.85386 136.43212
#
# Poissons Ratio (x) = 0.25851 0.11633
# Poissons Ratio (y) = 0.23430 0.12446
# Poissons Ratio (z) = 0.09263 0.10934
#
# Static dielectric constant tensor:
#      x y z
#    x 4.525690 0.000000 0.000000 
#    y 0.000000 4.125410 0.000000 
#    z 0.000000 0.000000 4.564360 
# 
# 
# High freq. dielectric constant tensor:
#      x y z
#    x 1.937890 0.000000 0.000000 
#    y 0.000000 1.904520 0.000000 
#    z 0.000000 0.000000 1.942510 
# 
# From -- ./inp_files/2051.got.cif
#   From: 2010.03.12/outbox.cif.g09.slc.cpg/sg39_2_cif.got.tgz:2051.got - 2010.04.14 02:53:20.
