data_PCOD8182455
_publ_section_title
;
Structure prediction by ZEFSAII (Michael W. Deem and Ramdas Pophale) SiO2 
 PCOD8182455
Probable space group: A M A 2
;
_chemical_formula_sum "Si O2"
_cell_formula_units_Z 56
_cell_length_a 8.986897
_cell_length_b 18.389094
_cell_length_c 21.127952
_cell_angle_alpha 90.000000
_cell_angle_beta 90.000000
_cell_angle_gamma 90.000000
_cell_volume 3491.624230
_symmetry_space_group_name_H-M "A M A 2"
_symmetry_group_IT_number 40
_symmetry_cell_setting 'orthorhombic'
loop_
_space_group_symop_operation_xyz
x,y,z
-x,-y,z
1/2-x,y,z
1/2+x,-y,z
x,1/2+y,1/2+z
-x,1/2-y,1/2+z
1/2-x,1/2+y,1/2+z
1/2+x,1/2-y,1/2+z
loop_
_atom_site_type_symbol
_atom_site_label
_atom_site_fract_x
_atom_site_fract_y
_atom_site_fract_z
Si Si1 0.419538 0.719841 0.360780
Si Si2 0.078238 0.352817 0.933710
Si Si3 0.420560 0.573221 0.306511
Si Si4 0.574335 0.576252 0.803040
Si Si5 0.423086 0.349885 0.190190
Si Si6 0.573553 0.577673 0.060538
Si Si7 0.579152 0.294287 0.750478
O O1 0.250000 0.738276 0.337038
O O2 0.446484 0.764894 0.426133
O O3 0.438174 0.632387 0.363964
O O4 0.542710 0.748295 0.312851
O O5 0.250000 0.371647 0.939090
O O6 0.016670 0.394634 0.871448
O O7 0.004615 0.382431 0.998221
O O8 0.500000 0.500000 0.328977
O O9 0.250000 0.554469 0.293870
O O10 0.484471 0.604269 0.241126
O O11 0.500000 0.500000 0.787821
O O12 0.750000 0.567982 0.800313
O O13 0.522262 0.633342 0.748684
O O14 0.250000 0.366039 0.203383
O O15 0.472802 0.374098 0.120578
O O16 0.454042 0.262632 0.193519
O O17 0.500000 0.500000 0.067457
O O18 0.750000 0.568393 0.056715
O O19 0.750000 0.319127 0.751277
#
# Coordination Sequence:
#
# PCOD8182455 Si02
#       7
#     8   8   8   8   8   8   8
#     4   8  15  28  43  59  79 107 140 172 208 251
#     4   8  15  28  44  60  82 110 141 172 202 239
#     4  10  18  27  42  62  85 110 137 171 212 251
#     4  10  18  28  43  64  87 111 138 171 210 250
#     4   9  18  30  43  60  84 113 144 172 201 240
#     4  10  19  30  43  61  85 113 142 171 199 235
#     4   9  16  27  42  60  82 108 138 173 209 246
#
# _framework density 16.038381000000001
#
# number of rings (size 3 to 8) (size 9 to 14) (size 15 to 20)
#    0.000    2.857    0.000    3.000    0.000    2.857 
#    0.000    2.857    0.000    0.000    0.000    1.000 
#    0.000    2.286    0.000    0.000    0.000    1.143 
#
# Total GULP energy -346895.440529 kJ/mol
# GULP energy per Si atom -12389.122876 kJ/mol
# Density = 1.600188 g / cm^3
# Si number density = 16.038381 Si / 1000 Ang^3
#
#
#
# Elastic Constant Matrix: (Units=GPa)
#
#
# Indices 1 2 3 4 5 6 
#
# 1 55.0682 48.4761 24.4250 0.0000 0.0000 0.0000
# 2 48.4761 150.1880 58.7842 0.0000 0.0000 0.0000
# 3 24.4250 58.7842 69.8038 0.0000 0.0000 0.0000
# 4 0.0000 0.0000 0.0000 26.6448 0.0000 0.0000
# 5 0.0000 0.0000 0.0000 0.0000 12.4293 0.0000
# 6 0.0000 0.0000 0.0000 0.0000 0.0000 27.5149
#
#
#
# Elastic Compliance Matrix: (Units=1/GPa)
#
#
# Indices 1 2 3 4 5 6 
#
# 1 0.025782 -0.007146 -0.003003 0.000000 0.000000 0.000000
# 2 -0.007146 0.011913 -0.007532 0.000000 0.000000 0.000000
# 3 -0.003003 -0.007532 0.021719 0.000000 0.000000 0.000000
# 4 0.000000 0.000000 0.000000 0.037531 0.000000 0.000000
# 5 0.000000 0.000000 0.000000 0.000000 0.080455 0.000000
# 6 0.000000 0.000000 0.000000 0.000000 0.000000 0.036344
#
#
# Mechanical properties :
#
#
# Convention : Reuss Voigt Hill
#
# Bulk Modulus (GPa) = 41.57660 59.82560 50.70110
# Shear Modulus (GPa) = 19.44590 22.87613 21.16102
#
# Velocity S-wave (km/s) = 3.48582 3.78078 3.63629
# Velocity P-wave (km/s) = 6.49467 7.51276 7.02219
#
# Compressibility (1/GPa) = 0.02405199
#
# Stress axis : x y z
#
# Youngs Moduli (GPa) = 38.78655 83.94325 46.04165
#
# Poissons Ratio (x) = 0.59987 0.13828
# Poissons Ratio (y) = 0.27717 0.34677
# Poissons Ratio (z) = 0.11649 0.63223
#
# Static dielectric constant tensor:
#      x y z
#    x 2.997520 0.000000 0.000000 
#    y 0.000000 3.319210 0.000000 
#    z 0.000000 0.000000 2.972580 
# 
# 
# High freq. dielectric constant tensor:
#      x y z
#    x 1.613980 0.000000 0.000000 
#    y 0.000000 1.626070 0.000000 
#    z 0.000000 0.000000 1.569630 
# 
# From -- ./inp_files/22292.got.cif
#   From: 2010.03.12/outbox.cif.g09.slc.cpg/sg40_12_cif.got.tgz:22292.got - 2010.04.14 01:38:03.
