data_PCOD8182675
_publ_section_title
;
Structure prediction by ZEFSAII (Michael W. Deem and Ramdas Pophale) SiO2 
 PCOD8182675
Probable space group: A M A 2
;
_chemical_formula_sum "Si O2"
_cell_formula_units_Z 60
_cell_length_a 18.200569
_cell_length_b 16.281174
_cell_length_c 10.729189
_cell_angle_alpha 90.000000
_cell_angle_beta 90.000000
_cell_angle_gamma 90.000000
_cell_volume 3179.344427
_symmetry_space_group_name_H-M "A M A 2"
_symmetry_group_IT_number 40
_symmetry_cell_setting 'orthorhombic'
loop_
_space_group_symop_operation_xyz
x,y,z
-x,-y,z
1/2-x,y,z
1/2+x,-y,z
x,1/2+y,1/2+z
-x,1/2-y,1/2+z
1/2-x,1/2+y,1/2+z
1/2+x,1/2-y,1/2+z
loop_
_atom_site_type_symbol
_atom_site_label
_atom_site_fract_x
_atom_site_fract_y
_atom_site_fract_z
Si Si1 0.026656 0.204208 0.304840
Si Si2 0.666854 0.287766 0.496435
Si Si3 0.960516 0.370557 0.349204
Si Si4 0.030469 0.414210 0.604757
Si Si5 0.084719 0.873750 0.484602
Si Si6 0.829522 0.862927 0.258569
Si Si7 0.500000 0.500000 0.157469
Si Si8 0.834809 0.052107 0.253043
O O1 0.113354 0.194858 0.331192
O O2 0.006853 0.298469 0.284851
O O3 0.009661 0.159754 0.174666
O O4 0.987918 0.162686 0.422000
O O5 0.750000 0.271991 0.445104
O O6 0.618391 0.334117 0.390840
O O7 0.629238 0.202655 0.545315
O O8 0.670446 0.349007 0.611126
O O9 0.011632 0.405589 0.459858
O O10 0.950272 0.440836 0.245001
O O11 0.117743 0.413202 0.635729
O O12 0.000000 0.500000 0.657977
O O13 0.140147 0.905889 0.380179
O O14 0.058401 0.945965 0.577758
O O15 0.750000 0.842607 0.316284
O O16 0.850053 0.957111 0.276222
O O17 0.750000 0.071824 0.223946
#
# Coordination Sequence:
#
# PCOD8182675 Si02
#       8
#     8   8   8   8   8   8   4   8
#     4  10  20  36  58  82 111 153 200 239 298 350
#     4  10  20  38  60  83 114 158 198 239 298 364
#     4  11  23  36  58  87 123 154 197 253 297 356
#     4  11  19  37  60  85 114 152 200 246 292 356
#     4  10  22  37  60  83 119 155 199 246 295 368
#     4  10  18  31  56  83 108 138 189 242 286 342
#     4  12  24  36  56  92 122 158 202 250 306 354
#     4  10  20  35  60  89 112 147 195 250 296 350
#
# _framework density 18.871815000000002
#
# number of rings (size 3 to 8) (size 9 to 14) (size 15 to 20)
#    0.000    1.600    3.333    2.000    3.733    0.000 
#    0.000    2.000    0.000    3.200    0.000    0.000 
#    0.000    0.000    0.000    0.000    0.000    0.000 
#
# Total GULP energy -371876.331952 kJ/mol
# GULP energy per Si atom -12395.877732 kJ/mol
# Density = 1.882886 g / cm^3
# Si number density = 18.871815 Si / 1000 Ang^3
#
#
#
# Elastic Constant Matrix: (Units=GPa)
#
#
# Indices 1 2 3 4 5 6 
#
# 1 127.3448 37.7944 25.3780 0.0000 0.0000 0.0000
# 2 37.7944 94.1198 23.3307 0.0000 0.0000 0.0000
# 3 25.3780 23.3307 58.9600 0.0000 0.0000 0.0000
# 4 0.0000 0.0000 0.0000 29.2177 0.0000 0.0000
# 5 0.0000 0.0000 0.0000 0.0000 18.8966 0.0000
# 6 0.0000 0.0000 0.0000 0.0000 0.0000 26.6858
#
#
#
# Elastic Compliance Matrix: (Units=1/GPa)
#
#
# Indices 1 2 3 4 5 6 
#
# 1 0.009315 -0.003045 -0.002805 0.000000 0.000000 0.000000
# 2 -0.003045 0.012776 -0.003745 0.000000 0.000000 0.000000
# 3 -0.002805 -0.003745 0.019650 0.000000 0.000000 0.000000
# 4 0.000000 0.000000 0.000000 0.034226 0.000000 0.000000
# 5 0.000000 0.000000 0.000000 0.000000 0.052920 0.000000
# 6 0.000000 0.000000 0.000000 0.000000 0.000000 0.037473
#
#
# Mechanical properties :
#
#
# Convention : Reuss Voigt Hill
#
# Bulk Modulus (GPa) = 44.34258 50.38119 47.36188
# Shear Modulus (GPa) = 25.89788 27.88812 26.89300
#
# Velocity S-wave (km/s) = 3.70848 3.84834 3.77906
# Velocity P-wave (km/s) = 6.47185 6.81915 6.64777
#
# Compressibility (1/GPa) = 0.02255169
#
# Stress axis : x y z
#
# Youngs Moduli (GPa) = 107.34846 78.27226 50.89169
#
# Poissons Ratio (x) = 0.23838 0.14273
# Poissons Ratio (y) = 0.32693 0.19057
# Poissons Ratio (z) = 0.30106 0.29310
#
# Static dielectric constant tensor:
#      x y z
#    x 3.765060 0.000000 0.000000 
#    y 0.000000 3.696790 0.000000 
#    z 0.000000 0.000000 3.221790 
# 
# 
# High freq. dielectric constant tensor:
#      x y z
#    x 1.736070 0.000000 0.000000 
#    y 0.000000 1.746850 0.000000 
#    z 0.000000 0.000000 1.708780 
# 
# From -- ./inp_files/13068.got.cif
#   From: 2010.03.12/outbox.cif.g09.slc.cpg/sg40_7_cif.got.tgz:13068.got - 2010.04.14 01:38:03.
