data_PCOD8182993
_publ_section_title
;
Structure prediction by ZEFSAII (Michael W. Deem and Ramdas Pophale) SiO2 
 PCOD8182993
Probable space group: A M A 2
;
_chemical_formula_sum "Si O2"
_cell_formula_units_Z 48
_cell_length_a 8.710193
_cell_length_b 13.756941
_cell_length_c 23.588995
_cell_angle_alpha 90.000000
_cell_angle_beta 90.000000
_cell_angle_gamma 90.000000
_cell_volume 2826.565743
_symmetry_space_group_name_H-M "A M A 2"
_symmetry_group_IT_number 40
_symmetry_cell_setting 'orthorhombic'
loop_
_space_group_symop_operation_xyz
x,y,z
-x,-y,z
1/2-x,y,z
1/2+x,-y,z
x,1/2+y,1/2+z
-x,1/2-y,1/2+z
1/2-x,1/2+y,1/2+z
1/2+x,1/2-y,1/2+z
loop_
_atom_site_type_symbol
_atom_site_label
_atom_site_fract_x
_atom_site_fract_y
_atom_site_fract_z
Si Si1 0.070369 0.395855 0.032630
Si Si2 0.431452 0.397068 0.364987
Si Si3 0.569266 0.105626 0.084114
Si Si4 0.571828 0.223008 0.973746
Si Si5 0.432000 0.604478 0.245417
Si Si6 0.568121 0.717432 0.143725
O O1 0.250000 0.407219 0.031673
O O2 0.014474 0.354266 0.093171
O O3 0.000000 0.500000 0.020724
O O4 0.020706 0.322384 0.982955
O O5 0.500000 0.500000 0.384088
O O6 0.250000 0.408415 0.357036
O O7 0.474268 0.318762 0.412687
O O8 0.506781 0.361662 0.306547
O O9 0.750000 0.103591 0.095090
O O10 0.489114 0.174253 0.130507
O O11 0.500000 0.000000 0.091888
O O12 0.528431 0.143533 0.021249
O O13 0.750000 0.248924 0.977229
O O14 0.500000 0.500000 0.228369
O O15 0.250000 0.596691 0.246434
O O16 0.485860 0.684246 0.200806
O O17 0.750000 0.716556 0.151810
#
# Coordination Sequence:
#
# PCOD8182993 Si02
#       6
#     8   8   8   8   8   8
#     4  10  20  32  50  73  99 129 162 200 243 289
#     4  10  19  32  50  73 100 131 163 200 242 287
#     4  10  19  32  50  74 102 132 164 201 242 289
#     4   9  19  33  50  72 100 131 164 200 241 286
#     4  11  21  33  50  73 100 131 164 202 245 292
#     4  10  20  34  51  73  99 130 165 203 245 291
#
# _framework density 16.981738
#
# number of rings (size 3 to 8) (size 9 to 14) (size 15 to 20)
#    0.000    2.000    0.000    5.500    0.000    5.333 
#    0.000    0.000    0.000    1.000    0.000    2.333 
#    0.000    0.000    0.000    0.000    0.000    0.000 
#
# Total GULP energy -297686.917864 kJ/mol
# GULP energy per Si atom -12403.621578 kJ/mol
# Density = 1.694309 g / cm^3
# Si number density = 16.981738 Si / 1000 Ang^3
#
#
#
# Elastic Constant Matrix: (Units=GPa)
#
#
# Indices 1 2 3 4 5 6 
#
# 1 93.5455 49.6841 50.7682 0.0000 0.0000 0.0000
# 2 49.6841 131.0964 68.8720 0.0000 0.0000 0.0000
# 3 50.7682 68.8720 106.4357 0.0000 0.0000 0.0000
# 4 0.0000 0.0000 0.0000 8.8571 0.0000 0.0000
# 5 0.0000 0.0000 0.0000 0.0000 24.2238 0.0000
# 6 0.0000 0.0000 0.0000 0.0000 0.0000 32.6032
#
#
#
# Elastic Compliance Matrix: (Units=1/GPa)
#
#
# Indices 1 2 3 4 5 6 
#
# 1 0.015139 -0.002945 -0.005315 0.000000 0.000000 0.000000
# 2 -0.002945 0.012129 -0.006444 0.000000 0.000000 0.000000
# 3 -0.005315 -0.006444 0.016100 0.000000 0.000000 0.000000
# 4 0.000000 0.000000 0.000000 0.112904 0.000000 0.000000
# 5 0.000000 0.000000 0.000000 0.000000 0.041282 0.000000
# 6 0.000000 0.000000 0.000000 0.000000 0.000000 0.030672
#
#
# Mechanical properties :
#
#
# Convention : Reuss Voigt Hill
#
# Bulk Modulus (GPa) = 71.63286 74.41404 73.02345
# Shear Modulus (GPa) = 19.06301 23.92037 21.49169
#
# Velocity S-wave (km/s) = 3.35410 3.75720 3.56135
# Velocity P-wave (km/s) = 7.56795 7.92068 7.74632
#
# Compressibility (1/GPa) = 0.01396007
#
# Stress axis : x y z
#
# Youngs Moduli (GPa) = 66.05519 82.44395 62.11023
#
# Poissons Ratio (x) = 0.24280 0.33014
# Poissons Ratio (y) = 0.19453 0.40023
# Poissons Ratio (z) = 0.35111 0.53126
#
# Static dielectric constant tensor:
#      x y z
#    x 3.317540 0.000000 0.000000 
#    y 0.000000 3.174140 0.000000 
#    z 0.000000 0.000000 3.184640 
# 
# 
# High freq. dielectric constant tensor:
#      x y z
#    x 1.672580 0.000000 0.000000 
#    y 0.000000 1.646690 0.000000 
#    z 0.000000 0.000000 1.645820 
# 
# From -- ./inp_files/21985.got.cif
#   From: 2010.03.12/outbox.cif.g09.slc.cpg/sg40_11_cif.got.tgz:21985.got - 2010.04.14 01:38:03.
