data_PCOD8182093
_publ_section_title
;
Structure prediction by ZEFSAII (Michael W. Deem and Ramdas Pophale) SiO2 
 PCOD8182093
Probable space group: A B M 2
;
_chemical_formula_sum "Si O2"
_cell_formula_units_Z 64
_cell_length_a 15.453253
_cell_length_b 23.693460
_cell_length_c 9.106883
_cell_angle_alpha 90.000000
_cell_angle_beta 90.000000
_cell_angle_gamma 90.000000
_cell_volume 3334.403538
_symmetry_space_group_name_H-M "A B M 2"
_symmetry_group_IT_number 39
_symmetry_cell_setting 'orthorhombic'
loop_
_space_group_symop_operation_xyz
x,y,z
-x,-y,z
-x,1/2+y,z
x,1/2-y,z
x,1/2+y,1/2+z
-x,1/2-y,1/2+z
-x,y,1/2+z
x,-y,1/2+z
loop_
_atom_site_type_symbol
_atom_site_label
_atom_site_fract_x
_atom_site_fract_y
_atom_site_fract_z
Si Si1 0.909671 0.683877 0.123520
Si Si2 0.411152 0.021783 0.418182
Si Si3 0.425467 0.851934 0.829741
Si Si4 0.084193 0.816021 0.282837
Si Si5 0.760574 0.621048 0.627657
Si Si6 0.415910 0.313588 0.638445
Si Si7 0.242727 0.618647 0.779450
Si Si8 0.703874 0.502060 0.675701
O O1 0.892980 0.750000 0.145917
O O2 0.829896 0.650841 0.191022
O O3 0.995336 0.664043 0.208181
O O4 0.919255 0.667742 0.953466
O O5 0.421561 0.088537 0.413684
O O6 0.388702 0.995306 0.260113
O O7 0.500000 0.000000 0.484919
O O8 0.326398 0.002633 0.507539
O O9 0.503628 0.844831 0.716717
O O10 0.333214 0.848405 0.744675
O O11 0.433905 0.808005 0.963733
O O12 0.098241 0.750000 0.259258
O O13 0.162039 0.846474 0.202818
O O14 0.671202 0.651886 0.670862
O O15 0.775986 0.619969 0.453035
O O16 0.761183 0.558223 0.697868
O O17 0.406906 0.250000 0.700332
O O18 0.244109 0.554038 0.721284
#
# Coordination Sequence:
#
# PCOD8182093 Si02
#       8
#     8   8   8   8   8   8   8   8
#     4  10  22  41  66  97 124 156 201 251 305 368
#     4  11  22  35  60  82 115 158 209 262 307 357
#     4  10  23  39  53  85 117 161 206 254 308 362
#     4  10  22  40  67  96 122 157 202 249 304 370
#     4  11  22  41  59  88 123 163 203 255 314 360
#     4  11  22  38  57  81 119 162 209 252 304 364
#     4  10  23  39  61  88 123 163 203 256 312 364
#     4  11  21  39  56  91 118 160 208 257 309 367
#
# _framework density 19.193836000000001
#
# number of rings (size 3 to 8) (size 9 to 14) (size 15 to 20)
#    0.000    1.500    3.750    2.625    5.250    5.000 
#    0.000    1.875    0.000    3.000    0.000    0.000 
#    0.000    0.000    0.000    0.000    0.000    0.000 
#
# Total GULP energy -396681.251616 kJ/mol
# GULP energy per Si atom -12396.289113 kJ/mol
# Density = 1.915015 g / cm^3
# Si number density = 19.193836 Si / 1000 Ang^3
#
#
#
# Elastic Constant Matrix: (Units=GPa)
#
#
# Indices 1 2 3 4 5 6 
#
# 1 168.8096 66.6880 77.1375 0.0000 0.0000 0.0000
# 2 66.6880 77.3997 66.4242 0.0000 0.0000 0.0000
# 3 77.1375 66.4242 93.1294 0.0000 0.0000 0.0000
# 4 0.0000 0.0000 0.0000 30.3129 0.0000 0.0000
# 5 0.0000 0.0000 0.0000 0.0000 41.5401 0.0000
# 6 0.0000 0.0000 0.0000 0.0000 0.0000 30.9776
#
#
#
# Elastic Compliance Matrix: (Units=1/GPa)
#
#
# Indices 1 2 3 4 5 6 
#
# 1 0.009962 -0.003872 -0.005489 0.000000 0.000000 0.000000
# 2 -0.003872 0.034813 -0.021623 0.000000 0.000000 0.000000
# 3 -0.005489 -0.021623 0.030707 0.000000 0.000000 0.000000
# 4 0.000000 0.000000 0.000000 0.032989 0.000000 0.000000
# 5 0.000000 0.000000 0.000000 0.000000 0.024073 0.000000
# 6 0.000000 0.000000 0.000000 0.000000 0.000000 0.032281
#
#
# Mechanical properties :
#
#
# Convention : Reuss Voigt Hill
#
# Bulk Modulus (GPa) = 74.00417 84.42644 79.21531
# Shear Modulus (GPa) = 21.61703 29.17208 25.39456
#
# Velocity S-wave (km/s) = 3.35960 3.90278 3.64133
# Velocity P-wave (km/s) = 7.32729 8.02438 7.68374
#
# Compressibility (1/GPa) = 0.01351275
#
# Stress axis : x y z
#
# Youngs Moduli (GPa) = 100.38181 28.72490 32.56588
#
# Poissons Ratio (x) = 0.11123 0.17877
# Poissons Ratio (y) = 0.38870 0.70417
# Poissons Ratio (z) = 0.55104 0.62112
#
# Static dielectric constant tensor:
#      x y z
#    x 4.041690 0.000000 0.000000 
#    y 0.000000 3.496370 0.000000 
#    z 0.000000 0.000000 3.588970 
# 
# 
# High freq. dielectric constant tensor:
#      x y z
#    x 1.741800 0.000000 0.000000 
#    y 0.000000 1.746840 0.000000 
#    z 0.000000 0.000000 1.755490 
# 
# From -- ./inp_files/3521.got.cif
#   From: 2010.03.12/outbox.cif.g09.slc.cpg/sg39_2_cif.got.tgz:3521.got - 2010.04.14 02:53:20.
