data_PCOD8182279
_publ_section_title
;
Structure prediction by ZEFSAII (Michael W. Deem and Ramdas Pophale) SiO2 
 PCOD8182279
Probable space group: A B M 2
;
_chemical_formula_sum "Si O2"
_cell_formula_units_Z 48
_cell_length_a 10.881979
_cell_length_b 25.032495
_cell_length_c 8.843288
_cell_angle_alpha 90.000000
_cell_angle_beta 90.000000
_cell_angle_gamma 90.000000
_cell_volume 2408.938932
_symmetry_space_group_name_H-M "A B M 2"
_symmetry_group_IT_number 39
_symmetry_cell_setting 'orthorhombic'
loop_
_space_group_symop_operation_xyz
x,y,z
-x,-y,z
-x,1/2+y,z
x,1/2-y,z
x,1/2+y,1/2+z
-x,1/2-y,1/2+z
-x,y,1/2+z
x,-y,1/2+z
loop_
_atom_site_type_symbol
_atom_site_label
_atom_site_fract_x
_atom_site_fract_y
_atom_site_fract_z
Si Si1 0.644815 0.044185 0.800270
Si Si2 0.654052 0.187584 0.564823
Si Si3 0.296980 0.945769 0.134608
Si Si4 0.052458 0.058577 0.814909
Si Si5 0.154947 0.603946 0.623795
Si Si6 0.459097 0.634936 0.270808
O O1 0.732192 0.066758 0.669859
O O2 0.530763 0.082906 0.831151
O O3 0.614504 0.985541 0.733062
O O4 0.712388 0.037196 0.960345
O O5 0.673713 0.250000 0.547606
O O6 0.787286 0.163374 0.610822
O O7 0.609815 0.163335 0.407075
O O8 0.550720 0.176459 0.691329
O O9 0.157929 0.947787 0.190805
O O10 0.355411 0.886525 0.153600
O O11 0.950792 0.099779 0.750133
O O12 0.104015 0.084735 0.964829
O O13 0.000000 0.000000 0.849572
#
# Coordination Sequence:
#
# PCOD8182279 Si02
#       6
#     8   8   8   8   8   8
#     4  11  24  37  60  96 136 167 212 251 312 391
#     4  11  24  46  69  93 122 165 221 275 330 376
#     4  12  23  38  61  95 133 175 205 249 314 387
#     4  12  23  38  63  93 133 172 211 247 311 381
#     4  11  24  41  64  95 126 173 214 265 309 376
#     4  11  23  41  67  94 128 166 208 269 326 383
#
# _framework density 19.925787
#
# number of rings (size 3 to 8) (size 9 to 14) (size 15 to 20)
#    0.000    0.667    5.000    3.500    2.333    1.333 
#    0.000    0.833    0.000    0.000    0.000    0.000 
#    0.000    0.000    0.000    0.000    0.000    0.000 
#
# Total GULP energy -297595.441948 kJ/mol
# GULP energy per Si atom -12399.810081 kJ/mol
# Density = 1.988043 g / cm^3
# Si number density = 19.925787 Si / 1000 Ang^3
#
#
#
# Elastic Constant Matrix: (Units=GPa)
#
#
# Indices 1 2 3 4 5 6 
#
# 1 76.9721 64.7376 26.9624 0.0000 0.0000 0.0000
# 2 64.7376 127.6133 41.5317 0.0000 0.0000 0.0000
# 3 26.9624 41.5317 102.0597 0.0000 0.0000 0.0000
# 4 0.0000 0.0000 0.0000 18.9644 0.0000 0.0000
# 5 0.0000 0.0000 0.0000 0.0000 24.5063 0.0000
# 6 0.0000 0.0000 0.0000 0.0000 0.0000 25.7075
#
#
#
# Elastic Compliance Matrix: (Units=1/GPa)
#
#
# Indices 1 2 3 4 5 6 
#
# 1 0.022863 -0.011103 -0.001522 0.000000 0.000000 0.000000
# 2 -0.011103 0.014424 -0.002937 0.000000 0.000000 0.000000
# 3 -0.001522 -0.002937 0.011395 0.000000 0.000000 0.000000
# 4 0.000000 0.000000 0.000000 0.052730 0.000000 0.000000
# 5 0.000000 0.000000 0.000000 0.000000 0.040806 0.000000
# 6 0.000000 0.000000 0.000000 0.000000 0.000000 0.038899
#
#
# Mechanical properties :
#
#
# Convention : Reuss Voigt Hill
#
# Bulk Modulus (GPa) = 56.94814 63.67873 60.31344
# Shear Modulus (GPa) = 22.92589 25.39654 24.16122
#
# Velocity S-wave (km/s) = 3.39568 3.57397 3.48596
# Velocity P-wave (km/s) = 6.63448 7.00416 6.82183
#
# Compressibility (1/GPa) = 0.01755983
#
# Stress axis : x y z
#
# Youngs Moduli (GPa) = 43.73867 69.32697 87.75620
#
# Poissons Ratio (x) = 0.76974 0.13355
# Poissons Ratio (y) = 0.48563 0.25770
# Poissons Ratio (z) = 0.06656 0.20358
#
# Static dielectric constant tensor:
#      x y z
#    x 3.837420 0.000000 0.000000 
#    y 0.000000 3.582980 0.000000 
#    z 0.000000 0.000000 3.640600 
# 
# 
# High freq. dielectric constant tensor:
#      x y z
#    x 1.788680 0.000000 0.000000 
#    y 0.000000 1.749200 0.000000 
#    z 0.000000 0.000000 1.791330 
# 
# From -- ./inp_files/2690.got.cif
#   From: 2010.03.12/outbox.cif.g09.slc.cpg/sg39_2_cif.got.tgz:2690.got - 2010.04.14 02:53:20.
