data_PCOD8182113
_publ_section_title
;
Structure prediction by ZEFSAII (Michael W. Deem and Ramdas Pophale) SiO2 
 PCOD8182113
Probable space group: A B M 2
;
_chemical_formula_sum "Si O2"
_cell_formula_units_Z 44
_cell_length_a 5.326027
_cell_length_b 14.785237
_cell_length_c 25.764104
_cell_angle_alpha 90.000000
_cell_angle_beta 90.000000
_cell_angle_gamma 90.000000
_cell_volume 2028.834857
_symmetry_space_group_name_H-M "A B M 2"
_symmetry_group_IT_number 39
_symmetry_cell_setting 'orthorhombic'
loop_
_space_group_symop_operation_xyz
x,y,z
-x,-y,z
-x,1/2+y,z
x,1/2-y,z
x,1/2+y,1/2+z
-x,1/2-y,1/2+z
-x,y,1/2+z
x,-y,1/2+z
loop_
_atom_site_type_symbol
_atom_site_label
_atom_site_fract_x
_atom_site_fract_y
_atom_site_fract_z
Si Si1 0.000000 0.000000 0.797540
Si Si2 0.951535 0.250000 0.509136
Si Si3 0.503250 0.893955 0.155925
Si Si4 0.559305 0.250000 0.943040
Si Si5 0.315224 0.652596 0.261960
Si Si6 0.001486 0.393396 0.095637
Si Si7 0.608146 0.596423 0.360575
O O1 0.876386 0.074509 0.835225
O O2 0.156190 0.060504 0.757209
O O3 0.720465 0.250000 0.467867
O O4 0.944481 0.158467 0.542328
O O5 0.226713 0.250000 0.485256
O O6 0.498984 0.848421 0.212594
O O7 0.766957 0.863301 0.131860
O O8 0.261851 0.862367 0.121680
O O9 0.500000 0.000000 0.161800
O O10 0.612110 0.159867 0.910148
O O11 0.171060 0.750000 0.261846
O O12 0.454350 0.647395 0.316533
O O13 0.000000 0.500000 0.083412
O O14 0.500000 0.500000 0.377887
#
# Coordination Sequence:
#
# PCOD8182113 Si02
#       7
#     4   4   8   4   8   8   8
#     4  10  24  42  66  96 150 180 230 276 340 420
#     4  12  28  46  72  99 133 172 236 306 346 408
#     4  10  22  41  68 100 139 185 223 266 335 414
#     4  12  28  46  74 101 135 174 240 292 354 412
#     4  11  24  39  67 105 145 185 228 277 338 419
#     4  10  24  45  69  96 137 176 227 284 343 406
#     4  10  24  44  68 100 142 182 227 281 345 416
#
# _framework density 21.687325000000001
#
# number of rings (size 3 to 8) (size 9 to 14) (size 15 to 20)
#    0.000    1.455    0.909    2.727   15.273    1.455 
#    0.000    0.000    0.000    0.000    0.000    0.000 
#    0.000    0.000    0.000    0.000    0.000    0.000 
#
# Total GULP energy -272621.058525 kJ/mol
# GULP energy per Si atom -12391.866297 kJ/mol
# Density = 2.163796 g / cm^3
# Si number density = 21.687325 Si / 1000 Ang^3
#
#
#
# Elastic Constant Matrix: (Units=GPa)
#
#
# Indices 1 2 3 4 5 6 
#
# 1 108.0369 35.5482 21.7821 0.0000 0.0000 0.0000
# 2 35.5482 119.2185 67.6408 0.0000 0.0000 0.0000
# 3 21.7821 67.6408 94.8321 0.0000 0.0000 0.0000
# 4 0.0000 0.0000 0.0000 4.3247 0.0000 0.0000
# 5 0.0000 0.0000 0.0000 0.0000 -13.9692 0.0000
# 6 0.0000 0.0000 0.0000 0.0000 0.0000 1371.8276
#
#
#
# Elastic Compliance Matrix: (Units=1/GPa)
#
#
# Indices 1 2 3 4 5 6 
#
# 1 0.010268 -0.002895 -0.000293 0.000000 0.000000 0.000000
# 2 -0.002895 0.014906 -0.009967 0.000000 0.000000 0.000000
# 3 -0.000293 -0.009967 0.017722 0.000000 0.000000 0.000000
# 4 0.000000 0.000000 0.000000 0.231228 0.000000 0.000000
# 5 0.000000 0.000000 0.000000 0.000000 -0.071586 0.000000
# 6 0.000000 0.000000 0.000000 0.000000 0.000000 0.000729
#
#
# Mechanical properties :
#
#
# Convention : Reuss Voigt Hill
#
# Bulk Modulus (GPa) = 60.29817 63.55885 61.92851
# Shear Modulus (GPa) = 21.26695 285.57771 153.42233
#
# Velocity S-wave (km/s) = 3.13488 11.48762 8.42000
# Velocity P-wave (km/s) = 6.40055 14.32915 11.09710
#
# Compressibility (1/GPa) = 0.01658425
#
# Stress axis : x y z
#
# Youngs Moduli (GPa) = 97.39111 67.08569 56.42820
#
# Poissons Ratio (x) = 0.19422 0.01656
# Poissons Ratio (y) = 0.28196 0.56243
# Poissons Ratio (z) = 0.02858 0.66866
#
# Static dielectric constant tensor:
#      x y z
#    x 4.225140 0.000000 0.000000 
#    y 0.000000 4.059570 0.000000 
#    z 0.000000 0.000000 3.786310 
# 
# 
# High freq. dielectric constant tensor:
#      x y z
#    x 1.851150 0.000000 0.000000 
#    y 0.000000 1.872530 0.000000 
#    z 0.000000 0.000000 1.847570 
# 
# From -- ./inp_files/16488.got.cif
#   From: 2010.03.12/outbox.cif.g09.slc.cpg/sg39_9_cif.got.tgz:16488.got - 2010.04.14 02:53:20.
