data_PCOD8182174
_publ_section_title
;
Structure prediction by ZEFSAII (Michael W. Deem and Ramdas Pophale) SiO2 
 PCOD8182174
Probable space group: A B M 2
;
_chemical_formula_sum "Si O2"
_cell_formula_units_Z 48
_cell_length_a 11.339446
_cell_length_b 16.372538
_cell_length_c 11.807937
_cell_angle_alpha 90.000000
_cell_angle_beta 90.000000
_cell_angle_gamma 90.000000
_cell_volume 2192.208572
_symmetry_space_group_name_H-M "A B M 2"
_symmetry_group_IT_number 39
_symmetry_cell_setting 'orthorhombic'
loop_
_space_group_symop_operation_xyz
x,y,z
-x,-y,z
-x,1/2+y,z
x,1/2-y,z
x,1/2+y,1/2+z
-x,1/2-y,1/2+z
-x,y,1/2+z
x,-y,1/2+z
loop_
_atom_site_type_symbol
_atom_site_label
_atom_site_fract_x
_atom_site_fract_y
_atom_site_fract_z
Si Si1 0.326250 0.343513 0.824800
Si Si2 0.730958 0.412439 0.082877
Si Si3 0.227190 0.657472 0.758135
Si Si4 0.438804 0.914019 0.880686
Si Si5 0.826000 0.911621 0.026052
Si Si6 0.063580 0.657882 0.955746
O O1 0.284674 0.250000 0.812285
O O2 0.306805 0.392953 0.709579
O O3 0.463061 0.344460 0.861651
O O4 0.252879 0.390620 0.919014
O O5 0.795279 0.499360 0.072410
O O6 0.612356 0.408550 0.007620
O O7 0.825827 0.345902 0.041455
O O8 0.264110 0.750000 0.788265
O O9 0.334167 0.597456 0.790144
O O10 0.198049 0.652259 0.626196
O O11 0.110780 0.633702 0.830577
O O12 0.500000 0.000000 0.856807
O O13 0.962285 0.905866 0.989429
O O14 0.012554 0.750000 0.957432
#
# Coordination Sequence:
#
# PCOD8182174 Si02
#       6
#     8   8   8   8   8   8
#     4  12  27  44  73 107 141 185 241 296 351 423
#     4  11  26  46  70 103 143 185 233 291 359 416
#     4  10  23  43  71 101 139 183 230 291 357 417
#     4  11  23  46  69  98 140 185 236 287 356 418
#     4  12  25  45  72 104 140 184 240 288 354 425
#     4  10  23  45  71 101 142 185 230 289 354 422
#
# _framework density 21.895727000000001
#
# number of rings (size 3 to 8) (size 9 to 14) (size 15 to 20)
#    0.000    1.000    1.667    4.000    7.000    2.667 
#    0.000    0.000    0.000    0.000    0.000    0.000 
#    0.000    0.000    0.000    0.000    0.000    0.000 
#
# Total GULP energy -297714.876111 kJ/mol
# GULP energy per Si atom -12404.786505 kJ/mol
# Density = 2.184589 g / cm^3
# Si number density = 21.895727 Si / 1000 Ang^3
#
#
#
# Elastic Constant Matrix: (Units=GPa)
#
#
# Indices 1 2 3 4 5 6 
#
# 1 118.1222 37.7577 63.7191 0.0000 0.0000 0.0000
# 2 37.7577 102.1941 38.1786 0.0000 0.0000 0.0000
# 3 63.7191 38.1786 156.9014 0.0000 0.0000 0.0000
# 4 0.0000 0.0000 0.0000 29.3106 0.0000 0.0000
# 5 0.0000 0.0000 0.0000 0.0000 27.1753 0.0000
# 6 0.0000 0.0000 0.0000 0.0000 0.0000 37.3270
#
#
#
# Elastic Compliance Matrix: (Units=1/GPa)
#
#
# Indices 1 2 3 4 5 6 
#
# 1 0.011505 -0.002756 -0.004002 0.000000 0.000000 0.000000
# 2 -0.002756 0.011424 -0.001661 0.000000 0.000000 0.000000
# 3 -0.004002 -0.001661 0.008403 0.000000 0.000000 0.000000
# 4 0.000000 0.000000 0.000000 0.034117 0.000000 0.000000
# 5 0.000000 0.000000 0.000000 0.000000 0.036798 0.000000
# 6 0.000000 0.000000 0.000000 0.000000 0.000000 0.026790
#
#
# Mechanical properties :
#
#
# Convention : Reuss Voigt Hill
#
# Bulk Modulus (GPa) = 68.98746 72.94758 70.96752
# Shear Modulus (GPa) = 33.17712 34.60007 33.88859
#
# Velocity S-wave (km/s) = 3.89682 3.97951 3.93838
# Velocity P-wave (km/s) = 7.19879 7.38265 7.29130
#
# Compressibility (1/GPa) = 0.01449539
#
# Stress axis : x y z
#
# Youngs Moduli (GPa) = 86.91510 87.53592 119.00933
#
# Poissons Ratio (x) = 0.24124 0.47626
# Poissons Ratio (y) = 0.23953 0.19762
# Poissons Ratio (z) = 0.34783 0.14536
#
# Static dielectric constant tensor:
#      x y z
#    x 4.070810 0.000000 0.000000 
#    y 0.000000 3.894190 0.000000 
#    z 0.000000 0.000000 3.950680 
# 
# 
# High freq. dielectric constant tensor:
#      x y z
#    x 1.867280 0.000000 0.000000 
#    y 0.000000 1.868150 0.000000 
#    z 0.000000 0.000000 1.864470 
# 
# From -- ./inp_files/5822.got.cif
#   From: 2010.03.12/outbox.cif.g09.slc.cpg/sg39_3_cif.got.tgz:5822.got - 2010.04.14 02:53:20.
