data_PCOD8182905
_publ_section_title
;
Structure prediction by ZEFSAII (Michael W. Deem and Ramdas Pophale) SiO2 
 PCOD8182905
Probable space group: A M A 2
;
_chemical_formula_sum "Si O2"
_cell_formula_units_Z 64
_cell_length_a 8.921736
_cell_length_b 26.272658
_cell_length_c 18.528490
_cell_angle_alpha 90.000000
_cell_angle_beta 90.000000
_cell_angle_gamma 90.000000
_cell_volume 4343.035787
_symmetry_space_group_name_H-M "A M A 2"
_symmetry_group_IT_number 40
_symmetry_cell_setting 'orthorhombic'
loop_
_space_group_symop_operation_xyz
x,y,z
-x,-y,z
1/2-x,y,z
1/2+x,-y,z
x,1/2+y,1/2+z
-x,1/2-y,1/2+z
1/2-x,1/2+y,1/2+z
1/2+x,1/2-y,1/2+z
loop_
_atom_site_type_symbol
_atom_site_label
_atom_site_fract_x
_atom_site_fract_y
_atom_site_fract_z
Si Si1 0.426932 0.752786 0.964690
Si Si2 0.084426 0.799192 0.344459
Si Si3 0.927413 0.143887 0.205645
Si Si4 0.925662 0.148486 0.881671
Si Si5 0.428670 0.447082 0.474683
Si Si6 0.428944 0.053454 0.126855
Si Si7 0.416613 0.195036 0.756805
Si Si8 0.428827 0.255128 0.625638
O O1 0.250000 0.753293 0.968634
O O2 0.477236 0.705702 0.914105
O O3 0.488437 0.806097 0.932423
O O4 0.492830 0.746040 0.045302
O O5 0.250000 0.811512 0.373761
O O6 0.032589 0.843301 0.289160
O O7 0.086282 0.747216 0.300442
O O8 0.750000 0.133863 0.196224
O O9 0.982009 0.189752 0.153815
O O10 0.023515 0.094531 0.186167
O O11 0.750000 0.153792 0.876328
O O12 0.973059 0.094657 0.915172
O O13 0.988141 0.153011 0.800150
O O14 0.500000 0.500000 0.448133
O O15 0.250000 0.452149 0.484413
O O16 0.501585 0.430094 0.550080
O O17 0.250000 0.048947 0.121220
O O18 0.500000 0.000000 0.151050
O O19 0.250000 0.172541 0.748401
O O20 0.486563 0.209296 0.678129
O O21 0.250000 0.254333 0.628444
#
# Coordination Sequence:
#
# PCOD8182905 Si02
#       8
#     8   8   8   8   8   8   8   8
#     4   9  15  24  39  57  79 106 135 163 192 233
#     4   8  15  26  39  56  78 104 132 163 198 232
#     4   9  16  29  45  57  77 109 139 165 198 238
#     4   9  17  27  40  57  78 106 134 162 199 237
#     4  10  19  31  44  58  79 106 136 168 202 237
#     4  11  21  31  43  60  81 104 134 169 202 234
#     4   8  14  25  40  56  76 103 135 166 193 230
#     4   8  14  25  41  59  79 108 139 164 197 237
#
# _framework density 14.736236
#
# number of rings (size 3 to 8) (size 9 to 14) (size 15 to 20)
#    0.000    3.000    0.000    4.500    0.000    3.500 
#    0.000    5.625    0.000    0.000    0.000    0.000 
#    0.000    1.000    0.000    6.500    0.000    5.250 
#
# Total GULP energy -396573.268277 kJ/mol
# GULP energy per Si atom -12392.914634 kJ/mol
# Density = 1.470270 g / cm^3
# Si number density = 14.736236 Si / 1000 Ang^3
#
#
#
# Elastic Constant Matrix: (Units=GPa)
#
#
# Indices 1 2 3 4 5 6 
#
# 1 46.9045 32.5703 31.2812 0.0000 0.0000 0.0000
# 2 32.5703 77.2956 54.5916 0.0000 0.0000 0.0000
# 3 31.2812 54.5916 112.0552 0.0000 0.0000 0.0000
# 4 0.0000 0.0000 0.0000 27.3806 0.0000 0.0000
# 5 0.0000 0.0000 0.0000 0.0000 22.1605 0.0000
# 6 0.0000 0.0000 0.0000 0.0000 0.0000 20.6391
#
#
#
# Elastic Compliance Matrix: (Units=1/GPa)
#
#
# Indices 1 2 3 4 5 6 
#
# 1 0.031010 -0.010600 -0.003492 0.000000 0.000000 0.000000
# 2 -0.010600 0.023347 -0.008415 0.000000 0.000000 0.000000
# 3 -0.003492 -0.008415 0.013999 0.000000 0.000000 0.000000
# 4 0.000000 0.000000 0.000000 0.036522 0.000000 0.000000
# 5 0.000000 0.000000 0.000000 0.000000 0.045125 0.000000
# 6 0.000000 0.000000 0.000000 0.000000 0.000000 0.048452
#
#
# Mechanical properties :
#
#
# Convention : Reuss Voigt Hill
#
# Bulk Modulus (GPa) = 42.84434 52.57128 47.70781
# Shear Modulus (GPa) = 19.90038 21.89018 20.89528
#
# Velocity S-wave (km/s) = 3.67882 3.85836 3.76966
# Velocity P-wave (km/s) = 6.86893 7.45664 7.16881
#
# Compressibility (1/GPa) = 0.02334031
#
# Stress axis : x y z
#
# Youngs Moduli (GPa) = 32.24798 42.83116 71.43368
#
# Poissons Ratio (x) = 0.45401 0.24948
# Poissons Ratio (y) = 0.34183 0.60115
# Poissons Ratio (z) = 0.11262 0.36044
#
# Static dielectric constant tensor:
#      x y z
#    x 2.792740 0.000000 0.000000 
#    y 0.000000 2.711420 0.000000 
#    z 0.000000 0.000000 3.074020 
# 
# 
# High freq. dielectric constant tensor:
#      x y z
#    x 1.555230 0.000000 0.000000 
#    y 0.000000 1.530660 0.000000 
#    z 0.000000 0.000000 1.555680 
# 
# From -- ./inp_files/19726.got.cif
#   From: 2010.03.12/outbox.cif.g09.slc.cpg/sg40_10_cif.got.tgz:19726.got - 2010.04.14 01:38:03.
