data_PCOD8182339
_publ_section_title
;
Structure prediction by ZEFSAII (Michael W. Deem and Ramdas Pophale) SiO2 
 PCOD8182339
Probable space group: A M A 2
;
_chemical_formula_sum "Si O2"
_cell_formula_units_Z 52
_cell_length_a 16.731724
_cell_length_b 19.433341
_cell_length_c 7.195059
_cell_angle_alpha 90.000000
_cell_angle_beta 90.000000
_cell_angle_gamma 90.000000
_cell_volume 2339.497163
_symmetry_space_group_name_H-M "A M A 2"
_symmetry_group_IT_number 40
_symmetry_cell_setting 'orthorhombic'
loop_
_space_group_symop_operation_xyz
x,y,z
-x,-y,z
1/2-x,y,z
1/2+x,-y,z
x,1/2+y,1/2+z
-x,1/2-y,1/2+z
1/2-x,1/2+y,1/2+z
1/2+x,1/2-y,1/2+z
loop_
_atom_site_type_symbol
_atom_site_label
_atom_site_fract_x
_atom_site_fract_y
_atom_site_fract_z
Si Si1 0.837042 0.452412 0.482190
Si Si2 0.415048 0.663574 0.993231
Si Si3 0.838731 0.805909 0.869881
Si Si4 0.500000 0.000000 0.930719
Si Si5 0.563349 0.600525 0.137631
Si Si6 0.157912 0.273438 0.224180
Si Si7 0.837669 0.977048 0.545603
O O1 0.750000 0.476798 0.567897
O O2 0.847979 0.371113 0.509195
O O3 0.834569 0.466399 0.264169
O O4 0.918335 0.490835 0.556271
O O5 0.397910 0.694929 0.197024
O O6 0.509033 0.645472 0.997467
O O7 0.367641 0.592835 0.946141
O O8 0.396506 0.721546 0.842647
O O9 0.750000 0.805855 0.782236
O O10 0.852015 0.741323 0.004450
O O11 0.507350 0.066567 0.796656
O O12 0.627391 0.648374 0.245753
O O13 0.605783 0.542646 0.009409
O O14 0.250000 0.268071 0.289849
O O15 0.750000 0.992986 0.464426
#
# Coordination Sequence:
#
# PCOD8182339 Si02
#       7
#     8   8   8   4   8   8   8
#     4   8  14  26  51  79 102 142 193 234 281 349
#     4  11  20  37  63  89 116 156 205 251 306 367
#     4   9  18  36  58  80 114 153 194 242 299 363
#     4  10  16  32  56  82 114 152 200 240 296 366
#     4  11  20  34  56  89 122 154 203 252 304 370
#     4  11  25  38  58  91 122 156 202 252 308 369
#     4   9  16  32  59  83 113 159 204 247 302 367
#
# _framework density 22.226997999999998
#
# number of rings (size 3 to 8) (size 9 to 14) (size 15 to 20)
#    0.000    2.154    4.615    2.769    2.154    0.615 
#    0.000    0.000    3.385    3.692    0.000   10.769 
#    0.000    0.000    0.000    0.000    0.000    0.000 
#
# Total GULP energy -322179.371369 kJ/mol
# GULP energy per Si atom -12391.514283 kJ/mol
# Density = 2.217641 g / cm^3
# Si number density = 22.226998 Si / 1000 Ang^3
#
#
#
# Elastic Constant Matrix: (Units=GPa)
#
#
# Indices 1 2 3 4 5 6 
#
# 1 141.5752 37.7546 6.9336 0.0000 0.0000 0.0000
# 2 37.7546 105.2938 24.1658 0.0000 0.0000 0.0000
# 3 6.9336 24.1658 33.8211 0.0000 0.0000 0.0000
# 4 0.0000 0.0000 0.0000 21.1879 0.0000 0.0000
# 5 0.0000 0.0000 0.0000 0.0000 11.0403 0.0000
# 6 0.0000 0.0000 0.0000 0.0000 0.0000 41.0958
#
#
#
# Elastic Compliance Matrix: (Units=1/GPa)
#
#
# Indices 1 2 3 4 5 6 
#
# 1 0.007817 -0.002913 0.000479 0.000000 0.000000 0.000000
# 2 -0.002913 0.012445 -0.008295 0.000000 0.000000 0.000000
# 3 0.000479 -0.008295 0.035396 0.000000 0.000000 0.000000
# 4 0.000000 0.000000 0.000000 0.047197 0.000000 0.000000
# 5 0.000000 0.000000 0.000000 0.000000 0.090578 0.000000
# 6 0.000000 0.000000 0.000000 0.000000 0.000000 0.024333
#
#
# Mechanical properties :
#
#
# Convention : Reuss Voigt Hill
#
# Bulk Modulus (GPa) = 29.23990 46.48865 37.86428
# Shear Modulus (GPa) = 19.95013 28.78722 24.36867
#
# Velocity S-wave (km/s) = 2.99919 3.60272 3.31472
# Velocity P-wave (km/s) = 5.01769 6.18603 5.63223
#
# Compressibility (1/GPa) = 0.03419984
#
# Stress axis : x y z
#
# Youngs Moduli (GPa) = 127.93178 80.35057 28.25140
#
# Poissons Ratio (x) = 0.23403 -0.01352
# Poissons Ratio (y) = 0.37262 0.23436
# Poissons Ratio (z) = -0.06124 0.66654
#
# Static dielectric constant tensor:
#      x y z
#    x 4.798220 0.000000 0.000000 
#    y 0.000000 4.059100 0.000000 
#    z 0.000000 0.000000 3.307650 
# 
# 
# High freq. dielectric constant tensor:
#      x y z
#    x 1.896390 0.000000 0.000000 
#    y 0.000000 1.863930 0.000000 
#    z 0.000000 0.000000 1.819600 
# 
# From -- ./inp_files/7634.got.cif
#   From: 2010.03.12/outbox.cif.g09.slc.cpg/sg40_4_cif.got.tgz:7634.got - 2010.04.14 01:38:03.
