data_PCOD8182249
_publ_section_title
;
Structure prediction by ZEFSAII (Michael W. Deem and Ramdas Pophale) SiO2 
 PCOD8182249
Probable space group: A B M 2
;
_chemical_formula_sum "Si O2"
_cell_formula_units_Z 64
_cell_length_a 14.300103
_cell_length_b 8.717296
_cell_length_c 25.846908
_cell_angle_alpha 90.000000
_cell_angle_beta 90.000000
_cell_angle_gamma 90.000000
_cell_volume 3222.029820
_symmetry_space_group_name_H-M "A B M 2"
_symmetry_group_IT_number 39
_symmetry_cell_setting 'orthorhombic'
loop_
_space_group_symop_operation_xyz
x,y,z
-x,-y,z
-x,1/2+y,z
x,1/2-y,z
x,1/2+y,1/2+z
-x,1/2-y,1/2+z
-x,y,1/2+z
x,-y,1/2+z
loop_
_atom_site_type_symbol
_atom_site_label
_atom_site_fract_x
_atom_site_fract_y
_atom_site_fract_z
Si Si1 0.287756 0.932378 0.745440
Si Si2 0.396135 0.567180 0.644673
Si Si3 0.101066 0.070438 0.402093
Si Si4 0.400610 0.570131 0.956920
Si Si5 0.103741 0.068207 0.006068
Si Si6 0.100015 0.927969 0.787762
Si Si7 0.723467 0.068163 0.052157
Si Si8 0.400105 0.431469 0.342191
O O1 0.292259 0.750000 0.745486
O O2 0.343105 0.995570 0.695830
O O3 0.178361 0.985045 0.746537
O O4 0.332951 0.998426 0.797980
O O5 0.500000 0.500000 0.642597
O O6 0.402526 0.750000 0.643498
O O7 0.335438 0.508536 0.597277
O O8 0.098886 0.250000 0.416023
O O9 0.144783 0.040641 0.345264
O O10 0.148699 0.983837 0.450560
O O11 0.000000 0.000000 0.396735
O O12 0.500000 0.500000 0.971590
O O13 0.414879 0.750000 0.958610
O O14 0.365624 0.518469 0.899671
O O15 0.324997 0.517820 0.998629
O O16 0.098917 0.250000 0.010083
O O17 0.171559 0.001105 0.050727
O O18 0.000000 0.000000 0.013476
O O19 0.081134 0.750000 0.782088
O O20 0.000000 0.000000 0.775940
O O21 0.727272 0.250000 0.060207
O O22 0.500000 0.500000 0.330264
O O23 0.406302 0.250000 0.338592
#
# Coordination Sequence:
#
# PCOD8182249 Si02
#       8
#     8   8   8   8   8   8   8   8
#     4   9  19  35  58  82 109 149 194 234 286 347
#     4  11  23  41  63  87 114 149 194 245 297 353
#     4   9  16  28  50  77 111 152 192 232 278 334
#     4   9  19  33  54  80 111 145 182 228 286 348
#     4  11  22  37  57  84 119 156 195 241 289 345
#     4   9  18  33  54  80 113 152 193 237 283 340
#     4  11  23  39  60  86 113 151 198 243 292 349
#     4   9  17  32  53  78 108 142 178 224 281 342
#
# _framework density 19.863254000000001
#
# number of rings (size 3 to 8) (size 9 to 14) (size 15 to 20)
#    0.000    2.250    0.000    3.750    1.750    2.500 
#    0.000    3.125    0.000    1.500    0.000    0.000 
#    0.000    0.000    0.000    0.000    0.000    0.000 
#
# Total GULP energy -396555.813217 kJ/mol
# GULP energy per Si atom -12392.369163 kJ/mol
# Density = 1.981804 g / cm^3
# Si number density = 19.863254 Si / 1000 Ang^3
#
#
#
# Elastic Constant Matrix: (Units=GPa)
#
#
# Indices 1 2 3 4 5 6 
#
# 1 134.1075 40.5699 92.4386 0.0000 0.0000 0.0000
# 2 40.5699 68.9072 40.0083 0.0000 0.0000 0.0000
# 3 92.4386 40.0083 107.8771 0.0000 0.0000 0.0000
# 4 0.0000 0.0000 0.0000 21.0287 0.0000 0.0000
# 5 0.0000 0.0000 0.0000 0.0000 37.7504 0.0000
# 6 0.0000 0.0000 0.0000 0.0000 0.0000 29.3091
#
#
#
# Elastic Compliance Matrix: (Units=1/GPa)
#
#
# Indices 1 2 3 4 5 6 
#
# 1 0.018462 -0.002147 -0.015023 0.000000 0.000000 0.000000
# 2 -0.002147 0.018744 -0.005112 0.000000 0.000000 0.000000
# 3 -0.015023 -0.005112 0.024039 0.000000 0.000000 0.000000
# 4 0.000000 0.000000 0.000000 0.047554 0.000000 0.000000
# 5 0.000000 0.000000 0.000000 0.000000 0.026490 0.000000
# 6 0.000000 0.000000 0.000000 0.000000 0.000000 0.034119
#
#
# Mechanical properties :
#
#
# Convention : Reuss Voigt Hill
#
# Bulk Modulus (GPa) = 59.95029 72.99172 66.47101
# Shear Modulus (GPa) = 22.77569 26.80932 24.79251
#
# Velocity S-wave (km/s) = 3.38986 3.67780 3.53676
# Velocity P-wave (km/s) = 6.75045 7.40688 7.08627
#
# Compressibility (1/GPa) = 0.01668049
#
# Stress axis : x y z
#
# Youngs Moduli (GPa) = 54.16677 53.34929 41.59900
#
# Poissons Ratio (x) = 0.11453 0.62495
# Poissons Ratio (y) = 0.11628 0.21266
# Poissons Ratio (z) = 0.81376 0.27273
#
# Static dielectric constant tensor:
#      x y z
#    x 3.687280 0.000000 0.000000 
#    y 0.000000 3.474570 0.000000 
#    z 0.000000 0.000000 4.140790 
# 
# 
# High freq. dielectric constant tensor:
#      x y z
#    x 1.781000 0.000000 0.000000 
#    y 0.000000 1.761480 0.000000 
#    z 0.000000 0.000000 1.767960 
# 
# From -- ./inp_files/16267.got.cif
#   From: 2010.03.12/outbox.cif.g09.slc.cpg/sg39_9_cif.got.tgz:16267.got - 2010.04.14 02:53:20.
