data_PCOD8182162
_publ_section_title
;
Structure prediction by ZEFSAII (Michael W. Deem and Ramdas Pophale) SiO2 
 PCOD8182162
Probable space group: A B M 2
;
_chemical_formula_sum "Si O2"
_cell_formula_units_Z 56
_cell_length_a 19.485224
_cell_length_b 8.852480
_cell_length_c 15.815505
_cell_angle_alpha 90.000000
_cell_angle_beta 90.000000
_cell_angle_gamma 90.000000
_cell_volume 2728.056878
_symmetry_space_group_name_H-M "A B M 2"
_symmetry_group_IT_number 39
_symmetry_cell_setting 'orthorhombic'
loop_
_space_group_symop_operation_xyz
x,y,z
-x,-y,z
-x,1/2+y,z
x,1/2-y,z
x,1/2+y,1/2+z
-x,1/2-y,1/2+z
-x,y,1/2+z
x,-y,1/2+z
loop_
_atom_site_type_symbol
_atom_site_label
_atom_site_fract_x
_atom_site_fract_y
_atom_site_fract_z
Si Si1 0.285743 0.071457 0.052020
Si Si2 0.568048 0.072559 0.806769
Si Si3 0.156803 0.575027 0.115103
Si Si4 0.835743 0.924681 0.803732
Si Si5 0.287419 0.928243 0.877890
Si Si6 0.074171 0.071543 0.963718
Si Si7 0.568058 0.427494 0.613954
O O1 0.278312 0.250000 0.065147
O O2 0.363647 0.015630 0.066856
O O3 0.234802 0.986666 0.115740
O O4 0.263118 0.022727 0.958804
O O5 0.560564 0.250000 0.812548
O O6 0.636218 0.017227 0.854004
O O7 0.574395 0.017659 0.710364
O O8 0.500000 0.000000 0.848919
O O9 0.155496 0.750000 0.088898
O O10 0.129353 0.551827 0.211334
O O11 0.111497 0.483179 0.048676
O O12 0.815259 0.750000 0.816047
O O13 0.886766 0.978523 0.878101
O O14 0.766795 0.026446 0.805734
O O15 0.285165 0.750000 0.894818
O O16 0.067457 0.250000 0.969153
O O17 0.000000 0.000000 0.959554
O O18 0.500000 0.500000 0.571818
O O19 0.560727 0.250000 0.606625
#
# Coordination Sequence:
#
# PCOD8182162 Si02
#       7
#     8   8   8   8   8   8   8
#     4  11  22  37  57  84 120 160 203 257 314 367
#     4   9  19  35  53  77 108 148 199 252 308 368
#     4  11  23  41  66  97 128 165 210 257 307 367
#     4  10  23  42  65  94 129 165 207 254 307 367
#     4  11  22  36  58  86 118 157 206 257 307 368
#     4  11  24  44  68  96 132 169 204 252 304 362
#     4   9  19  35  54  76 108 150 199 253 310 370
#
# _framework density 20.527431
#
# number of rings (size 3 to 8) (size 9 to 14) (size 15 to 20)
#    0.000    1.714    1.429    2.571    0.000    6.286 
#    0.000    7.143    0.000    0.000    0.000    0.000 
#    0.000    0.000    0.000    0.000    0.000    0.000 
#
# Total GULP energy -347229.190069 kJ/mol
# GULP energy per Si atom -12401.042502 kJ/mol
# Density = 2.048071 g / cm^3
# Si number density = 20.527431 Si / 1000 Ang^3
#
#
#
# Elastic Constant Matrix: (Units=GPa)
#
#
# Indices 1 2 3 4 5 6 
#
# 1 142.2772 44.8236 51.7197 0.0000 0.0000 0.0000
# 2 44.8236 61.7588 33.4457 0.0000 0.0000 0.0000
# 3 51.7197 33.4457 110.0954 0.0000 0.0000 0.0000
# 4 0.0000 0.0000 0.0000 27.0952 0.0000 0.0000
# 5 0.0000 0.0000 0.0000 0.0000 20.3872 0.0000
# 6 0.0000 0.0000 0.0000 0.0000 0.0000 40.0687
#
#
#
# Elastic Compliance Matrix: (Units=1/GPa)
#
#
# Indices 1 2 3 4 5 6 
#
# 1 0.009847 -0.005556 -0.002938 0.000000 0.000000 0.000000
# 2 -0.005556 0.022515 -0.004230 0.000000 0.000000 0.000000
# 3 -0.002938 -0.004230 0.011748 0.000000 0.000000 0.000000
# 4 0.000000 0.000000 0.000000 0.036907 0.000000 0.000000
# 5 0.000000 0.000000 0.000000 0.000000 0.049050 0.000000
# 6 0.000000 0.000000 0.000000 0.000000 0.000000 0.024957
#
#
# Mechanical properties :
#
#
# Convention : Reuss Voigt Hill
#
# Bulk Modulus (GPa) = 53.58224 63.78995 58.68610
# Shear Modulus (GPa) = 26.78203 29.78638 28.28420
#
# Velocity S-wave (km/s) = 3.61597 3.81340 3.71600
# Velocity P-wave (km/s) = 6.60251 7.10861 6.86023
#
# Compressibility (1/GPa) = 0.01866290
#
# Stress axis : x y z
#
# Youngs Moduli (GPa) = 101.55587 44.41505 85.11919
#
# Poissons Ratio (x) = 0.24675 0.25008
# Poissons Ratio (y) = 0.56420 0.36005
# Poissons Ratio (z) = 0.29837 0.18787
#
# Static dielectric constant tensor:
#      x y z
#    x 3.886600 0.000000 0.000000 
#    y 0.000000 3.612800 0.000000 
#    z 0.000000 0.000000 3.758150 
# 
# 
# High freq. dielectric constant tensor:
#      x y z
#    x 1.806170 0.000000 0.000000 
#    y 0.000000 1.800030 0.000000 
#    z 0.000000 0.000000 1.803790 
# 
# From -- ./inp_files/10356.got.cif
#   From: 2010.03.12/outbox.cif.g09.slc.cpg/sg39_6_cif.got.tgz:10356.got - 2010.04.14 02:53:20.
