data_PCOD8182416
_publ_section_title
;
Structure prediction by ZEFSAII (Michael W. Deem and Ramdas Pophale) SiO2 
 PCOD8182416
Probable space group: A M A 2
;
_chemical_formula_sum "Si O2"
_cell_formula_units_Z 48
_cell_length_a 15.632486
_cell_length_b 13.127049
_cell_length_c 12.766126
_cell_angle_alpha 90.000000
_cell_angle_beta 90.000000
_cell_angle_gamma 90.000000
_cell_volume 2619.716415
_symmetry_space_group_name_H-M "A M A 2"
_symmetry_group_IT_number 40
_symmetry_cell_setting 'orthorhombic'
loop_
_space_group_symop_operation_xyz
x,y,z
-x,-y,z
1/2-x,y,z
1/2+x,-y,z
x,1/2+y,1/2+z
-x,1/2-y,1/2+z
1/2-x,1/2+y,1/2+z
1/2+x,1/2-y,1/2+z
loop_
_atom_site_type_symbol
_atom_site_label
_atom_site_fract_x
_atom_site_fract_y
_atom_site_fract_z
Si Si1 0.750000 0.904702 0.851980
Si Si2 0.592876 0.004909 0.943987
Si Si3 0.899253 0.675113 0.605372
Si Si4 0.655751 0.502376 0.756354
Si Si5 0.750000 0.332293 0.117005
Si Si6 0.250000 0.757549 0.538433
Si Si7 0.088034 0.661026 0.624351
Si Si8 0.750000 0.018054 0.457166
O O1 0.667018 0.976717 0.862936
O O2 0.750000 0.861043 0.737350
O O3 0.750000 0.811522 0.934069
O O4 0.500000 0.000000 0.886700
O O5 0.591379 0.924811 0.036904
O O6 0.610641 0.114433 0.996114
O O7 0.881858 0.605712 0.707383
O O8 0.835487 0.768840 0.596007
O O9 0.996322 0.717303 0.620443
O O10 0.750000 0.486010 0.703924
O O11 0.599002 0.402060 0.732880
O O12 0.665529 0.512144 0.882406
O O13 0.750000 0.429464 0.042269
O O14 0.165121 0.739768 0.607835
O O15 0.250000 0.875490 0.514476
#
# Coordination Sequence:
#
# PCOD8182416 Si02
#       8
#     4   8   8   8   4   4   8   4
#     4  10  19  32  58  76 102 144 173 220 254 316
#     4   8  16  31  55  86 106 126 168 219 271 316
#     4  10  18  34  60  85 105 135 170 227 275 319
#     4   9  16  34  58  85 103 138 177 219 274 314
#     4  12  23  38  48  74 110 144 189 214 262 316
#     4  10  17  36  56  78 110 144 181 212 264 322
#     4   9  17  31  60  88 108 127 176 229 270 316
#     4  10  23  36  54  72 114 158 181 216 264 322
#
# _framework density 18.322593999999999
#
# number of rings (size 3 to 8) (size 9 to 14) (size 15 to 20)
#    0.500    2.000    1.667    3.000    2.333    0.000 
#    0.000   14.167    0.000    0.000    0.000    0.000 
#    0.000    0.000    0.000    0.000    0.000    0.000 
#
# Total GULP energy -297435.836796 kJ/mol
# GULP energy per Si atom -12393.159866 kJ/mol
# Density = 1.828089 g / cm^3
# Si number density = 18.322594 Si / 1000 Ang^3
#
#
#
# Elastic Constant Matrix: (Units=GPa)
#
#
# Indices 1 2 3 4 5 6 
#
# 1 157.7906 63.7826 25.3933 0.0000 0.0000 0.0000
# 2 63.7826 109.8072 41.4401 0.0000 0.0000 0.0000
# 3 25.3933 41.4401 40.8346 0.0000 0.0000 0.0000
# 4 0.0000 0.0000 0.0000 23.7593 0.0000 0.0000
# 5 0.0000 0.0000 0.0000 0.0000 5.8585 0.0000
# 6 0.0000 0.0000 0.0000 0.0000 0.0000 11.4820
#
#
#
# Elastic Compliance Matrix: (Units=1/GPa)
#
#
# Indices 1 2 3 4 5 6 
#
# 1 0.008287 -0.004649 -0.000435 0.000000 0.000000 0.000000
# 2 -0.004649 0.017368 -0.014734 0.000000 0.000000 0.000000
# 3 -0.000435 -0.014734 0.039712 0.000000 0.000000 0.000000
# 4 0.000000 0.000000 0.000000 0.042089 0.000000 0.000000
# 5 0.000000 0.000000 0.000000 0.000000 0.170692 0.000000
# 6 0.000000 0.000000 0.000000 0.000000 0.000000 0.087093
#
#
# Mechanical properties :
#
#
# Convention : Reuss Voigt Hill
#
# Bulk Modulus (GPa) = 38.86521 63.29606 51.08064
# Shear Modulus (GPa) = 12.09320 20.07439 16.08379
#
# Velocity S-wave (km/s) = 2.57186 3.31359 2.96600
# Velocity P-wave (km/s) = 5.48425 7.01856 6.29830
#
# Compressibility (1/GPa) = 0.02572995
#
# Stress axis : x y z
#
# Youngs Moduli (GPa) = 120.67246 57.57673 25.18104
#
# Poissons Ratio (x) = 0.26770 0.01095
# Poissons Ratio (y) = 0.56105 0.37103
# Poissons Ratio (z) = 0.05248 0.84836
#
# Static dielectric constant tensor:
#      x y z
#    x 3.895190 0.000000 0.000000 
#    y 0.000000 3.142390 0.000000 
#    z 0.000000 0.000000 3.063680 
# 
# 
# High freq. dielectric constant tensor:
#      x y z
#    x 1.723450 0.000000 0.000000 
#    y 0.000000 1.686540 0.000000 
#    z 0.000000 0.000000 1.675950 
# 
# From -- ./inp_files/17034.got.cif
#   From: 2010.03.12/outbox.cif.g09.slc.cpg/sg40_9_cif.got.tgz:17034.got - 2010.04.14 01:38:03.
