data_PCOD8182280
_publ_section_title
;
Structure prediction by ZEFSAII (Michael W. Deem and Ramdas Pophale) SiO2 
 PCOD8182280
Probable space group: A B M 2
;
_chemical_formula_sum "Si O2"
_cell_formula_units_Z 48
_cell_length_a 9.132259
_cell_length_b 26.621472
_cell_length_c 9.790240
_cell_angle_alpha 90.000000
_cell_angle_beta 90.000000
_cell_angle_gamma 90.000000
_cell_volume 2380.146143
_symmetry_space_group_name_H-M "A B M 2"
_symmetry_group_IT_number 39
_symmetry_cell_setting 'orthorhombic'
loop_
_space_group_symop_operation_xyz
x,y,z
-x,-y,z
-x,1/2+y,z
x,1/2-y,z
x,1/2+y,1/2+z
-x,1/2-y,1/2+z
-x,y,1/2+z
x,-y,1/2+z
loop_
_atom_site_type_symbol
_atom_site_label
_atom_site_fract_x
_atom_site_fract_y
_atom_site_fract_z
Si Si1 0.846724 0.527588 0.939440
Si Si2 0.637504 0.307939 0.249293
Si Si3 0.544089 0.354692 0.519603
Si Si4 0.302878 0.571526 0.954672
Si Si5 0.192808 0.602237 0.668630
Si Si6 0.867544 0.610083 0.707122
O O1 0.710314 0.488514 0.933837
O O2 0.825813 0.569833 0.824022
O O3 0.000000 0.500000 0.911162
O O4 0.842630 0.550020 0.091855
O O5 0.677472 0.250000 0.266891
O O6 0.542482 0.327890 0.374804
O O7 0.540644 0.316209 0.115688
O O8 0.787955 0.338088 0.238945
O O9 0.460053 0.408996 0.510988
O O10 0.709888 0.362845 0.570310
O O11 0.281612 0.596071 0.807382
O O12 0.175576 0.588047 0.059404
O O13 0.036798 0.626386 0.704782
#
# Coordination Sequence:
#
# PCOD8182280 Si02
#       6
#     8   8   8   8   8   8
#     4  12  22  38  66  98 134 184 212 262 329 397
#     4  11  24  47  71  94 127 173 223 281 345 392
#     4  11  24  45  67  97 131 174 218 284 329 403
#     4  11  24  38  63  96 135 178 221 255 329 397
#     4  12  22  41  65  94 134 173 219 266 332 383
#     4  11  23  41  68  97 132 172 224 276 322 397
#
# _framework density 20.166829
#
# number of rings (size 3 to 8) (size 9 to 14) (size 15 to 20)
#    0.000    0.667    6.667    1.500    0.000    0.667 
#    0.000    3.333    0.000    0.000    0.000    0.000 
#    0.000    0.000    0.000    0.000    0.000    0.000 
#
# Total GULP energy -297645.475952 kJ/mol
# GULP energy per Si atom -12401.894831 kJ/mol
# Density = 2.012093 g / cm^3
# Si number density = 20.166829 Si / 1000 Ang^3
#
#
#
# Elastic Constant Matrix: (Units=GPa)
#
#
# Indices 1 2 3 4 5 6 
#
# 1 100.0766 54.8706 27.5961 0.0000 0.0000 0.0000
# 2 54.8706 114.8006 16.2209 0.0000 0.0000 0.0000
# 3 27.5961 16.2209 103.9279 0.0000 0.0000 0.0000
# 4 0.0000 0.0000 0.0000 22.0655 0.0000 0.0000
# 5 0.0000 0.0000 0.0000 0.0000 31.0465 0.0000
# 6 0.0000 0.0000 0.0000 0.0000 0.0000 20.3435
#
#
#
# Elastic Compliance Matrix: (Units=1/GPa)
#
#
# Indices 1 2 3 4 5 6 
#
# 1 0.014291 -0.006436 -0.002790 0.000000 0.000000 0.000000
# 2 -0.006436 0.011806 -0.000134 0.000000 0.000000 0.000000
# 3 -0.002790 -0.000134 0.010384 0.000000 0.000000 0.000000
# 4 0.000000 0.000000 0.000000 0.045320 0.000000 0.000000
# 5 0.000000 0.000000 0.000000 0.000000 0.032210 0.000000
# 6 0.000000 0.000000 0.000000 0.000000 0.000000 0.049156
#
#
# Mechanical properties :
#
#
# Convention : Reuss Voigt Hill
#
# Bulk Modulus (GPa) = 56.30467 57.35339 56.82903
# Shear Modulus (GPa) = 26.62335 29.36561 27.99448
#
# Velocity S-wave (km/s) = 3.63734 3.82007 3.72982
# Velocity P-wave (km/s) = 6.75428 6.92521 6.84028
#
# Compressibility (1/GPa) = 0.01776052
#
# Stress axis : x y z
#
# Youngs Moduli (GPa) = 69.97632 84.70348 96.30421
#
# Poissons Ratio (x) = 0.54516 0.26869
# Poissons Ratio (y) = 0.45038 0.01287
# Poissons Ratio (z) = 0.19524 0.01132
#
# Static dielectric constant tensor:
#      x y z
#    x 3.619940 0.000000 0.000000 
#    y 0.000000 3.442960 0.000000 
#    z 0.000000 0.000000 3.906480 
# 
# 
# High freq. dielectric constant tensor:
#      x y z
#    x 1.787110 0.000000 0.000000 
#    y 0.000000 1.758820 0.000000 
#    z 0.000000 0.000000 1.814180 
# 
# From -- ./inp_files/2297.got.cif
#   From: 2010.03.12/outbox.cif.g09.slc.cpg/sg39_2_cif.got.tgz:2297.got - 2010.04.14 02:53:20.
