data_PCOD8182835
_publ_section_title
;
Structure prediction by ZEFSAII (Michael W. Deem and Ramdas Pophale) SiO2 
 PCOD8182835
Probable space group: A M A 2
;
_chemical_formula_sum "Si O2"
_cell_formula_units_Z 64
_cell_length_a 8.622952
_cell_length_b 18.491862
_cell_length_c 26.530400
_cell_angle_alpha 90.000000
_cell_angle_beta 90.000000
_cell_angle_gamma 90.000000
_cell_volume 4230.390033
_symmetry_space_group_name_H-M "A M A 2"
_symmetry_group_IT_number 40
_symmetry_cell_setting 'orthorhombic'
loop_
_space_group_symop_operation_xyz
x,y,z
-x,-y,z
1/2-x,y,z
1/2+x,-y,z
x,1/2+y,1/2+z
-x,1/2-y,1/2+z
1/2-x,1/2+y,1/2+z
1/2+x,1/2-y,1/2+z
loop_
_atom_site_type_symbol
_atom_site_label
_atom_site_fract_x
_atom_site_fract_y
_atom_site_fract_z
Si Si1 0.569242 0.291962 0.542910
Si Si2 0.570483 0.786663 0.635465
Si Si3 0.067384 0.423946 0.887726
Si Si4 0.066162 0.420426 0.588737
Si Si5 0.067954 0.577756 0.077608
Si Si6 0.929530 0.658412 0.983270
Si Si7 0.568627 0.839366 0.184868
Si Si8 0.065966 0.422644 0.774452
O O1 0.750000 0.290218 0.559291
O O2 0.459431 0.255022 0.583732
O O3 0.508143 0.374637 0.541644
O O4 0.543861 0.245001 0.491810
O O5 0.750000 0.780698 0.650436
O O6 0.520822 0.869785 0.624663
O O7 0.469543 0.746475 0.678533
O O8 0.250000 0.431568 0.887118
O O9 0.011243 0.362394 0.927219
O O10 0.010162 0.404512 0.831411
O O11 0.000000 0.500000 0.906160
O O12 0.250000 0.421886 0.584276
O O13 0.000000 0.500000 0.584305
O O14 0.017527 0.386073 0.642166
O O15 0.250000 0.571474 0.073780
O O16 0.000000 0.500000 0.089804
O O17 0.012031 0.608964 0.024489
O O18 0.750000 0.639127 0.988619
O O19 0.750000 0.853652 0.180445
O O20 0.507383 0.861449 0.239514
O O21 0.250000 0.423107 0.768766
O O22 0.000000 0.500000 0.757328
#
# Coordination Sequence:
#
# PCOD8182835 Si02
#       8
#     8   8   8   8   8   8   8   8
#     4   9  16  27  42  60  82 107 135 168 204 241
#     4   9  17  29  42  58  80 107 138 169 202 241
#     4   9  18  30  43  60  82 110 141 174 207 238
#     4  11  20  30  43  60  83 109 139 170 203 243
#     4  10  19  28  41  61  85 112 141 171 203 241
#     4   9  17  29  44  61  83 111 142 172 204 242
#     4  11  20  30  44  61  81 107 139 171 208 247
#     4  10  19  31  44  59  82 109 140 175 208 241
#
# _framework density 15.128629
#
# number of rings (size 3 to 8) (size 9 to 14) (size 15 to 20)
#    0.000    2.250    0.000    6.000    0.000    4.000 
#    0.000    0.000    0.000    0.000    0.000    0.000 
#    0.000    1.000    0.000    6.250    0.000    3.875 
#
# Total GULP energy -396553.257812 kJ/mol
# GULP energy per Si atom -12392.289307 kJ/mol
# Density = 1.509420 g / cm^3
# Si number density = 15.128629 Si / 1000 Ang^3
#
#
#
# Elastic Constant Matrix: (Units=GPa)
#
#
# Indices 1 2 3 4 5 6 
#
# 1 56.8491 36.3529 29.8652 0.0000 0.0000 0.0000
# 2 36.3529 115.4248 57.1688 0.0000 0.0000 0.0000
# 3 29.8652 57.1688 82.2574 0.0000 0.0000 0.0000
# 4 0.0000 0.0000 0.0000 40.9694 0.0000 0.0000
# 5 0.0000 0.0000 0.0000 0.0000 15.9620 0.0000
# 6 0.0000 0.0000 0.0000 0.0000 0.0000 24.8755
#
#
#
# Elastic Compliance Matrix: (Units=1/GPa)
#
#
# Indices 1 2 3 4 5 6 
#
# 1 0.023369 -0.004815 -0.005138 0.000000 0.000000 0.000000
# 2 -0.004815 0.014204 -0.008123 0.000000 0.000000 0.000000
# 3 -0.005138 -0.008123 0.019668 0.000000 0.000000 0.000000
# 4 0.000000 0.000000 0.000000 0.024408 0.000000 0.000000
# 5 0.000000 0.000000 0.000000 0.000000 0.062649 0.000000
# 6 0.000000 0.000000 0.000000 0.000000 0.000000 0.040200
#
#
# Mechanical properties :
#
#
# Convention : Reuss Voigt Hill
#
# Bulk Modulus (GPa) = 47.42113 55.70057 51.56085
# Shear Modulus (GPa) = 21.96068 25.10433 23.53250
#
# Velocity S-wave (km/s) = 3.81412 4.07798 3.94825
# Velocity P-wave (km/s) = 7.12811 7.68578 7.41219
#
# Compressibility (1/GPa) = 0.02108765
#
# Stress axis : x y z
#
# Youngs Moduli (GPa) = 42.79218 70.40508 50.84405
#
# Poissons Ratio (x) = 0.33901 0.26123
# Poissons Ratio (y) = 0.20605 0.41302
# Poissons Ratio (z) = 0.21986 0.57191
#
# Static dielectric constant tensor:
#      x y z
#    x 3.004560 0.000000 0.000000 
#    y 0.000000 3.423790 0.000000 
#    z 0.000000 0.000000 2.949400 
# 
# 
# High freq. dielectric constant tensor:
#      x y z
#    x 1.595780 0.000000 0.000000 
#    y 0.000000 1.572700 0.000000 
#    z 0.000000 0.000000 1.543260 
# 
# From -- ./inp_files/25544.got.cif
#   From: 2010.03.12/outbox.cif.g09.slc.cpg/sg40_13_cif.got.tgz:25544.got - 2010.04.14 01:38:03.
