data_PCOD8182549
_publ_section_title
;
Structure prediction by ZEFSAII (Michael W. Deem and Ramdas Pophale) SiO2 
 PCOD8182549
Probable space group: A M A 2
;
_chemical_formula_sum "Si O2"
_cell_formula_units_Z 64
_cell_length_a 14.168514
_cell_length_b 14.020175
_cell_length_c 18.178354
_cell_angle_alpha 90.000000
_cell_angle_beta 90.000000
_cell_angle_gamma 90.000000
_cell_volume 3611.039962
_symmetry_space_group_name_H-M "A M A 2"
_symmetry_group_IT_number 40
_symmetry_cell_setting 'orthorhombic'
loop_
_space_group_symop_operation_xyz
x,y,z
-x,-y,z
1/2-x,y,z
1/2+x,-y,z
x,1/2+y,1/2+z
-x,1/2-y,1/2+z
1/2-x,1/2+y,1/2+z
1/2+x,1/2-y,1/2+z
loop_
_atom_site_type_symbol
_atom_site_label
_atom_site_fract_x
_atom_site_fract_y
_atom_site_fract_z
Si Si1 0.990652 0.387535 0.070070
Si Si2 0.858649 0.352714 0.201404
Si Si3 0.358609 0.754069 0.641058
Si Si4 0.142969 0.129429 0.003598
Si Si5 0.472798 0.771325 0.773411
Si Si6 0.856874 0.069084 0.956931
Si Si7 0.144886 0.453639 0.289152
Si Si8 0.015162 0.255056 0.441139
O O1 0.899005 0.364732 0.119257
O O2 0.000000 0.500000 0.057478
O O3 0.084549 0.345507 0.109012
O O4 0.974933 0.339754 0.989914
O O5 0.750000 0.319551 0.197148
O O6 0.871045 0.450503 0.244914
O O7 0.918743 0.272258 0.245539
O O8 0.250000 0.785258 0.652402
O O9 0.367177 0.665784 0.586285
O O10 0.405482 0.713831 0.716731
O O11 0.250000 0.131235 0.974610
O O12 0.088380 0.198778 0.947288
O O13 0.106039 0.020114 0.005399
O O14 0.433823 0.879000 0.764664
O O15 0.463461 0.729786 0.855793
O O16 0.750000 0.096325 0.976111
O O17 0.868416 0.027606 0.875110
O O18 0.914570 0.164632 0.972629
O O19 0.250000 0.412352 0.273871
#
# Coordination Sequence:
#
# PCOD8182549 Si02
#       8
#     8   8   8   8   8   8   8   8
#     4  10  21  35  50  70  97 132 173 208 238 280
#     4  10  19  30  47  71  98 126 156 199 254 302
#     4   9  18  33  52  72  93 122 163 207 247 285
#     4   9  17  30  49  72  97 124 156 196 241 292
#     4  10  18  29  46  69  96 124 157 197 241 292
#     4   9  17  29  47  74 103 126 150 186 242 304
#     4   9  16  26  43  68  95 121 148 187 243 298
#     4  10  20  32  49  72 100 131 161 198 242 287
#
# _framework density 17.723426
#
# number of rings (size 3 to 8) (size 9 to 14) (size 15 to 20)
#    0.000    2.500    0.000    3.375    0.000    6.000 
#    0.000    0.000    0.000    4.500    0.000    0.000 
#    0.000    0.000    0.000    0.000    0.000    0.000 
#
# Total GULP energy -396646.995763 kJ/mol
# GULP energy per Si atom -12395.218618 kJ/mol
# Density = 1.768309 g / cm^3
# Si number density = 17.723426 Si / 1000 Ang^3
#
#
#
# Elastic Constant Matrix: (Units=GPa)
#
#
# Indices 1 2 3 4 5 6 
#
# 1 109.7927 28.1113 42.1633 0.0000 0.0000 0.0000
# 2 28.1113 67.4438 43.2075 0.0000 0.0000 0.0000
# 3 42.1633 43.2075 105.7373 0.0000 0.0000 0.0000
# 4 0.0000 0.0000 0.0000 25.3764 0.0000 0.0000
# 5 0.0000 0.0000 0.0000 0.0000 22.9050 0.0000
# 6 0.0000 0.0000 0.0000 0.0000 0.0000 15.0593
#
#
#
# Elastic Compliance Matrix: (Units=1/GPa)
#
#
# Indices 1 2 3 4 5 6 
#
# 1 0.011037 -0.002412 -0.003415 0.000000 0.000000 0.000000
# 2 -0.002412 0.020612 -0.007461 0.000000 0.000000 0.000000
# 3 -0.003415 -0.007461 0.013868 0.000000 0.000000 0.000000
# 4 0.000000 0.000000 0.000000 0.039407 0.000000 0.000000
# 5 0.000000 0.000000 0.000000 0.000000 0.043659 0.000000
# 6 0.000000 0.000000 0.000000 0.000000 0.000000 0.066404
#
#
# Mechanical properties :
#
#
# Convention : Reuss Voigt Hill
#
# Bulk Modulus (GPa) = 52.79720 56.65977 54.72849
# Shear Modulus (GPa) = 21.94155 23.96760 22.95458
#
# Velocity S-wave (km/s) = 3.52234 3.68137 3.60273
# Velocity P-wave (km/s) = 6.81151 7.07872 6.94640
#
# Compressibility (1/GPa) = 0.01894040
#
# Stress axis : x y z
#
# Youngs Moduli (GPa) = 90.60144 48.51428 72.10804
#
# Poissons Ratio (x) = 0.11704 0.24628
# Poissons Ratio (y) = 0.21857 0.53799
# Poissons Ratio (z) = 0.30944 0.36196
#
# Static dielectric constant tensor:
#      x y z
#    x 3.590960 0.000000 0.000000 
#    y 0.000000 2.999170 0.000000 
#    z 0.000000 0.000000 3.442200 
# 
# 
# High freq. dielectric constant tensor:
#      x y z
#    x 1.701580 0.000000 0.000000 
#    y 0.000000 1.642510 0.000000 
#    z 0.000000 0.000000 1.684600 
# 
# From -- ./inp_files/20847.got.cif
#   From: 2010.03.12/outbox.cif.g09.slc.cpg/sg40_11_cif.got.tgz:20847.got - 2010.04.14 01:38:03.
