data_PCOD8182486
_publ_section_title
;
Structure prediction by ZEFSAII (Michael W. Deem and Ramdas Pophale) SiO2 
 PCOD8182486
Probable space group: A M A 2
;
_chemical_formula_sum "Si O2"
_cell_formula_units_Z 56
_cell_length_a 8.664564
_cell_length_b 22.270752
_cell_length_c 17.766685
_cell_angle_alpha 90.000000
_cell_angle_beta 90.000000
_cell_angle_gamma 90.000000
_cell_volume 3428.372463
_symmetry_space_group_name_H-M "A M A 2"
_symmetry_group_IT_number 40
_symmetry_cell_setting 'orthorhombic'
loop_
_space_group_symop_operation_xyz
x,y,z
-x,-y,z
1/2-x,y,z
1/2+x,-y,z
x,1/2+y,1/2+z
-x,1/2-y,1/2+z
1/2-x,1/2+y,1/2+z
1/2+x,1/2-y,1/2+z
loop_
_atom_site_type_symbol
_atom_site_label
_atom_site_fract_x
_atom_site_fract_y
_atom_site_fract_z
Si Si1 0.568309 0.849056 0.055530
Si Si2 0.070848 0.781479 0.753721
Si Si3 0.071829 0.696183 0.940927
Si Si4 0.426978 0.681895 0.394513
Si Si5 0.432338 0.934894 0.172994
Si Si6 0.927734 0.776699 0.603028
Si Si7 0.430816 0.843739 0.302434
O O1 0.750000 0.838864 0.067701
O O2 0.509895 0.907800 0.098275
O O3 0.480029 0.791170 0.086975
O O4 0.531083 0.859820 0.966402
O O5 0.250000 0.767854 0.756487
O O6 0.026846 0.830319 0.818707
O O7 0.023309 0.806176 0.671517
O O8 0.979733 0.719689 0.766838
O O9 0.250000 0.714125 0.926493
O O10 0.958970 0.750609 0.921143
O O11 0.019328 0.644087 0.882540
O O12 0.047549 0.680922 0.029222
O O13 0.250000 0.674393 0.371659
O O14 0.250000 0.937187 0.161110
O O15 0.480013 0.895735 0.245242
O O16 0.500000 0.000000 0.187384
O O17 0.750000 0.774255 0.626617
O O18 0.250000 0.844275 0.317373
#
# Coordination Sequence:
#
# PCOD8182486 Si02
#       7
#     8   8   8   8   8   8   8
#     4  10  19  31  47  64  85 116 151 187 228 270
#     4  11  19  26  42  65  89 120 152 182 218 264
#     4   9  17  27  42  62  84 114 148 181 217 264
#     4   9  17  28  42  61  86 115 146 181 220 266
#     4  11  23  35  49  66  88 119 155 196 231 266
#     4  10  18  28  42  63  91 120 150 182 220 264
#     4  10  19  31  45  61  85 116 147 185 230 266
#
# _framework density 16.33428
#
# number of rings (size 3 to 8) (size 9 to 14) (size 15 to 20)
#    0.000    2.000    1.429    5.571    0.000    5.143 
#    0.000    0.000    0.000    0.000    0.000    0.000 
#    0.000    1.143    0.000    8.000    0.000    5.857 
#
# Total GULP energy -347015.283670 kJ/mol
# GULP energy per Si atom -12393.402988 kJ/mol
# Density = 1.629710 g / cm^3
# Si number density = 16.334280 Si / 1000 Ang^3
#
#
#
# Elastic Constant Matrix: (Units=GPa)
#
#
# Indices 1 2 3 4 5 6 
#
# 1 47.8831 14.3357 45.2807 0.0000 0.0000 0.0000
# 2 14.3357 42.1667 34.9254 0.0000 0.0000 0.0000
# 3 45.2807 34.9254 153.2192 0.0000 0.0000 0.0000
# 4 0.0000 0.0000 0.0000 9.6643 0.0000 0.0000
# 5 0.0000 0.0000 0.0000 0.0000 30.4609 0.0000
# 6 0.0000 0.0000 0.0000 0.0000 0.0000 15.8572
#
#
#
# Elastic Compliance Matrix: (Units=1/GPa)
#
#
# Indices 1 2 3 4 5 6 
#
# 1 0.029386 -0.003449 -0.007898 0.000000 0.000000 0.000000
# 2 -0.003449 0.029640 -0.005737 0.000000 0.000000 0.000000
# 3 -0.007898 -0.005737 0.010168 0.000000 0.000000 0.000000
# 4 0.000000 0.000000 0.000000 0.103474 0.000000 0.000000
# 5 0.000000 0.000000 0.000000 0.000000 0.032829 0.000000
# 6 0.000000 0.000000 0.000000 0.000000 0.000000 0.063063
#
#
# Mechanical properties :
#
#
# Convention : Reuss Voigt Hill
#
# Bulk Modulus (GPa) = 28.55015 48.03917 38.29466
# Shear Modulus (GPa) = 15.90319 21.11162 18.50741
#
# Velocity S-wave (km/s) = 3.12365 3.59900 3.36972
# Velocity P-wave (km/s) = 5.52506 6.83698 6.21573
#
# Compressibility (1/GPa) = 0.03502609
#
# Stress axis : x y z
#
# Youngs Moduli (GPa) = 34.03029 33.73862 98.34321
#
# Poissons Ratio (x) = 0.11635 0.77674
# Poissons Ratio (y) = 0.11736 0.56420
# Poissons Ratio (z) = 0.26878 0.19356
#
# Static dielectric constant tensor:
#      x y z
#    x 3.186120 0.000000 0.000000 
#    y 0.000000 2.581750 0.000000 
#    z 0.000000 0.000000 3.891170 
# 
# 
# High freq. dielectric constant tensor:
#      x y z
#    x 1.649200 0.000000 0.000000 
#    y 0.000000 1.540880 0.000000 
#    z 0.000000 0.000000 1.655160 
# 
# From -- ./inp_files/19476.got.cif
#   From: 2010.03.12/outbox.cif.g09.slc.cpg/sg40_10_cif.got.tgz:19476.got - 2010.04.14 01:38:03.
