data_PCOD8182278
_publ_section_title
;
Structure prediction by ZEFSAII (Michael W. Deem and Ramdas Pophale) SiO2 
 PCOD8182278
Probable space group: A B M 2
;
_chemical_formula_sum "Si O2"
_cell_formula_units_Z 24
_cell_length_a 4.951120
_cell_length_b 16.476618
_cell_length_c 13.696189
_cell_angle_alpha 90.000000
_cell_angle_beta 90.000000
_cell_angle_gamma 90.000000
_cell_volume 1117.303774
_symmetry_space_group_name_H-M "A B M 2"
_symmetry_group_IT_number 39
_symmetry_cell_setting 'orthorhombic'
loop_
_space_group_symop_operation_xyz
x,y,z
-x,-y,z
-x,1/2+y,z
x,1/2-y,z
x,1/2+y,1/2+z
-x,1/2-y,1/2+z
-x,y,1/2+z
x,-y,1/2+z
loop_
_atom_site_type_symbol
_atom_site_label
_atom_site_fract_x
_atom_site_fract_y
_atom_site_fract_z
Si Si1 0.743745 0.444518 0.726860
Si Si2 0.117738 0.157328 0.043024
Si Si3 0.394803 0.410839 0.440991
O O1 0.500000 0.500000 0.686292
O O2 0.808351 0.374791 0.649959
O O3 0.655699 0.399771 0.826119
O O4 0.000000 0.500000 0.750501
O O5 0.022101 0.250000 0.051463
O O6 0.376946 0.153142 0.972439
O O7 0.878484 0.102854 0.000536
O O8 0.500000 0.500000 0.467276
#
# Coordination Sequence:
#
# PCOD8182278 Si02
#       3
#     8   8   8
#     4  11  23  41  66  91 119 163 214 256 298 361
#     4  12  25  40  63  95 130 162 197 255 318 367
#     4  11  23  43  66  90 122 165 213 253 298 364
#
# _framework density 21.480281999999999
#
# number of rings (size 3 to 8) (size 9 to 14) (size 15 to 20)
#    0.000    0.667    0.000   11.000    0.000    2.667 
#    0.000    0.000    0.000    0.000    0.000    0.000 
#    0.000    0.000    0.000    0.000    0.000    0.000 
#
# Total GULP energy -148905.899504 kJ/mol
# GULP energy per Si atom -12408.824959 kJ/mol
# Density = 2.143139 g / cm^3
# Si number density = 21.480282 Si / 1000 Ang^3
#
#
#
# Elastic Constant Matrix: (Units=GPa)
#
#
# Indices 1 2 3 4 5 6 
#
# 1 137.0567 23.6673 60.3957 0.0000 0.0000 0.0000
# 2 23.6673 95.0789 71.0411 0.0000 0.0000 0.0000
# 3 60.3957 71.0411 162.8139 0.0000 0.0000 0.0000
# 4 0.0000 0.0000 0.0000 27.9663 0.0000 0.0000
# 5 0.0000 0.0000 0.0000 0.0000 35.2001 0.0000
# 6 0.0000 0.0000 0.0000 0.0000 0.0000 33.7729
#
#
#
# Elastic Compliance Matrix: (Units=1/GPa)
#
#
# Indices 1 2 3 4 5 6 
#
# 1 0.008731 0.000366 -0.003398 0.000000 0.000000 0.000000
# 2 0.000366 0.015620 -0.006951 0.000000 0.000000 0.000000
# 3 -0.003398 -0.006951 0.010436 0.000000 0.000000 0.000000
# 4 0.000000 0.000000 0.000000 0.035757 0.000000 0.000000
# 5 0.000000 0.000000 0.000000 0.000000 0.028409 0.000000
# 6 0.000000 0.000000 0.000000 0.000000 0.000000 0.029610
#
#
# Mechanical properties :
#
#
# Convention : Reuss Voigt Hill
#
# Bulk Modulus (GPa) = 67.48053 78.35086 72.91570
# Shear Modulus (GPa) = 32.57967 35.37756 33.97861
#
# Velocity S-wave (km/s) = 3.89874 4.06270 3.98156
# Velocity P-wave (km/s) = 7.19376 7.65260 7.42672
#
# Compressibility (1/GPa) = 0.01481909
#
# Stress axis : x y z
#
# Youngs Moduli (GPa) = 114.54046 64.01846 95.82493
#
# Poissons Ratio (x) = -0.02342 0.32563
# Poissons Ratio (y) = -0.04190 0.66612
# Poissons Ratio (z) = 0.38923 0.44502
#
# Static dielectric constant tensor:
#      x y z
#    x 4.200150 0.000000 0.000000 
#    y 0.000000 3.548130 0.000000 
#    z 0.000000 0.000000 3.923480 
# 
# 
# High freq. dielectric constant tensor:
#      x y z
#    x 1.867140 0.000000 0.000000 
#    y 0.000000 1.824570 0.000000 
#    z 0.000000 0.000000 1.858040 
# 
# From -- ./inp_files/4260.got.cif
#   From: 2010.03.12/outbox.cif.g09.slc.cpg/sg39_3_cif.got.tgz:4260.got - 2010.04.14 02:53:20.
