data_PCOD8182803
_publ_section_title
;
Structure prediction by ZEFSAII (Michael W. Deem and Ramdas Pophale) SiO2 
 PCOD8182803
Probable space group: A M A 2
;
_chemical_formula_sum "Si O2"
_cell_formula_units_Z 56
_cell_length_a 14.257332
_cell_length_b 13.355873
_cell_length_c 14.810629
_cell_angle_alpha 90.000000
_cell_angle_beta 90.000000
_cell_angle_gamma 90.000000
_cell_volume 2820.226874
_symmetry_space_group_name_H-M "A M A 2"
_symmetry_group_IT_number 40
_symmetry_cell_setting 'orthorhombic'
loop_
_space_group_symop_operation_xyz
x,y,z
-x,-y,z
1/2-x,y,z
1/2+x,-y,z
x,1/2+y,1/2+z
-x,1/2-y,1/2+z
1/2-x,1/2+y,1/2+z
1/2+x,1/2-y,1/2+z
loop_
_atom_site_type_symbol
_atom_site_label
_atom_site_fract_x
_atom_site_fract_y
_atom_site_fract_z
Si Si1 0.098033 0.947868 0.322910
Si Si2 0.027980 0.158064 0.562070
Si Si3 0.519163 0.161477 0.921732
Si Si4 0.991782 0.237451 0.239361
Si Si5 0.352290 0.092823 0.170991
Si Si6 0.854683 0.031031 0.520573
Si Si7 0.140508 0.021129 0.975495
O O1 0.154512 0.939345 0.415409
O O2 0.084415 0.837866 0.281041
O O3 0.154086 0.014394 0.252176
O O4 0.000000 0.000000 0.346889
O O5 0.022631 0.245326 0.488786
O O6 0.056740 0.195928 0.661789
O O7 0.925824 0.106031 0.570503
O O8 0.108320 0.082221 0.529880
O O9 0.535132 0.195794 0.818979
O O10 0.417692 0.107975 0.925344
O O11 0.603959 0.087373 0.946004
O O12 0.074630 0.179829 0.188277
O O13 0.250000 0.142411 0.158510
O O14 0.380386 0.031391 0.081846
O O15 0.750000 0.039788 0.562557
O O16 0.250000 0.031863 0.950897
#
# Coordination Sequence:
#
# PCOD8182803 Si02
#       7
#     8   8   8   8   8   8   8
#     4  10  18  36  60  89 118 157 206 262 309 353
#     4  11  22  42  62  92 126 165 207 255 310 368
#     4  11  22  41  64  91 122 171 203 255 315 360
#     4  11  22  37  64  87 122 164 209 250 304 371
#     4  10  20  35  60  92 121 157 209 264 309 356
#     4  11  23  40  62  89 128 167 205 255 310 368
#     4  10  23  40  61  91 127 164 206 256 311 368
#
# _framework density 19.856556999999999
#
# number of rings (size 3 to 8) (size 9 to 14) (size 15 to 20)
#    0.000    1.429    4.286    2.143    4.000    4.571 
#    0.000    3.571    0.000    0.000    0.000    0.000 
#    0.000    0.000    0.000    0.000    0.000    0.000 
#
# Total GULP energy -347253.861817 kJ/mol
# GULP energy per Si atom -12401.923636 kJ/mol
# Density = 1.981136 g / cm^3
# Si number density = 19.856557 Si / 1000 Ang^3
#
#
#
# Elastic Constant Matrix: (Units=GPa)
#
#
# Indices 1 2 3 4 5 6 
#
# 1 111.6315 33.3134 13.4914 0.0000 0.0000 0.0000
# 2 33.3134 106.4442 34.3977 0.0000 0.0000 0.0000
# 3 13.4914 34.3977 109.2844 0.0000 0.0000 0.0000
# 4 0.0000 0.0000 0.0000 40.6976 0.0000 0.0000
# 5 0.0000 0.0000 0.0000 0.0000 38.7028 0.0000
# 6 0.0000 0.0000 0.0000 0.0000 0.0000 10.1964
#
#
#
# Elastic Compliance Matrix: (Units=1/GPa)
#
#
# Indices 1 2 3 4 5 6 
#
# 1 0.009888 -0.003006 -0.000275 0.000000 0.000000 0.000000
# 2 -0.003006 0.011372 -0.003208 0.000000 0.000000 0.000000
# 3 -0.000275 -0.003208 0.010194 0.000000 0.000000 0.000000
# 4 0.000000 0.000000 0.000000 0.024571 0.000000 0.000000
# 5 0.000000 0.000000 0.000000 0.000000 0.025838 0.000000
# 6 0.000000 0.000000 0.000000 0.000000 0.000000 0.098074
#
#
# Mechanical properties :
#
#
# Convention : Reuss Voigt Hill
#
# Bulk Modulus (GPa) = 54.12188 54.41835 54.27012
# Shear Modulus (GPa) = 25.11623 34.32986 29.72304
#
# Velocity S-wave (km/s) = 3.56038 4.16251 3.87316
# Velocity P-wave (km/s) = 6.64961 7.11106 6.88420
#
# Compressibility (1/GPa) = 0.01847682
#
# Stress axis : x y z
#
# Youngs Moduli (GPa) = 101.12988 87.93421 98.09529
#
# Poissons Ratio (x) = 0.26433 0.02694
# Poissons Ratio (y) = 0.30399 0.31472
# Poissons Ratio (z) = 0.02777 0.28212
#
# Static dielectric constant tensor:
#      x y z
#    x 3.218380 0.000000 0.000000 
#    y 0.000000 3.739140 0.000000 
#    z 0.000000 0.000000 3.658140 
# 
# 
# High freq. dielectric constant tensor:
#      x y z
#    x 1.763340 0.000000 0.000000 
#    y 0.000000 1.777730 0.000000 
#    z 0.000000 0.000000 1.778320 
# 
# From -- ./inp_files/17065.got.cif
#   From: 2010.03.12/outbox.cif.g09.slc.cpg/sg40_9_cif.got.tgz:17065.got - 2010.04.14 01:38:03.
