data_PCOD8182457
_publ_section_title
;
Structure prediction by ZEFSAII (Michael W. Deem and Ramdas Pophale) SiO2 
 PCOD8182457
Probable space group: A M A 2
;
_chemical_formula_sum "Si O2"
_cell_formula_units_Z 64
_cell_length_a 8.674088
_cell_length_b 26.556712
_cell_length_c 18.480738
_cell_angle_alpha 90.000000
_cell_angle_beta 90.000000
_cell_angle_gamma 90.000000
_cell_volume 4257.135149
_symmetry_space_group_name_H-M "A M A 2"
_symmetry_group_IT_number 40
_symmetry_cell_setting 'orthorhombic'
loop_
_space_group_symop_operation_xyz
x,y,z
-x,-y,z
1/2-x,y,z
1/2+x,-y,z
x,1/2+y,1/2+z
-x,1/2-y,1/2+z
1/2-x,1/2+y,1/2+z
1/2+x,1/2-y,1/2+z
loop_
_atom_site_type_symbol
_atom_site_label
_atom_site_fract_x
_atom_site_fract_y
_atom_site_fract_z
Si Si1 0.069792 0.250056 0.262530
Si Si2 0.071766 0.350851 0.183936
Si Si3 0.068893 0.854353 0.995333
Si Si4 0.074074 0.299120 0.635398
Si Si5 0.933442 0.552742 0.263337
Si Si6 0.067832 0.552411 0.420071
Si Si7 0.074557 0.788836 0.556542
Si Si8 0.073145 0.739749 0.414578
O O1 0.250000 0.250910 0.275825
O O2 0.007265 0.302482 0.228080
O O3 0.028138 0.203712 0.208389
O O4 0.988610 0.240740 0.338639
O O5 0.250000 0.354813 0.202921
O O6 0.998593 0.403320 0.210886
O O7 0.044206 0.342523 0.097004
O O8 0.250000 0.862901 0.983193
O O9 0.974340 0.904099 0.976241
O O10 0.018921 0.808440 0.943677
O O11 0.030690 0.844418 0.080353
O O12 0.250000 0.302952 0.660113
O O13 0.049504 0.249126 0.588586
O O14 0.750000 0.549376 0.263520
O O15 0.000000 0.500000 0.234641
O O16 0.991609 0.565382 0.343345
O O17 0.250000 0.547705 0.410633
O O18 0.000000 0.500000 0.450171
O O19 0.250000 0.771446 0.577525
O O20 0.055891 0.787765 0.469690
O O21 0.250000 0.723258 0.407242
#
# Coordination Sequence:
#
# PCOD8182457 Si02
#       8
#     8   8   8   8   8   8   8   8
#     4  10  18  28  42  59  83 112 141 171 207 250
#     4   8  15  27  42  56  74 107 141 167 199 242
#     4  10  19  31  45  61  84 113 142 172 210 252
#     4   9  17  28  42  60  82 107 137 172 206 244
#     4  10  18  29  43  59  82 109 140 176 212 248
#     4  11  21  32  45  61  83 110 142 178 212 246
#     4   8  15  28  42  57  79 107 138 170 206 247
#     4  10  18  27  42  63  85 109 141 176 207 247
#
# _framework density 15.033583999999999
#
# number of rings (size 3 to 8) (size 9 to 14) (size 15 to 20)
#    0.000    2.500    0.000    5.250    0.000    3.000 
#    0.000    5.625    0.000    0.000    0.000    0.000 
#    0.000    1.000    0.000    6.000    0.000    3.000 
#
# Total GULP energy -396503.369647 kJ/mol
# GULP energy per Si atom -12390.730301 kJ/mol
# Density = 1.499937 g / cm^3
# Si number density = 15.033584 Si / 1000 Ang^3
#
#
#
# Elastic Constant Matrix: (Units=GPa)
#
#
# Indices 1 2 3 4 5 6 
#
# 1 56.5237 25.2436 25.9129 0.0000 0.0000 0.0000
# 2 25.2436 82.9160 51.1694 0.0000 0.0000 0.0000
# 3 25.9129 51.1694 101.6027 0.0000 0.0000 0.0000
# 4 0.0000 0.0000 0.0000 31.6147 0.0000 0.0000
# 5 0.0000 0.0000 0.0000 0.0000 19.9064 0.0000
# 6 0.0000 0.0000 0.0000 0.0000 0.0000 18.7523
#
#
#
# Elastic Compliance Matrix: (Units=1/GPa)
#
#
# Indices 1 2 3 4 5 6 
#
# 1 0.021136 -0.004510 -0.003119 0.000000 0.000000 0.000000
# 2 -0.004510 0.018461 -0.008147 0.000000 0.000000 0.000000
# 3 -0.003119 -0.008147 0.014741 0.000000 0.000000 0.000000
# 4 0.000000 0.000000 0.000000 0.031631 0.000000 0.000000
# 5 0.000000 0.000000 0.000000 0.000000 0.050235 0.000000
# 6 0.000000 0.000000 0.000000 0.000000 0.000000 0.053327
#
#
# Mechanical properties :
#
#
# Convention : Reuss Voigt Hill
#
# Bulk Modulus (GPa) = 43.88800 49.52159 46.70480
# Shear Modulus (GPa) = 21.86472 23.30243 22.58358
#
# Velocity S-wave (km/s) = 3.81779 3.94131 3.88004
# Velocity P-wave (km/s) = 6.97787 7.32967 7.15593
#
# Compressibility (1/GPa) = 0.02278527
#
# Stress axis : x y z
#
# Youngs Moduli (GPa) = 47.31316 54.16738 67.83803
#
# Poissons Ratio (x) = 0.24428 0.21161
# Poissons Ratio (y) = 0.21337 0.55270
# Poissons Ratio (z) = 0.14758 0.44132
#
# Static dielectric constant tensor:
#      x y z
#    x 2.921270 0.000000 0.000000 
#    y 0.000000 2.796370 0.000000 
#    z 0.000000 0.000000 3.040210 
# 
# 
# High freq. dielectric constant tensor:
#      x y z
#    x 1.584370 0.000000 0.000000 
#    y 0.000000 1.539080 0.000000 
#    z 0.000000 0.000000 1.567570 
# 
# From -- ./inp_files/19755.got.cif
#   From: 2010.03.12/outbox.cif.g09.slc.cpg/sg40_10_cif.got.tgz:19755.got - 2010.04.14 01:38:03.
