data_PCOD8182699
_publ_section_title
;
Structure prediction by ZEFSAII (Michael W. Deem and Ramdas Pophale) SiO2 
 PCOD8182699
Probable space group: A M A 2
;
_chemical_formula_sum "Si O2"
_cell_formula_units_Z 64
_cell_length_a 9.081375
_cell_length_b 33.381497
_cell_length_c 11.665348
_cell_angle_alpha 90.000000
_cell_angle_beta 90.000000
_cell_angle_gamma 90.000000
_cell_volume 3536.348990
_symmetry_space_group_name_H-M "A M A 2"
_symmetry_group_IT_number 40
_symmetry_cell_setting 'orthorhombic'
loop_
_space_group_symop_operation_xyz
x,y,z
-x,-y,z
1/2-x,y,z
1/2+x,-y,z
x,1/2+y,1/2+z
-x,1/2-y,1/2+z
1/2-x,1/2+y,1/2+z
1/2+x,1/2-y,1/2+z
loop_
_atom_site_type_symbol
_atom_site_label
_atom_site_fract_x
_atom_site_fract_y
_atom_site_fract_z
Si Si1 0.576736 0.041516 0.135880
Si Si2 0.576651 0.673770 0.122210
Si Si3 0.918469 0.816480 0.389982
Si Si4 0.916850 0.888136 0.763586
Si Si5 0.915448 0.329928 0.478107
Si Si6 0.918528 0.728405 0.329316
Si Si7 0.076931 0.621245 0.694787
Si Si8 0.578342 0.040194 0.870446
O O1 0.750000 0.038282 0.161624
O O2 0.507971 0.078997 0.204463
O O3 0.500000 0.000000 0.175202
O O4 0.543434 0.049864 0.002700
O O5 0.750000 0.665903 0.126208
O O6 0.490598 0.633465 0.155429
O O7 0.527751 0.708982 0.209760
O O8 0.529227 0.685481 0.995396
O O9 0.750000 0.818443 0.433738
O O10 0.945076 0.775807 0.318167
O O11 0.954714 0.854522 0.310954
O O12 0.750000 0.900199 0.732623
O O13 0.013576 0.926688 0.787519
O O14 0.921784 0.860542 0.874264
O O15 0.750000 0.316586 0.508045
O O16 0.984675 0.351883 0.589200
O O17 0.000379 0.289759 0.441083
O O18 0.750000 0.717427 0.349607
O O19 0.250000 0.612563 0.676578
O O20 0.750000 0.035938 0.848515
O O21 0.500000 0.000000 0.831984
#
# Coordination Sequence:
#
# PCOD8182699 Si02
#       8
#     8   8   8   8   8   8   8   8
#     4  10  20  33  53  80 114 148 183 225 275 332
#     4  10  21  37  56  77 105 140 182 226 271 324
#     4  10  22  38  55  77 107 144 184 228 275 327
#     4  10  18  32  54  77 105 140 178 219 266 322
#     4   9  18  31  52  78 104 138 178 218 266 323
#     4   9  20  36  54  76 105 140 178 225 274 320
#     4  10  20  35  55  79 111 146 184 228 276 329
#     4  10  19  30  48  78 113 144 176 217 267 323
#
# _framework density 18.097760999999998
#
# number of rings (size 3 to 8) (size 9 to 14) (size 15 to 20)
#    0.000    2.250    1.250    1.500    1.750    3.500 
#    0.000    0.000    0.000    0.750    0.000    1.750 
#    0.000    0.000    0.000    0.000    0.000    0.000 
#
# Total GULP energy -396833.743203 kJ/mol
# GULP energy per Si atom -12401.054475 kJ/mol
# Density = 1.805657 g / cm^3
# Si number density = 18.097761 Si / 1000 Ang^3
#
#
#
# Elastic Constant Matrix: (Units=GPa)
#
#
# Indices 1 2 3 4 5 6 
#
# 1 85.5589 55.0655 32.0810 0.0000 0.0000 0.0000
# 2 55.0655 127.9134 37.7220 0.0000 0.0000 0.0000
# 3 32.0810 37.7220 71.1526 0.0000 0.0000 0.0000
# 4 0.0000 0.0000 0.0000 25.9654 0.0000 0.0000
# 5 0.0000 0.0000 0.0000 0.0000 25.3693 0.0000
# 6 0.0000 0.0000 0.0000 0.0000 0.0000 34.8058
#
#
#
# Elastic Compliance Matrix: (Units=1/GPa)
#
#
# Indices 1 2 3 4 5 6 
#
# 1 0.017339 -0.006115 -0.004576 0.000000 0.000000 0.000000
# 2 -0.006115 0.011423 -0.003299 0.000000 0.000000 0.000000
# 3 -0.004576 -0.003299 0.017866 0.000000 0.000000 0.000000
# 4 0.000000 0.000000 0.000000 0.038513 0.000000 0.000000
# 5 0.000000 0.000000 0.000000 0.000000 0.039418 0.000000
# 6 0.000000 0.000000 0.000000 0.000000 0.000000 0.028731
#
#
# Mechanical properties :
#
#
# Convention : Reuss Voigt Hill
#
# Bulk Modulus (GPa) = 53.62198 59.37356 56.49777
# Shear Modulus (GPa) = 26.66864 27.87852 27.27358
#
# Velocity S-wave (km/s) = 3.84290 3.92910 3.88624
# Velocity P-wave (km/s) = 7.02737 7.31178 7.17098
#
# Compressibility (1/GPa) = 0.01864907
#
# Stress axis : x y z
#
# Youngs Moduli (GPa) = 57.67286 87.54224 55.97078
#
# Poissons Ratio (x) = 0.53531 0.25612
# Poissons Ratio (y) = 0.35266 0.18464
# Poissons Ratio (z) = 0.26391 0.28880
#
# Static dielectric constant tensor:
#      x y z
#    x 3.396900 0.000000 0.000000 
#    y 0.000000 3.257410 0.000000 
#    z 0.000000 0.000000 3.082440 
# 
# 
# High freq. dielectric constant tensor:
#      x y z
#    x 1.704830 0.000000 0.000000 
#    y 0.000000 1.703590 0.000000 
#    z 0.000000 0.000000 1.672640 
# 
# From -- ./inp_files/10600.got.cif
#   From: 2010.03.12/outbox.cif.g09.slc.cpg/sg40_6_cif.got.tgz:10600.got - 2010.04.14 01:38:03.
