data_PCOD8182400
_publ_section_title
;
Structure prediction by ZEFSAII (Michael W. Deem and Ramdas Pophale) SiO2 
 PCOD8182400
Probable space group: A M A 2
;
_chemical_formula_sum "Si O2"
_cell_formula_units_Z 64
_cell_length_a 16.797613
_cell_length_b 16.463284
_cell_length_c 12.355550
_cell_angle_alpha 90.000000
_cell_angle_beta 90.000000
_cell_angle_gamma 90.000000
_cell_volume 3416.851654
_symmetry_space_group_name_H-M "A M A 2"
_symmetry_group_IT_number 40
_symmetry_cell_setting 'orthorhombic'
loop_
_space_group_symop_operation_xyz
x,y,z
-x,-y,z
1/2-x,y,z
1/2+x,-y,z
x,1/2+y,1/2+z
-x,1/2-y,1/2+z
1/2-x,1/2+y,1/2+z
1/2+x,1/2-y,1/2+z
loop_
_atom_site_type_symbol
_atom_site_label
_atom_site_fract_x
_atom_site_fract_y
_atom_site_fract_z
Si Si1 0.155478 0.816288 0.636490
Si Si2 0.154907 0.727982 0.850652
Si Si3 0.344058 0.751038 0.411531
Si Si4 0.155796 0.780497 0.078816
Si Si5 0.343322 0.048577 0.376696
Si Si6 0.091713 0.993733 0.601861
Si Si7 0.843866 0.866354 0.732748
Si Si8 0.845086 0.106840 0.260523
O O1 0.250000 0.830037 0.637386
O O2 0.123620 0.773228 0.744514
O O3 0.129737 0.757350 0.536816
O O4 0.112706 0.901976 0.630190
O O5 0.250000 0.725415 0.852425
O O6 0.119283 0.636617 0.851076
O O7 0.121786 0.775692 0.956677
O O8 0.250000 0.753915 0.400846
O O9 0.371773 0.667809 0.351222
O O10 0.378158 0.829820 0.349524
O O11 0.250000 0.783038 0.074333
O O12 0.130244 0.700016 0.143567
O O13 0.125740 0.861938 0.141800
O O14 0.250000 0.053855 0.358810
O O15 0.357413 0.023366 0.500064
O O16 0.379363 0.981936 0.292475
O O17 0.111445 0.049734 0.706109
O O18 0.000000 0.000000 0.571286
O O19 0.750000 0.883107 0.730154
O O20 0.750000 0.104801 0.264615
#
# Coordination Sequence:
#
# PCOD8182400 Si02
#       8
#     8   8   8   8   8   8   8   8
#     4  10  19  34  53  76 107 134 163 208 260 302
#     4   9  17  28  49  77 103 132 162 204 257 304
#     4   8  14  26  49  78 100 126 164 204 250 300
#     4   8  13  24  45  75 101 122 159 203 247 296
#     4  10  17  31  53  75  98 128 167 211 256 297
#     4  12  23  33  48  75 104 134 176 211 250 298
#     4   9  16  30  53  75  98 129 169 212 249 294
#     4   8  13  22  44  75 100 123 155 199 246 292
#
# _framework density 18.730692999999999
#
# number of rings (size 3 to 8) (size 9 to 14) (size 15 to 20)
#    0.000    2.750    2.500    2.625    0.000    0.000 
#    0.000    2.500    0.000    6.000    0.000    1.750 
#    0.000    0.000    0.000    0.000    0.000    0.000 
#
# Total GULP energy -396520.656124 kJ/mol
# GULP energy per Si atom -12391.270504 kJ/mol
# Density = 1.868806 g / cm^3
# Si number density = 18.730693 Si / 1000 Ang^3
#
#
#
# Elastic Constant Matrix: (Units=GPa)
#
#
# Indices 1 2 3 4 5 6 
#
# 1 8.4286 6.2521 4.7400 0.0000 0.0000 0.0000
# 2 6.2521 114.1829 69.2843 0.0000 0.0000 0.0000
# 3 4.7400 69.2843 147.8382 0.0000 0.0000 0.0000
# 4 0.0000 0.0000 0.0000 36.3174 0.0000 0.0000
# 5 0.0000 0.0000 0.0000 0.0000 2.9435 0.0000
# 6 0.0000 0.0000 0.0000 0.0000 0.0000 5.0866
#
#
#
# Elastic Compliance Matrix: (Units=1/GPa)
#
#
# Indices 1 2 3 4 5 6 
#
# 1 0.123796 -0.006107 -0.001107 0.000000 0.000000 0.000000
# 2 -0.006107 0.012539 -0.005681 0.000000 0.000000 0.000000
# 3 -0.001107 -0.005681 0.009462 0.000000 0.000000 0.000000
# 4 0.000000 0.000000 0.000000 0.027535 0.000000 0.000000
# 5 0.000000 0.000000 0.000000 0.000000 0.339736 0.000000
# 6 0.000000 0.000000 0.000000 0.000000 0.000000 0.196596
#
#
# Mechanical properties :
#
#
# Convention : Reuss Voigt Hill
#
# Bulk Modulus (GPa) = 8.33279 47.88918 28.11098
# Shear Modulus (GPa) = 6.44782 21.54770 13.99776
#
# Velocity S-wave (km/s) = 1.85738 3.39543 2.73667
# Velocity P-wave (km/s) = 3.00968 6.40270 5.00264
#
# Compressibility (1/GPa) = 0.12000785
#
# Stress axis : x y z
#
# Youngs Moduli (GPa) = 8.07781 79.74995 105.68688
#
# Poissons Ratio (x) = 0.48699 0.11703
# Poissons Ratio (y) = 0.04933 0.60038
# Poissons Ratio (z) = 0.00895 0.45304
#
# Static dielectric constant tensor:
#      x y z
#    x 2.807590 0.000000 0.000000 
#    y 0.000000 3.705820 0.000000 
#    z 0.000000 0.000000 3.841850 
# 
# 
# High freq. dielectric constant tensor:
#      x y z
#    x 1.666520 0.000000 0.000000 
#    y 0.000000 1.723980 0.000000 
#    z 0.000000 0.000000 1.725590 
# 
# From -- ./inp_files/13237.got.cif
#   From: 2010.03.12/outbox.cif.g09.slc.cpg/sg40_7_cif.got.tgz:13237.got - 2010.04.14 01:38:03.
