data_PCOD8182867
_publ_section_title
;
Structure prediction by ZEFSAII (Michael W. Deem and Ramdas Pophale) SiO2 
 PCOD8182867
Probable space group: A M A 2
;
_chemical_formula_sum "Si O2"
_cell_formula_units_Z 64
_cell_length_a 9.033765
_cell_length_b 20.887131
_cell_length_c 19.417118
_cell_angle_alpha 90.000000
_cell_angle_beta 90.000000
_cell_angle_gamma 90.000000
_cell_volume 3663.804985
_symmetry_space_group_name_H-M "A M A 2"
_symmetry_group_IT_number 40
_symmetry_cell_setting 'orthorhombic'
loop_
_space_group_symop_operation_xyz
x,y,z
-x,-y,z
1/2-x,y,z
1/2+x,-y,z
x,1/2+y,1/2+z
-x,1/2-y,1/2+z
1/2-x,1/2+y,1/2+z
1/2+x,1/2-y,1/2+z
loop_
_atom_site_type_symbol
_atom_site_label
_atom_site_fract_x
_atom_site_fract_y
_atom_site_fract_z
Si Si1 0.078542 0.763597 0.947200
Si Si2 0.074814 0.686504 0.573418
Si Si3 0.080752 0.368318 0.941611
Si Si4 0.922469 0.689035 0.152806
Si Si5 0.425400 0.064464 0.161567
Si Si6 0.920268 0.745509 0.293021
Si Si7 0.578481 0.564640 0.078978
Si Si8 0.078050 0.877259 0.287368
O O1 0.250000 0.765920 0.965840
O O2 0.048925 0.784804 0.868025
O O3 0.022819 0.691555 0.958534
O O4 0.993672 0.812930 0.996862
O O5 0.250000 0.688000 0.567328
O O6 0.012132 0.747823 0.615448
O O7 0.023511 0.622414 0.612400
O O8 0.250000 0.343540 0.945867
O O9 0.047593 0.397886 0.866490
O O10 0.050859 0.423045 0.997888
O O11 0.750000 0.687802 0.135300
O O12 0.952338 0.692164 0.234836
O O13 0.991811 0.623808 0.122433
O O14 0.250000 0.056528 0.163599
O O15 0.483437 0.076433 0.238917
O O16 0.500000 0.000000 0.132431
O O17 0.750000 0.769926 0.287564
O O18 0.027469 0.804362 0.277677
O O19 0.500000 0.500000 0.102356
O O20 0.750000 0.556374 0.096136
O O21 0.250000 0.883055 0.267753
#
# Coordination Sequence:
#
# PCOD8182867 Si02
#       8
#     8   8   8   8   8   8   8   8
#     4  10  19  29  50  82 109 129 164 222 262 295
#     4  10  19  35  57  75  99 139 176 208 256 317
#     4   9  18  33  50  71 104 144 178 203 246 310
#     4   9  16  32  56  74  95 134 176 207 247 307
#     4  11  23  38  55  75 103 139 176 217 263 317
#     4   9  17  32  52  77 105 136 172 208 259 311
#     4  10  20  34  51  71  99 135 172 210 248 296
#     4  10  19  31  50  77 107 138 173 213 252 301
#
# _framework density 17.468178000000002
#
# number of rings (size 3 to 8) (size 9 to 14) (size 15 to 20)
#    0.000    2.250    2.500    1.125    0.000    3.000 
#    0.000    1.875    0.000    0.750    0.000    3.500 
#    0.000    0.000    0.000    0.000    0.000    0.000 
#
# Total GULP energy -396773.209850 kJ/mol
# GULP energy per Si atom -12399.162808 kJ/mol
# Density = 1.742842 g / cm^3
# Si number density = 17.468178 Si / 1000 Ang^3
#
#
#
# Elastic Constant Matrix: (Units=GPa)
#
#
# Indices 1 2 3 4 5 6 
#
# 1 47.3881 37.7353 31.9335 0.0000 0.0000 0.0000
# 2 37.7353 124.0026 63.1147 0.0000 0.0000 0.0000
# 3 31.9335 63.1147 104.5472 0.0000 0.0000 0.0000
# 4 0.0000 0.0000 0.0000 23.7564 0.0000 0.0000
# 5 0.0000 0.0000 0.0000 0.0000 24.2724 0.0000
# 6 0.0000 0.0000 0.0000 0.0000 0.0000 27.3493
#
#
#
# Elastic Compliance Matrix: (Units=1/GPa)
#
#
# Indices 1 2 3 4 5 6 
#
# 1 0.029701 -0.006382 -0.005219 0.000000 0.000000 0.000000
# 2 -0.006382 0.013013 -0.005906 0.000000 0.000000 0.000000
# 3 -0.005219 -0.005906 0.014725 0.000000 0.000000 0.000000
# 4 0.000000 0.000000 0.000000 0.042094 0.000000 0.000000
# 5 0.000000 0.000000 0.000000 0.000000 0.041199 0.000000
# 6 0.000000 0.000000 0.000000 0.000000 0.000000 0.036564
#
#
# Mechanical properties :
#
#
# Convention : Reuss Voigt Hill
#
# Bulk Modulus (GPa) = 44.59574 60.16722 52.38148
# Shear Modulus (GPa) = 22.74941 24.61926 23.68433
#
# Velocity S-wave (km/s) = 3.61270 3.75824 3.68619
# Velocity P-wave (km/s) = 6.55647 7.30419 6.94041
#
# Compressibility (1/GPa) = 0.02242367
#
# Stress axis : x y z
#
# Youngs Moduli (GPa) = 33.66837 76.84845 67.91188
#
# Poissons Ratio (x) = 0.49044 0.35446
# Poissons Ratio (y) = 0.21487 0.40111
# Poissons Ratio (z) = 0.17573 0.45389
#
# Static dielectric constant tensor:
#      x y z
#    x 3.151330 0.000000 0.000000 
#    y 0.000000 3.080240 0.000000 
#    z 0.000000 0.000000 3.440320 
# 
# 
# High freq. dielectric constant tensor:
#      x y z
#    x 1.666020 0.000000 0.000000 
#    y 0.000000 1.646170 0.000000 
#    z 0.000000 0.000000 1.680410 
# 
# From -- ./inp_files/22368.got.cif
#   From: 2010.03.12/outbox.cif.g09.slc.cpg/sg40_12_cif.got.tgz:22368.got - 2010.04.14 01:38:03.
