data_PCOD8182131
_publ_section_title
;
Structure prediction by ZEFSAII (Michael W. Deem and Ramdas Pophale) SiO2 
 PCOD8182131
Probable space group: A B M 2
;
_chemical_formula_sum "Si O2"
_cell_formula_units_Z 40
_cell_length_a 8.703343
_cell_length_b 15.922472
_cell_length_c 11.921763
_cell_angle_alpha 90.000000
_cell_angle_beta 90.000000
_cell_angle_gamma 90.000000
_cell_volume 1652.102838
_symmetry_space_group_name_H-M "A B M 2"
_symmetry_group_IT_number 39
_symmetry_cell_setting 'orthorhombic'
loop_
_space_group_symop_operation_xyz
x,y,z
-x,-y,z
-x,1/2+y,z
x,1/2-y,z
x,1/2+y,1/2+z
-x,1/2-y,1/2+z
-x,y,1/2+z
x,-y,1/2+z
loop_
_atom_site_type_symbol
_atom_site_label
_atom_site_fract_x
_atom_site_fract_y
_atom_site_fract_z
Si Si1 0.934646 0.152003 0.364440
Si Si2 0.293406 0.342937 0.680244
Si Si3 0.753362 0.100026 0.944855
Si Si4 0.156391 0.054290 0.065882
Si Si5 0.371957 0.849512 0.728312
O O1 0.963205 0.250000 0.344543
O O2 0.829181 0.112332 0.263984
O O3 0.864875 0.135269 0.487064
O O4 0.097246 0.104818 0.364345
O O5 0.310807 0.250000 0.729776
O O6 0.230867 0.339590 0.553341
O O7 0.464219 0.382095 0.681254
O O8 0.618350 0.130721 0.862172
O O9 0.729627 0.007338 0.996535
O O10 0.239534 0.091369 0.174966
O O11 0.000000 0.000000 0.092315
O O12 0.341684 0.750000 0.706185
#
# Coordination Sequence:
#
# PCOD8182131 Si02
#       5
#     8   8   8   8   8
#     4  10  22  43  71  99 136 186 236 289 351 424
#     4  10  24  44  69 104 142 184 243 297 350 433
#     4  11  25  44  69 101 142 182 236 296 362 422
#     4  10  25  43  69 101 142 180 235 296 354 425
#     4  11  25  46  73 101 141 191 239 295 363 430
#
# _framework density 24.211566999999999
#
# number of rings (size 3 to 8) (size 9 to 14) (size 15 to 20)
#    0.000    1.600    0.000    2.400   11.200    1.600 
#    0.000    0.000    0.000    0.000    0.000    0.000 
#    0.000    0.000    0.000    0.000    0.000    0.000 
#
# Total GULP energy -247778.071402 kJ/mol
# GULP energy per Si atom -12388.903570 kJ/mol
# Density = 2.415646 g / cm^3
# Si number density = 24.211567 Si / 1000 Ang^3
#
#
#
# Elastic Constant Matrix: (Units=GPa)
#
#
# Indices 1 2 3 4 5 6 
#
# 1 112.2125 24.7894 76.5631 0.0000 0.0000 0.0000
# 2 24.7894 89.9009 31.6675 0.0000 0.0000 0.0000
# 3 76.5631 31.6675 157.3823 0.0000 0.0000 0.0000
# 4 0.0000 0.0000 0.0000 30.4360 0.0000 0.0000
# 5 0.0000 0.0000 0.0000 0.0000 39.7652 0.0000
# 6 0.0000 0.0000 0.0000 0.0000 0.0000 26.8320
#
#
#
# Elastic Compliance Matrix: (Units=1/GPa)
#
#
# Indices 1 2 3 4 5 6 
#
# 1 0.013530 -0.001520 -0.006276 0.000000 0.000000 0.000000
# 2 -0.001520 0.012143 -0.001704 0.000000 0.000000 0.000000
# 3 -0.006276 -0.001704 0.009750 0.000000 0.000000 0.000000
# 4 0.000000 0.000000 0.000000 0.032856 0.000000 0.000000
# 5 0.000000 0.000000 0.000000 0.000000 0.025148 0.000000
# 6 0.000000 0.000000 0.000000 0.000000 0.000000 0.037269
#
#
# Mechanical properties :
#
#
# Convention : Reuss Voigt Hill
#
# Bulk Modulus (GPa) = 60.89188 69.50398 65.19793
# Shear Modulus (GPa) = 32.22304 34.50500 33.36402
#
# Velocity S-wave (km/s) = 3.65210 3.77921 3.71620
# Velocity P-wave (km/s) = 6.55655 6.91465 6.73798
#
# Compressibility (1/GPa) = 0.01642255
#
# Stress axis : x y z
#
# Youngs Moduli (GPa) = 73.91195 82.35432 102.56467
#
# Poissons Ratio (x) = 0.12517 0.64370
# Poissons Ratio (y) = 0.11234 0.17475
# Poissons Ratio (z) = 0.46387 0.14032
#
# Static dielectric constant tensor:
#      x y z
#    x 4.399360 0.000000 0.000000 
#    y 0.000000 4.202880 0.000000 
#    z 0.000000 0.000000 4.486280 
# 
# 
# High freq. dielectric constant tensor:
#      x y z
#    x 1.951760 0.000000 0.000000 
#    y 0.000000 1.952270 0.000000 
#    z 0.000000 0.000000 1.972230 
# 
# From -- ./inp_files/4928.got.cif
#   From: 2010.03.12/outbox.cif.g09.slc.cpg/sg39_3_cif.got.tgz:4928.got - 2010.04.14 02:53:20.
