data_PCOD8182980
_publ_section_title
;
Structure prediction by ZEFSAII (Michael W. Deem and Ramdas Pophale) SiO2 
 PCOD8182980
Probable space group: A M A 2
;
_chemical_formula_sum "Si O2"
_cell_formula_units_Z 56
_cell_length_a 8.588543
_cell_length_b 13.722039
_cell_length_c 29.419455
_cell_angle_alpha 90.000000
_cell_angle_beta 90.000000
_cell_angle_gamma 90.000000
_cell_volume 3467.151084
_symmetry_space_group_name_H-M "A M A 2"
_symmetry_group_IT_number 40
_symmetry_cell_setting 'orthorhombic'
loop_
_space_group_symop_operation_xyz
x,y,z
-x,-y,z
1/2-x,y,z
1/2+x,-y,z
x,1/2+y,1/2+z
-x,1/2-y,1/2+z
1/2-x,1/2+y,1/2+z
1/2+x,1/2-y,1/2+z
loop_
_atom_site_type_symbol
_atom_site_label
_atom_site_fract_x
_atom_site_fract_y
_atom_site_fract_z
Si Si1 0.432769 0.893273 0.863400
Si Si2 0.934535 0.897007 0.126335
Si Si3 0.934151 0.208504 0.675982
Si Si4 0.933679 0.890844 0.955075
Si Si5 0.065780 0.895072 0.585678
Si Si6 0.567401 0.106993 0.764331
Si Si7 0.066017 0.791751 0.041637
O O1 0.250000 0.896548 0.874428
O O2 0.521947 0.843610 0.905784
O O3 0.466787 0.844032 0.813980
O O4 0.500000 0.000000 0.858043
O O5 0.750000 0.900466 0.123429
O O6 0.993988 0.816405 0.162652
O O7 0.997536 0.870571 0.076611
O O8 0.000000 0.000000 0.142812
O O9 0.750000 0.211348 0.678503
O O10 0.986769 0.132558 0.636921
O O11 0.004441 0.175772 0.724663
O O12 0.750000 0.892995 0.962070
O O13 0.000000 0.000000 0.958752
O O14 0.012435 0.821456 0.991677
O O15 0.250000 0.894178 0.580596
O O16 0.996480 0.816497 0.550904
O O17 0.000000 0.000000 0.572551
O O18 0.750000 0.095963 0.757250
O O19 0.500000 0.000000 0.759088
O O20 0.250000 0.793058 0.045274
#
# Coordination Sequence:
#
# PCOD8182980 Si02
#       7
#     8   8   8   8   8   8   8
#     4   9  16  26  41  62  88 116 147 180 219 266
#     4  10  19  32  47  65  91 120 152 188 226 267
#     4   8  16  29  45  65  90 120 152 184 219 261
#     4  11  20  31  46  65  91 120 150 184 225 271
#     4  10  19  32  48  68  94 123 154 187 223 261
#     4   9  16  27  43  64  90 119 148 180 218 261
#     4  11  21  33  48  67  90 118 153 187 225 269
#
# _framework density 16.151589999999999
#
# number of rings (size 3 to 8) (size 9 to 14) (size 15 to 20)
#    0.000    2.286    0.000    6.429    0.000    0.571 
#    0.000    3.571    0.000    0.000    0.000    1.000 
#    0.000    4.571    0.000    0.000    0.000    0.000 
#
# Total GULP energy -347046.520237 kJ/mol
# GULP energy per Si atom -12394.518580 kJ/mol
# Density = 1.611483 g / cm^3
# Si number density = 16.151590 Si / 1000 Ang^3
#
#
#
# Elastic Constant Matrix: (Units=GPa)
#
#
# Indices 1 2 3 4 5 6 
#
# 1 81.5373 30.4059 28.1457 0.0000 0.0000 0.0000
# 2 30.4059 95.3561 54.9719 0.0000 0.0000 0.0000
# 3 28.1457 54.9719 131.0719 0.0000 0.0000 0.0000
# 4 0.0000 0.0000 0.0000 26.1401 0.0000 0.0000
# 5 0.0000 0.0000 0.0000 0.0000 14.6312 0.0000
# 6 0.0000 0.0000 0.0000 0.0000 0.0000 23.2186
#
#
#
# Elastic Compliance Matrix: (Units=1/GPa)
#
#
# Indices 1 2 3 4 5 6 
#
# 1 0.014143 -0.003639 -0.001511 0.000000 0.000000 0.000000
# 2 -0.003639 0.014767 -0.005412 0.000000 0.000000 0.000000
# 3 -0.001511 -0.005412 0.010224 0.000000 0.000000 0.000000
# 4 0.000000 0.000000 0.000000 0.038255 0.000000 0.000000
# 5 0.000000 0.000000 0.000000 0.000000 0.068347 0.000000
# 6 0.000000 0.000000 0.000000 0.000000 0.000000 0.043069
#
#
# Mechanical properties :
#
#
# Convention : Reuss Voigt Hill
#
# Bulk Modulus (GPa) = 55.52327 59.44582 57.48455
# Shear Modulus (GPa) = 23.15547 25.76077 24.45812
#
# Velocity S-wave (km/s) = 3.79044 3.99800 3.89560
# Velocity P-wave (km/s) = 7.32172 7.62868 7.47678
#
# Compressibility (1/GPa) = 0.01801047
#
# Stress axis : x y z
#
# Youngs Moduli (GPa) = 70.70765 67.71733 97.81210
#
# Poissons Ratio (x) = 0.24640 0.14778
# Poissons Ratio (y) = 0.25728 0.52937
# Poissons Ratio (z) = 0.10683 0.36649
#
# Static dielectric constant tensor:
#      x y z
#    x 3.120390 0.000000 0.000000 
#    y 0.000000 2.920420 0.000000 
#    z 0.000000 0.000000 3.634500 
# 
# 
# High freq. dielectric constant tensor:
#      x y z
#    x 1.628170 0.000000 0.000000 
#    y 0.000000 1.587370 0.000000 
#    z 0.000000 0.000000 1.625100 
# 
# From -- ./inp_files/26410.got.cif
#   From: 2010.03.12/outbox.cif.g09.slc.cpg/sg40_14_cif.got.tgz:26410.got - 2010.04.14 01:38:03.
