data_PCOD8182686
_publ_section_title
;
Structure prediction by ZEFSAII (Michael W. Deem and Ramdas Pophale) SiO2 
 PCOD8182686
Probable space group: A M A 2
;
_chemical_formula_sum "Si O2"
_cell_formula_units_Z 64
_cell_length_a 9.038208
_cell_length_b 23.002492
_cell_length_c 18.967260
_cell_angle_alpha 90.000000
_cell_angle_beta 90.000000
_cell_angle_gamma 90.000000
_cell_volume 3943.318148
_symmetry_space_group_name_H-M "A M A 2"
_symmetry_group_IT_number 40
_symmetry_cell_setting 'orthorhombic'
loop_
_space_group_symop_operation_xyz
x,y,z
-x,-y,z
1/2-x,y,z
1/2+x,-y,z
x,1/2+y,1/2+z
-x,1/2-y,1/2+z
1/2-x,1/2+y,1/2+z
1/2+x,1/2-y,1/2+z
loop_
_atom_site_type_symbol
_atom_site_label
_atom_site_fract_x
_atom_site_fract_y
_atom_site_fract_z
Si Si1 0.425839 0.938493 0.547150
Si Si2 0.921794 0.750296 0.693945
Si Si3 0.420304 0.275240 0.537733
Si Si4 0.077855 0.229343 0.330950
Si Si5 0.077049 0.170266 0.915261
Si Si6 0.575296 0.384295 0.182810
Si Si7 0.419837 0.655855 0.962448
Si Si8 0.078162 0.559396 0.329361
O O1 0.250000 0.944963 0.550015
O O2 0.484141 0.913122 0.620372
O O3 0.471833 0.896465 0.482788
O O4 0.500000 0.000000 0.532115
O O5 0.750000 0.746288 0.713229
O O6 0.956753 0.718597 0.620155
O O7 0.970933 0.817255 0.689768
O O8 0.013392 0.716179 0.753625
O O9 0.250000 0.289190 0.521101
O O10 0.518944 0.321300 0.494866
O O11 0.456409 0.209871 0.513419
O O12 0.250000 0.243274 0.325937
O O13 0.049406 0.173902 0.381430
O O14 0.999880 0.286015 0.361585
O O15 0.250000 0.183135 0.911905
O O16 0.039686 0.105211 0.890690
O O17 0.750000 0.390114 0.167263
O O18 0.525524 0.416626 0.253833
O O19 0.250000 0.636273 0.973248
O O20 0.250000 0.546619 0.325931
O O21 0.000000 0.500000 0.349486
#
# Coordination Sequence:
#
# PCOD8182686 Si02
#       8
#     8   8   8   8   8   8   8   8
#     4  12  24  35  50  72  97 132 174 210 246 293
#     4  10  18  32  52  73 103 135 161 198 248 296
#     4   9  18  32  51  73  98 130 162 201 251 292
#     4  10  20  32  50  74 100 129 164 203 247 295
#     4  10  19  33  49  69  97 130 165 205 252 293
#     4  10  19  35  50  67 101 137 168 204 243 285
#     4   9  18  35  51  68  98 131 163 205 249 288
#     4  10  21  34  49  68  94 132 170 204 243 282
#
# _framework density 16.229986
#
# number of rings (size 3 to 8) (size 9 to 14) (size 15 to 20)
#    0.000    2.000    2.500    3.000    0.000    6.000 
#    0.000    0.000    0.000    0.000    0.000    0.875 
#    0.000    4.000    0.000    0.000    0.000    0.000 
#
# Total GULP energy -396851.374975 kJ/mol
# GULP energy per Si atom -12401.605468 kJ/mol
# Density = 1.619305 g / cm^3
# Si number density = 16.229986 Si / 1000 Ang^3
#
#
#
# Elastic Constant Matrix: (Units=GPa)
#
#
# Indices 1 2 3 4 5 6 
#
# 1 88.7131 53.6840 58.2313 0.0000 0.0000 0.0000
# 2 53.6840 81.3642 58.1435 0.0000 0.0000 0.0000
# 3 58.2313 58.1435 118.2524 0.0000 0.0000 0.0000
# 4 0.0000 0.0000 0.0000 20.1449 0.0000 0.0000
# 5 0.0000 0.0000 0.0000 0.0000 32.2236 0.0000
# 6 0.0000 0.0000 0.0000 0.0000 0.0000 26.6206
#
#
#
# Elastic Compliance Matrix: (Units=1/GPa)
#
#
# Indices 1 2 3 4 5 6 
#
# 1 0.020770 -0.009859 -0.005380 0.000000 0.000000 0.000000
# 2 -0.009859 0.023628 -0.006763 0.000000 0.000000 0.000000
# 3 -0.005380 -0.006763 0.014431 0.000000 0.000000 0.000000
# 4 0.000000 0.000000 0.000000 0.049640 0.000000 0.000000
# 5 0.000000 0.000000 0.000000 0.000000 0.031033 0.000000
# 6 0.000000 0.000000 0.000000 0.000000 0.000000 0.037565
#
#
# Mechanical properties :
#
#
# Convention : Reuss Voigt Hill
#
# Bulk Modulus (GPa) = 67.45381 69.82747 68.64064
# Shear Modulus (GPa) = 22.12251 23.68253 22.90252
#
# Velocity S-wave (km/s) = 3.69598 3.82407 3.76057
# Velocity P-wave (km/s) = 7.73725 7.91297 7.82561
#
# Compressibility (1/GPa) = 0.01482496
#
# Stress axis : x y z
#
# Youngs Moduli (GPa) = 48.14601 42.32208 69.29540
#
# Poissons Ratio (x) = 0.41727 0.37282
# Poissons Ratio (y) = 0.47469 0.46862
# Poissons Ratio (z) = 0.25903 0.28621
#
# Static dielectric constant tensor:
#      x y z
#    x 3.085540 0.000000 0.000000 
#    y 0.000000 2.953310 0.000000 
#    z 0.000000 0.000000 3.216820 
# 
# 
# High freq. dielectric constant tensor:
#      x y z
#    x 1.628360 0.000000 0.000000 
#    y 0.000000 1.595980 0.000000 
#    z 0.000000 0.000000 1.624390 
# 
# From -- ./inp_files/22392.got.cif
#   From: 2010.03.12/outbox.cif.g09.slc.cpg/sg40_12_cif.got.tgz:22392.got - 2010.04.14 01:38:03.
