data_PCOD8182201
_publ_section_title
;
Structure prediction by ZEFSAII (Michael W. Deem and Ramdas Pophale) SiO2 
 PCOD8182201
Probable space group: A B M 2
;
_chemical_formula_sum "Si O2"
_cell_formula_units_Z 48
_cell_length_a 11.513936
_cell_length_b 18.012272
_cell_length_c 10.967680
_cell_angle_alpha 90.000000
_cell_angle_beta 90.000000
_cell_angle_gamma 90.000000
_cell_volume 2274.610703
_symmetry_space_group_name_H-M "A B M 2"
_symmetry_group_IT_number 39
_symmetry_cell_setting 'orthorhombic'
loop_
_space_group_symop_operation_xyz
x,y,z
-x,-y,z
-x,1/2+y,z
x,1/2-y,z
x,1/2+y,1/2+z
-x,1/2-y,1/2+z
-x,y,1/2+z
x,-y,1/2+z
loop_
_atom_site_type_symbol
_atom_site_label
_atom_site_fract_x
_atom_site_fract_y
_atom_site_fract_z
Si Si1 0.368445 0.833202 0.603170
Si Si2 0.727599 0.078442 0.392521
Si Si3 0.841545 0.667384 0.277132
Si Si4 0.224327 0.424418 0.503855
Si Si5 0.567413 0.571190 0.667744
Si Si6 0.104342 0.838710 0.216143
O O1 0.404537 0.750000 0.574837
O O2 0.360407 0.875604 0.475864
O O3 0.241212 0.838811 0.661169
O O4 0.471199 0.865110 0.689641
O O5 0.644692 0.048724 0.284518
O O6 0.825250 0.132590 0.334483
O O7 0.786558 0.012691 0.473511
O O8 0.841717 0.750000 0.332225
O O9 0.790016 0.613086 0.375244
O O10 0.970064 0.644766 0.238341
O O11 0.350152 0.404083 0.556860
O O12 0.131558 0.390532 0.599134
O O13 0.500000 0.500000 0.620739
O O14 0.128487 0.750000 0.194390
#
# Coordination Sequence:
#
# PCOD8182201 Si02
#       6
#     8   8   8   8   8   8
#     4  11  25  42  67 100 134 176 228 276 337 416
#     4  11  25  43  68 100 135 175 225 288 339 401
#     4  10  24  44  68  98 136 178 223 278 338 402
#     4  11  24  43  70 100 133 177 226 278 339 408
#     4  11  24  43  67  93 134 178 219 275 351 396
#     4  10  24  47  71  97 138 184 226 278 342 407
#
# _framework density 21.102509999999999
#
# number of rings (size 3 to 8) (size 9 to 14) (size 15 to 20)
#    0.000    1.333    1.667    2.000    9.333    4.667 
#    0.000    0.000    0.000    0.000    0.000    0.000 
#    0.000    0.000    0.000    0.000    0.000    0.000 
#
# Total GULP energy -297526.825471 kJ/mol
# GULP energy per Si atom -12396.951061 kJ/mol
# Density = 2.105448 g / cm^3
# Si number density = 21.102510 Si / 1000 Ang^3
#
#
#
# Elastic Constant Matrix: (Units=GPa)
#
#
# Indices 1 2 3 4 5 6 
#
# 1 126.1838 52.4195 33.8220 0.0000 0.0000 0.0000
# 2 52.4195 137.7727 53.1255 0.0000 0.0000 0.0000
# 3 33.8220 53.1255 80.9507 0.0000 0.0000 0.0000
# 4 0.0000 0.0000 0.0000 39.9020 0.0000 0.0000
# 5 0.0000 0.0000 0.0000 0.0000 29.2915 0.0000
# 6 0.0000 0.0000 0.0000 0.0000 0.0000 35.6966
#
#
#
# Elastic Compliance Matrix: (Units=1/GPa)
#
#
# Indices 1 2 3 4 5 6 
#
# 1 0.009692 -0.002846 -0.002181 0.000000 0.000000 0.000000
# 2 -0.002846 0.010553 -0.005737 0.000000 0.000000 0.000000
# 3 -0.002181 -0.005737 0.017029 0.000000 0.000000 0.000000
# 4 0.000000 0.000000 0.000000 0.025061 0.000000 0.000000
# 5 0.000000 0.000000 0.000000 0.000000 0.034140 0.000000
# 6 0.000000 0.000000 0.000000 0.000000 0.000000 0.028014
#
#
# Mechanical properties :
#
#
# Convention : Reuss Voigt Hill
#
# Bulk Modulus (GPa) = 63.50845 69.29345 66.40095
# Shear Modulus (GPa) = 33.05406 34.68070 33.86738
#
# Velocity S-wave (km/s) = 3.96202 4.05833 4.01046
# Velocity P-wave (km/s) = 7.14777 7.40729 7.27869
#
# Compressibility (1/GPa) = 0.01574594
#
# Stress axis : x y z
#
# Youngs Moduli (GPa) = 103.17635 94.75618 58.72216
#
# Poissons Ratio (x) = 0.26972 0.12810
# Poissons Ratio (y) = 0.29369 0.33686
# Poissons Ratio (z) = 0.22507 0.54358
#
# Static dielectric constant tensor:
#      x y z
#    x 3.908150 0.000000 0.000000 
#    y 0.000000 4.148800 0.000000 
#    z 0.000000 0.000000 3.769490 
# 
# 
# High freq. dielectric constant tensor:
#      x y z
#    x 1.835830 0.000000 0.000000 
#    y 0.000000 1.835610 0.000000 
#    z 0.000000 0.000000 1.827240 
# 
# From -- ./inp_files/5825.got.cif
#   From: 2010.03.12/outbox.cif.g09.slc.cpg/sg39_3_cif.got.tgz:5825.got - 2010.04.14 02:53:20.
