data_PCOD8182657
_publ_section_title
;
Structure prediction by ZEFSAII (Michael W. Deem and Ramdas Pophale) SiO2 
 PCOD8182657
Probable space group: A M A 2
;
_chemical_formula_sum "Si O2"
_cell_formula_units_Z 56
_cell_length_a 8.452888
_cell_length_b 14.235051
_cell_length_c 22.940622
_cell_angle_alpha 90.000000
_cell_angle_beta 90.000000
_cell_angle_gamma 90.000000
_cell_volume 2760.382917
_symmetry_space_group_name_H-M "A M A 2"
_symmetry_group_IT_number 40
_symmetry_cell_setting 'orthorhombic'
loop_
_space_group_symop_operation_xyz
x,y,z
-x,-y,z
1/2-x,y,z
1/2+x,-y,z
x,1/2+y,1/2+z
-x,1/2-y,1/2+z
1/2-x,1/2+y,1/2+z
1/2+x,1/2-y,1/2+z
loop_
_atom_site_type_symbol
_atom_site_label
_atom_site_fract_x
_atom_site_fract_y
_atom_site_fract_z
Si Si1 0.933837 0.339112 0.459540
Si Si2 0.564168 0.594955 0.875939
Si Si3 0.935980 0.706176 0.109940
Si Si4 0.937851 0.594516 0.569807
Si Si5 0.935951 0.395951 0.220993
Si Si6 0.566143 0.794698 0.834134
Si Si7 0.067757 0.147820 0.493931
O O1 0.750000 0.310703 0.470437
O O2 0.959971 0.361528 0.391092
O O3 0.989873 0.419292 0.504005
O O4 0.051463 0.255464 0.475954
O O5 0.500000 0.500000 0.844584
O O6 0.750000 0.597683 0.871389
O O7 0.493568 0.689840 0.845852
O O8 0.515133 0.586743 0.943869
O O9 0.750000 0.703349 0.119384
O O10 0.991453 0.813187 0.100163
O O11 0.021772 0.669120 0.167043
O O12 0.982982 0.636631 0.056728
O O13 0.750000 0.600237 0.570165
O O14 0.000000 0.500000 0.602736
O O15 0.750000 0.403552 0.227920
O O16 0.011893 0.346663 0.278808
O O17 0.000000 0.500000 0.212613
O O18 0.750000 0.780360 0.821619
O O19 0.250000 0.118705 0.499702
#
# Coordination Sequence:
#
# PCOD8182657 Si02
#       7
#     8   8   8   8   8   8   8
#     4   9  16  31  53  80 112 148 183 224 272 323
#     4  10  19  34  55  84 116 150 185 226 276 334
#     4  11  22  39  59  83 113 149 189 236 285 337
#     4  11  21  35  56  86 119 154 189 230 279 336
#     4  11  23  42  62  83 108 143 188 237 285 336
#     4   8  18  36  58  80 112 150 186 228 280 331
#     4  10  18  31  52  80 110 146 183 223 271 325
#
# _framework density 20.287040000000001
#
# number of rings (size 3 to 8) (size 9 to 14) (size 15 to 20)
#    0.000    2.000    0.000    7.714    0.000    1.143 
#    0.000   13.571    0.000    1.714    0.000    0.000 
#    0.000    0.000    0.000    0.000    0.000    0.000 
#
# Total GULP energy -346945.636450 kJ/mol
# GULP energy per Si atom -12390.915588 kJ/mol
# Density = 2.024087 g / cm^3
# Si number density = 20.287040 Si / 1000 Ang^3
#
#
#
# Elastic Constant Matrix: (Units=GPa)
#
#
# Indices 1 2 3 4 5 6 
#
# 1 67.7059 14.2431 3.8465 0.0000 0.0000 0.0000
# 2 14.2431 107.4093 36.6710 0.0000 0.0000 0.0000
# 3 3.8465 36.6710 104.5767 0.0000 0.0000 0.0000
# 4 0.0000 0.0000 0.0000 27.4187 0.0000 0.0000
# 5 0.0000 0.0000 0.0000 0.0000 22.4631 0.0000
# 6 0.0000 0.0000 0.0000 0.0000 0.0000 28.5045
#
#
#
# Elastic Compliance Matrix: (Units=1/GPa)
#
#
# Indices 1 2 3 4 5 6 
#
# 1 0.015196 -0.002072 0.000168 0.000000 0.000000 0.000000
# 2 -0.002072 0.010859 -0.003732 0.000000 0.000000 0.000000
# 3 0.000168 -0.003732 0.010865 0.000000 0.000000 0.000000
# 4 0.000000 0.000000 0.000000 0.036471 0.000000 0.000000
# 5 0.000000 0.000000 0.000000 0.000000 0.044517 0.000000
# 6 0.000000 0.000000 0.000000 0.000000 0.000000 0.035082
#
#
# Mechanical properties :
#
#
# Convention : Reuss Voigt Hill
#
# Bulk Modulus (GPa) = 38.99019 43.24589 41.11804
# Shear Modulus (GPa) = 28.93307 30.67268 29.80287
#
# Velocity S-wave (km/s) = 3.78058 3.89258 3.83699
# Velocity P-wave (km/s) = 6.19016 6.44718 6.31998
#
# Compressibility (1/GPa) = 0.02564748
#
# Stress axis : x y z
#
# Youngs Moduli (GPa) = 65.80593 92.08945 92.04102
#
# Poissons Ratio (x) = 0.19084 -0.01544
# Poissons Ratio (y) = 0.13637 0.34346
# Poissons Ratio (z) = -0.01104 0.34364
#
# Static dielectric constant tensor:
#      x y z
#    x 3.568460 0.000000 0.000000 
#    y 0.000000 4.016310 0.000000 
#    z 0.000000 0.000000 3.853230 
# 
# 
# High freq. dielectric constant tensor:
#      x y z
#    x 1.788990 0.000000 0.000000 
#    y 0.000000 1.793570 0.000000 
#    z 0.000000 0.000000 1.775360 
# 
# From -- ./inp_files/22166.got.cif
#   From: 2010.03.12/outbox.cif.g09.slc.cpg/sg40_12_cif.got.tgz:22166.got - 2010.04.14 01:38:03.
