data_PCOD8182732
_publ_section_title
;
Structure prediction by ZEFSAII (Michael W. Deem and Ramdas Pophale) SiO2 
 PCOD8182732
Probable space group: A M A 2
;
_chemical_formula_sum "Si O2"
_cell_formula_units_Z 64
_cell_length_a 8.910480
_cell_length_b 23.283714
_cell_length_c 19.094842
_cell_angle_alpha 90.000000
_cell_angle_beta 90.000000
_cell_angle_gamma 90.000000
_cell_volume 3961.589072
_symmetry_space_group_name_H-M "A M A 2"
_symmetry_group_IT_number 40
_symmetry_cell_setting 'orthorhombic'
loop_
_space_group_symop_operation_xyz
x,y,z
-x,-y,z
1/2-x,y,z
1/2+x,-y,z
x,1/2+y,1/2+z
-x,1/2-y,1/2+z
1/2-x,1/2+y,1/2+z
1/2+x,1/2-y,1/2+z
loop_
_atom_site_type_symbol
_atom_site_label
_atom_site_fract_x
_atom_site_fract_y
_atom_site_fract_z
Si Si1 0.571901 0.740695 0.250000
Si Si2 0.576152 0.164558 0.982334
Si Si3 0.575056 0.279320 0.898234
Si Si4 0.071364 0.060725 0.604683
Si Si5 0.427800 0.889466 0.742835
Si Si6 0.574073 0.158217 0.517372
Si Si7 0.572911 0.559796 0.391628
Si Si8 0.574879 0.273120 0.600020
O O1 0.750000 0.736491 0.251845
O O2 0.517372 0.776219 0.317912
O O3 0.511775 0.675516 0.250321
O O4 0.516015 0.773377 0.180118
O O5 0.750000 0.157141 0.996766
O O6 0.543376 0.217068 0.930589
O O7 0.510659 0.107552 0.945735
O O8 0.500587 0.174993 0.057647
O O9 0.750000 0.295547 0.903501
O O10 0.478657 0.327480 0.938371
O O11 0.250000 0.056345 0.605461
O O12 0.014087 0.080110 0.680292
O O13 0.018791 0.104264 0.544576
O O14 0.000000 0.000000 0.585102
O O15 0.250000 0.891149 0.727544
O O16 0.471792 0.923235 0.812945
O O17 0.750000 0.144191 0.518425
O O18 0.533265 0.211647 0.567147
O O19 0.500000 0.500000 0.413006
O O20 0.750000 0.555067 0.398209
O O21 0.750000 0.283961 0.596634
#
# Coordination Sequence:
#
# PCOD8182732 Si02
#       8
#     8   8   8   8   8   8   8   8
#     4   9  15  28  50  72  97 132 162 190 237 293
#     4   9  17  30  46  66  92 124 160 198 240 282
#     4   9  16  29  50  71  94 126 162 195 235 292
#     4  12  24  36  50  70  96 131 171 206 242 287
#     4  10  18  33  50  68  99 134 167 200 237 282
#     4  10  19  33  50  70  98 128 160 202 246 286
#     4  10  20  32  48  67  93 131 168 201 239 282
#     4   9  17  29  48  70  94 126 160 196 241 286
#
# _framework density 16.155132999999999
#
# number of rings (size 3 to 8) (size 9 to 14) (size 15 to 20)
#    0.000    2.250    2.500    1.875    0.000    2.500 
#    0.000    1.250    0.000    0.000    0.000    0.875 
#    0.000    2.000    0.000    0.000    0.000    0.000 
#
# Total GULP energy -396779.837532 kJ/mol
# GULP energy per Si atom -12399.369923 kJ/mol
# Density = 1.611836 g / cm^3
# Si number density = 16.155133 Si / 1000 Ang^3
#
#
#
# Elastic Constant Matrix: (Units=GPa)
#
#
# Indices 1 2 3 4 5 6 
#
# 1 52.1650 41.7472 39.8790 0.0000 0.0000 0.0000
# 2 41.7472 99.0778 64.4780 0.0000 0.0000 0.0000
# 3 39.8790 64.4780 128.5949 0.0000 0.0000 0.0000
# 4 0.0000 0.0000 0.0000 23.8937 0.0000 0.0000
# 5 0.0000 0.0000 0.0000 0.0000 25.0811 0.0000
# 6 0.0000 0.0000 0.0000 0.0000 0.0000 23.5530
#
#
#
# Elastic Compliance Matrix: (Units=1/GPa)
#
#
# Indices 1 2 3 4 5 6 
#
# 1 0.030572 -0.009963 -0.004485 0.000000 0.000000 0.000000
# 2 -0.009963 0.018228 -0.006050 0.000000 0.000000 0.000000
# 3 -0.004485 -0.006050 0.012201 0.000000 0.000000 0.000000
# 4 0.000000 0.000000 0.000000 0.041852 0.000000 0.000000
# 5 0.000000 0.000000 0.000000 0.000000 0.039871 0.000000
# 6 0.000000 0.000000 0.000000 0.000000 0.000000 0.042458
#
#
# Mechanical properties :
#
#
# Convention : Reuss Voigt Hill
#
# Bulk Modulus (GPa) = 49.98853 63.56068 56.77460
# Shear Modulus (GPa) = 21.47339 23.42112 22.44726
#
# Velocity S-wave (km/s) = 3.64977 3.81171 3.73162
# Velocity P-wave (km/s) = 6.98363 7.66821 7.33392
#
# Compressibility (1/GPa) = 0.02000459
#
# Stress axis : x y z
#
# Youngs Moduli (GPa) = 32.70963 54.85975 81.96094
#
# Poissons Ratio (x) = 0.54655 0.36763
# Poissons Ratio (y) = 0.32588 0.49588
# Poissons Ratio (z) = 0.14672 0.33191
#
# Static dielectric constant tensor:
#      x y z
#    x 2.923450 0.000000 0.000000 
#    y 0.000000 3.018360 0.000000 
#    z 0.000000 0.000000 3.269930 
# 
# 
# High freq. dielectric constant tensor:
#      x y z
#    x 1.609630 0.000000 0.000000 
#    y 0.000000 1.598620 0.000000 
#    z 0.000000 0.000000 1.620370 
# 
# From -- ./inp_files/19655.got.cif
#   From: 2010.03.12/outbox.cif.g09.slc.cpg/sg40_10_cif.got.tgz:19655.got - 2010.04.14 01:38:03.
