data_PCOD8182875
_publ_section_title
;
Structure prediction by ZEFSAII (Michael W. Deem and Ramdas Pophale) SiO2 
 PCOD8182875
Probable space group: A M A 2
;
_chemical_formula_sum "Si O2"
_cell_formula_units_Z 64
_cell_length_a 8.929306
_cell_length_b 23.277849
_cell_length_c 19.287892
_cell_angle_alpha 90.000000
_cell_angle_beta 90.000000
_cell_angle_gamma 90.000000
_cell_volume 4009.085500
_symmetry_space_group_name_H-M "A M A 2"
_symmetry_group_IT_number 40
_symmetry_cell_setting 'orthorhombic'
loop_
_space_group_symop_operation_xyz
x,y,z
-x,-y,z
1/2-x,y,z
1/2+x,-y,z
x,1/2+y,1/2+z
-x,1/2-y,1/2+z
1/2-x,1/2+y,1/2+z
1/2+x,1/2-y,1/2+z
loop_
_atom_site_type_symbol
_atom_site_label
_atom_site_fract_x
_atom_site_fract_y
_atom_site_fract_z
Si Si1 0.426448 0.616175 0.436490
Si Si2 0.574454 0.559411 0.304809
Si Si3 0.921994 0.169488 0.722780
Si Si4 0.426615 0.773443 0.294470
Si Si5 0.427214 0.341126 0.664942
Si Si6 0.426760 0.746360 0.440923
Si Si7 0.926018 0.438721 0.583367
Si Si8 0.575572 0.236272 0.591485
O O1 0.250000 0.613165 0.422137
O O2 0.510245 0.580803 0.377541
O O3 0.488659 0.681240 0.438173
O O4 0.469174 0.587848 0.509476
O O5 0.500000 0.500000 0.282022
O O6 0.750000 0.549954 0.314107
O O7 0.537362 0.604339 0.242954
O O8 0.750000 0.182782 0.740163
O O9 0.954038 0.181143 0.640863
O O10 0.018990 0.211551 0.769400
O O11 0.250000 0.770345 0.292111
O O12 0.479713 0.824549 0.243536
O O13 0.485108 0.782308 0.373773
O O14 0.250000 0.349592 0.659152
O O15 0.509857 0.399373 0.644899
O O16 0.476788 0.289897 0.614725
O O17 0.250000 0.741964 0.437377
O O18 0.474057 0.778224 0.512379
O O19 0.750000 0.444301 0.593026
O O20 0.000000 0.500000 0.591244
O O21 0.750000 0.255070 0.593935
#
# Coordination Sequence:
#
# PCOD8182875 Si02
#       8
#     8   8   8   8   8   8   8   8
#     4  10  19  32  48  67  92 124 158 189 221 263
#     4  11  22  33  45  65  91 125 160 193 228 267
#     4   9  18  30  45  66  90 116 152 192 230 267
#     4   9  17  29  47  68  92 119 150 184 225 272
#     4  10  19  30  45  68  94 121 152 189 227 271
#     4   9  15  27  48  71  92 120 152 182 222 272
#     4  11  22  35  49  66  90 124 161 195 228 265
#     4   9  16  30  49  67  90 119 151 190 231 273
#
# _framework density 15.963741000000001
#
# number of rings (size 3 to 8) (size 9 to 14) (size 15 to 20)
#    0.000    2.250    2.500    1.500    0.000    3.000 
#    0.000    0.625    0.000    0.000    0.000    0.875 
#    0.000    2.000    0.000    0.000    0.000    0.250 
#
# Total GULP energy -396645.425708 kJ/mol
# GULP energy per Si atom -12395.169553 kJ/mol
# Density = 1.592741 g / cm^3
# Si number density = 15.963741 Si / 1000 Ang^3
#
#
#
# Elastic Constant Matrix: (Units=GPa)
#
#
# Indices 1 2 3 4 5 6 
#
# 1 36.2604 35.6448 33.9396 0.0000 0.0000 0.0000
# 2 35.6448 92.7533 69.6815 0.0000 0.0000 0.0000
# 3 33.9396 69.6815 147.7783 0.0000 0.0000 0.0000
# 4 0.0000 0.0000 0.0000 24.4113 0.0000 0.0000
# 5 0.0000 0.0000 0.0000 0.0000 16.5863 0.0000
# 6 0.0000 0.0000 0.0000 0.0000 0.0000 21.5430
#
#
#
# Elastic Compliance Matrix: (Units=1/GPa)
#
#
# Indices 1 2 3 4 5 6 
#
# 1 0.045403 -0.014889 -0.003407 0.000000 0.000000 0.000000
# 2 -0.014889 0.021578 -0.006755 0.000000 0.000000 0.000000
# 3 -0.003407 -0.006755 0.010735 0.000000 0.000000 0.000000
# 4 0.000000 0.000000 0.000000 0.040965 0.000000 0.000000
# 5 0.000000 0.000000 0.000000 0.000000 0.060291 0.000000
# 6 0.000000 0.000000 0.000000 0.000000 0.000000 0.046419
#
#
# Mechanical properties :
#
#
# Convention : Reuss Voigt Hill
#
# Bulk Modulus (GPa) = 36.21379 61.70266 48.95822
# Shear Modulus (GPa) = 17.56257 21.67651 19.61954
#
# Velocity S-wave (km/s) = 3.32045 3.68891 3.50952
# Velocity P-wave (km/s) = 6.11840 7.54187 6.86712
#
# Compressibility (1/GPa) = 0.02761379
#
# Stress axis : x y z
#
# Youngs Moduli (GPa) = 22.02482 46.34393 93.15661
#
# Poissons Ratio (x) = 0.69000 0.31740
# Poissons Ratio (y) = 0.32792 0.62928
# Poissons Ratio (z) = 0.07504 0.31306
#
# Static dielectric constant tensor:
#      x y z
#    x 2.994470 0.000000 0.000000 
#    y 0.000000 3.054260 0.000000 
#    z 0.000000 0.000000 3.555960 
# 
# 
# High freq. dielectric constant tensor:
#      x y z
#    x 1.609800 0.000000 0.000000 
#    y 0.000000 1.585610 0.000000 
#    z 0.000000 0.000000 1.616610 
# 
# From -- ./inp_files/19716.got.cif
#   From: 2010.03.12/outbox.cif.g09.slc.cpg/sg40_10_cif.got.tgz:19716.got - 2010.04.14 01:38:03.
