data_PCOD8182222
_publ_section_title
;
Structure prediction by ZEFSAII (Michael W. Deem and Ramdas Pophale) SiO2 
 PCOD8182222
Probable space group: A B M 2
;
_chemical_formula_sum "Si O2"
_cell_formula_units_Z 24
_cell_length_a 4.882635
_cell_length_b 10.542380
_cell_length_c 19.523328
_cell_angle_alpha 90.000000
_cell_angle_beta 90.000000
_cell_angle_gamma 90.000000
_cell_volume 1004.955374
_symmetry_space_group_name_H-M "A B M 2"
_symmetry_group_IT_number 39
_symmetry_cell_setting 'orthorhombic'
loop_
_space_group_symop_operation_xyz
x,y,z
-x,-y,z
-x,1/2+y,z
x,1/2-y,z
x,1/2+y,1/2+z
-x,1/2-y,1/2+z
-x,y,1/2+z
x,-y,1/2+z
loop_
_atom_site_type_symbol
_atom_site_label
_atom_site_fract_x
_atom_site_fract_y
_atom_site_fract_z
Si Si1 0.500000 0.000000 0.647270
Si Si2 0.000000 0.500000 0.054510
Si Si3 0.023636 0.750000 0.824069
Si Si4 0.524058 0.750000 0.732197
Si Si5 0.296372 0.384392 0.435946
O O1 0.751638 0.049776 0.601244
O O2 0.594825 0.878298 0.690988
O O3 0.886680 0.390775 0.004491
O O4 0.208730 0.750000 0.755307
O O5 0.091705 0.875463 0.870089
O O6 0.708732 0.750000 0.801009
O O7 0.500000 0.500000 0.427424
O O8 0.461996 0.250000 0.440751
#
# Coordination Sequence:
#
# PCOD8182222 Si02
#       5
#     4   4   4   4   8
#     4  12  30  46  78 102 160 204 256 300 374 454
#     4  12  26  46  76 114 152 190 258 310 382 454
#     4  10  28  46  83 103 158 180 266 304 393 437
#     4  12  28  52  71 111 148 214 246 310 361 463
#     4  10  26  46  81 116 151 191 249 330 392 439
#
# _framework density 23.881654999999999
#
# number of rings (size 3 to 8) (size 9 to 14) (size 15 to 20)
#    1.000    0.000    1.667    2.000   11.667    1.333 
#    0.000    0.000    0.000    0.000    0.000    0.000 
#    0.000    0.000    0.000    0.000    0.000    0.000 
#
# Total GULP energy -148714.818401 kJ/mol
# GULP energy per Si atom -12392.901533 kJ/mol
# Density = 2.382730 g / cm^3
# Si number density = 23.881655 Si / 1000 Ang^3
#
#
#
# Elastic Constant Matrix: (Units=GPa)
#
#
# Indices 1 2 3 4 5 6 
#
# 1 108.0242 40.3925 38.5082 0.0000 0.0000 0.0000
# 2 40.3925 186.5984 50.7511 0.0000 0.0000 0.0000
# 3 38.5082 50.7511 130.6834 0.0000 0.0000 0.0000
# 4 0.0000 0.0000 0.0000 22.2608 0.0000 0.0000
# 5 0.0000 0.0000 0.0000 0.0000 55.2803 0.0000
# 6 0.0000 0.0000 0.0000 0.0000 0.0000 24.1475
#
#
#
# Elastic Compliance Matrix: (Units=1/GPa)
#
#
# Indices 1 2 3 4 5 6 
#
# 1 0.010776 -0.001642 -0.002537 0.000000 0.000000 0.000000
# 2 -0.001642 0.006242 -0.001940 0.000000 0.000000 0.000000
# 3 -0.002537 -0.001940 0.009153 0.000000 0.000000 0.000000
# 4 0.000000 0.000000 0.000000 0.044922 0.000000 0.000000
# 5 0.000000 0.000000 0.000000 0.000000 0.018090 0.000000
# 6 0.000000 0.000000 0.000000 0.000000 0.000000 0.041412
#
#
# Mechanical properties :
#
#
# Convention : Reuss Voigt Hill
#
# Bulk Modulus (GPa) = 71.78147 76.06774 73.92460
# Shear Modulus (GPa) = 33.90304 40.04799 36.97552
#
# Velocity S-wave (km/s) = 3.77188 4.09948 3.93909
# Velocity P-wave (km/s) = 7.00656 7.37081 7.19099
#
# Compressibility (1/GPa) = 0.01393117
#
# Stress axis : x y z
#
# Youngs Moduli (GPa) = 92.79979 160.19584 109.25049
#
# Poissons Ratio (x) = 0.26312 0.27722
# Poissons Ratio (y) = 0.15242 0.21197
# Poissons Ratio (z) = 0.23547 0.31082
#
# Static dielectric constant tensor:
#      x y z
#    x 4.221530 0.000000 0.000000 
#    y 0.000000 4.003980 0.000000 
#    z 0.000000 0.000000 4.493850 
# 
# 
# High freq. dielectric constant tensor:
#      x y z
#    x 1.945860 0.000000 0.000000 
#    y 0.000000 1.937360 0.000000 
#    z 0.000000 0.000000 1.961500 
# 
# From -- ./inp_files/10771.got.cif
#   From: 2010.03.12/outbox.cif.g09.slc.cpg/sg39_6_cif.got.tgz:10771.got - 2010.04.14 02:53:20.
