data_PCOD8182365
_publ_section_title
;
Structure prediction by ZEFSAII (Michael W. Deem and Ramdas Pophale) SiO2 
 PCOD8182365
Probable space group: A M A 2
;
_chemical_formula_sum "Si O2"
_cell_formula_units_Z 64
_cell_length_a 9.031460
_cell_length_b 25.002026
_cell_length_c 19.859248
_cell_angle_alpha 90.000000
_cell_angle_beta 90.000000
_cell_angle_gamma 90.000000
_cell_volume 4484.313478
_symmetry_space_group_name_H-M "A M A 2"
_symmetry_group_IT_number 40
_symmetry_cell_setting 'orthorhombic'
loop_
_space_group_symop_operation_xyz
x,y,z
-x,-y,z
1/2-x,y,z
1/2+x,-y,z
x,1/2+y,1/2+z
-x,1/2-y,1/2+z
1/2-x,1/2+y,1/2+z
1/2+x,1/2-y,1/2+z
loop_
_atom_site_type_symbol
_atom_site_label
_atom_site_fract_x
_atom_site_fract_y
_atom_site_fract_z
Si Si1 0.423694 0.412034 0.571310
Si Si2 0.423930 0.550589 0.441491
Si Si3 0.924165 0.232455 0.780706
Si Si4 0.919580 0.832063 0.892651
Si Si5 0.923077 0.803340 0.041854
Si Si6 0.577980 0.052914 0.219883
Si Si7 0.914465 0.247997 0.153107
Si Si8 0.584943 0.166398 0.261746
O O1 0.250000 0.401892 0.558448
O O2 0.492675 0.448058 0.512771
O O3 0.510626 0.356754 0.572541
O O4 0.453992 0.442494 0.640825
O O5 0.500000 0.500000 0.402750
O O6 0.250000 0.541529 0.452899
O O7 0.451845 0.604924 0.400175
O O8 0.750000 0.232488 0.773246
O O9 0.971834 0.189504 0.835848
O O10 0.996449 0.216225 0.708304
O O11 0.979846 0.292286 0.802949
O O12 0.750000 0.822243 0.871013
O O13 0.953874 0.800613 0.962051
O O14 0.750000 0.802296 0.057451
O O15 0.000849 0.753976 0.081271
O O16 0.750000 0.047378 0.234562
O O17 0.519676 0.106150 0.259104
O O18 0.500000 0.000000 0.249104
O O19 0.750000 0.272002 0.141972
O O20 0.903923 0.187851 0.184412
O O21 0.750000 0.167038 0.294025
#
# Coordination Sequence:
#
# PCOD8182365 Si02
#       8
#     8   8   8   8   8   8   8   8
#     4  10  17  27  39  51  74 107 140 171 206 241
#     4  10  20  31  41  55  76 105 138 171 207 244
#     4  10  18  28  45  64  77  99 139 177 208 248
#     4   9  19  32  43  59  84 110 137 171 212 252
#     4  10  18  27  42  62  82 105 139 178 209 243
#     4  10  19  27  36  53  75 103 136 169 203 237
#     4   9  16  28  44  57  78 107 135 167 210 253
#     4   8  16  30  42  53  75 105 134 165 209 250
#
# _framework density 14.271972
#
# number of rings (size 3 to 8) (size 9 to 14) (size 15 to 20)
#    0.750    1.750    1.250    3.375    0.000    5.500 
#    0.000    0.000    0.000    0.000    0.000    0.000 
#    0.000    0.000    0.000    1.125    0.000   19.750 
#
# Total GULP energy -396478.008521 kJ/mol
# GULP energy per Si atom -12389.937766 kJ/mol
# Density = 1.423949 g / cm^3
# Si number density = 14.271972 Si / 1000 Ang^3
#
#
#
# Elastic Constant Matrix: (Units=GPa)
#
#
# Indices 1 2 3 4 5 6 
#
# 1 102.9778 34.9358 40.2338 0.0000 0.0000 0.0000
# 2 34.9358 55.4583 29.4274 0.0000 0.0000 0.0000
# 3 40.2338 29.4274 50.4826 0.0000 0.0000 0.0000
# 4 0.0000 0.0000 0.0000 15.5310 0.0000 0.0000
# 5 0.0000 0.0000 0.0000 0.0000 21.3022 0.0000
# 6 0.0000 0.0000 0.0000 0.0000 0.0000 23.5667
#
#
#
# Elastic Compliance Matrix: (Units=1/GPa)
#
#
# Indices 1 2 3 4 5 6 
#
# 1 0.014821 -0.004443 -0.009222 0.000000 0.000000 0.000000
# 2 -0.004443 0.027439 -0.012453 0.000000 0.000000 0.000000
# 3 -0.009222 -0.012453 0.034418 0.000000 0.000000 0.000000
# 4 0.000000 0.000000 0.000000 0.064387 0.000000 0.000000
# 5 0.000000 0.000000 0.000000 0.000000 0.046943 0.000000
# 6 0.000000 0.000000 0.000000 0.000000 0.000000 0.042433
#
#
# Mechanical properties :
#
#
# Convention : Reuss Voigt Hill
#
# Bulk Modulus (GPa) = 40.91599 46.45696 43.68647
# Shear Modulus (GPa) = 17.19238 19.03477 18.11357
#
# Velocity S-wave (km/s) = 3.47454 3.65597 3.56641
# Velocity P-wave (km/s) = 6.69534 7.10235 6.90184
#
# Compressibility (1/GPa) = 0.02444033
#
# Stress axis : x y z
#
# Youngs Moduli (GPa) = 67.46993 36.44511 29.05429
#
# Poissons Ratio (x) = 0.16193 0.26795
# Poissons Ratio (y) = 0.29977 0.36183
# Poissons Ratio (z) = 0.62224 0.45387
#
# Static dielectric constant tensor:
#      x y z
#    x 2.850610 0.000000 0.000000 
#    y 0.000000 2.635820 0.000000 
#    z 0.000000 0.000000 2.499990 
# 
# 
# High freq. dielectric constant tensor:
#      x y z
#    x 1.558770 0.000000 0.000000 
#    y 0.000000 1.517760 0.000000 
#    z 0.000000 0.000000 1.501440 
# 
# From -- ./inp_files/22558.got.cif
#   From: 2010.03.12/outbox.cif.g09.slc.cpg/sg40_12_cif.got.tgz:22558.got - 2010.04.14 01:38:03.
