data_PCOD8182811
_publ_section_title
;
Structure prediction by ZEFSAII (Michael W. Deem and Ramdas Pophale) SiO2 
 PCOD8182811
Probable space group: A M A 2
;
_chemical_formula_sum "Si O2"
_cell_formula_units_Z 64
_cell_length_a 8.814309
_cell_length_b 15.466502
_cell_length_c 23.769930
_cell_angle_alpha 90.000000
_cell_angle_beta 90.000000
_cell_angle_gamma 90.000000
_cell_volume 3240.472022
_symmetry_space_group_name_H-M "A M A 2"
_symmetry_group_IT_number 40
_symmetry_cell_setting 'orthorhombic'
loop_
_space_group_symop_operation_xyz
x,y,z
-x,-y,z
1/2-x,y,z
1/2+x,-y,z
x,1/2+y,1/2+z
-x,1/2-y,1/2+z
1/2-x,1/2+y,1/2+z
1/2+x,1/2-y,1/2+z
loop_
_atom_site_type_symbol
_atom_site_label
_atom_site_fract_x
_atom_site_fract_y
_atom_site_fract_z
Si Si1 0.429678 0.411952 0.583220
Si Si2 0.428633 0.751792 0.892534
Si Si3 0.928350 0.588314 0.314242
Si Si4 0.571219 0.588258 0.078338
Si Si5 0.428514 0.589049 0.818722
Si Si6 0.571306 0.258063 0.512942
Si Si7 0.569754 0.155594 0.696558
Si Si8 0.430101 0.147770 0.195881
O O1 0.500000 0.500000 0.557867
O O2 0.250000 0.417329 0.580822
O O3 0.484976 0.332746 0.545768
O O4 0.484576 0.403935 0.647362
O O5 0.250000 0.749699 0.906376
O O6 0.472554 0.834412 0.855500
O O7 0.481336 0.666429 0.859252
O O8 0.526570 0.758922 0.948298
O O9 0.750000 0.576513 0.311317
O O10 0.995263 0.609211 0.252204
O O11 0.000000 0.500000 0.337386
O O12 0.500000 0.500000 0.054825
O O13 0.750000 0.578317 0.078195
O O14 0.519580 0.666352 0.038442
O O15 0.510129 0.605613 0.141539
O O16 0.500000 0.500000 0.840798
O O17 0.250000 0.580535 0.820933
O O18 0.481834 0.607821 0.755207
O O19 0.750000 0.272579 0.520659
O O20 0.750000 0.157364 0.699054
O O21 0.512283 0.253778 0.694066
O O22 0.250000 0.141169 0.186470
#
# Coordination Sequence:
#
# PCOD8182811 Si02
#       8
#     8   8   8   8   8   8   8   8
#     4  12  25  41  63  92 123 157 197 246 301 363
#     4  10  22  41  61  83 115 159 203 245 297 353
#     4  10  20  36  60  87 117 154 192 234 290 348
#     4  10  21  37  60  87 118 154 192 239 293 352
#     4  10  21  37  61  88 119 159 199 244 298 357
#     4  11  24  43  64  86 116 158 203 252 304 351
#     4   9  16  33  60  86 117 156 191 231 289 353
#     4  10  18  36  63  89 122 160 197 242 299 359
#
# _framework density 19.750209000000002
#
# number of rings (size 3 to 8) (size 9 to 14) (size 15 to 20)
#    0.000    1.750    2.500    2.250    0.000    4.500 
#    0.000    4.375    0.000    0.000    0.000    0.000 
#    0.000    0.000    0.000    0.000    0.000    0.000 
#
# Total GULP energy -396901.495269 kJ/mol
# GULP energy per Si atom -12403.171727 kJ/mol
# Density = 1.970526 g / cm^3
# Si number density = 19.750209 Si / 1000 Ang^3
#
#
#
# Elastic Constant Matrix: (Units=GPa)
#
#
# Indices 1 2 3 4 5 6 
#
# 1 59.0072 43.5062 36.9475 0.0000 0.0000 0.0000
# 2 43.5062 143.8603 35.2269 0.0000 0.0000 0.0000
# 3 36.9475 35.2269 106.0866 0.0000 0.0000 0.0000
# 4 0.0000 0.0000 0.0000 5.8851 0.0000 0.0000
# 5 0.0000 0.0000 0.0000 0.0000 16.2496 0.0000
# 6 0.0000 0.0000 0.0000 0.0000 0.0000 32.3489
#
#
#
# Elastic Compliance Matrix: (Units=1/GPa)
#
#
# Indices 1 2 3 4 5 6 
#
# 1 0.025802 -0.006099 -0.006961 0.000000 0.000000 0.000000
# 2 -0.006099 0.009008 -0.000867 0.000000 0.000000 0.000000
# 3 -0.006961 -0.000867 0.012139 0.000000 0.000000 0.000000
# 4 0.000000 0.000000 0.000000 0.169921 0.000000 0.000000
# 5 0.000000 0.000000 0.000000 0.000000 0.061540 0.000000
# 6 0.000000 0.000000 0.000000 0.000000 0.000000 0.030913
#
#
# Mechanical properties :
#
#
# Convention : Reuss Voigt Hill
#
# Bulk Modulus (GPa) = 52.36996 60.03504 56.20250
# Shear Modulus (GPa) = 14.55428 23.78160 19.16794
#
# Velocity S-wave (km/s) = 2.71757 3.47381 3.11869
# Velocity P-wave (km/s) = 6.03495 6.82297 6.44102
#
# Compressibility (1/GPa) = 0.01909492
#
# Stress axis : x y z
#
# Youngs Moduli (GPa) = 38.75604 111.01440 82.38132
#
# Poissons Ratio (x) = 0.67703 0.57348
# Poissons Ratio (y) = 0.23636 0.07144
# Poissons Ratio (z) = 0.26979 0.09627
#
# Static dielectric constant tensor:
#      x y z
#    x 3.295520 0.000000 0.000000 
#    y 0.000000 3.926720 0.000000 
#    z 0.000000 0.000000 3.694240 
# 
# 
# High freq. dielectric constant tensor:
#      x y z
#    x 1.747320 0.000000 0.000000 
#    y 0.000000 1.788640 0.000000 
#    z 0.000000 0.000000 1.770460 
# 
# From -- ./inp_files/24299.got.cif
#   From: 2010.03.12/outbox.cif.g09.slc.cpg/sg40_13_cif.got.tgz:24299.got - 2010.04.14 01:38:03.
