data_PCOD8182217
_publ_section_title
;
Structure prediction by ZEFSAII (Michael W. Deem and Ramdas Pophale) SiO2 
 PCOD8182217
Probable space group: A B M 2
;
_chemical_formula_sum "Si O2"
_cell_formula_units_Z 32
_cell_length_a 15.575218
_cell_length_b 10.034439
_cell_length_c 8.894224
_cell_angle_alpha 90.000000
_cell_angle_beta 90.000000
_cell_angle_gamma 90.000000
_cell_volume 1390.065594
_symmetry_space_group_name_H-M "A B M 2"
_symmetry_group_IT_number 39
_symmetry_cell_setting 'orthorhombic'
loop_
_space_group_symop_operation_xyz
x,y,z
-x,-y,z
-x,1/2+y,z
x,1/2-y,z
x,1/2+y,1/2+z
-x,1/2-y,1/2+z
-x,y,1/2+z
x,-y,1/2+z
loop_
_atom_site_type_symbol
_atom_site_label
_atom_site_fract_x
_atom_site_fract_y
_atom_site_fract_z
Si Si1 0.424160 0.604695 0.809290
Si Si2 0.187597 0.959383 0.311216
Si Si3 0.307113 0.987100 0.558487
Si Si4 0.939203 0.750000 0.703485
Si Si5 0.884935 0.750000 0.358088
O O1 0.500000 0.500000 0.803397
O O2 0.466249 0.750000 0.827264
O O3 0.371283 0.605353 0.653264
O O4 0.361520 0.581862 0.949394
O O5 0.250859 0.924936 0.173230
O O6 0.099583 0.881213 0.283783
O O7 0.237804 0.904588 0.458710
O O8 0.172039 0.118242 0.330454
O O9 0.924606 0.750000 0.525180
O O10 0.039991 0.750000 0.734205
#
# Coordination Sequence:
#
# PCOD8182217 Si02
#       5
#     8   8   8   4   4
#     4  11  26  48  72 106 146 185 234 291 356 429
#     4  11  25  46  73 104 144 188 242 291 349 417
#     4  10  25  43  72 102 141 188 232 291 345 414
#     4  12  28  46  74 102 147 192 236 290 361 428
#     4  12  28  48  68 110 147 184 240 300 351 426
#
# _framework density 23.020496000000001
#
# number of rings (size 3 to 8) (size 9 to 14) (size 15 to 20)
#    0.000    1.000    2.500    1.500   14.000    6.000 
#    4.500    0.000    0.000    0.000    0.000    0.000 
#    0.000    0.000    0.000    0.000    0.000    0.000 
#
# Total GULP energy -198357.099063 kJ/mol
# GULP energy per Si atom -12397.318691 kJ/mol
# Density = 2.296810 g / cm^3
# Si number density = 23.020496 Si / 1000 Ang^3
#
#
#
# Elastic Constant Matrix: (Units=GPa)
#
#
# Indices 1 2 3 4 5 6 
#
# 1 122.7579 43.8233 49.7136 0.0000 0.0000 0.0000
# 2 43.8233 141.0259 35.7862 0.0000 0.0000 0.0000
# 3 49.7136 35.7862 157.4507 0.0000 0.0000 0.0000
# 4 0.0000 0.0000 0.0000 11.5908 0.0000 0.0000
# 5 0.0000 0.0000 0.0000 0.0000 27.7600 0.0000
# 6 0.0000 0.0000 0.0000 0.0000 0.0000 26.0044
#
#
#
# Elastic Compliance Matrix: (Units=1/GPa)
#
#
# Indices 1 2 3 4 5 6 
#
# 1 0.010091 -0.002470 -0.002625 0.000000 0.000000 0.000000
# 2 -0.002470 0.008129 -0.001068 0.000000 0.000000 0.000000
# 3 -0.002625 -0.001068 0.007423 0.000000 0.000000 0.000000
# 4 0.000000 0.000000 0.000000 0.086275 0.000000 0.000000
# 5 0.000000 0.000000 0.000000 0.000000 0.036023 0.000000
# 6 0.000000 0.000000 0.000000 0.000000 0.000000 0.038455
#
#
# Mechanical properties :
#
#
# Convention : Reuss Voigt Hill
#
# Bulk Modulus (GPa) = 75.08559 75.54230 75.31394
# Shear Modulus (GPa) = 24.61116 32.53180 28.57148
#
# Velocity S-wave (km/s) = 3.27325 3.76329 3.52679
# Velocity P-wave (km/s) = 6.85370 7.19511 7.02648
#
# Compressibility (1/GPa) = 0.01331813
#
# Stress axis : x y z
#
# Youngs Moduli (GPa) = 99.10128 123.01167 134.72274
#
# Poissons Ratio (x) = 0.30379 0.35361
# Poissons Ratio (y) = 0.24474 0.14387
# Poissons Ratio (z) = 0.26011 0.13137
#
# Static dielectric constant tensor:
#      x y z
#    x 4.206200 0.000000 0.000000 
#    y 0.000000 3.868900 0.000000 
#    z 0.000000 0.000000 4.562850 
# 
# 
# High freq. dielectric constant tensor:
#      x y z
#    x 1.920470 0.000000 0.000000 
#    y 0.000000 1.885330 0.000000 
#    z 0.000000 0.000000 1.933840 
# 
# From -- ./inp_files/2977.got.cif
#   From: 2010.03.12/outbox.cif.g09.slc.cpg/sg39_2_cif.got.tgz:2977.got - 2010.04.14 02:53:20.
