data_PCOD8182390
_publ_section_title
;
Structure prediction by ZEFSAII (Michael W. Deem and Ramdas Pophale) SiO2 
 PCOD8182390
Probable space group: A M A 2
;
_chemical_formula_sum "Si O2"
_cell_formula_units_Z 64
_cell_length_a 8.961888
_cell_length_b 30.308180
_cell_length_c 14.288689
_cell_angle_alpha 90.000000
_cell_angle_beta 90.000000
_cell_angle_gamma 90.000000
_cell_volume 3881.072482
_symmetry_space_group_name_H-M "A M A 2"
_symmetry_group_IT_number 40
_symmetry_cell_setting 'orthorhombic'
loop_
_space_group_symop_operation_xyz
x,y,z
-x,-y,z
1/2-x,y,z
1/2+x,-y,z
x,1/2+y,1/2+z
-x,1/2-y,1/2+z
1/2-x,1/2+y,1/2+z
1/2+x,1/2-y,1/2+z
loop_
_atom_site_type_symbol
_atom_site_label
_atom_site_fract_x
_atom_site_fract_y
_atom_site_fract_z
Si Si1 0.081071 0.176079 0.032060
Si Si2 0.425165 0.868800 0.872521
Si Si3 0.072509 0.284662 0.253751
Si Si4 0.425885 0.545110 0.410265
Si Si5 0.074666 0.300594 0.848134
Si Si6 0.574926 0.726930 0.046855
Si Si7 0.081902 0.631862 0.726311
Si Si8 0.574162 0.455478 0.626641
O O1 0.250000 0.171047 0.991852
O O2 0.013049 0.224792 0.020614
O O3 0.081173 0.165839 0.141161
O O4 0.971446 0.143461 0.977925
O O5 0.250000 0.876648 0.865311
O O6 0.480111 0.829503 0.804587
O O7 0.507745 0.914766 0.848278
O O8 0.250000 0.279477 0.259661
O O9 0.012264 0.289733 0.146712
O O10 0.003183 0.241582 0.301545
O O11 0.500000 0.500000 0.373855
O O12 0.250000 0.542391 0.395578
O O13 0.470250 0.552941 0.518853
O O14 0.250000 0.295081 0.832477
O O15 0.020790 0.347190 0.806503
O O16 0.034380 0.304190 0.959030
O O17 0.750000 0.732154 0.059826
O O18 0.250000 0.626343 0.764987
O O19 0.017340 0.584834 0.691389
O O20 0.500000 0.500000 0.665318
O O21 0.750000 0.459982 0.634838
#
# Coordination Sequence:
#
# PCOD8182390 Si02
#       8
#     8   8   8   8   8   8   8   8
#     4  10  17  30  49  65  94 136 167 192 235 290
#     4  11  21  30  47  74  99 127 167 206 241 281
#     4  10  20  35  50  66  94 133 167 196 237 292
#     4  10  19  33  50  70  99 130 162 196 241 294
#     4  11  21  31  48  73  95 122 165 209 242 277
#     4   9  18  33  49  64  92 132 166 198 240 285
#     4  10  19  33  49  67  95 134 165 188 239 295
#     4   9  18  31  48  69  94 128 160 191 233 286
#
# _framework density 16.490286000000001
#
# number of rings (size 3 to 8) (size 9 to 14) (size 15 to 20)
#    0.000    2.000    3.750    1.125    0.000    2.000 
#    0.000    1.250    0.000    0.000    0.000    0.875 
#    0.000    2.000    0.000    0.000    0.000    0.000 
#
# Total GULP energy -396686.594525 kJ/mol
# GULP energy per Si atom -12396.456079 kJ/mol
# Density = 1.645275 g / cm^3
# Si number density = 16.490286 Si / 1000 Ang^3
#
#
#
# Elastic Constant Matrix: (Units=GPa)
#
#
# Indices 1 2 3 4 5 6 
#
# 1 44.3924 32.6509 20.9611 0.0000 0.0000 0.0000
# 2 32.6509 109.2512 31.6340 0.0000 0.0000 0.0000
# 3 20.9611 31.6340 68.4800 0.0000 0.0000 0.0000
# 4 0.0000 0.0000 0.0000 24.8042 0.0000 0.0000
# 5 0.0000 0.0000 0.0000 0.0000 16.5937 0.0000
# 6 0.0000 0.0000 0.0000 0.0000 0.0000 30.0330
#
#
#
# Elastic Compliance Matrix: (Units=1/GPa)
#
#
# Indices 1 2 3 4 5 6 
#
# 1 0.030862 -0.007490 -0.005987 0.000000 0.000000 0.000000
# 2 -0.007490 0.012384 -0.003428 0.000000 0.000000 0.000000
# 3 -0.005987 -0.003428 0.018019 0.000000 0.000000 0.000000
# 4 0.000000 0.000000 0.000000 0.040316 0.000000 0.000000
# 5 0.000000 0.000000 0.000000 0.000000 0.060264 0.000000
# 6 0.000000 0.000000 0.000000 0.000000 0.000000 0.033297
#
#
# Mechanical properties :
#
#
# Convention : Reuss Voigt Hill
#
# Bulk Modulus (GPa) = 36.42249 43.62396 40.02323
# Shear Modulus (GPa) = 20.99927 23.41133 22.20530
#
# Velocity S-wave (km/s) = 3.57239 3.77198 3.67354
# Velocity P-wave (km/s) = 6.25709 6.74405 6.50513
#
# Compressibility (1/GPa) = 0.02745556
#
# Stress axis : x y z
#
# Youngs Moduli (GPa) = 32.40220 80.74699 55.49718
#
# Poissons Ratio (x) = 0.60480 0.33224
# Poissons Ratio (y) = 0.24269 0.19026
# Poissons Ratio (z) = 0.19398 0.27682
#
# Static dielectric constant tensor:
#      x y z
#    x 3.010290 0.000000 0.000000 
#    y 0.000000 3.234730 0.000000 
#    z 0.000000 0.000000 3.048690 
# 
# 
# High freq. dielectric constant tensor:
#      x y z
#    x 1.626960 0.000000 0.000000 
#    y 0.000000 1.633450 0.000000 
#    z 0.000000 0.000000 1.604360 
# 
# From -- ./inp_files/15884.got.cif
#   From: 2010.03.12/outbox.cif.g09.slc.cpg/sg40_8_cif.got.tgz:15884.got - 2010.04.14 01:38:03.
