data_PCOD8182085
_publ_section_title
;
Structure prediction by ZEFSAII (Michael W. Deem and Ramdas Pophale) SiO2 
 PCOD8182085
Probable space group: A B M 2
;
_chemical_formula_sum "Si O2"
_cell_formula_units_Z 40
_cell_length_a 10.989914
_cell_length_b 18.396831
_cell_length_c 8.714707
_cell_angle_alpha 90.000000
_cell_angle_beta 90.000000
_cell_angle_gamma 90.000000
_cell_volume 1761.935893
_symmetry_space_group_name_H-M "A B M 2"
_symmetry_group_IT_number 39
_symmetry_cell_setting 'orthorhombic'
loop_
_space_group_symop_operation_xyz
x,y,z
-x,-y,z
-x,1/2+y,z
x,1/2-y,z
x,1/2+y,1/2+z
-x,1/2-y,1/2+z
-x,y,1/2+z
x,-y,1/2+z
loop_
_atom_site_type_symbol
_atom_site_label
_atom_site_fract_x
_atom_site_fract_y
_atom_site_fract_z
Si Si1 0.254207 0.941037 0.268450
Si Si2 0.324420 0.331850 0.531164
Si Si3 0.556394 0.925895 0.025956
Si Si4 0.756816 0.166864 0.699881
Si Si5 0.119952 0.045305 0.064765
O O1 0.254190 0.865013 0.177458
O O2 0.377658 0.947711 0.366210
O O3 0.138651 0.947196 0.382466
O O4 0.238274 0.004265 0.140268
O O5 0.359463 0.250000 0.574342
O O6 0.444754 0.374404 0.484292
O O7 0.236665 0.335217 0.383674
O O8 0.500000 0.000000 0.101566
O O9 0.641976 0.878048 0.135805
O O10 0.753378 0.250000 0.639901
O O11 0.879700 0.126254 0.638637
O O12 0.000000 0.000000 0.102262
#
# Coordination Sequence:
#
# PCOD8182085 Si02
#       5
#     8   8   8   8   8
#     4  11  24  39  63  97 129 167 219 271 317 382
#     4  11  23  39  61  94 136 176 211 255 317 389
#     4  11  22  37  62  97 135 178 219 258 313 385
#     4  10  22  40  64  96 133 171 215 268 325 388
#     4  11  23  43  69  94 124 166 218 274 330 380
#
# _framework density 22.702300000000001
#
# number of rings (size 3 to 8) (size 9 to 14) (size 15 to 20)
#    0.000    1.200    0.000    7.200    0.000    8.800 
#    0.000    2.000    0.000    8.400    0.000    0.000 
#    0.000    0.000    0.000    0.000    0.000    0.000 
#
# Total GULP energy -247908.390148 kJ/mol
# GULP energy per Si atom -12395.419507 kJ/mol
# Density = 2.265063 g / cm^3
# Si number density = 22.702300 Si / 1000 Ang^3
#
#
#
# Elastic Constant Matrix: (Units=GPa)
#
#
# Indices 1 2 3 4 5 6 
#
# 1 88.7686 64.7678 35.6486 0.0000 0.0000 0.0000
# 2 64.7678 206.2260 66.9823 0.0000 0.0000 0.0000
# 3 35.6486 66.9823 126.8589 0.0000 0.0000 0.0000
# 4 0.0000 0.0000 0.0000 42.5172 0.0000 0.0000
# 5 0.0000 0.0000 0.0000 0.0000 17.7529 0.0000
# 6 0.0000 0.0000 0.0000 0.0000 0.0000 37.1252
#
#
#
# Elastic Compliance Matrix: (Units=1/GPa)
#
#
# Indices 1 2 3 4 5 6 
#
# 1 0.015061 -0.004050 -0.002094 0.000000 0.000000 0.000000
# 2 -0.004050 0.006942 -0.002527 0.000000 0.000000 0.000000
# 3 -0.002094 -0.002527 0.009806 0.000000 0.000000 0.000000
# 4 0.000000 0.000000 0.000000 0.023520 0.000000 0.000000
# 5 0.000000 0.000000 0.000000 0.000000 0.056329 0.000000
# 6 0.000000 0.000000 0.000000 0.000000 0.000000 0.026936
#
#
# Mechanical properties :
#
#
# Convention : Reuss Voigt Hill
#
# Bulk Modulus (GPa) = 69.12645 84.07231 76.59938
# Shear Modulus (GPa) = 31.10274 36.44270 33.77272
#
# Velocity S-wave (km/s) = 3.70540 4.01089 3.86117
# Velocity P-wave (km/s) = 6.98726 7.65262 7.32750
#
# Compressibility (1/GPa) = 0.01446624
#
# Stress axis : x y z
#
# Youngs Moduli (GPa) = 66.39603 144.05348 101.98270
#
# Poissons Ratio (x) = 0.58342 0.21354
# Poissons Ratio (y) = 0.26891 0.25774
# Poissons Ratio (z) = 0.13903 0.36406
#
# Static dielectric constant tensor:
#      x y z
#    x 3.819330 0.000000 0.000000 
#    y 0.000000 4.390620 0.000000 
#    z 0.000000 0.000000 4.147320 
# 
# 
# High freq. dielectric constant tensor:
#      x y z
#    x 1.869030 0.000000 0.000000 
#    y 0.000000 1.905760 0.000000 
#    z 0.000000 0.000000 1.908700 
# 
# From -- ./inp_files/2530.got.cif
#   From: 2010.03.12/outbox.cif.g09.slc.cpg/sg39_2_cif.got.tgz:2530.got - 2010.04.14 02:53:20.
