data_PCOD8182204
_publ_section_title
;
Structure prediction by ZEFSAII (Michael W. Deem and Ramdas Pophale) SiO2 
 PCOD8182204
Probable space group: A B M 2
;
_chemical_formula_sum "Si O2"
_cell_formula_units_Z 48
_cell_length_a 9.237471
_cell_length_b 17.923679
_cell_length_c 13.877264
_cell_angle_alpha 90.000000
_cell_angle_beta 90.000000
_cell_angle_gamma 90.000000
_cell_volume 2297.651176
_symmetry_space_group_name_H-M "A B M 2"
_symmetry_group_IT_number 39
_symmetry_cell_setting 'orthorhombic'
loop_
_space_group_symop_operation_xyz
x,y,z
-x,-y,z
-x,1/2+y,z
x,1/2-y,z
x,1/2+y,1/2+z
-x,1/2-y,1/2+z
-x,y,1/2+z
x,-y,1/2+z
loop_
_atom_site_type_symbol
_atom_site_label
_atom_site_fract_x
_atom_site_fract_y
_atom_site_fract_z
Si Si1 0.621798 0.835183 0.445620
Si Si2 0.403428 0.930203 0.561474
Si Si3 0.030733 0.585135 0.251576
Si Si4 0.105467 0.662744 0.069824
Si Si5 0.107704 0.432008 0.964145
Si Si6 0.276144 0.663189 0.734754
O O1 0.591776 0.750000 0.472781
O O2 0.488639 0.881929 0.483870
O O3 0.770748 0.861353 0.495392
O O4 0.631865 0.846787 0.331683
O O5 0.261828 0.958024 0.504499
O O6 0.362837 0.881348 0.653731
O O7 0.500000 0.000000 0.595778
O O8 0.134933 0.620856 0.170894
O O9 0.116107 0.591017 0.352212
O O10 0.000000 0.500000 0.222929
O O11 0.882275 0.630908 0.254540
O O12 0.100372 0.750000 0.089368
O O13 0.950084 0.637935 0.026549
O O14 0.000000 0.500000 0.978779
O O15 0.262025 0.750000 0.705811
#
# Coordination Sequence:
#
# PCOD8182204 Si02
#       6
#     8   8   8   8   8   8
#     4  10  24  45  66  96 140 178 219 280 350 418
#     4  12  27  42  71 101 138 179 228 285 351 417
#     4  11  24  39  71  99 133 171 231 287 335 403
#     4  11  22  40  69  97 132 176 226 282 341 406
#     4  11  24  44  66  97 133 175 228 284 337 404
#     4  11  24  46  70  98 138 185 232 285 345 409
#
# _framework density 20.890898
#
# number of rings (size 3 to 8) (size 9 to 14) (size 15 to 20)
#    0.000    1.000    3.333    2.500    4.667    3.333 
#    0.000    1.667    0.000    0.000    0.000    0.000 
#    0.000    0.000    0.000    0.000    0.000    0.000 
#
# Total GULP energy -297721.443746 kJ/mol
# GULP energy per Si atom -12405.060156 kJ/mol
# Density = 2.084335 g / cm^3
# Si number density = 20.890898 Si / 1000 Ang^3
#
#
#
# Elastic Constant Matrix: (Units=GPa)
#
#
# Indices 1 2 3 4 5 6 
#
# 1 108.4662 54.7273 43.8727 0.0000 0.0000 0.0000
# 2 54.7273 124.6082 72.8577 0.0000 0.0000 0.0000
# 3 43.8727 72.8577 131.6736 0.0000 0.0000 0.0000
# 4 0.0000 0.0000 0.0000 31.9045 0.0000 0.0000
# 5 0.0000 0.0000 0.0000 0.0000 27.2187 0.0000
# 6 0.0000 0.0000 0.0000 0.0000 0.0000 33.6618
#
#
#
# Elastic Compliance Matrix: (Units=1/GPa)
#
#
# Indices 1 2 3 4 5 6 
#
# 1 0.012070 -0.004360 -0.001609 0.000000 0.000000 0.000000
# 2 -0.004360 0.013438 -0.005983 0.000000 0.000000 0.000000
# 3 -0.001609 -0.005983 0.011441 0.000000 0.000000 0.000000
# 4 0.000000 0.000000 0.000000 0.031344 0.000000 0.000000
# 5 0.000000 0.000000 0.000000 0.000000 0.036739 0.000000
# 6 0.000000 0.000000 0.000000 0.000000 0.000000 0.029707
#
#
# Mechanical properties :
#
#
# Convention : Reuss Voigt Hill
#
# Bulk Modulus (GPa) = 76.65679 78.62927 77.64303
# Shear Modulus (GPa) = 30.67611 31.44300 31.05956
#
# Velocity S-wave (km/s) = 3.83612 3.88378 3.86002
# Velocity P-wave (km/s) = 7.50964 7.60470 7.55732
#
# Compressibility (1/GPa) = 0.01304516
#
# Stress axis : x y z
#
# Youngs Moduli (GPa) = 82.84740 74.41373 87.40420
#
# Poissons Ratio (x) = 0.32448 0.14064
# Poissons Ratio (y) = 0.36125 0.52293
# Poissons Ratio (z) = 0.13331 0.44521
#
# Static dielectric constant tensor:
#      x y z
#    x 3.764770 0.000000 0.000000 
#    y 0.000000 3.932980 0.000000 
#    z 0.000000 0.000000 4.069670 
# 
# 
# High freq. dielectric constant tensor:
#      x y z
#    x 1.806650 0.000000 0.000000 
#    y 0.000000 1.831900 0.000000 
#    z 0.000000 0.000000 1.835060 
# 
# From -- ./inp_files/8319.got.cif
#   From: 2010.03.12/outbox.cif.g09.slc.cpg/sg39_5_cif.got.tgz:8319.got - 2010.04.14 02:53:20.
