data_PCOD8182922
_publ_section_title
;
Structure prediction by ZEFSAII (Michael W. Deem and Ramdas Pophale) SiO2 
 PCOD8182922
Probable space group: A M A 2
;
_chemical_formula_sum "Si O2"
_cell_formula_units_Z 48
_cell_length_a 9.156282
_cell_length_b 31.158128
_cell_length_c 9.601039
_cell_angle_alpha 90.000000
_cell_angle_beta 90.000000
_cell_angle_gamma 90.000000
_cell_volume 2739.105442
_symmetry_space_group_name_H-M "A M A 2"
_symmetry_group_IT_number 40
_symmetry_cell_setting 'orthorhombic'
loop_
_space_group_symop_operation_xyz
x,y,z
-x,-y,z
1/2-x,y,z
1/2+x,-y,z
x,1/2+y,1/2+z
-x,1/2-y,1/2+z
1/2-x,1/2+y,1/2+z
1/2+x,1/2-y,1/2+z
loop_
_atom_site_type_symbol
_atom_site_label
_atom_site_fract_x
_atom_site_fract_y
_atom_site_fract_z
Si Si1 0.584298 0.041838 0.336240
Si Si2 0.579727 0.784500 0.029016
Si Si3 0.585528 0.375558 0.833421
Si Si4 0.411221 0.121675 0.002523
Si Si5 0.578695 0.709684 0.813685
Si Si6 0.586826 0.541189 0.503830
O O1 0.750000 0.041445 0.392723
O O2 0.501222 0.083674 0.395548
O O3 0.584270 0.042026 0.169856
O O4 0.500000 0.000000 0.392478
O O5 0.750000 0.785656 0.073190
O O6 0.536940 0.830459 0.959227
O O7 0.483793 0.775960 0.165160
O O8 0.544922 0.747973 0.918922
O O9 0.750000 0.374402 0.895034
O O10 0.591637 0.379852 0.668545
O O11 0.500179 0.332375 0.874949
O O12 0.250000 0.111902 0.943318
O O13 0.518046 0.085140 0.943076
O O14 0.750000 0.700083 0.798935
O O15 0.500000 0.500000 0.446951
O O16 0.750000 0.537964 0.445746
#
# Coordination Sequence:
#
# PCOD8182922 Si02
#       6
#     8   8   8   8   8   8
#     4   9  15  22  33  51  76 107 142 177 215 262
#     4   9  19  33  47  66  92 120 151 188 229 271
#     4   9  16  26  39  56  81 112 144 180 222 265
#     4   8  14  25  38  52  76 108 138 172 214 256
#     4  10  19  31  48  68  90 119 154 189 227 272
#     4   9  15  21  31  49  73 102 136 170 206 252
#
# _framework density 17.523969000000001
#
# number of rings (size 3 to 8) (size 9 to 14) (size 15 to 20)
#    0.000    3.000    0.000    3.000    0.000    9.333 
#    0.000    0.000    0.000    0.000    0.000    0.000 
#    0.000    1.333    0.000   10.333    0.000   11.333 
#
# Total GULP energy -297510.565745 kJ/mol
# GULP energy per Si atom -12396.273573 kJ/mol
# Density = 1.748408 g / cm^3
# Si number density = 17.523969 Si / 1000 Ang^3
#
#
#
# Elastic Constant Matrix: (Units=GPa)
#
#
# Indices 1 2 3 4 5 6 
#
# 1 156.8024 103.7063 27.5339 0.0000 0.0000 0.0000
# 2 103.7063 188.5229 33.4208 0.0000 0.0000 0.0000
# 3 27.5339 33.4208 18.9523 0.0000 0.0000 0.0000
# 4 0.0000 0.0000 0.0000 15.3201 0.0000 0.0000
# 5 0.0000 0.0000 0.0000 0.0000 7.3651 0.0000
# 6 0.0000 0.0000 0.0000 0.0000 0.0000 37.8754
#
#
#
# Elastic Compliance Matrix: (Units=1/GPa)
#
#
# Indices 1 2 3 4 5 6 
#
# 1 0.010715 -0.004560 -0.007525 0.000000 0.000000 0.000000
# 2 -0.004560 0.009658 -0.010405 0.000000 0.000000 0.000000
# 3 -0.007525 -0.010405 0.082045 0.000000 0.000000 0.000000
# 4 0.000000 0.000000 0.000000 0.065274 0.000000 0.000000
# 5 0.000000 0.000000 0.000000 0.000000 0.135775 0.000000
# 6 0.000000 0.000000 0.000000 0.000000 0.000000 0.026402
#
#
# Mechanical properties :
#
#
# Convention : Reuss Voigt Hill
#
# Bulk Modulus (GPa) = 17.41045 77.06663 47.23854
# Shear Modulus (GPa) = 12.69049 25.41989 19.05519
#
# Velocity S-wave (km/s) = 2.69398 3.81278 3.30112
# Velocity P-wave (km/s) = 4.43097 7.96595 6.44553
#
# Compressibility (1/GPa) = 0.05743677
#
# Stress axis : x y z
#
# Youngs Moduli (GPa) = 93.32829 103.54549 12.18839
#
# Poissons Ratio (x) = 0.47219 0.09172
# Poissons Ratio (y) = 0.42560 0.12682
# Poissons Ratio (z) = 0.70229 1.07742
#
# Static dielectric constant tensor:
#      x y z
#    x 3.494160 0.000000 0.000000 
#    y 0.000000 3.643000 0.000000 
#    z 0.000000 0.000000 2.460330 
# 
# 
# High freq. dielectric constant tensor:
#      x y z
#    x 1.692780 0.000000 0.000000 
#    y 0.000000 1.700170 0.000000 
#    z 0.000000 0.000000 1.583650 
# 
# From -- ./inp_files/10307.got.cif
#   From: 2010.03.12/outbox.cif.g09.slc.cpg/sg40_6_cif.got.tgz:10307.got - 2010.04.14 01:38:03.
