data_PCOD8182886
_publ_section_title
;
Structure prediction by ZEFSAII (Michael W. Deem and Ramdas Pophale) SiO2 
 PCOD8182886
Probable space group: A M A 2
;
_chemical_formula_sum "Si O2"
_cell_formula_units_Z 64
_cell_length_a 8.694312
_cell_length_b 30.126142
_cell_length_c 14.500612
_cell_angle_alpha 90.000000
_cell_angle_beta 90.000000
_cell_angle_gamma 90.000000
_cell_volume 3798.088428
_symmetry_space_group_name_H-M "A M A 2"
_symmetry_group_IT_number 40
_symmetry_cell_setting 'orthorhombic'
loop_
_space_group_symop_operation_xyz
x,y,z
-x,-y,z
1/2-x,y,z
1/2+x,-y,z
x,1/2+y,1/2+z
-x,1/2-y,1/2+z
1/2-x,1/2+y,1/2+z
1/2+x,1/2-y,1/2+z
loop_
_atom_site_type_symbol
_atom_site_label
_atom_site_fract_x
_atom_site_fract_y
_atom_site_fract_z
Si Si1 0.431666 0.713470 0.353460
Si Si2 0.077050 0.824424 0.161357
Si Si3 0.073854 0.637708 0.488406
Si Si4 0.926779 0.955644 0.046400
Si Si5 0.431228 0.800617 0.461797
Si Si6 0.425863 0.722010 0.148319
Si Si7 0.429516 0.631915 0.828513
Si Si8 0.067969 0.953490 0.245091
O O1 0.250000 0.719215 0.346487
O O2 0.479632 0.666921 0.401168
O O3 0.495256 0.755897 0.410914
O O4 0.497088 0.711467 0.249391
O O5 0.250000 0.836232 0.193989
O O6 0.062817 0.774053 0.131279
O O7 0.036115 0.853184 0.073360
O O8 0.962041 0.834787 0.244194
O O9 0.250000 0.650275 0.513585
O O10 0.058014 0.584584 0.472114
O O11 0.750000 0.965128 0.070402
O O12 0.009183 0.942984 0.142068
O O13 0.000000 0.000000 0.002083
O O14 0.250000 0.804153 0.448895
O O15 0.472239 0.800927 0.569888
O O16 0.509766 0.844432 0.420551
O O17 0.250000 0.705309 0.140230
O O18 0.250000 0.622708 0.837004
O O19 0.514501 0.585140 0.814079
O O20 0.250000 0.956115 0.244409
O O21 0.000000 0.000000 0.281162
#
# Coordination Sequence:
#
# PCOD8182886 Si02
#       8
#     8   8   8   8   8   8   8   8
#     4   9  18  33  51  71  99 133 172 214 257 306
#     4  11  20  30  48  74 103 136 173 214 254 300
#     4  10  19  32  50  72  98 138 178 211 253 309
#     4  10  19  30  47  72 102 135 173 210 257 310
#     4  11  21  35  53  75 101 135 173 213 259 306
#     4  10  20  35  50  71 102 135 172 215 258 304
#     4  12  23  35  51  74 104 140 178 213 254 306
#     4  11  21  34  52  75 104 136 170 210 258 308
#
# _framework density 16.850581999999999
#
# number of rings (size 3 to 8) (size 9 to 14) (size 15 to 20)
#    0.000    1.500    3.750    4.125    0.000    1.000 
#    0.000    0.625    0.000    0.000    0.000    0.875 
#    0.000    4.000    0.000    0.000    0.000    0.000 
#
# Total GULP energy -396755.736225 kJ/mol
# GULP energy per Si atom -12398.616757 kJ/mol
# Density = 1.681223 g / cm^3
# Si number density = 16.850582 Si / 1000 Ang^3
#
#
#
# Elastic Constant Matrix: (Units=GPa)
#
#
# Indices 1 2 3 4 5 6 
#
# 1 88.7545 38.1324 18.9293 0.0000 0.0000 0.0000
# 2 38.1324 105.5633 33.7270 0.0000 0.0000 0.0000
# 3 18.9293 33.7270 75.8034 0.0000 0.0000 0.0000
# 4 0.0000 0.0000 0.0000 23.7197 0.0000 0.0000
# 5 0.0000 0.0000 0.0000 0.0000 20.2283 0.0000
# 6 0.0000 0.0000 0.0000 0.0000 0.0000 24.0941
#
#
#
# Elastic Compliance Matrix: (Units=1/GPa)
#
#
# Indices 1 2 3 4 5 6 
#
# 1 0.013463 -0.004417 -0.001397 0.000000 0.000000 0.000000
# 2 -0.004417 0.012492 -0.004455 0.000000 0.000000 0.000000
# 3 -0.001397 -0.004455 0.015523 0.000000 0.000000 0.000000
# 4 0.000000 0.000000 0.000000 0.042159 0.000000 0.000000
# 5 0.000000 0.000000 0.000000 0.000000 0.049436 0.000000
# 6 0.000000 0.000000 0.000000 0.000000 0.000000 0.041504
#
#
# Mechanical properties :
#
#
# Convention : Reuss Voigt Hill
#
# Bulk Modulus (GPa) = 47.75467 50.18874 48.97171
# Shear Modulus (GPa) = 24.74108 25.56392 25.15250
#
# Velocity S-wave (km/s) = 3.83595 3.89921 3.86771
# Velocity P-wave (km/s) = 6.92971 7.07962 7.00507
#
# Compressibility (1/GPa) = 0.02094036
#
# Stress axis : x y z
#
# Youngs Moduli (GPa) = 74.28014 80.05237 64.42075
#
# Poissons Ratio (x) = 0.35358 0.08997
# Poissons Ratio (y) = 0.32808 0.28699
# Poissons Ratio (z) = 0.10374 0.35663
#
# Static dielectric constant tensor:
#      x y z
#    x 3.167990 0.000000 0.000000 
#    y 0.000000 3.319980 0.000000 
#    z 0.000000 0.000000 3.044350 
# 
# 
# High freq. dielectric constant tensor:
#      x y z
#    x 1.651550 0.000000 0.000000 
#    y 0.000000 1.647240 0.000000 
#    z 0.000000 0.000000 1.616890 
# 
# From -- ./inp_files/15907.got.cif
#   From: 2010.03.12/outbox.cif.g09.slc.cpg/sg40_8_cif.got.tgz:15907.got - 2010.04.14 01:38:03.
