data_PCOD8182359
_publ_section_title
;
Structure prediction by ZEFSAII (Michael W. Deem and Ramdas Pophale) SiO2 
 PCOD8182359
Probable space group: A M A 2
;
_chemical_formula_sum "Si O2"
_cell_formula_units_Z 56
_cell_length_a 8.846894
_cell_length_b 22.341507
_cell_length_c 17.691640
_cell_angle_alpha 90.000000
_cell_angle_beta 90.000000
_cell_angle_gamma 90.000000
_cell_volume 3496.804734
_symmetry_space_group_name_H-M "A M A 2"
_symmetry_group_IT_number 40
_symmetry_cell_setting 'orthorhombic'
loop_
_space_group_symop_operation_xyz
x,y,z
-x,-y,z
1/2-x,y,z
1/2+x,-y,z
x,1/2+y,1/2+z
-x,1/2-y,1/2+z
1/2-x,1/2+y,1/2+z
1/2+x,1/2-y,1/2+z
loop_
_atom_site_type_symbol
_atom_site_label
_atom_site_fract_x
_atom_site_fract_y
_atom_site_fract_z
Si Si1 0.928745 0.843355 0.547820
Si Si2 0.926835 0.935844 0.674924
Si Si3 0.425025 0.809378 0.947892
Si Si4 0.072335 0.813883 0.402484
Si Si5 0.926851 0.782155 0.088737
Si Si6 0.425135 0.717993 0.758176
Si Si7 0.923380 0.147180 0.790848
O O1 0.750000 0.834688 0.544990
O O2 0.976669 0.897506 0.602206
O O3 0.992727 0.857832 0.463612
O O4 0.003541 0.783653 0.580923
O O5 0.750000 0.944535 0.678921
O O6 0.977019 0.903403 0.751943
O O7 0.000000 0.000000 0.667651
O O8 0.250000 0.790401 0.955171
O O9 0.525315 0.752841 0.924812
O O10 0.443582 0.859181 0.882313
O O11 0.491093 0.828508 0.030144
O O12 0.250000 0.823486 0.406468
O O13 0.015597 0.824729 0.316492
O O14 0.750000 0.778633 0.070799
O O15 0.955961 0.805790 0.173638
O O16 0.250000 0.714717 0.780680
O O17 0.478407 0.787080 0.764551
O O18 0.750000 0.137254 0.767080
#
# Coordination Sequence:
#
# PCOD8182359 Si02
#       7
#     8   8   8   8   8   8   8
#     4  10  19  31  44  60  84 114 147 183 224 263
#     4  11  23  34  48  66  85 114 152 192 228 264
#     4   9  17  28  41  60  86 116 144 177 219 261
#     4  10  18  26  41  62  83 113 148 180 215 260
#     4  10  17  26  43  65  88 118 149 179 215 258
#     4   9  17  28  42  62  90 120 146 178 219 259
#     4   9  17  31  46  59  84 117 148 183 223 261
#
# _framework density 16.014620000000001
#
# number of rings (size 3 to 8) (size 9 to 14) (size 15 to 20)
#    0.000    2.286    1.429    5.571    0.000    5.714 
#    0.000    0.000    0.000    0.000    0.000    0.000 
#    0.000    1.143    0.000    6.286    0.000    4.857 
#
# Total GULP energy -347024.942582 kJ/mol
# GULP energy per Si atom -12393.747949 kJ/mol
# Density = 1.597817 g / cm^3
# Si number density = 16.014620 Si / 1000 Ang^3
#
#
#
# Elastic Constant Matrix: (Units=GPa)
#
#
# Indices 1 2 3 4 5 6 
#
# 1 77.8405 27.0021 58.2274 0.0000 0.0000 0.0000
# 2 27.0021 47.5438 40.7738 0.0000 0.0000 0.0000
# 3 58.2274 40.7738 145.9744 0.0000 0.0000 0.0000
# 4 0.0000 0.0000 0.0000 13.6395 0.0000 0.0000
# 5 0.0000 0.0000 0.0000 0.0000 27.3527 0.0000
# 6 0.0000 0.0000 0.0000 0.0000 0.0000 11.7950
#
#
#
# Elastic Compliance Matrix: (Units=1/GPa)
#
#
# Indices 1 2 3 4 5 6 
#
# 1 0.019446 -0.005775 -0.006143 0.000000 0.000000 0.000000
# 2 -0.005775 0.029374 -0.005901 0.000000 0.000000 0.000000
# 3 -0.006143 -0.005901 0.010949 0.000000 0.000000 0.000000
# 4 0.000000 0.000000 0.000000 0.073316 0.000000 0.000000
# 5 0.000000 0.000000 0.000000 0.000000 0.036559 0.000000
# 6 0.000000 0.000000 0.000000 0.000000 0.000000 0.084782
#
#
# Mechanical properties :
#
#
# Convention : Reuss Voigt Hill
#
# Bulk Modulus (GPa) = 41.44335 58.15172 49.79753
# Shear Modulus (GPa) = 16.77236 20.24781 18.51009
#
# Velocity S-wave (km/s) = 3.23974 3.55960 3.40343
# Velocity P-wave (km/s) = 6.31895 7.29965 6.82693
#
# Compressibility (1/GPa) = 0.02412933
#
# Stress axis : x y z
#
# Youngs Moduli (GPa) = 51.42512 34.04359 91.32937
#
# Poissons Ratio (x) = 0.19661 0.56108
# Poissons Ratio (y) = 0.29700 0.53894
# Poissons Ratio (z) = 0.31593 0.20089
#
# Static dielectric constant tensor:
#      x y z
#    x 3.115320 0.000000 0.000000 
#    y 0.000000 2.512580 0.000000 
#    z 0.000000 0.000000 3.788400 
# 
# 
# High freq. dielectric constant tensor:
#      x y z
#    x 1.629760 0.000000 0.000000 
#    y 0.000000 1.533390 0.000000 
#    z 0.000000 0.000000 1.638880 
# 
# From -- ./inp_files/19507.got.cif
#   From: 2010.03.12/outbox.cif.g09.slc.cpg/sg40_10_cif.got.tgz:19507.got - 2010.04.14 01:38:03.
