data_PCOD8182754
_publ_section_title
;
Structure prediction by ZEFSAII (Michael W. Deem and Ramdas Pophale) SiO2 
 PCOD8182754
Probable space group: A M A 2
;
_chemical_formula_sum "Si O2"
_cell_formula_units_Z 64
_cell_length_a 8.813624
_cell_length_b 23.964860
_cell_length_c 15.494255
_cell_angle_alpha 90.000000
_cell_angle_beta 90.000000
_cell_angle_gamma 90.000000
_cell_volume 3272.654168
_symmetry_space_group_name_H-M "A M A 2"
_symmetry_group_IT_number 40
_symmetry_cell_setting 'orthorhombic'
loop_
_space_group_symop_operation_xyz
x,y,z
-x,-y,z
1/2-x,y,z
1/2+x,-y,z
x,1/2+y,1/2+z
-x,1/2-y,1/2+z
1/2-x,1/2+y,1/2+z
1/2+x,1/2-y,1/2+z
loop_
_atom_site_type_symbol
_atom_site_label
_atom_site_fract_x
_atom_site_fract_y
_atom_site_fract_z
Si Si1 0.930520 0.439702 0.146610
Si Si2 0.429446 0.249868 0.046727
Si Si3 0.929837 0.126733 0.802569
Si Si4 0.572816 0.861009 0.491849
Si Si5 0.571818 0.863884 0.301002
Si Si6 0.928875 0.369469 0.480994
Si Si7 0.569695 0.246258 0.740757
Si Si8 0.070805 0.060309 0.147758
O O1 0.750000 0.443715 0.150217
O O2 0.000000 0.500000 0.131441
O O3 0.992272 0.414370 0.234891
O O4 0.987402 0.402142 0.066052
O O5 0.250000 0.252372 0.049135
O O6 0.491896 0.301631 0.993658
O O7 0.484305 0.193155 0.001501
O O8 0.494518 0.252526 0.143627
O O9 0.750000 0.121028 0.792927
O O10 0.988772 0.189910 0.786637
O O11 0.982230 0.108157 0.897486
O O12 0.750000 0.850275 0.503293
O O13 0.535621 0.886542 0.397176
O O14 0.750000 0.860155 0.283907
O O15 0.505598 0.801069 0.289391
O O16 0.502858 0.905744 0.229755
O O17 0.750000 0.371990 0.463565
O O18 0.976449 0.408324 0.560546
O O19 0.750000 0.245983 0.740277
O O20 0.250000 0.054887 0.155211
O O21 0.000000 0.000000 0.147436
#
# Coordination Sequence:
#
# PCOD8182754 Si02
#       8
#     8   8   8   8   8   8   8   8
#     4  11  24  41  59  82 113 151 194 241 288 338
#     4  10  18  33  58  85 115 151 188 228 279 341
#     4  11  22  37  61  88 115 148 187 236 289 344
#     4  10  21  36  58  87 117 148 185 234 285 337
#     4   9  17  34  58  83 112 149 188 221 272 340
#     4  10  21  37  58  84 116 153 190 230 281 341
#     4   9  16  30  56  85 112 146 184 221 272 339
#     4  10  21  38  59  80 108 148 190 233 275 326
#
# _framework density 19.555990999999999
#
# number of rings (size 3 to 8) (size 9 to 14) (size 15 to 20)
#    0.000    2.000    2.500    1.500    0.000    3.500 
#    0.000    1.875    0.000    1.500    0.000    0.000 
#    0.000    0.000    0.000    0.000    0.000    0.000 
#
# Total GULP energy -396816.614525 kJ/mol
# GULP energy per Si atom -12400.519204 kJ/mol
# Density = 1.951148 g / cm^3
# Si number density = 19.555991 Si / 1000 Ang^3
#
#
#
# Elastic Constant Matrix: (Units=GPa)
#
#
# Indices 1 2 3 4 5 6 
#
# 1 28.2708 21.2558 21.3640 0.0000 0.0000 0.0000
# 2 21.2558 131.4090 47.6269 0.0000 0.0000 0.0000
# 3 21.3640 47.6269 134.6879 0.0000 0.0000 0.0000
# 4 0.0000 0.0000 0.0000 13.7510 0.0000 0.0000
# 5 0.0000 0.0000 0.0000 0.0000 17.2095 0.0000
# 6 0.0000 0.0000 0.0000 0.0000 0.0000 29.4640
#
#
#
# Elastic Compliance Matrix: (Units=1/GPa)
#
#
# Indices 1 2 3 4 5 6 
#
# 1 0.043023 -0.005145 -0.005005 0.000000 0.000000 0.000000
# 2 -0.005145 0.009344 -0.002488 0.000000 0.000000 0.000000
# 3 -0.005005 -0.002488 0.009098 0.000000 0.000000 0.000000
# 4 0.000000 0.000000 0.000000 0.072722 0.000000 0.000000
# 5 0.000000 0.000000 0.000000 0.000000 0.058107 0.000000
# 6 0.000000 0.000000 0.000000 0.000000 0.000000 0.033940
#
#
# Mechanical properties :
#
#
# Convention : Reuss Voigt Hill
#
# Bulk Modulus (GPa) = 27.63278 52.76237 40.19758
# Shear Modulus (GPa) = 18.97012 25.69297 22.33154
#
# Velocity S-wave (km/s) = 3.11793 3.62859 3.38291
# Velocity P-wave (km/s) = 5.20795 6.67790 5.98820
#
# Compressibility (1/GPa) = 0.03618890
#
# Stress axis : x y z
#
# Youngs Moduli (GPa) = 23.24349 107.02307 109.91197
#
# Poissons Ratio (x) = 0.55065 0.55009
# Poissons Ratio (y) = 0.11959 0.27345
# Poissons Ratio (z) = 0.11633 0.26627
#
# Static dielectric constant tensor:
#      x y z
#    x 3.201530 0.000000 0.000000 
#    y 0.000000 3.667770 0.000000 
#    z 0.000000 0.000000 3.760680 
# 
# 
# High freq. dielectric constant tensor:
#      x y z
#    x 1.728940 0.000000 0.000000 
#    y 0.000000 1.762310 0.000000 
#    z 0.000000 0.000000 1.779600 
# 
# From -- ./inp_files/15556.got.cif
#   From: 2010.03.12/outbox.cif.g09.slc.cpg/sg40_8_cif.got.tgz:15556.got - 2010.04.14 01:38:03.
