data_PCOD8182618
_publ_section_title
;
Structure prediction by ZEFSAII (Michael W. Deem and Ramdas Pophale) SiO2 
 PCOD8182618
Probable space group: A M A 2
;
_chemical_formula_sum "Si O2"
_cell_formula_units_Z 48
_cell_length_a 8.693739
_cell_length_b 9.564150
_cell_length_c 30.671994
_cell_angle_alpha 90.000000
_cell_angle_beta 90.000000
_cell_angle_gamma 90.000000
_cell_volume 2550.321823
_symmetry_space_group_name_H-M "A M A 2"
_symmetry_group_IT_number 40
_symmetry_cell_setting 'orthorhombic'
loop_
_space_group_symop_operation_xyz
x,y,z
-x,-y,z
1/2-x,y,z
1/2+x,-y,z
x,1/2+y,1/2+z
-x,1/2-y,1/2+z
1/2-x,1/2+y,1/2+z
1/2+x,1/2-y,1/2+z
loop_
_atom_site_type_symbol
_atom_site_label
_atom_site_fract_x
_atom_site_fract_y
_atom_site_fract_z
Si Si1 0.431213 0.847345 0.572090
Si Si2 0.932372 0.152883 0.396676
Si Si3 0.069034 0.652625 0.652896
Si Si4 0.430655 0.143979 0.821527
Si Si5 0.067960 0.147798 0.722696
Si Si6 0.432780 0.155044 0.484087
O O1 0.250000 0.863188 0.565673
O O2 0.475433 0.745591 0.611343
O O3 0.504694 0.775783 0.528705
O O4 0.500000 0.000000 0.581972
O O5 0.750000 0.146231 0.401089
O O6 0.987973 0.236089 0.354098
O O7 0.001714 0.227881 0.440183
O O8 0.000000 0.000000 0.391035
O O9 0.250000 0.640589 0.659249
O O10 0.000000 0.500000 0.646336
O O11 0.997744 0.723910 0.695419
O O12 0.250000 0.129207 0.823029
O O13 0.485469 0.176790 0.772367
O O14 0.500000 0.000000 0.838665
O O15 0.250000 0.141335 0.717618
O O16 0.000000 0.000000 0.706084
O O17 0.250000 0.155712 0.483471
O O18 0.500000 0.000000 0.484208
#
# Coordination Sequence:
#
# PCOD8182618 Si02
#       6
#     8   8   8   8   8   8
#     4  10  20  35  56  80 105 137 177 218 262 312
#     4  10  19  33  52  77 108 140 176 217 262 310
#     4  11  24  39  56  80 110 143 177 219 271 322
#     4   9  20  36  55  79 107 140 177 218 262 311
#     4  10  20  37  59  82 108 140 181 223 265 316
#     4  10  18  30  51  78 105 136 175 217 261 307
#
# _framework density 18.821155999999998
#
# number of rings (size 3 to 8) (size 9 to 14) (size 15 to 20)
#    0.000    2.000    0.000    6.000    0.000    6.667 
#    0.000    2.500    0.000    0.000    0.000    0.000 
#    0.000    0.000    0.000    0.000    0.000    0.000 
#
# Total GULP energy -297585.160867 kJ/mol
# GULP energy per Si atom -12399.381703 kJ/mol
# Density = 1.877832 g / cm^3
# Si number density = 18.821156 Si / 1000 Ang^3
#
#
#
# Elastic Constant Matrix: (Units=GPa)
#
#
# Indices 1 2 3 4 5 6 
#
# 1 96.7577 46.1290 60.4680 0.0000 0.0000 0.0000
# 2 46.1290 105.7403 76.4040 0.0000 0.0000 0.0000
# 3 60.4680 76.4040 145.6669 0.0000 0.0000 0.0000
# 4 0.0000 0.0000 0.0000 33.2657 0.0000 0.0000
# 5 0.0000 0.0000 0.0000 0.0000 32.0068 0.0000
# 6 0.0000 0.0000 0.0000 0.0000 0.0000 30.3559
#
#
#
# Elastic Compliance Matrix: (Units=1/GPa)
#
#
# Indices 1 2 3 4 5 6 
#
# 1 0.014600 -0.003205 -0.004380 0.000000 0.000000 0.000000
# 2 -0.003205 0.015932 -0.007026 0.000000 0.000000 0.000000
# 3 -0.004380 -0.007026 0.012368 0.000000 0.000000 0.000000
# 4 0.000000 0.000000 0.000000 0.030061 0.000000 0.000000
# 5 0.000000 0.000000 0.000000 0.000000 0.031243 0.000000
# 6 0.000000 0.000000 0.000000 0.000000 0.000000 0.032943
#
#
# Mechanical properties :
#
#
# Convention : Reuss Voigt Hill
#
# Bulk Modulus (GPa) = 73.10367 79.35188 76.22778
# Shear Modulus (GPa) = 29.25201 30.13660 29.69431
#
# Velocity S-wave (km/s) = 3.94662 4.00585 3.97635
# Velocity P-wave (km/s) = 7.72615 7.97799 7.85308
#
# Compressibility (1/GPa) = 0.01367920
#
# Stress axis : x y z
#
# Youngs Moduli (GPa) = 68.49327 62.76656 80.85083
#
# Poissons Ratio (x) = 0.20114 0.35411
# Poissons Ratio (y) = 0.21949 0.56808
# Poissons Ratio (z) = 0.29999 0.44102
#
# Static dielectric constant tensor:
#      x y z
#    x 3.517530 0.000000 0.000000 
#    y 0.000000 3.225680 0.000000 
#    z 0.000000 0.000000 4.258870 
# 
# 
# High freq. dielectric constant tensor:
#      x y z
#    x 1.745450 0.000000 0.000000 
#    y 0.000000 1.701410 0.000000 
#    z 0.000000 0.000000 1.752720 
# 
# From -- ./inp_files/26159.got.cif
#   From: 2010.03.12/outbox.cif.g09.slc.cpg/sg40_14_cif.got.tgz:26159.got - 2010.04.14 01:38:03.
