data_PCOD8182441
_publ_section_title
;
Structure prediction by ZEFSAII (Michael W. Deem and Ramdas Pophale) SiO2 
 PCOD8182441
Probable space group: A M A 2
;
_chemical_formula_sum "Si O2"
_cell_formula_units_Z 64
_cell_length_a 9.092071
_cell_length_b 26.003223
_cell_length_c 18.340614
_cell_angle_alpha 90.000000
_cell_angle_beta 90.000000
_cell_angle_gamma 90.000000
_cell_volume 4336.145730
_symmetry_space_group_name_H-M "A M A 2"
_symmetry_group_IT_number 40
_symmetry_cell_setting 'orthorhombic'
loop_
_space_group_symop_operation_xyz
x,y,z
-x,-y,z
1/2-x,y,z
1/2+x,-y,z
x,1/2+y,1/2+z
-x,1/2-y,1/2+z
1/2-x,1/2+y,1/2+z
1/2+x,1/2-y,1/2+z
loop_
_atom_site_type_symbol
_atom_site_label
_atom_site_fract_x
_atom_site_fract_y
_atom_site_fract_z
Si Si1 0.576077 0.653267 0.979720
Si Si2 0.914596 0.302991 0.849931
Si Si3 0.578575 0.051087 0.562033
Si Si4 0.087216 0.806025 0.928410
Si Si5 0.576221 0.552305 0.228924
Si Si6 0.078705 0.645594 0.305394
Si Si7 0.578034 0.755978 0.561494
Si Si8 0.920616 0.748341 0.727583
O O1 0.750000 0.659888 0.973386
O O2 0.505940 0.657014 0.899221
O O3 0.529627 0.598262 0.011750
O O4 0.516930 0.696045 0.034990
O O5 0.750000 0.324298 0.838186
O O6 0.912472 0.249388 0.891419
O O7 0.990322 0.295085 0.771525
O O8 0.750000 0.040669 0.556949
O O9 0.532549 0.063267 0.645190
O O10 0.500000 0.000000 0.532764
O O11 0.250000 0.830897 0.922353
O O12 0.969646 0.842771 0.888926
O O13 0.044652 0.795125 0.012902
O O14 0.500000 0.500000 0.256018
O O15 0.750000 0.547735 0.239984
O O16 0.515431 0.598255 0.277436
O O17 0.250000 0.631729 0.304113
O O18 0.040899 0.694369 0.254882
O O19 0.750000 0.771086 0.555467
O O20 0.532442 0.743119 0.643768
O O21 0.750000 0.736888 0.740044
#
# Coordination Sequence:
#
# PCOD8182441 Si02
#       8
#     8   8   8   8   8   8   8   8
#     4  10  18  28  42  60  82 109 141 173 207 244
#     4   9  17  28  41  58  80 108 140 171 205 244
#     4   9  19  31  43  60  81 107 138 172 207 242
#     4   8  15  27  40  55  78 107 137 168 200 238
#     4  10  19  31  44  59  81 107 137 172 207 241
#     4  10  18  27  41  60  81 108 140 170 204 242
#     4   9  17  28  42  61  84 111 141 170 205 246
#     4   9  17  28  42  61  85 111 139 172 206 243
#
# _framework density 14.759651
#
# number of rings (size 3 to 8) (size 9 to 14) (size 15 to 20)
#    0.000    2.750    0.000    3.000    0.000    5.500 
#    0.000    0.000    0.000    0.000    0.000    0.000 
#    0.000    1.000    0.000    6.500    0.000    4.875 
#
# Total GULP energy -396755.564750 kJ/mol
# GULP energy per Si atom -12398.611398 kJ/mol
# Density = 1.472606 g / cm^3
# Si number density = 14.759651 Si / 1000 Ang^3
#
#
#
# Elastic Constant Matrix: (Units=GPa)
#
#
# Indices 1 2 3 4 5 6 
#
# 1 75.7066 44.7275 46.0558 0.0000 0.0000 0.0000
# 2 44.7275 73.1292 51.1566 0.0000 0.0000 0.0000
# 3 46.0558 51.1566 110.1915 0.0000 0.0000 0.0000
# 4 0.0000 0.0000 0.0000 21.5120 0.0000 0.0000
# 5 0.0000 0.0000 0.0000 0.0000 23.4056 0.0000
# 6 0.0000 0.0000 0.0000 0.0000 0.0000 23.8798
#
#
#
# Elastic Compliance Matrix: (Units=1/GPa)
#
#
# Indices 1 2 3 4 5 6 
#
# 1 0.022017 -0.010409 -0.004370 0.000000 0.000000 0.000000
# 2 -0.010409 0.025173 -0.007336 0.000000 0.000000 0.000000
# 3 -0.004370 -0.007336 0.014307 0.000000 0.000000 0.000000
# 4 0.000000 0.000000 0.000000 0.046486 0.000000 0.000000
# 5 0.000000 0.000000 0.000000 0.000000 0.042725 0.000000
# 6 0.000000 0.000000 0.000000 0.000000 0.000000 0.041876
#
#
# Mechanical properties :
#
#
# Convention : Reuss Voigt Hill
#
# Bulk Modulus (GPa) = 57.91330 60.32301 59.11816
# Shear Modulus (GPa) = 20.61269 21.56530 21.08899
#
# Velocity S-wave (km/s) = 3.74111 3.82658 3.78408
# Velocity P-wave (km/s) = 7.61472 7.77705 7.69631
#
# Compressibility (1/GPa) = 0.01726719
#
# Stress axis : x y z
#
# Youngs Moduli (GPa) = 45.41935 39.72568 69.89537
#
# Poissons Ratio (x) = 0.41352 0.30542
# Poissons Ratio (y) = 0.47279 0.51273
# Poissons Ratio (z) = 0.19847 0.29142
#
# Static dielectric constant tensor:
#      x y z
#    x 2.966210 0.000000 0.000000 
#    y 0.000000 2.639250 0.000000 
#    z 0.000000 0.000000 3.011650 
# 
# 
# High freq. dielectric constant tensor:
#      x y z
#    x 1.576810 0.000000 0.000000 
#    y 0.000000 1.527810 0.000000 
#    z 0.000000 0.000000 1.556070 
# 
# From -- ./inp_files/19712.got.cif
#   From: 2010.03.12/outbox.cif.g09.slc.cpg/sg40_10_cif.got.tgz:19712.got - 2010.04.14 01:38:03.
