data_PCOD8182207
_publ_section_title
;
Structure prediction by ZEFSAII (Michael W. Deem and Ramdas Pophale) SiO2 
 PCOD8182207
Probable space group: A B M 2
;
_chemical_formula_sum "Si O2"
_cell_formula_units_Z 24
_cell_length_a 6.944371
_cell_length_b 13.369671
_cell_length_c 9.636075
_cell_angle_alpha 90.000000
_cell_angle_beta 90.000000
_cell_angle_gamma 90.000000
_cell_volume 894.651319
_symmetry_space_group_name_H-M "A B M 2"
_symmetry_group_IT_number 39
_symmetry_cell_setting 'orthorhombic'
loop_
_space_group_symop_operation_xyz
x,y,z
-x,-y,z
-x,1/2+y,z
x,1/2-y,z
x,1/2+y,1/2+z
-x,1/2-y,1/2+z
-x,y,1/2+z
x,-y,1/2+z
loop_
_atom_site_type_symbol
_atom_site_label
_atom_site_fract_x
_atom_site_fract_y
_atom_site_fract_z
Si Si1 0.218032 0.567386 0.225350
Si Si2 0.363732 0.859341 0.708427
Si Si3 0.049536 0.138561 0.997437
O O1 0.274681 0.456690 0.284486
O O2 0.406630 0.633263 0.199104
O O3 0.067100 0.612207 0.335289
O O4 0.099734 0.566261 0.080020
O O5 0.313653 0.750000 0.776796
O O6 0.269452 0.865070 0.555148
O O7 0.964923 0.250000 0.012384
#
# Coordination Sequence:
#
# PCOD8182207 Si02
#       3
#     8   8   8
#     4  11  25  46  75 109 146 187 240 301 361 427
#     4  10  24  45  71 104 144 191 240 293 357 429
#     4  11  24  44  72 107 146 189 238 295 361 430
#
# _framework density 26.826094999999999
#
# number of rings (size 3 to 8) (size 9 to 14) (size 15 to 20)
#    0.000    1.333    0.000    4.000    0.000   13.333 
#    0.000    8.333    0.000   10.000    0.000    4.667 
#    0.000    0.000    0.000    0.000    0.000    0.000 
#
# Total GULP energy -148667.787044 kJ/mol
# GULP energy per Si atom -12388.982254 kJ/mol
# Density = 2.676504 g / cm^3
# Si number density = 26.826095 Si / 1000 Ang^3
#
#
#
# Elastic Constant Matrix: (Units=GPa)
#
#
# Indices 1 2 3 4 5 6 
#
# 1 159.6353 51.5551 47.1303 0.0000 0.0000 0.0000
# 2 51.5551 216.7712 5.1003 0.0000 0.0000 0.0000
# 3 47.1303 5.1003 100.1866 0.0000 0.0000 0.0000
# 4 0.0000 0.0000 0.0000 15.8193 0.0000 0.0000
# 5 0.0000 0.0000 0.0000 0.0000 36.1363 0.0000
# 6 0.0000 0.0000 0.0000 0.0000 0.0000 43.1686
#
#
#
# Elastic Compliance Matrix: (Units=1/GPa)
#
#
# Indices 1 2 3 4 5 6 
#
# 1 0.007917 -0.001798 -0.003633 0.000000 0.000000 0.000000
# 2 -0.001798 0.005027 0.000590 0.000000 0.000000 0.000000
# 3 -0.003633 0.000590 0.011660 0.000000 0.000000 0.000000
# 4 0.000000 0.000000 0.000000 0.063214 0.000000 0.000000
# 5 0.000000 0.000000 0.000000 0.000000 0.027673 0.000000
# 6 0.000000 0.000000 0.000000 0.000000 0.000000 0.023165
#
#
# Mechanical properties :
#
#
# Convention : Reuss Voigt Hill
#
# Bulk Modulus (GPa) = 67.01116 76.01827 71.51471
# Shear Modulus (GPa) = 32.61313 43.87867 38.24590
#
# Velocity S-wave (km/s) = 3.49051 4.04873 3.77994
# Velocity P-wave (km/s) = 6.42487 7.08909 6.76514
#
# Compressibility (1/GPa) = 0.01492289
#
# Stress axis : x y z
#
# Youngs Moduli (GPa) = 126.30400 198.93390 85.76022
#
# Poissons Ratio (x) = 0.35759 0.31157
# Poissons Ratio (y) = 0.22704 -0.05057
# Poissons Ratio (z) = 0.45887 -0.11731
#
# Static dielectric constant tensor:
#      x y z
#    x 4.956630 0.000000 0.000000 
#    y 0.000000 5.318050 0.000000 
#    z 0.000000 0.000000 4.177440 
# 
# 
# High freq. dielectric constant tensor:
#      x y z
#    x 2.094460 0.000000 0.000000 
#    y 0.000000 2.114460 0.000000 
#    z 0.000000 0.000000 2.029250 
# 
# From -- ./inp_files/1877.got.cif
#   From: 2010.03.12/outbox.cif.g09.slc.cpg/sg39_1_cif.got.tgz:1877.got - 2010.04.14 02:53:20.
