data_PCOD8182106
_publ_section_title
;
Structure prediction by ZEFSAII (Michael W. Deem and Ramdas Pophale) SiO2 
 PCOD8182106
Probable space group: A B M 2
;
_chemical_formula_sum "Si O2"
_cell_formula_units_Z 48
_cell_length_a 6.731451
_cell_length_b 23.550156
_cell_length_c 13.828437
_cell_angle_alpha 90.000000
_cell_angle_beta 90.000000
_cell_angle_gamma 90.000000
_cell_volume 2192.176776
_symmetry_space_group_name_H-M "A B M 2"
_symmetry_group_IT_number 39
_symmetry_cell_setting 'orthorhombic'
loop_
_space_group_symop_operation_xyz
x,y,z
-x,-y,z
-x,1/2+y,z
x,1/2-y,z
x,1/2+y,1/2+z
-x,1/2-y,1/2+z
-x,y,1/2+z
x,-y,1/2+z
loop_
_atom_site_type_symbol
_atom_site_label
_atom_site_fract_x
_atom_site_fract_y
_atom_site_fract_z
Si Si1 0.320270 0.646056 0.896400
Si Si2 0.153171 0.597175 0.178199
Si Si3 0.627288 0.556580 0.856177
Si Si4 0.459750 0.814439 0.094893
Si Si5 0.985643 0.436078 0.479710
Si Si6 0.160744 0.688513 0.712926
O O1 0.469106 0.605424 0.839326
O O2 0.130941 0.609395 0.931089
O O3 0.264152 0.693015 0.817377
O O4 0.432846 0.679821 0.980389
O O5 0.234531 0.553152 0.259415
O O6 0.330536 0.636248 0.141689
O O7 0.997155 0.639303 0.225715
O O8 0.038904 0.562893 0.093624
O O9 0.500000 0.500000 0.876082
O O10 0.756126 0.576260 0.950729
O O11 0.397938 0.750000 0.126027
O O12 0.687528 0.825381 0.125572
O O13 0.000000 0.500000 0.437389
O O14 0.061997 0.750000 0.691230
#
# Coordination Sequence:
#
# PCOD8182106 Si02
#       6
#     8   8   8   8   8   8
#     4  11  22  41  64  94 130 167 219 269 328 386
#     4  11  24  42  66  96 130 170 217 271 330 394
#     4  12  24  43  69  97 131 176 219 271 330 398
#     4  10  22  41  63  92 128 170 218 271 327 390
#     4  11  24  43  65  95 130 171 216 275 326 391
#     4  11  22  40  67  94 129 169 214 268 327 392
#
# _framework density 21.896045999999998
#
# number of rings (size 3 to 8) (size 9 to 14) (size 15 to 20)
#    0.000    1.000    5.000    2.000    0.000    2.000 
#    6.000    0.000    0.000    0.000    0.000    0.000 
#    0.000    0.000    0.000    0.000    0.000    0.000 
#
# Total GULP energy -297396.553977 kJ/mol
# GULP energy per Si atom -12391.523082 kJ/mol
# Density = 2.184621 g / cm^3
# Si number density = 21.896046 Si / 1000 Ang^3
#
#
#
# Elastic Constant Matrix: (Units=GPa)
#
#
# Indices 1 2 3 4 5 6 
#
# 1 97.0481 24.7251 40.3511 0.0000 0.0000 0.0000
# 2 24.7251 71.3747 7.6934 0.0000 0.0000 0.0000
# 3 40.3511 7.6934 95.4259 0.0000 0.0000 0.0000
# 4 0.0000 0.0000 0.0000 26.8966 0.0000 0.0000
# 5 0.0000 0.0000 0.0000 0.0000 33.8840 0.0000
# 6 0.0000 0.0000 0.0000 0.0000 0.0000 51.1083
#
#
#
# Elastic Compliance Matrix: (Units=1/GPa)
#
#
# Indices 1 2 3 4 5 6 
#
# 1 0.013611 -0.004131 -0.005422 0.000000 0.000000 0.000000
# 2 -0.004131 0.015387 0.000506 0.000000 0.000000 0.000000
# 3 -0.005422 0.000506 0.012731 0.000000 0.000000 0.000000
# 4 0.000000 0.000000 0.000000 0.037179 0.000000 0.000000
# 5 0.000000 0.000000 0.000000 0.000000 0.029512 0.000000
# 6 0.000000 0.000000 0.000000 0.000000 0.000000 0.019566
#
#
# Mechanical properties :
#
#
# Convention : Reuss Voigt Hill
#
# Bulk Modulus (GPa) = 42.30916 45.48755 43.89835
# Shear Modulus (GPa) = 32.47597 35.11640 33.79619
#
# Velocity S-wave (km/s) = 3.85540 4.00906 3.93298
# Velocity P-wave (km/s) = 6.25967 6.49997 6.38095
#
# Compressibility (1/GPa) = 0.02363555
#
# Stress axis : x y z
#
# Youngs Moduli (GPa) = 73.46941 64.99037 78.54567
#
# Poissons Ratio (x) = 0.26845 0.42591
# Poissons Ratio (y) = 0.30347 -0.03975
# Poissons Ratio (z) = 0.39839 -0.03289
#
# Static dielectric constant tensor:
#      x y z
#    x 4.044040 0.000000 0.000000 
#    y 0.000000 3.837820 0.000000 
#    z 0.000000 0.000000 3.967830 
# 
# 
# High freq. dielectric constant tensor:
#      x y z
#    x 1.862370 0.000000 0.000000 
#    y 0.000000 1.862070 0.000000 
#    z 0.000000 0.000000 1.862820 
# 
# From -- ./inp_files/7541.got.cif
#   From: 2010.03.12/outbox.cif.g09.slc.cpg/sg39_4_cif.got.tgz:7541.got - 2010.04.14 02:53:20.
