data_PCOD8182341
_publ_section_title
;
Structure prediction by ZEFSAII (Michael W. Deem and Ramdas Pophale) SiO2 
 PCOD8182341
Probable space group: A M A 2
;
_chemical_formula_sum "Si O2"
_cell_formula_units_Z 48
_cell_length_a 17.189668
_cell_length_b 9.919488
_cell_length_c 15.541683
_cell_angle_alpha 90.000000
_cell_angle_beta 90.000000
_cell_angle_gamma 90.000000
_cell_volume 2650.054416
_symmetry_space_group_name_H-M "A M A 2"
_symmetry_group_IT_number 40
_symmetry_cell_setting 'orthorhombic'
loop_
_space_group_symop_operation_xyz
x,y,z
-x,-y,z
1/2-x,y,z
1/2+x,-y,z
x,1/2+y,1/2+z
-x,1/2-y,1/2+z
1/2-x,1/2+y,1/2+z
1/2+x,1/2-y,1/2+z
loop_
_atom_site_type_symbol
_atom_site_label
_atom_site_fract_x
_atom_site_fract_y
_atom_site_fract_z
Si Si1 0.051709 0.627604 0.253680
Si Si2 0.836269 0.203682 0.157996
Si Si3 0.834622 0.550096 0.838585
Si Si4 0.555332 0.875580 0.250489
Si Si5 0.157716 0.173970 0.908167
Si Si6 0.087838 0.037712 0.072910
O O1 0.103790 0.671350 0.170897
O O2 0.108891 0.596967 0.333760
O O3 0.000000 0.500000 0.228155
O O4 0.991164 0.744996 0.279617
O O5 0.750000 0.256816 0.133327
O O6 0.833395 0.124028 0.247146
O O7 0.867015 0.103629 0.084794
O O8 0.750000 0.495038 0.864284
O O9 0.889087 0.418034 0.830520
O O10 0.861965 0.664843 0.906129
O O11 0.596428 0.863168 0.156720
O O12 0.500000 0.000000 0.230556
O O13 0.250000 0.151380 0.891940
O O14 0.131577 0.118423 0.999010
O O15 0.000000 0.000000 0.046013
#
# Coordination Sequence:
#
# PCOD8182341 Si02
#       6
#     8   8   8   8   8   8
#     4  11  20  33  54  82 109 147 194 239 278 325
#     4   9  16  30  51  74 106 148 187 222 277 343
#     4   8  15  28  49  75 102 139 182 224 271 326
#     4  10  16  33  55  75 106 141 189 224 269 336
#     4  10  19  31  51  82 115 142 182 236 290 341
#     4  10  17  30  53  83 110 140 190 235 267 337
#
# _framework density 18.112836999999999
#
# number of rings (size 3 to 8) (size 9 to 14) (size 15 to 20)
#    0.000    2.333    6.667    2.500    0.000    0.667 
#    0.000    1.667    3.667    0.000    0.000    4.667 
#    0.000    0.000    0.000    0.000    0.000    0.000 
#
# Total GULP energy -297367.048593 kJ/mol
# GULP energy per Si atom -12390.293691 kJ/mol
# Density = 1.807161 g / cm^3
# Si number density = 18.112837 Si / 1000 Ang^3
#
#
#
# Elastic Constant Matrix: (Units=GPa)
#
#
# Indices 1 2 3 4 5 6 
#
# 1 136.6973 69.4501 39.6625 0.0000 0.0000 0.0000
# 2 69.4501 93.9484 39.6356 0.0000 0.0000 0.0000
# 3 39.6625 39.6356 76.2786 0.0000 0.0000 0.0000
# 4 0.0000 0.0000 0.0000 28.7642 0.0000 0.0000
# 5 0.0000 0.0000 0.0000 0.0000 17.9372 0.0000
# 6 0.0000 0.0000 0.0000 0.0000 0.0000 26.1862
#
#
#
# Elastic Compliance Matrix: (Units=1/GPa)
#
#
# Indices 1 2 3 4 5 6 
#
# 1 0.011968 -0.007969 -0.002082 0.000000 0.000000 0.000000
# 2 -0.007969 0.018939 -0.005697 0.000000 0.000000 0.000000
# 3 -0.002082 -0.005697 0.017153 0.000000 0.000000 0.000000
# 4 0.000000 0.000000 0.000000 0.034765 0.000000 0.000000
# 5 0.000000 0.000000 0.000000 0.000000 0.055750 0.000000
# 6 0.000000 0.000000 0.000000 0.000000 0.000000 0.038188
#
#
# Mechanical properties :
#
#
# Convention : Reuss Voigt Hill
#
# Bulk Modulus (GPa) = 60.37592 67.15787 63.76689
# Shear Modulus (GPa) = 23.38840 25.12261 24.25550
#
# Velocity S-wave (km/s) = 3.59731 3.72829 3.66339
# Velocity P-wave (km/s) = 7.11757 7.46268 7.29216
#
# Compressibility (1/GPa) = 0.01656289
#
# Stress axis : x y z
#
# Youngs Moduli (GPa) = 83.55427 52.80223 58.29879
#
# Poissons Ratio (x) = 0.42077 0.12140
# Poissons Ratio (y) = 0.66583 0.33214
# Poissons Ratio (z) = 0.17399 0.30083
#
# Static dielectric constant tensor:
#      x y z
#    x 3.709790 0.000000 0.000000 
#    y 0.000000 2.964810 0.000000 
#    z 0.000000 0.000000 3.079700 
# 
# 
# High freq. dielectric constant tensor:
#      x y z
#    x 1.721280 0.000000 0.000000 
#    y 0.000000 1.668210 0.000000 
#    z 0.000000 0.000000 1.664910 
# 
# From -- ./inp_files/18084.got.cif
#   From: 2010.03.12/outbox.cif.g09.slc.cpg/sg40_10_cif.got.tgz:18084.got - 2010.04.14 01:38:03.
