data_PCOD8182687
_publ_section_title
;
Structure prediction by ZEFSAII (Michael W. Deem and Ramdas Pophale) SiO2 
 PCOD8182687
Probable space group: A M A 2
;
_chemical_formula_sum "Si O2"
_cell_formula_units_Z 64
_cell_length_a 8.818080
_cell_length_b 29.665020
_cell_length_c 12.872324
_cell_angle_alpha 90.000000
_cell_angle_beta 90.000000
_cell_angle_gamma 90.000000
_cell_volume 3367.252178
_symmetry_space_group_name_H-M "A M A 2"
_symmetry_group_IT_number 40
_symmetry_cell_setting 'orthorhombic'
loop_
_space_group_symop_operation_xyz
x,y,z
-x,-y,z
1/2-x,y,z
1/2+x,-y,z
x,1/2+y,1/2+z
-x,1/2-y,1/2+z
1/2-x,1/2+y,1/2+z
1/2+x,1/2-y,1/2+z
loop_
_atom_site_type_symbol
_atom_site_label
_atom_site_fract_x
_atom_site_fract_y
_atom_site_fract_z
Si Si1 0.930625 0.859762 0.443900
Si Si2 0.428251 0.548067 0.552783
Si Si3 0.416642 0.288975 0.227273
Si Si4 0.417606 0.207191 0.085784
Si Si5 0.070408 0.122518 0.213149
Si Si6 0.427510 0.741566 0.921311
Si Si7 0.570860 0.451428 0.316941
Si Si8 0.431330 0.383035 0.153400
O O1 0.750000 0.862524 0.455200
O O2 0.985125 0.880826 0.332773
O O3 0.991509 0.807898 0.450851
O O4 0.006092 0.889188 0.535905
O O5 0.500000 0.500000 0.576843
O O6 0.250000 0.542802 0.565650
O O7 0.494420 0.583063 0.638378
O O8 0.466778 0.564785 0.435213
O O9 0.250000 0.302665 0.269497
O O10 0.400560 0.257070 0.129593
O O11 0.503415 0.259681 0.314607
O O12 0.498588 0.335318 0.194986
O O13 0.250000 0.191691 0.045176
O O14 0.482900 0.170513 0.166026
O O15 0.538731 0.216083 0.996031
O O16 0.250000 0.120895 0.212826
O O17 0.250000 0.734310 0.906122
O O18 0.500000 0.500000 0.299052
O O19 0.750000 0.453108 0.298069
O O20 0.494265 0.420023 0.231585
O O21 0.250000 0.384987 0.149472
#
# Coordination Sequence:
#
# PCOD8182687 Si02
#       8
#     8   8   8   8   8   8   8   8
#     4  10  19  34  55  76 106 148 190 227 266 319
#     4   9  19  37  60  85 110 137 173 220 274 329
#     4   9  18  32  49  72 106 146 182 218 268 323
#     4  10  18  32  52  74 103 142 183 223 268 319
#     4   9  18  34  57  80 105 143 186 224 271 329
#     4  10  19  32  48  71 104 143 184 226 269 316
#     4  10  21  39  62  87 112 139 175 222 275 330
#     4  11  22  36  55  81 113 148 185 226 274 327
#
# _framework density 19.006594
#
# number of rings (size 3 to 8) (size 9 to 14) (size 15 to 20)
#    0.000    2.250    2.500    0.750    1.750    0.500 
#    0.000    3.750    0.000    1.500    0.000    0.000 
#    0.000    0.000    0.000    0.000    0.000    0.000 
#
# Total GULP energy -396437.103127 kJ/mol
# GULP energy per Si atom -12388.659473 kJ/mol
# Density = 1.896333 g / cm^3
# Si number density = 19.006594 Si / 1000 Ang^3
#
#
#
# Elastic Constant Matrix: (Units=GPa)
#
#
# Indices 1 2 3 4 5 6 
#
# 1 42.6674 30.5663 38.0989 0.0000 0.0000 0.0000
# 2 30.5663 109.2310 74.8052 0.0000 0.0000 0.0000
# 3 38.0989 74.8052 144.3747 0.0000 0.0000 0.0000
# 4 0.0000 0.0000 0.0000 39.7122 0.0000 0.0000
# 5 0.0000 0.0000 0.0000 0.0000 22.0565 0.0000
# 6 0.0000 0.0000 0.0000 0.0000 0.0000 23.6804
#
#
#
# Elastic Compliance Matrix: (Units=1/GPa)
#
#
# Indices 1 2 3 4 5 6 
#
# 1 0.032310 -0.004963 -0.005954 0.000000 0.000000 0.000000
# 2 -0.004963 0.014953 -0.006438 0.000000 0.000000 0.000000
# 3 -0.005954 -0.006438 0.011833 0.000000 0.000000 0.000000
# 4 0.000000 0.000000 0.000000 0.025181 0.000000 0.000000
# 5 0.000000 0.000000 0.000000 0.000000 0.045338 0.000000
# 6 0.000000 0.000000 0.000000 0.000000 0.000000 0.042229
#
#
# Mechanical properties :
#
#
# Convention : Reuss Voigt Hill
#
# Bulk Modulus (GPa) = 41.00962 64.80154 52.90558
# Shear Modulus (GPa) = 23.29015 27.27668 25.28341
#
# Velocity S-wave (km/s) = 3.50433 3.79240 3.65121
# Velocity P-wave (km/s) = 6.16418 7.30374 6.75803
#
# Compressibility (1/GPa) = 0.02438452
#
# Stress axis : x y z
#
# Youngs Moduli (GPa) = 30.95038 66.87839 84.50761
#
# Poissons Ratio (x) = 0.33195 0.50320
# Poissons Ratio (y) = 0.15362 0.54402
# Poissons Ratio (z) = 0.18429 0.43053
#
# Static dielectric constant tensor:
#      x y z
#    x 3.253030 0.000000 0.000000 
#    y 0.000000 3.482750 0.000000 
#    z 0.000000 0.000000 3.727980 
# 
# 
# High freq. dielectric constant tensor:
#      x y z
#    x 1.706100 0.000000 0.000000 
#    y 0.000000 1.728360 0.000000 
#    z 0.000000 0.000000 1.749390 
# 
# From -- ./inp_files/10678.got.cif
#   From: 2010.03.12/outbox.cif.g09.slc.cpg/sg40_6_cif.got.tgz:10678.got - 2010.04.14 01:38:03.
