data_PCOD8182621
_publ_section_title
;
Structure prediction by ZEFSAII (Michael W. Deem and Ramdas Pophale) SiO2 
 PCOD8182621
Probable space group: A M A 2
;
_chemical_formula_sum "Si O2"
_cell_formula_units_Z 64
_cell_length_a 8.589007
_cell_length_b 18.435239
_cell_length_c 20.722373
_cell_angle_alpha 90.000000
_cell_angle_beta 90.000000
_cell_angle_gamma 90.000000
_cell_volume 3281.188764
_symmetry_space_group_name_H-M "A M A 2"
_symmetry_group_IT_number 40
_symmetry_cell_setting 'orthorhombic'
loop_
_space_group_symop_operation_xyz
x,y,z
-x,-y,z
1/2-x,y,z
1/2+x,-y,z
x,1/2+y,1/2+z
-x,1/2-y,1/2+z
1/2-x,1/2+y,1/2+z
1/2+x,1/2-y,1/2+z
loop_
_atom_site_type_symbol
_atom_site_label
_atom_site_fract_x
_atom_site_fract_y
_atom_site_fract_z
Si Si1 0.428971 0.203801 0.333150
Si Si2 0.930312 0.355937 0.333150
Si Si3 0.934478 0.644122 0.199301
Si Si4 0.434670 0.576967 0.592581
Si Si5 0.930199 0.308873 0.693670
Si Si6 0.934670 0.923033 0.573719
Si Si7 0.434478 0.855877 0.967000
Si Si8 0.069801 0.191127 0.472630
O O1 0.250000 0.234569 0.333150
O O2 0.548556 0.269697 0.333150
O O3 0.456822 0.159215 0.266751
O O4 0.456822 0.159215 0.399549
O O5 0.750000 0.377016 0.333151
O O6 0.011123 0.387267 0.268537
O O7 0.011125 0.387266 0.397763
O O8 0.750000 0.639686 0.194546
O O9 0.996639 0.726878 0.189160
O O10 0.010679 0.593614 0.145711
O O11 0.500000 0.500000 0.615253
O O12 0.250000 0.574875 0.595901
O O13 0.507521 0.637297 0.641598
O O14 0.489320 0.593614 0.520589
O O15 0.750000 0.304938 0.676969
O O16 0.750000 0.925125 0.570399
O O17 0.007521 0.862703 0.524702
O O18 0.000000 0.000000 0.551047
O O19 0.250000 0.860314 0.971755
O O20 0.496639 0.773122 0.977141
O O21 0.250000 0.195062 0.489331
#
# Coordination Sequence:
#
# PCOD8182621 Si02
#       8
#     8   8   8   8   8   8   8   8
#     4   8  14  30  53  78 104 134 171 216 261 304
#     4  10  18  30  51  82 111 134 162 208 260 312
#     4  10  19  35  57  80 103 135 174 216 260 308
#     4  11  22  36  51  74 106 142 178 217 260 308
#     4   8  16  31  55  80 104 134 173 215 260 307
#     4  11  22  36  51  74 106 142 178 217 260 308
#     4  10  19  35  57  80 103 135 174 216 260 308
#     4   8  16  31  55  80 104 134 173 215 260 307
#
# _framework density 19.505127000000002
#
# number of rings (size 3 to 8) (size 9 to 14) (size 15 to 20)
#    0.000    2.500    0.000    4.875    0.000    0.000 
#    0.000   12.500    0.000    0.000    0.000    0.000 
#    0.000    0.000    0.000    0.000    0.000    0.000 
#
# Total GULP energy -396583.206927 kJ/mol
# GULP energy per Si atom -12393.225216 kJ/mol
# Density = 1.946073 g / cm^3
# Si number density = 19.505127 Si / 1000 Ang^3
#
#
#
# Elastic Constant Matrix: (Units=GPa)
#
#
# Indices 1 2 3 4 5 6 
#
# 1 63.2309 12.2180 14.0734 0.0000 0.0000 0.0000
# 2 12.2180 44.1336 11.3508 0.0000 0.0000 0.0000
# 3 14.0734 11.3508 97.4799 0.0000 0.0000 0.0000
# 4 0.0000 0.0000 0.0000-2978.7818 0.0000 0.0000
# 5 0.0000 0.0000 0.0000 0.0000 23.9199 0.0000
# 6 0.0000 0.0000 0.0000 0.0000 0.0000 21.1961
#
#
#
# Elastic Compliance Matrix: (Units=1/GPa)
#
#
# Indices 1 2 3 4 5 6 
#
# 1 0.017069 -0.004218 -0.001973 0.000000 0.000000 0.000000
# 2 -0.004218 0.024400 -0.002232 0.000000 0.000000 0.000000
# 3 -0.001973 -0.002232 0.010803 0.000000 0.000000 0.000000
# 4 0.000000 0.000000 0.000000 -0.000336 0.000000 0.000000
# 5 0.000000 0.000000 0.000000 0.000000 0.041806 0.000000
# 6 0.000000 0.000000 0.000000 0.000000 0.000000 0.047179
#
#
# Mechanical properties :
#
#
# Convention : Reuss Voigt Hill
#
# Bulk Modulus (GPa) = 28.22784 31.12543 29.67663
# Shear Modulus (GPa) = 29.48507 -575.58633 -273.05063
#
# Velocity S-wave (km/s) = 3.89222 -17.19696 -11.84454
# Velocity P-wave (km/s) = 5.89089 19.45050 13.10762
#
# Compressibility (1/GPa) = 0.03542602
#
# Stress axis : x y z
#
# Youngs Moduli (GPa) = 58.58491 40.98310 92.56405
#
# Poissons Ratio (x) = 0.17287 0.18264
# Poissons Ratio (y) = 0.24711 0.20663
# Poissons Ratio (z) = 0.11560 0.09149
#
# Static dielectric constant tensor:
#      x y z
#    x 3.279470 0.000000 0.000000 
#    y 0.000000 3.395890 0.000000 
#    z 0.000000 0.000000 4.069890 
# 
# 
# High freq. dielectric constant tensor:
#      x y z
#    x 1.740350 0.000000 0.000000 
#    y 0.000000 1.718460 0.000000 
#    z 0.000000 0.000000 1.782880 
# 
# From -- ./inp_files/22397.got.cif
#   From: 2010.03.12/outbox.cif.g09.slc.cpg/sg40_12_cif.got.tgz:22397.got - 2010.04.14 01:38:03.
