data_PCOD8182746
_publ_section_title
;
Structure prediction by ZEFSAII (Michael W. Deem and Ramdas Pophale) SiO2 
 PCOD8182746
Probable space group: A M A 2
;
_chemical_formula_sum "Si O2"
_cell_formula_units_Z 48
_cell_length_a 8.536097
_cell_length_b 28.286688
_cell_length_c 10.302530
_cell_angle_alpha 90.000000
_cell_angle_beta 90.000000
_cell_angle_gamma 90.000000
_cell_volume 2487.627388
_symmetry_space_group_name_H-M "A M A 2"
_symmetry_group_IT_number 40
_symmetry_cell_setting 'orthorhombic'
loop_
_space_group_symop_operation_xyz
x,y,z
-x,-y,z
1/2-x,y,z
1/2+x,-y,z
x,1/2+y,1/2+z
-x,1/2-y,1/2+z
1/2-x,1/2+y,1/2+z
1/2+x,1/2-y,1/2+z
loop_
_atom_site_type_symbol
_atom_site_label
_atom_site_fract_x
_atom_site_fract_y
_atom_site_fract_z
Si Si1 0.568948 0.149653 0.960620
Si Si2 0.066299 0.191321 0.219063
Si Si3 0.433525 0.706421 0.227371
Si Si4 0.934493 0.951323 0.589812
Si Si5 0.435851 0.145944 0.484362
Si Si6 0.067882 0.952263 0.874249
O O1 0.750000 0.159647 0.927423
O O2 0.461880 0.174234 0.852936
O O3 0.534640 0.093318 0.963844
O O4 0.530062 0.170724 0.099862
O O5 0.250000 0.182821 0.196907
O O6 0.002802 0.164596 0.346812
O O7 0.034052 0.246346 0.238899
O O8 0.250000 0.718573 0.217898
O O9 0.496628 0.679523 0.099912
O O10 0.750000 0.953000 0.583379
O O11 0.999791 0.907240 0.506238
O O12 0.984416 0.944225 0.737609
O O13 0.000000 0.000000 0.529931
O O14 0.250000 0.146486 0.488561
O O15 0.250000 0.959658 0.847578
O O16 0.000000 0.000000 0.941724
#
# Coordination Sequence:
#
# PCOD8182746 Si02
#       6
#     8   8   8   8   8   8
#     4  11  23  39  57  85 119 152 193 238 283 343
#     4  11  23  39  58  83 116 155 192 236 289 341
#     4  11  21  38  62  86 112 150 192 239 290 340
#     4  10  18  33  56  83 111 142 182 230 283 339
#     4   9  20  37  57  81 113 147 185 228 281 342
#     4  10  20  34  56  84 113 144 186 237 284 335
#
# _framework density 19.295494999999999
#
# number of rings (size 3 to 8) (size 9 to 14) (size 15 to 20)
#    0.000    1.667    1.667    4.500    0.000    3.333 
#    0.000    6.667    0.000    4.000    0.000    0.000 
#    0.000    0.000    0.000    0.000    0.000    0.000 
#
# Total GULP energy -297642.353228 kJ/mol
# GULP energy per Si atom -12401.764718 kJ/mol
# Density = 1.925158 g / cm^3
# Si number density = 19.295495 Si / 1000 Ang^3
#
#
#
# Elastic Constant Matrix: (Units=GPa)
#
#
# Indices 1 2 3 4 5 6 
#
# 1 50.0988 23.8144 7.1588 0.0000 0.0000 0.0000
# 2 23.8144 138.6831 37.6935 0.0000 0.0000 0.0000
# 3 7.1588 37.6935 92.3438 0.0000 0.0000 0.0000
# 4 0.0000 0.0000 0.0000 -1.6353 0.0000 0.0000
# 5 0.0000 0.0000 0.0000 0.0000 16.8671 0.0000
# 6 0.0000 0.0000 0.0000 0.0000 0.0000 29.8010
#
#
#
# Elastic Compliance Matrix: (Units=1/GPa)
#
#
# Indices 1 2 3 4 5 6 
#
# 1 0.021737 -0.003683 -0.000182 0.000000 0.000000 0.000000
# 2 -0.003683 0.008735 -0.003280 0.000000 0.000000 0.000000
# 3 -0.000182 -0.003280 0.012182 0.000000 0.000000 0.000000
# 4 0.000000 0.000000 0.000000 -0.611497 0.000000 0.000000
# 5 0.000000 0.000000 0.000000 0.000000 0.059287 0.000000
# 6 0.000000 0.000000 0.000000 0.000000 0.000000 0.033556
#
#
# Mechanical properties :
#
#
# Convention : Reuss Voigt Hill
#
# Bulk Modulus (GPa) = 35.25551 46.49544 40.87547
# Shear Modulus (GPa) = -11.05570 23.17048 6.05739
#
# Velocity S-wave (km/s) = -2.39627 3.46905 1.77372
# Velocity P-wave (km/s) = 3.26418 6.33992 5.04229
#
# Compressibility (1/GPa) = 0.02836436
#
# Stress axis : x y z
#
# Youngs Moduli (GPa) = 46.00368 114.48707 82.08867
#
# Poissons Ratio (x) = 0.42169 0.01491
# Poissons Ratio (y) = 0.16945 0.26923
# Poissons Ratio (z) = 0.00836 0.37550
#
# Static dielectric constant tensor:
#      x y z
#    x 3.408470 0.000000 0.000000 
#    y 0.000000 3.949060 0.000000 
#    z 0.000000 0.000000 3.446430 
# 
# 
# High freq. dielectric constant tensor:
#      x y z
#    x 1.748720 0.000000 0.000000 
#    y 0.000000 1.771530 0.000000 
#    z 0.000000 0.000000 1.730390 
# 
# From -- ./inp_files/4618.got.cif
#   From: 2010.03.12/outbox.cif.g09.slc.cpg/sg40_3_cif.got.tgz:4618.got - 2010.04.14 01:38:03.
