data_PCOD8182972
_publ_section_title
;
Structure prediction by ZEFSAII (Michael W. Deem and Ramdas Pophale) SiO2 
 PCOD8182972
Probable space group: A M A 2
;
_chemical_formula_sum "Si O2"
_cell_formula_units_Z 64
_cell_length_a 8.749065
_cell_length_b 24.877645
_cell_length_c 15.267109
_cell_angle_alpha 90.000000
_cell_angle_beta 90.000000
_cell_angle_gamma 90.000000
_cell_volume 3322.979909
_symmetry_space_group_name_H-M "A M A 2"
_symmetry_group_IT_number 40
_symmetry_cell_setting 'orthorhombic'
loop_
_space_group_symop_operation_xyz
x,y,z
-x,-y,z
1/2-x,y,z
1/2+x,-y,z
x,1/2+y,1/2+z
-x,1/2-y,1/2+z
1/2-x,1/2+y,1/2+z
1/2+x,1/2-y,1/2+z
loop_
_atom_site_type_symbol
_atom_site_label
_atom_site_fract_x
_atom_site_fract_y
_atom_site_fract_z
Si Si1 0.430148 0.853502 0.376120
Si Si2 0.931117 0.943712 0.495322
Si Si3 0.926289 0.636831 0.497555
Si Si4 0.924476 0.243013 0.899030
Si Si5 0.069612 0.832573 0.181529
Si Si6 0.929642 0.899722 0.677165
Si Si7 0.929358 0.283546 0.223558
Si Si8 0.569440 0.942941 0.861581
O O1 0.250000 0.862638 0.385143
O O2 0.519817 0.899491 0.425904
O O3 0.472202 0.795462 0.416643
O O4 0.486236 0.856232 0.274563
O O5 0.750000 0.947094 0.497033
O O6 0.998049 0.929272 0.591872
O O7 0.000000 0.000000 0.464639
O O8 0.750000 0.618453 0.488291
O O9 0.942738 0.700097 0.476522
O O10 0.988694 0.632684 0.598237
O O11 0.028336 0.599715 0.436288
O O12 0.750000 0.262397 0.889960
O O13 0.977206 0.211459 0.812893
O O14 0.250000 0.834026 0.178854
O O15 0.017946 0.770088 0.172590
O O16 0.750000 0.908224 0.679452
O O17 0.968980 0.836441 0.667265
O O18 0.998467 0.924176 0.767187
O O19 0.750000 0.281386 0.247602
O O20 0.750000 0.947739 0.857258
O O21 0.500000 0.000000 0.887707
#
# Coordination Sequence:
#
# PCOD8182972 Si02
#       8
#     8   8   8   8   8   8   8   8
#     4  10  21  39  60  82 112 151 194 238 287 340
#     4  11  23  40  61  85 113 148 193 242 291 344
#     4  10  20  35  56  84 114 149 191 233 278 332
#     4  10  19  31  53  85 118 148 184 230 279 333
#     4   8  17  33  57  81 110 149 187 229 279 336
#     4   9  19  34  57  84 114 152 188 226 279 342
#     4   9  16  32  55  79 112 152 189 222 272 336
#     4  11  22  38  58  82 113 152 191 232 280 334
#
# _framework density 19.259822
#
# number of rings (size 3 to 8) (size 9 to 14) (size 15 to 20)
#    0.000    2.250    1.250    2.625    1.750    0.500 
#    0.000    6.875    0.000    0.000    0.000    0.000 
#    0.000    0.000    0.000    0.000    0.000    0.000 
#
# Total GULP energy -396694.890137 kJ/mol
# GULP energy per Si atom -12396.715317 kJ/mol
# Density = 1.921599 g / cm^3
# Si number density = 19.259822 Si / 1000 Ang^3
#
#
#
# Elastic Constant Matrix: (Units=GPa)
#
#
# Indices 1 2 3 4 5 6 
#
# 1 52.5348 27.3920 29.3666 0.0000 0.0000 0.0000
# 2 27.3920 107.3129 55.1422 0.0000 0.0000 0.0000
# 3 29.3666 55.1422 112.0410 0.0000 0.0000 0.0000
# 4 0.0000 0.0000 0.0000 22.6370 0.0000 0.0000
# 5 0.0000 0.0000 0.0000 0.0000 22.7164 0.0000
# 6 0.0000 0.0000 0.0000 0.0000 0.0000 29.7034
#
#
#
# Elastic Compliance Matrix: (Units=1/GPa)
#
#
# Indices 1 2 3 4 5 6 
#
# 1 0.023392 -0.003775 -0.004273 0.000000 0.000000 0.000000
# 2 -0.003775 0.013082 -0.005449 0.000000 0.000000 0.000000
# 3 -0.004273 -0.005449 0.012727 0.000000 0.000000 0.000000
# 4 0.000000 0.000000 0.000000 0.044175 0.000000 0.000000
# 5 0.000000 0.000000 0.000000 0.000000 0.044021 0.000000
# 6 0.000000 0.000000 0.000000 0.000000 0.000000 0.033666
#
#
# Mechanical properties :
#
#
# Convention : Reuss Voigt Hill
#
# Bulk Modulus (GPa) = 45.03173 55.07670 50.05422
# Shear Modulus (GPa) = 24.33553 25.67724 25.00639
#
# Velocity S-wave (km/s) = 3.55849 3.65527 3.60720
# Velocity P-wave (km/s) = 6.34946 6.81714 6.58745
#
# Compressibility (1/GPa) = 0.02220656
#
# Stress axis : x y z
#
# Youngs Moduli (GPa) = 42.74949 76.44028 78.57235
#
# Poissons Ratio (x) = 0.28857 0.33576
# Poissons Ratio (y) = 0.16139 0.42814
# Poissons Ratio (z) = 0.18268 0.41652
#
# Static dielectric constant tensor:
#      x y z
#    x 3.303090 0.000000 0.000000 
#    y 0.000000 3.488900 0.000000 
#    z 0.000000 0.000000 3.823840 
# 
# 
# High freq. dielectric constant tensor:
#      x y z
#    x 1.728070 0.000000 0.000000 
#    y 0.000000 1.745430 0.000000 
#    z 0.000000 0.000000 1.749890 
# 
# From -- ./inp_files/15587.got.cif
#   From: 2010.03.12/outbox.cif.g09.slc.cpg/sg40_8_cif.got.tgz:15587.got - 2010.04.14 01:38:03.
