data_PCOD8182963
_publ_section_title
;
Structure prediction by ZEFSAII (Michael W. Deem and Ramdas Pophale) SiO2 
 PCOD8182963
Probable space group: A M A 2
;
_chemical_formula_sum "Si O2"
_cell_formula_units_Z 56
_cell_length_a 8.733966
_cell_length_b 14.379089
_cell_length_c 22.529484
_cell_angle_alpha 90.000000
_cell_angle_beta 90.000000
_cell_angle_gamma 90.000000
_cell_volume 2829.398466
_symmetry_space_group_name_H-M "A M A 2"
_symmetry_group_IT_number 40
_symmetry_cell_setting 'orthorhombic'
loop_
_space_group_symop_operation_xyz
x,y,z
-x,-y,z
1/2-x,y,z
1/2+x,-y,z
x,1/2+y,1/2+z
-x,1/2-y,1/2+z
1/2-x,1/2+y,1/2+z
1/2+x,1/2-y,1/2+z
loop_
_atom_site_type_symbol
_atom_site_label
_atom_site_fract_x
_atom_site_fract_y
_atom_site_fract_z
Si Si1 0.568933 0.597441 0.468930
Si Si2 0.430788 0.397995 0.121816
Si Si3 0.072895 0.291962 0.239360
Si Si4 0.069263 0.096625 0.841505
Si Si5 0.070397 0.404593 0.903829
Si Si6 0.570328 0.224342 0.511933
Si Si7 0.426426 0.593789 0.777681
O O1 0.500000 0.500000 0.491577
O O2 0.750000 0.588980 0.465719
O O3 0.503725 0.623236 0.404321
O O4 0.518566 0.677756 0.514701
O O5 0.500000 0.500000 0.122585
O O6 0.250000 0.408271 0.119787
O O7 0.484887 0.341219 0.179656
O O8 0.490216 0.341246 0.064812
O O9 0.250000 0.316107 0.252440
O O10 0.050608 0.180396 0.232907
O O11 0.969434 0.324865 0.293915
O O12 0.250000 0.087802 0.849785
O O13 0.000000 0.000000 0.817591
O O14 0.250000 0.417734 0.897139
O O15 0.000000 0.500000 0.928868
O O16 0.001005 0.378983 0.840327
O O17 0.029715 0.323509 0.949601
O O18 0.750000 0.243618 0.518850
O O19 0.500000 0.500000 0.750255
O O20 0.250000 0.572642 0.789425
#
# Coordination Sequence:
#
# PCOD8182963 Si02
#       7
#     8   8   8   8   8   8   8
#     4  11  22  37  58  83 112 145 182 227 276 331
#     4  10  22  40  60  82 112 146 184 229 274 323
#     4  10  21  37  56  80 110 148 189 230 277 327
#     4  11  21  34  55  83 115 148 182 226 277 332
#     4  10  19  31  51  79 110 142 177 219 270 325
#     4  10  21  37  56  80 111 147 184 225 274 326
#     4  10  20  34  53  77 107 140 177 222 272 324
#
# _framework density 19.792193999999999
#
# number of rings (size 3 to 8) (size 9 to 14) (size 15 to 20)
#    0.000    1.714    0.000    6.857    0.000    6.857 
#    0.000    0.714    0.000    1.714    0.000    0.000 
#    0.000    0.000    0.000    0.000    0.000    0.000 
#
# Total GULP energy -347267.908057 kJ/mol
# GULP energy per Si atom -12402.425288 kJ/mol
# Density = 1.974715 g / cm^3
# Si number density = 19.792194 Si / 1000 Ang^3
#
#
#
# Elastic Constant Matrix: (Units=GPa)
#
#
# Indices 1 2 3 4 5 6 
#
# 1 109.0426 58.4727 37.1194 0.0000 0.0000 0.0000
# 2 58.4727 167.9816 71.2670 0.0000 0.0000 0.0000
# 3 37.1194 71.2670 72.8261 0.0000 0.0000 0.0000
# 4 0.0000 0.0000 0.0000 35.6032 0.0000 0.0000
# 5 0.0000 0.0000 0.0000 0.0000 17.8913 0.0000
# 6 0.0000 0.0000 0.0000 0.0000 0.0000 35.2863
#
#
#
# Elastic Compliance Matrix: (Units=1/GPa)
#
#
# Indices 1 2 3 4 5 6 
#
# 1 0.011747 -0.002648 -0.003396 0.000000 0.000000 0.000000
# 2 -0.002648 0.010776 -0.009196 0.000000 0.000000 0.000000
# 3 -0.003396 -0.009196 0.024461 0.000000 0.000000 0.000000
# 4 0.000000 0.000000 0.000000 0.028087 0.000000 0.000000
# 5 0.000000 0.000000 0.000000 0.000000 0.055893 0.000000
# 6 0.000000 0.000000 0.000000 0.000000 0.000000 0.028340
#
#
# Mechanical properties :
#
#
# Convention : Reuss Voigt Hill
#
# Bulk Modulus (GPa) = 60.58934 75.95205 68.27070
# Shear Modulus (GPa) = 25.60363 29.95557 27.77960
#
# Velocity S-wave (km/s) = 3.60060 3.89460 3.75048
# Velocity P-wave (km/s) = 6.92567 7.66041 7.30229
#
# Compressibility (1/GPa) = 0.01650455
#
# Stress axis : x y z
#
# Youngs Moduli (GPa) = 85.12969 92.79745 40.88149
#
# Poissons Ratio (x) = 0.24575 0.13882
# Poissons Ratio (y) = 0.22545 0.37593
# Poissons Ratio (z) = 0.28908 0.85333
#
# Static dielectric constant tensor:
#      x y z
#    x 3.580040 0.000000 0.000000 
#    y 0.000000 3.796600 0.000000 
#    z 0.000000 0.000000 3.464860 
# 
# 
# High freq. dielectric constant tensor:
#      x y z
#    x 1.774430 0.000000 0.000000 
#    y 0.000000 1.789250 0.000000 
#    z 0.000000 0.000000 1.746470 
# 
# From -- ./inp_files/22204.got.cif
#   From: 2010.03.12/outbox.cif.g09.slc.cpg/sg40_12_cif.got.tgz:22204.got - 2010.04.14 01:38:03.
