data_PCOD8182603
_publ_section_title
;
Structure prediction by ZEFSAII (Michael W. Deem and Ramdas Pophale) SiO2 
 PCOD8182603
Probable space group: A M A 2
;
_chemical_formula_sum "Si O2"
_cell_formula_units_Z 64
_cell_length_a 8.881471
_cell_length_b 33.550859
_cell_length_c 11.695001
_cell_angle_alpha 90.000000
_cell_angle_beta 90.000000
_cell_angle_gamma 90.000000
_cell_volume 3484.887874
_symmetry_space_group_name_H-M "A M A 2"
_symmetry_group_IT_number 40
_symmetry_cell_setting 'orthorhombic'
loop_
_space_group_symop_operation_xyz
x,y,z
-x,-y,z
1/2-x,y,z
1/2+x,-y,z
x,1/2+y,1/2+z
-x,1/2-y,1/2+z
1/2-x,1/2+y,1/2+z
1/2+x,1/2-y,1/2+z
loop_
_atom_site_type_symbol
_atom_site_label
_atom_site_fract_x
_atom_site_fract_y
_atom_site_fract_z
Si Si1 0.924633 0.680084 0.183160
Si Si2 0.076419 0.884117 0.072311
Si Si3 0.071476 0.627379 0.000452
Si Si4 0.072749 0.040466 0.163077
Si Si5 0.925589 0.459131 0.927954
Si Si6 0.076467 0.731031 0.635550
Si Si7 0.426511 0.177968 0.924119
Si Si8 0.922729 0.670663 0.789585
O O1 0.750000 0.668489 0.183250
O O2 0.953486 0.722131 0.120469
O O3 0.981363 0.686284 0.310738
O O4 0.015050 0.644828 0.120748
O O5 0.250000 0.885301 0.034589
O O6 0.054961 0.861780 0.191680
O O7 0.010154 0.927639 0.085509
O O8 0.977376 0.864438 0.973262
O O9 0.250000 0.628629 0.993918
O O10 0.015970 0.581182 0.990817
O O11 0.009920 0.655470 0.900295
O O12 0.250000 0.041385 0.141246
O O13 0.033212 0.047143 0.295674
O O14 0.000000 0.000000 0.119232
O O15 0.750000 0.464776 0.946983
O O16 0.000000 0.500000 0.975902
O O17 0.250000 0.721356 0.660963
O O18 0.026456 0.711706 0.515614
O O19 0.984427 0.712861 0.742645
O O20 0.250000 0.177822 0.897554
O O21 0.750000 0.676785 0.824773
#
# Coordination Sequence:
#
# PCOD8182603 Si02
#       8
#     8   8   8   8   8   8   8   8
#     4  11  24  40  57  83 112 146 190 237 282 335
#     4  10  19  33  54  80 109 145 183 227 277 332
#     4  11  22  37  56  83 116 153 190 231 284 341
#     4  10  18  30  49  79 115 148 182 225 276 335
#     4   9  19  33  53  80 114 150 187 229 280 337
#     4   9  21  39  58  80 110 145 184 230 281 332
#     4  10  21  39  59  79 107 147 188 230 279 335
#     4  10  20  33  54  82 111 144 185 227 275 331
#
# _framework density 18.365010000000002
#
# number of rings (size 3 to 8) (size 9 to 14) (size 15 to 20)
#    0.000    2.000    1.250    2.250    1.750    4.000 
#    0.000    0.000    0.000    0.750    0.000    3.500 
#    0.000    0.000    0.000    0.000    0.000    0.000 
#
# Total GULP energy -396850.161402 kJ/mol
# GULP energy per Si atom -12401.567544 kJ/mol
# Density = 1.832321 g / cm^3
# Si number density = 18.365010 Si / 1000 Ang^3
#
#
#
# Elastic Constant Matrix: (Units=GPa)
#
#
# Indices 1 2 3 4 5 6 
#
# 1 60.4478 36.0793 25.8822 0.0000 0.0000 0.0000
# 2 36.0793 117.5413 39.9987 0.0000 0.0000 0.0000
# 3 25.8822 39.9987 73.8179 0.0000 0.0000 0.0000
# 4 0.0000 0.0000 0.0000 24.5109 0.0000 0.0000
# 5 0.0000 0.0000 0.0000 0.0000 31.6142 0.0000
# 6 0.0000 0.0000 0.0000 0.0000 0.0000 32.8521
#
#
#
# Elastic Compliance Matrix: (Units=1/GPa)
#
#
# Indices 1 2 3 4 5 6 
#
# 1 0.021599 -0.004969 -0.004881 0.000000 0.000000 0.000000
# 2 -0.004969 0.011574 -0.004529 0.000000 0.000000 0.000000
# 3 -0.004881 -0.004529 0.017712 0.000000 0.000000 0.000000
# 4 0.000000 0.000000 0.000000 0.040798 0.000000 0.000000
# 5 0.000000 0.000000 0.000000 0.000000 0.031631 0.000000
# 6 0.000000 0.000000 0.000000 0.000000 0.000000 0.030439
#
#
# Mechanical properties :
#
#
# Convention : Reuss Voigt Hill
#
# Bulk Modulus (GPa) = 45.19237 50.63638 47.91438
# Shear Modulus (GPa) = 26.33138 27.78524 27.05831
#
# Velocity S-wave (km/s) = 3.79064 3.89388 3.84260
# Velocity P-wave (km/s) = 6.61966 6.91726 6.77009
#
# Compressibility (1/GPa) = 0.02212763
#
# Stress axis : x y z
#
# Youngs Moduli (GPa) = 46.29916 86.39939 56.45787
#
# Poissons Ratio (x) = 0.42931 0.27554
# Poissons Ratio (y) = 0.23006 0.25572
# Poissons Ratio (z) = 0.22596 0.39133
#
# Static dielectric constant tensor:
#      x y z
#    x 3.450830 0.000000 0.000000 
#    y 0.000000 3.519740 0.000000 
#    z 0.000000 0.000000 3.194220 
# 
# 
# High freq. dielectric constant tensor:
#      x y z
#    x 1.722300 0.000000 0.000000 
#    y 0.000000 1.717790 0.000000 
#    z 0.000000 0.000000 1.685600 
# 
# From -- ./inp_files/10624.got.cif
#   From: 2010.03.12/outbox.cif.g09.slc.cpg/sg40_6_cif.got.tgz:10624.got - 2010.04.14 01:38:03.
