data_PCOD8182952
_publ_section_title
;
Structure prediction by ZEFSAII (Michael W. Deem and Ramdas Pophale) SiO2 
 PCOD8182952
Probable space group: A M A 2
;
_chemical_formula_sum "Si O2"
_cell_formula_units_Z 64
_cell_length_a 8.669564
_cell_length_b 27.695602
_cell_length_c 14.436651
_cell_angle_alpha 90.000000
_cell_angle_beta 90.000000
_cell_angle_gamma 90.000000
_cell_volume 3466.366862
_symmetry_space_group_name_H-M "A M A 2"
_symmetry_group_IT_number 40
_symmetry_cell_setting 'orthorhombic'
loop_
_space_group_symop_operation_xyz
x,y,z
-x,-y,z
1/2-x,y,z
1/2+x,-y,z
x,1/2+y,1/2+z
-x,1/2-y,1/2+z
1/2-x,1/2+y,1/2+z
1/2+x,1/2-y,1/2+z
loop_
_atom_site_type_symbol
_atom_site_label
_atom_site_fract_x
_atom_site_fract_y
_atom_site_fract_z
Si Si1 0.572710 0.631381 0.243270
Si Si2 0.072247 0.319567 0.059684
Si Si3 0.072625 0.774930 0.855947
Si Si4 0.931807 0.551793 0.556418
Si Si5 0.929025 0.173824 0.351793
Si Si6 0.071029 0.633721 0.677756
Si Si7 0.073160 0.280969 0.568415
Si Si8 0.430635 0.051184 0.861207
O O1 0.750000 0.619203 0.267021
O O2 0.546773 0.637183 0.132901
O O3 0.522939 0.681381 0.290551
O O4 0.465538 0.588643 0.279455
O O5 0.250000 0.302452 0.058936
O O6 0.970004 0.274145 0.090346
O O7 0.024355 0.338431 0.957874
O O8 0.250000 0.759624 0.840176
O O9 0.966651 0.729613 0.829965
O O10 0.044828 0.792150 0.960702
O O11 0.750000 0.547308 0.548164
O O12 0.000000 0.500000 0.584172
O O13 0.974428 0.590141 0.634523
O O14 0.996803 0.569627 0.457552
O O15 0.750000 0.164795 0.332711
O O16 0.025946 0.138460 0.285715
O O17 0.250000 0.621596 0.668126
O O18 0.034216 0.683858 0.627094
O O19 0.250000 0.290153 0.596691
O O20 0.250000 0.045564 0.875331
O O21 0.500000 0.000000 0.831437
#
# Coordination Sequence:
#
# PCOD8182952 Si02
#       8
#     8   8   8   8   8   8   8   8
#     4  10  19  33  53  76 104 140 179 218 262 310
#     4   9  19  34  52  75 107 144 180 221 266 311
#     4   9  18  31  49  75 108 142 172 209 260 313
#     4  11  22  39  60  83 110 137 167 207 258 314
#     4  10  20  34  51  74 105 142 182 222 262 306
#     4  12  23  35  53  77 105 140 180 219 262 312
#     4  10  19  31  49  76 109 142 176 216 261 312
#     4  11  22  37  57  82 110 139 170 208 257 312
#
# _framework density 18.463134
#
# number of rings (size 3 to 8) (size 9 to 14) (size 15 to 20)
#    0.000    1.750    0.000    6.375    0.000    4.000 
#    0.000    0.000    0.000    0.750    0.000    3.500 
#    0.000    0.000    0.000    0.000    0.000    0.000 
#
# Total GULP energy -396945.234869 kJ/mol
# GULP energy per Si atom -12404.538590 kJ/mol
# Density = 1.842111 g / cm^3
# Si number density = 18.463134 Si / 1000 Ang^3
#
#
#
# Elastic Constant Matrix: (Units=GPa)
#
#
# Indices 1 2 3 4 5 6 
#
# 1 105.8305 36.0293 36.5461 0.0000 0.0000 0.0000
# 2 36.0293 73.7802 61.1129 0.0000 0.0000 0.0000
# 3 36.5461 61.1129 108.5944 0.0000 0.0000 0.0000
# 4 0.0000 0.0000 0.0000 28.1394 0.0000 0.0000
# 5 0.0000 0.0000 0.0000 0.0000 26.8928 0.0000
# 6 0.0000 0.0000 0.0000 0.0000 0.0000 31.1896
#
#
#
# Elastic Compliance Matrix: (Units=1/GPa)
#
#
# Indices 1 2 3 4 5 6 
#
# 1 0.011434 -0.004488 -0.001322 0.000000 0.000000 0.000000
# 2 -0.004488 0.027150 -0.013769 0.000000 0.000000 0.000000
# 3 -0.001322 -0.013769 0.017402 0.000000 0.000000 0.000000
# 4 0.000000 0.000000 0.000000 0.035537 0.000000 0.000000
# 5 0.000000 0.000000 0.000000 0.000000 0.037185 0.000000
# 6 0.000000 0.000000 0.000000 0.000000 0.000000 0.032062
#
#
# Mechanical properties :
#
#
# Convention : Reuss Voigt Hill
#
# Bulk Modulus (GPa) = 59.42531 61.73129 60.57830
# Shear Modulus (GPa) = 24.32648 27.54549 25.93598
#
# Velocity S-wave (km/s) = 3.63377 3.86673 3.75206
# Velocity P-wave (km/s) = 7.06127 7.31047 7.18695
#
# Compressibility (1/GPa) = 0.01682785
#
# Stress axis : x y z
#
# Youngs Moduli (GPa) = 87.46131 36.83189 57.46479
#
# Poissons Ratio (x) = 0.16532 0.07596
# Poissons Ratio (y) = 0.39257 0.79122
# Poissons Ratio (z) = 0.11562 0.50713
#
# Static dielectric constant tensor:
#      x y z
#    x 3.450880 0.000000 0.000000 
#    y 0.000000 3.169300 0.000000 
#    z 0.000000 0.000000 3.557550 
# 
# 
# High freq. dielectric constant tensor:
#      x y z
#    x 1.724200 0.000000 0.000000 
#    y 0.000000 1.690140 0.000000 
#    z 0.000000 0.000000 1.720240 
# 
# From -- ./inp_files/15932.got.cif
#   From: 2010.03.12/outbox.cif.g09.slc.cpg/sg40_8_cif.got.tgz:15932.got - 2010.04.14 01:38:03.
