data_PCOD8182242
_publ_section_title
;
Structure prediction by ZEFSAII (Michael W. Deem and Ramdas Pophale) SiO2 
 PCOD8182242
Probable space group: A B M 2
;
_chemical_formula_sum "Si O2"
_cell_formula_units_Z 32
_cell_length_a 8.637897
_cell_length_b 13.872492
_cell_length_c 13.001855
_cell_angle_alpha 90.000000
_cell_angle_beta 90.000000
_cell_angle_gamma 90.000000
_cell_volume 1558.001324
_symmetry_space_group_name_H-M "A B M 2"
_symmetry_group_IT_number 39
_symmetry_cell_setting 'orthorhombic'
loop_
_space_group_symop_operation_xyz
x,y,z
-x,-y,z
-x,1/2+y,z
x,1/2-y,z
x,1/2+y,1/2+z
-x,1/2-y,1/2+z
-x,y,1/2+z
x,-y,1/2+z
loop_
_atom_site_type_symbol
_atom_site_label
_atom_site_fract_x
_atom_site_fract_y
_atom_site_fract_z
Si Si1 0.193088 0.250000 0.693390
Si Si2 0.899215 0.750000 0.468649
Si Si3 0.585767 0.250000 0.854835
Si Si4 0.447819 0.250000 0.131704
Si Si5 0.595930 0.094146 0.464047
Si Si6 0.908043 0.405951 0.354352
O O1 0.088033 0.250000 0.591612
O O2 0.372577 0.250000 0.662878
O O3 0.151388 0.154135 0.756764
O O4 0.720021 0.750000 0.438230
O O5 0.977777 0.655027 0.425087
O O6 0.649540 0.250000 0.738240
O O7 0.481509 0.344582 0.872438
O O8 0.398055 0.343829 0.068269
O O9 0.765495 0.063097 0.426793
O O10 0.500000 0.000000 0.490300
O O11 0.000000 0.500000 0.314962
#
# Coordination Sequence:
#
# PCOD8182242 Si02
#       6
#     4   4   4   4   8   8
#     4  11  22  45  67  97 129 178 221 271 330 396
#     4  11  23  42  68  96 132 168 215 279 339 388
#     4  11  21  42  67  93 131 167 223 277 331 393
#     4  11  22  43  70  96 128 175 227 275 324 393
#     4  11  23  42  66  96 128 176 222 272 326 392
#     4  11  25  44  65  98 137 173 217 277 335 399
#
# _framework density 20.539134000000001
#
# number of rings (size 3 to 8) (size 9 to 14) (size 15 to 20)
#    0.000    1.000    5.000    3.750    0.000    6.000 
#    4.500    0.000    0.000    0.000    0.000    0.000 
#    0.000    0.000    0.000    0.000    0.000    0.000 
#
# Total GULP energy -198453.767335 kJ/mol
# GULP energy per Si atom -12403.360458 kJ/mol
# Density = 2.049239 g / cm^3
# Si number density = 20.539134 Si / 1000 Ang^3
#
#
#
# Elastic Constant Matrix: (Units=GPa)
#
#
# Indices 1 2 3 4 5 6 
#
# 1 102.2935 34.0247 22.1038 0.0000 0.0000 0.0000
# 2 34.0247 124.3656 36.8202 0.0000 0.0000 0.0000
# 3 22.1038 36.8202 148.3364 0.0000 0.0000 0.0000
# 4 0.0000 0.0000 0.0000 10.6990 0.0000 0.0000
# 5 0.0000 0.0000 0.0000 0.0000 24.7908 0.0000
# 6 0.0000 0.0000 0.0000 0.0000 0.0000 15.0703
#
#
#
# Elastic Compliance Matrix: (Units=1/GPa)
#
#
# Indices 1 2 3 4 5 6 
#
# 1 0.010878 -0.002694 -0.000952 0.000000 0.000000 0.000000
# 2 -0.002694 0.009346 -0.001918 0.000000 0.000000 0.000000
# 3 -0.000952 -0.001918 0.007360 0.000000 0.000000 0.000000
# 4 0.000000 0.000000 0.000000 0.093466 0.000000 0.000000
# 5 0.000000 0.000000 0.000000 0.000000 0.040338 0.000000
# 6 0.000000 0.000000 0.000000 0.000000 0.000000 0.066356
#
#
# Mechanical properties :
#
#
# Convention : Reuss Voigt Hill
#
# Bulk Modulus (GPa) = 60.77649 62.32144 61.54896
# Shear Modulus (GPa) = 20.46192 28.91514 24.68853
#
# Velocity S-wave (km/s) = 3.15975 3.75615 3.47078
# Velocity P-wave (km/s) = 6.55491 7.01571 6.78922
#
# Compressibility (1/GPa) = 0.01645373
#
# Stress axis : x y z
#
# Youngs Moduli (GPa) = 91.93174 106.99961 135.87875
#
# Poissons Ratio (x) = 0.28826 0.12938
# Poissons Ratio (y) = 0.24767 0.26067
# Poissons Ratio (z) = 0.08753 0.20527
#
# Static dielectric constant tensor:
#      x y z
#    x 3.851090 0.000000 0.000000 
#    y 0.000000 3.424030 0.000000 
#    z 0.000000 0.000000 3.898470 
# 
# 
# High freq. dielectric constant tensor:
#      x y z
#    x 1.813280 0.000000 0.000000 
#    y 0.000000 1.802830 0.000000 
#    z 0.000000 0.000000 1.808270 
# 
# From -- ./inp_files/4829.got.cif
#   From: 2010.03.12/outbox.cif.g09.slc.cpg/sg39_3_cif.got.tgz:4829.got - 2010.04.14 02:53:20.
