data_PCOD8182695
_publ_section_title
;
Structure prediction by ZEFSAII (Michael W. Deem and Ramdas Pophale) SiO2 
 PCOD8182695
Probable space group: A M A 2
;
_chemical_formula_sum "Si O2"
_cell_formula_units_Z 64
_cell_length_a 16.249909
_cell_length_b 8.734614
_cell_length_c 23.501010
_cell_angle_alpha 90.000000
_cell_angle_beta 90.000000
_cell_angle_gamma 90.000000
_cell_volume 3335.655398
_symmetry_space_group_name_H-M "A M A 2"
_symmetry_group_IT_number 40
_symmetry_cell_setting 'orthorhombic'
loop_
_space_group_symop_operation_xyz
x,y,z
-x,-y,z
1/2-x,y,z
1/2+x,-y,z
x,1/2+y,1/2+z
-x,1/2-y,1/2+z
1/2-x,1/2+y,1/2+z
1/2+x,1/2-y,1/2+z
loop_
_atom_site_type_symbol
_atom_site_label
_atom_site_fract_x
_atom_site_fract_y
_atom_site_fract_z
Si Si1 0.994779 0.178020 0.756540
Si Si2 0.079984 0.402671 0.673384
Si Si3 0.078941 0.393921 0.967548
Si Si4 0.086839 0.417790 0.094252
Si Si5 0.154801 0.708920 0.693551
Si Si6 0.657385 0.811725 0.446161
Si Si7 0.495795 0.324042 0.387723
Si Si8 0.158037 0.228320 0.574634
O O1 0.901007 0.235293 0.746381
O O2 0.016191 0.206084 0.822068
O O3 0.063296 0.273346 0.721199
O O4 0.000000 0.000000 0.739420
O O5 0.151660 0.523186 0.690378
O O6 0.097358 0.325896 0.613123
O O7 0.000000 0.500000 0.663233
O O8 0.154483 0.502000 0.947605
O O9 0.000000 0.500000 0.962152
O O10 0.068238 0.252623 0.924866
O O11 0.085757 0.335205 0.032498
O O12 0.112460 0.287417 0.138580
O O13 0.155068 0.550611 0.092888
O O14 0.000000 0.500000 0.109424
O O15 0.250000 0.758826 0.701142
O O16 0.750000 0.762216 0.430058
O O17 0.595301 0.739388 0.400819
O O18 0.631606 0.751335 0.508966
O O19 0.500000 0.500000 0.403318
O O20 0.250000 0.287972 0.584531
#
# Coordination Sequence:
#
# PCOD8182695 Si02
#       8
#     8   8   8   8   8   8   8   8
#     4  10  22  40  58  74  99 141 187 221 257 311
#     4  10  21  35  54  78 107 137 173 219 265 312
#     4   8  17  33  55  79 104 138 178 214 254 311
#     4  10  18  32  53  79 109 143 180 211 250 311
#     4  11  22  34  52  83 112 137 171 218 271 315
#     4   9  19  34  55  81 109 140 175 212 259 314
#     4  10  21  37  57  79 103 136 179 224 265 309
#     4  10  19  33  53  79 109 142 174 209 256 315
#
# _framework density 19.186633
#
# number of rings (size 3 to 8) (size 9 to 14) (size 15 to 20)
#    0.000    2.250    0.000    4.125    0.000    7.000 
#    0.000    1.250    0.000    3.000    0.000    0.000 
#    0.000    0.000    0.000    0.000    0.000    0.000 
#
# Total GULP energy -396665.247616 kJ/mol
# GULP energy per Si atom -12395.788988 kJ/mol
# Density = 1.914296 g / cm^3
# Si number density = 19.186633 Si / 1000 Ang^3
#
#
#
# Elastic Constant Matrix: (Units=GPa)
#
#
# Indices 1 2 3 4 5 6 
#
# 1 61.2675 18.8363 14.8643 0.0000 0.0000 0.0000
# 2 18.8363 100.6813 52.6136 0.0000 0.0000 0.0000
# 3 14.8643 52.6136 81.4157 0.0000 0.0000 0.0000
# 4 0.0000 0.0000 0.0000 32.3554 0.0000 0.0000
# 5 0.0000 0.0000 0.0000 0.0000 18.2502 0.0000
# 6 0.0000 0.0000 0.0000 0.0000 0.0000 20.4138
#
#
#
# Elastic Compliance Matrix: (Units=1/GPa)
#
#
# Indices 1 2 3 4 5 6 
#
# 1 0.017459 -0.002417 -0.001626 0.000000 0.000000 0.000000
# 2 -0.002417 0.015331 -0.009466 0.000000 0.000000 0.000000
# 3 -0.001626 -0.009466 0.018697 0.000000 0.000000 0.000000
# 4 0.000000 0.000000 0.000000 0.030907 0.000000 0.000000
# 5 0.000000 0.000000 0.000000 0.000000 0.054794 0.000000
# 6 0.000000 0.000000 0.000000 0.000000 0.000000 0.048986
#
#
# Mechanical properties :
#
#
# Convention : Reuss Voigt Hill
#
# Bulk Modulus (GPa) = 40.86691 46.22144 43.54418
# Shear Modulus (GPa) = 22.58872 24.67392 23.63132
#
# Velocity S-wave (km/s) = 3.43493 3.58997 3.51330
# Velocity P-wave (km/s) = 6.08913 6.42857 6.26115
#
# Compressibility (1/GPa) = 0.02446967
#
# Stress axis : x y z
#
# Youngs Moduli (GPa) = 57.27590 65.22558 53.48462
#
# Poissons Ratio (x) = 0.15764 0.08695
# Poissons Ratio (y) = 0.13843 0.50631
# Poissons Ratio (z) = 0.09312 0.61745
#
# Static dielectric constant tensor:
#      x y z
#    x 3.677740 0.000000 0.000000 
#    y 0.000000 3.748620 0.000000 
#    z 0.000000 0.000000 3.455370 
# 
# 
# High freq. dielectric constant tensor:
#      x y z
#    x 1.735650 0.000000 0.000000 
#    y 0.000000 1.743200 0.000000 
#    z 0.000000 0.000000 1.742210 
# 
# From -- ./inp_files/23392.got.cif
#   From: 2010.03.12/outbox.cif.g09.slc.cpg/sg40_12_cif.got.tgz:23392.got - 2010.04.14 01:38:03.
