data_PCOD8182306
_publ_section_title
;
Structure prediction by ZEFSAII (Michael W. Deem and Ramdas Pophale) SiO2 
 PCOD8182306
Probable space group: A B M 2
;
_chemical_formula_sum "Si O2"
_cell_formula_units_Z 48
_cell_length_a 9.246713
_cell_length_b 26.245781
_cell_length_c 8.802657
_cell_angle_alpha 90.000000
_cell_angle_beta 90.000000
_cell_angle_gamma 90.000000
_cell_volume 2136.292218
_symmetry_space_group_name_H-M "A B M 2"
_symmetry_group_IT_number 39
_symmetry_cell_setting 'orthorhombic'
loop_
_space_group_symop_operation_xyz
x,y,z
-x,-y,z
-x,1/2+y,z
x,1/2-y,z
x,1/2+y,1/2+z
-x,1/2-y,1/2+z
-x,y,1/2+z
x,-y,1/2+z
loop_
_atom_site_type_symbol
_atom_site_label
_atom_site_fract_x
_atom_site_fract_y
_atom_site_fract_z
Si Si1 0.587706 0.357556 0.376350
Si Si2 0.843312 0.358874 0.594796
Si Si3 0.645359 0.027994 0.330764
Si Si4 0.643380 0.806951 0.563530
Si Si5 0.932914 0.192830 0.898095
Si Si6 0.155886 0.025845 0.104204
O O1 0.684448 0.350364 0.527271
O O2 0.597800 0.413854 0.306119
O O3 0.429866 0.345596 0.443509
O O4 0.626300 0.319834 0.240425
O O5 0.870481 0.320677 0.732832
O O6 0.862176 0.416041 0.659353
O O7 0.947774 0.347568 0.451841
O O8 0.789708 0.025252 0.432245
O O9 0.500000 0.000000 0.389584
O O10 0.707237 0.002498 0.179558
O O11 0.581389 0.750000 0.537553
O O12 0.812139 0.809193 0.527857
O O13 0.997524 0.250000 0.887382
O O14 0.000000 0.000000 0.121894
#
# Coordination Sequence:
#
# PCOD8182306 Si02
#       6
#     8   8   8   8   8   8
#     4  11  26  43  70 102 136 185 229 289 354 419
#     4  11  26  43  70 102 136 185 229 289 354 419
#     4  11  27  44  70 103 140 186 237 294 355 430
#     4  11  25  44  70 100 138 182 230 288 350 422
#     4  11  25  44  70 100 138 182 230 288 350 422
#     4  11  27  44  70 103 140 186 237 294 355 430
#
# _framework density 22.468837000000001
#
# number of rings (size 3 to 8) (size 9 to 14) (size 15 to 20)
#    0.000    1.000    0.000    4.000   18.667    5.333 
#    0.000    0.000    0.000    0.000    0.000    0.000 
#    0.000    0.000    0.000    0.000    0.000    0.000 
#
# Total GULP energy -297608.853483 kJ/mol
# GULP energy per Si atom -12400.368895 kJ/mol
# Density = 2.241770 g / cm^3
# Si number density = 22.468837 Si / 1000 Ang^3
#
#
#
# Elastic Constant Matrix: (Units=GPa)
#
#
# Indices 1 2 3 4 5 6 
#
# 1 81.2232 44.0350 -5.3490 0.0000 0.0000 0.0000
# 2 44.0350 136.7027 23.5093 0.0000 0.0000 0.0000
# 3 -5.3490 23.5093 56.3230 0.0000 0.0000 0.0000
# 4 0.0000 0.0000 0.0000 35.5359 0.0000 0.0000
# 5 0.0000 0.0000 0.0000 0.0000 36.7266 0.0000
# 6 0.0000 0.0000 0.0000 0.0000 0.0000 35.0868
#
#
#
# Elastic Compliance Matrix: (Units=1/GPa)
#
#
# Indices 1 2 3 4 5 6 
#
# 1 0.015663 -0.005711 0.003871 0.000000 0.000000 0.000000
# 2 -0.005711 0.009963 -0.004701 0.000000 0.000000 0.000000
# 3 0.003871 -0.004701 0.020085 0.000000 0.000000 0.000000
# 4 0.000000 0.000000 0.000000 0.028141 0.000000 0.000000
# 5 0.000000 0.000000 0.000000 0.000000 0.027228 0.000000
# 6 0.000000 0.000000 0.000000 0.000000 0.000000 0.028501
#
#
# Mechanical properties :
#
#
# Convention : Reuss Voigt Hill
#
# Bulk Modulus (GPa) = 30.64744 44.29328 37.47036
# Shear Modulus (GPa) = 32.56509 35.60677 34.08593
#
# Velocity S-wave (km/s) = 3.81116 3.98517 3.89913
# Velocity P-wave (km/s) = 5.74771 6.39777 6.08143
#
# Compressibility (1/GPa) = 0.03262915
#
# Stress axis : x y z
#
# Youngs Moduli (GPa) = 63.84472 100.36828 49.78932
#
# Poissons Ratio (x) = 0.57322 -0.19275
# Poissons Ratio (y) = 0.36463 0.23406
# Poissons Ratio (z) = -0.24717 0.47184
#
# Static dielectric constant tensor:
#      x y z
#    x 3.961810 0.000000 0.000000 
#    y 0.000000 4.221790 0.000000 
#    z 0.000000 0.000000 3.851460 
# 
# 
# High freq. dielectric constant tensor:
#      x y z
#    x 1.892780 0.000000 0.000000 
#    y 0.000000 1.893780 0.000000 
#    z 0.000000 0.000000 1.890460 
# 
# From -- ./inp_files/2318.got.cif
#   From: 2010.03.12/outbox.cif.g09.slc.cpg/sg39_2_cif.got.tgz:2318.got - 2010.04.14 02:53:20.
