data_PCOD8182287
_publ_section_title
;
Structure prediction by ZEFSAII (Michael W. Deem and Ramdas Pophale) SiO2 
 PCOD8182287
Probable space group: A B M 2
;
_chemical_formula_sum "Si O2"
_cell_formula_units_Z 48
_cell_length_a 8.739567
_cell_length_b 27.759000
_cell_length_c 9.114781
_cell_angle_alpha 90.000000
_cell_angle_beta 90.000000
_cell_angle_gamma 90.000000
_cell_volume 2211.260822
_symmetry_space_group_name_H-M "A B M 2"
_symmetry_group_IT_number 39
_symmetry_cell_setting 'orthorhombic'
loop_
_space_group_symop_operation_xyz
x,y,z
-x,-y,z
-x,1/2+y,z
x,1/2-y,z
x,1/2+y,1/2+z
-x,1/2-y,1/2+z
-x,y,1/2+z
x,-y,1/2+z
loop_
_atom_site_type_symbol
_atom_site_label
_atom_site_fract_x
_atom_site_fract_y
_atom_site_fract_z
Si Si1 0.177972 0.193792 0.689540
Si Si2 0.164081 0.547987 0.896105
Si Si3 0.320159 0.645542 0.448057
Si Si4 0.672798 0.643217 0.435703
Si Si5 0.825073 0.695744 0.193251
Si Si6 0.158312 0.050620 0.042959
O O1 0.217548 0.250000 0.714524
O O2 0.284757 0.156471 0.778522
O O3 0.214568 0.178911 0.523630
O O4 0.001072 0.183004 0.723261
O O5 0.289233 0.586785 0.947127
O O6 0.145544 0.544371 0.719360
O O7 0.220739 0.497749 0.965487
O O8 0.005293 0.563270 0.972327
O O9 0.498772 0.652389 0.479395
O O10 0.216918 0.687074 0.523756
O O11 0.275058 0.592384 0.499703
O O12 0.709438 0.658632 0.269836
O O13 0.789004 0.750000 0.239414
#
# Coordination Sequence:
#
# PCOD8182287 Si02
#       6
#     8   8   8   8   8   8
#     4  11  25  43  70  97 130 181 229 274 324 387
#     4  11  24  44  71 102 132 174 223 273 327 396
#     4  12  26  42  65 101 139 174 216 274 340 396
#     4  12  26  42  65 101 139 174 216 274 340 396
#     4  11  23  45  68  95 130 175 231 276 322 395
#     4  11  24  44  71 102 132 174 223 273 327 396
#
# _framework density 21.707072
#
# number of rings (size 3 to 8) (size 9 to 14) (size 15 to 20)
#    0.000    0.667    1.667    7.000    4.667    7.333 
#    0.000    1.667    0.000    0.000    0.000    0.000 
#    0.000    0.000    0.000    0.000    0.000    0.000 
#
# Total GULP energy -297613.066473 kJ/mol
# GULP energy per Si atom -12400.544436 kJ/mol
# Density = 2.165767 g / cm^3
# Si number density = 21.707072 Si / 1000 Ang^3
#
#
#
# Elastic Constant Matrix: (Units=GPa)
#
#
# Indices 1 2 3 4 5 6 
#
# 1 110.8630 74.3252 32.8667 0.0000 0.0000 0.0000
# 2 74.3252 125.9282 40.3399 0.0000 0.0000 0.0000
# 3 32.8667 40.3399 100.1117 0.0000 0.0000 0.0000
# 4 0.0000 0.0000 0.0000 43.9077 0.0000 0.0000
# 5 0.0000 0.0000 0.0000 0.0000 30.3088 0.0000
# 6 0.0000 0.0000 0.0000 0.0000 0.0000 23.4833
#
#
#
# Elastic Compliance Matrix: (Units=1/GPa)
#
#
# Indices 1 2 3 4 5 6 
#
# 1 0.015139 -0.008432 -0.001573 0.000000 0.000000 0.000000
# 2 -0.008432 0.013814 -0.002798 0.000000 0.000000 0.000000
# 3 -0.001573 -0.002798 0.011633 0.000000 0.000000 0.000000
# 4 0.000000 0.000000 0.000000 0.022775 0.000000 0.000000
# 5 0.000000 0.000000 0.000000 0.000000 0.032994 0.000000
# 6 0.000000 0.000000 0.000000 0.000000 0.000000 0.042583
#
#
# Mechanical properties :
#
#
# Convention : Reuss Voigt Hill
#
# Bulk Modulus (GPa) = 66.75230 70.21849 68.48539
# Shear Modulus (GPa) = 29.49217 32.16469 30.82843
#
# Velocity S-wave (km/s) = 3.68998 3.85354 3.77265
# Velocity P-wave (km/s) = 6.99805 7.22621 7.11305
#
# Compressibility (1/GPa) = 0.01498076
#
# Stress axis : x y z
#
# Youngs Moduli (GPa) = 66.05397 72.39089 85.96467
#
# Poissons Ratio (x) = 0.61037 0.13520
# Poissons Ratio (y) = 0.55694 0.24055
# Poissons Ratio (z) = 0.10388 0.20256
#
# Static dielectric constant tensor:
#      x y z
#    x 3.601620 0.000000 0.000000 
#    y 0.000000 3.917960 0.000000 
#    z 0.000000 0.000000 4.011780 
# 
# 
# High freq. dielectric constant tensor:
#      x y z
#    x 1.840010 0.000000 0.000000 
#    y 0.000000 1.864310 0.000000 
#    z 0.000000 0.000000 1.873010 
# 
# From -- ./inp_files/2326.got.cif
#   From: 2010.03.12/outbox.cif.g09.slc.cpg/sg39_2_cif.got.tgz:2326.got - 2010.04.14 02:53:20.
