data_PCOD8182270
_publ_section_title
;
Structure prediction by ZEFSAII (Michael W. Deem and Ramdas Pophale) SiO2 
 PCOD8182270
Probable space group: A B M 2
;
_chemical_formula_sum "Si O2"
_cell_formula_units_Z 64
_cell_length_a 23.622750
_cell_length_b 8.653387
_cell_length_c 15.160163
_cell_angle_alpha 90.000000
_cell_angle_beta 90.000000
_cell_angle_gamma 90.000000
_cell_volume 3098.991974
_symmetry_space_group_name_H-M "A B M 2"
_symmetry_group_IT_number 39
_symmetry_cell_setting 'orthorhombic'
loop_
_space_group_symop_operation_xyz
x,y,z
-x,-y,z
-x,1/2+y,z
x,1/2-y,z
x,1/2+y,1/2+z
-x,1/2-y,1/2+z
-x,y,1/2+z
x,-y,1/2+z
loop_
_atom_site_type_symbol
_atom_site_label
_atom_site_fract_x
_atom_site_fract_y
_atom_site_fract_z
Si Si1 0.117645 0.070224 0.500000
Si Si2 0.867613 0.569681 0.180428
Si Si3 0.939258 0.932410 0.834928
Si Si4 0.769680 0.425725 0.442016
Si Si5 0.561295 0.067474 0.603064
Si Si6 0.368692 0.432668 0.755350
Si Si7 0.241796 0.075563 0.734502
Si Si8 0.355719 0.066313 0.952122
O O1 0.104401 0.250000 0.488439
O O2 0.102507 0.016008 0.598660
O O3 0.077511 0.975307 0.434389
O O4 0.183642 0.037956 0.482487
O O5 0.878986 0.750000 0.172255
O O6 0.893057 0.504981 0.270469
O O7 0.800031 0.536828 0.180830
O O8 0.939742 0.750000 0.823431
O O9 0.000000 0.000000 0.810288
O O10 0.781409 0.250000 0.474092
O O11 0.772382 0.432491 0.337202
O O12 0.708326 0.487371 0.474117
O O13 0.558179 0.250000 0.598667
O O14 0.602396 0.000927 0.526645
O O15 0.500000 0.000000 0.585217
O O16 0.583744 0.016865 0.698317
O O17 0.378061 0.250000 0.750193
O O18 0.306494 0.477131 0.718504
O O19 0.375276 0.493605 0.855783
O O20 0.232333 0.250000 0.700251
O O21 0.355362 0.250000 0.948652
#
# Coordination Sequence:
#
# PCOD8182270 Si02
#       8
#     8   8   8   8   8   8   8   8
#     4  12  25  41  63  97 132 170 215 261 314 376
#     4  12  25  41  64  96 131 172 216 261 313 374
#     4  12  26  48  72  96 129 170 215 266 318 375
#     4   9  17  35  62  90 124 165 202 250 314 377
#     4  11  23  39  58  84 117 158 206 256 306 369
#     4   9  19  38  61  87 119 158 199 247 307 368
#     4   9  18  35  61  91 128 165 201 250 314 378
#     4   8  18  37  60  85 117 158 200 245 305 367
#
# _framework density 20.651876999999999
#
# number of rings (size 3 to 8) (size 9 to 14) (size 15 to 20)
#    0.000    1.750    1.250    5.250    1.750    1.500 
#    0.000    7.500    0.000    0.000    0.000    0.000 
#    0.000    0.000    0.000    0.000    0.000    0.000 
#
# Total GULP energy -396898.304889 kJ/mol
# GULP energy per Si atom -12403.072028 kJ/mol
# Density = 2.060487 g / cm^3
# Si number density = 20.651877 Si / 1000 Ang^3
#
#
#
# Elastic Constant Matrix: (Units=GPa)
#
#
# Indices 1 2 3 4 5 6 
#
# 1 89.7225 26.7170 14.9343 0.0000 0.0000 0.0000
# 2 26.7170 76.8964 13.8941 0.0000 0.0000 0.0000
# 3 14.9343 13.8941 57.8082 0.0000 0.0000 0.0000
# 4 0.0000 0.0000 0.0000 28.0350 0.0000 0.0000
# 5 0.0000 0.0000 0.0000 0.0000 28.8393 0.0000
# 6 0.0000 0.0000 0.0000 0.0000 0.0000 34.9182
#
#
#
# Elastic Compliance Matrix: (Units=1/GPa)
#
#
# Indices 1 2 3 4 5 6 
#
# 1 0.012724 -0.004001 -0.002326 0.000000 0.000000 0.000000
# 2 -0.004001 0.014853 -0.002536 0.000000 0.000000 0.000000
# 3 -0.002326 -0.002536 0.018509 0.000000 0.000000 0.000000
# 4 0.000000 0.000000 0.000000 0.035670 0.000000 0.000000
# 5 0.000000 0.000000 0.000000 0.000000 0.034675 0.000000
# 6 0.000000 0.000000 0.000000 0.000000 0.000000 0.028638
#
#
# Mechanical properties :
#
#
# Convention : Reuss Voigt Hill
#
# Bulk Modulus (GPa) = 35.26018 37.27979 36.26998
# Shear Modulus (GPa) = 29.02808 29.61728 29.32268
#
# Velocity S-wave (km/s) = 3.75319 3.79109 3.77218
# Velocity P-wave (km/s) = 5.99104 6.10359 6.04758
#
# Compressibility (1/GPa) = 0.02836060
#
# Stress axis : x y z
#
# Youngs Moduli (GPa) = 78.59268 67.32758 54.02785
#
# Poissons Ratio (x) = 0.26935 0.12565
# Poissons Ratio (y) = 0.31442 0.13703
# Poissons Ratio (z) = 0.18277 0.17076
#
# Static dielectric constant tensor:
#      x y z
#    x 3.846600 0.000000 0.000000 
#    y 0.000000 3.520840 0.000000 
#    z 0.000000 0.000000 3.845500 
# 
# 
# High freq. dielectric constant tensor:
#      x y z
#    x 1.807060 0.000000 0.000000 
#    y 0.000000 1.793100 0.000000 
#    z 0.000000 0.000000 1.814540 
# 
# From -- ./inp_files/10634.got.cif
#   From: 2010.03.12/outbox.cif.g09.slc.cpg/sg39_6_cif.got.tgz:10634.got - 2010.04.14 02:53:20.
