data_PCOD8182175
_publ_section_title
;
Structure prediction by ZEFSAII (Michael W. Deem and Ramdas Pophale) SiO2 
 PCOD8182175
Probable space group: A B M 2
;
_chemical_formula_sum "Si O2"
_cell_formula_units_Z 44
_cell_length_a 9.313590
_cell_length_b 13.487505
_cell_length_c 16.961761
_cell_angle_alpha 90.000000
_cell_angle_beta 90.000000
_cell_angle_gamma 90.000000
_cell_volume 2130.687087
_symmetry_space_group_name_H-M "A B M 2"
_symmetry_group_IT_number 39
_symmetry_cell_setting 'orthorhombic'
loop_
_space_group_symop_operation_xyz
x,y,z
-x,-y,z
-x,1/2+y,z
x,1/2-y,z
x,1/2+y,1/2+z
-x,1/2-y,1/2+z
-x,y,1/2+z
x,-y,1/2+z
loop_
_atom_site_type_symbol
_atom_site_label
_atom_site_fract_x
_atom_site_fract_y
_atom_site_fract_z
Si Si1 0.913186 0.750000 0.723691
Si Si2 0.035430 0.250000 0.956322
Si Si3 0.254982 0.250000 0.240595
Si Si4 0.233053 0.250000 0.557820
Si Si5 0.699836 0.250000 0.559399
Si Si6 0.531612 0.392966 0.008248
Si Si7 0.372490 0.063059 0.336546
Si Si8 0.882915 0.080400 0.336773
O O1 0.869663 0.750000 0.633060
O O2 0.847053 0.650858 0.762411
O O3 0.083332 0.750000 0.740042
O O4 0.062706 0.350278 0.907792
O O5 0.134279 0.250000 0.033943
O O6 0.869053 0.250000 0.981231
O O7 0.315755 0.250000 0.153025
O O8 0.311337 0.150007 0.281805
O O9 0.336536 0.154514 0.556700
O O10 0.620964 0.157047 0.521732
O O11 0.500000 0.500000 0.042511
O O12 0.566398 0.387671 0.915736
O O13 0.500000 0.000000 0.293983
O O14 0.255510 0.981602 0.362061
O O15 0.000000 0.000000 0.311283
#
# Coordination Sequence:
#
# PCOD8182175 Si02
#       8
#     4   4   4   4   4   8   8   8
#     4  11  25  44  64  97 140 169 216 272 322 392
#     4  11  22  38  65  96 125 171 224 267 319 388
#     4  12  24  43  67  94 139 177 210 274 334 389
#     4  11  23  41  68  95 130 177 212 262 337 383
#     4  11  24  40  62  96 134 168 210 267 332 386
#     4  10  23  44  66  93 131 168 218 273 319 383
#     4  11  24  43  70  98 126 174 225 271 327 389
#     4  11  23  41  66  93 128 172 221 270 316 382
#
# _framework density 20.650614000000001
#
# number of rings (size 3 to 8) (size 9 to 14) (size 15 to 20)
#    0.000    1.091    2.727    4.364    2.545    6.545 
#    0.000    0.909    0.000    0.000    0.000    0.000 
#    0.000    0.000    0.000    0.000    0.000    0.000 
#
# Total GULP energy -272765.017495 kJ/mol
# GULP energy per Si atom -12398.409886 kJ/mol
# Density = 2.060361 g / cm^3
# Si number density = 20.650614 Si / 1000 Ang^3
#
#
#
# Elastic Constant Matrix: (Units=GPa)
#
#
# Indices 1 2 3 4 5 6 
#
# 1 100.8424 47.0321 23.2904 0.0000 0.0000 0.0000
# 2 47.0321 161.8768 48.7657 0.0000 0.0000 0.0000
# 3 23.2904 48.7657 101.1883 0.0000 0.0000 0.0000
# 4 0.0000 0.0000 0.0000 16.5630 0.0000 0.0000
# 5 0.0000 0.0000 0.0000 0.0000 37.0298 0.0000
# 6 0.0000 0.0000 0.0000 0.0000 0.0000 41.1504
#
#
#
# Elastic Compliance Matrix: (Units=1/GPa)
#
#
# Indices 1 2 3 4 5 6 
#
# 1 0.011599 -0.003001 -0.001223 0.000000 0.000000 0.000000
# 2 -0.003001 0.008003 -0.003166 0.000000 0.000000 0.000000
# 3 -0.001223 -0.003166 0.011690 0.000000 0.000000 0.000000
# 4 0.000000 0.000000 0.000000 0.060375 0.000000 0.000000
# 5 0.000000 0.000000 0.000000 0.000000 0.027005 0.000000
# 6 0.000000 0.000000 0.000000 0.000000 0.000000 0.024301
#
#
# Mechanical properties :
#
#
# Convention : Reuss Voigt Hill
#
# Bulk Modulus (GPa) = 60.56764 66.89820 63.73292
# Shear Modulus (GPa) = 30.62609 35.26992 32.94801
#
# Velocity S-wave (km/s) = 3.85523 4.13720 3.99870
# Velocity P-wave (km/s) = 7.01501 7.43556 7.22834
#
# Compressibility (1/GPa) = 0.01651047
#
# Stress axis : x y z
#
# Youngs Moduli (GPa) = 86.21557 124.94643 85.54303
#
# Poissons Ratio (x) = 0.37502 0.10464
# Poissons Ratio (y) = 0.25877 0.27085
# Poissons Ratio (z) = 0.10546 0.39561
#
# Static dielectric constant tensor:
#      x y z
#    x 3.930570 0.000000 0.000000 
#    y 0.000000 4.019020 0.000000 
#    z 0.000000 0.000000 3.530380 
# 
# 
# High freq. dielectric constant tensor:
#      x y z
#    x 1.824450 0.000000 0.000000 
#    y 0.000000 1.825390 0.000000 
#    z 0.000000 0.000000 1.793400 
# 
# From -- ./inp_files/11581.got.cif
#   From: 2010.03.12/outbox.cif.g09.slc.cpg/sg39_6_cif.got.tgz:11581.got - 2010.04.14 02:53:20.
