data_PCOD8182843
_publ_section_title
;
Structure prediction by ZEFSAII (Michael W. Deem and Ramdas Pophale) SiO2 
 PCOD8182843
Probable space group: A M A 2
;
_chemical_formula_sum "Si O2"
_cell_formula_units_Z 64
_cell_length_a 9.012821
_cell_length_b 26.104056
_cell_length_c 18.453497
_cell_angle_alpha 90.000000
_cell_angle_beta 90.000000
_cell_angle_gamma 90.000000
_cell_volume 4341.576090
_symmetry_space_group_name_H-M "A M A 2"
_symmetry_group_IT_number 40
_symmetry_cell_setting 'orthorhombic'
loop_
_space_group_symop_operation_xyz
x,y,z
-x,-y,z
1/2-x,y,z
1/2+x,-y,z
x,1/2+y,1/2+z
-x,1/2-y,1/2+z
1/2-x,1/2+y,1/2+z
1/2+x,1/2-y,1/2+z
loop_
_atom_site_type_symbol
_atom_site_label
_atom_site_fract_x
_atom_site_fract_y
_atom_site_fract_z
Si Si1 0.076234 0.350802 0.063710
Si Si2 0.076762 0.551347 0.820934
Si Si3 0.427528 0.947217 0.472328
Si Si4 0.414342 0.196025 0.687333
Si Si5 0.925594 0.742187 0.819181
Si Si6 0.578405 0.346963 0.735356
Si Si7 0.583567 0.696609 0.605585
Si Si8 0.924663 0.251264 0.483661
O O1 0.250000 0.350062 0.070851
O O2 0.014063 0.345370 0.145460
O O3 0.021611 0.403720 0.028781
O O4 0.022239 0.304092 0.012942
O O5 0.250000 0.541249 0.837861
O O6 0.055862 0.595135 0.761525
O O7 0.000000 0.500000 0.789909
O O8 0.993598 0.567769 0.894432
O O9 0.250000 0.951747 0.467044
O O10 0.500000 0.000000 0.500017
O O11 0.250000 0.172666 0.690380
O O12 0.471764 0.209264 0.768537
O O13 0.416551 0.249297 0.645208
O O14 0.750000 0.731905 0.812706
O O15 0.974193 0.755734 0.900395
O O16 0.005932 0.690563 0.794247
O O17 0.750000 0.332066 0.728098
O O18 0.503636 0.343405 0.656242
O O19 0.750000 0.676256 0.593016
O O20 0.503634 0.703084 0.527960
O O21 0.750000 0.258070 0.493127
#
# Coordination Sequence:
#
# PCOD8182843 Si02
#       8
#     8   8   8   8   8   8   8   8
#     4   9  17  27  40  57  77 106 138 165 198 237
#     4  10  20  31  43  60  81 106 137 171 205 239
#     4  10  19  30  43  59  80 106 137 171 206 241
#     4   8  15  26  39  56  78 104 134 166 197 233
#     4   9  17  28  42  61  84 111 139 167 203 243
#     4  10  19  29  42  60  81 108 141 172 203 240
#     4   9  17  28  41  58  80 106 136 168 202 239
#     4   9  16  27  42  59  82 109 136 166 199 238
#
# _framework density 14.741191000000001
#
# number of rings (size 3 to 8) (size 9 to 14) (size 15 to 20)
#    0.000    2.750    0.000    3.750    0.000    7.500 
#    0.000    2.500    0.000    0.000    0.000    0.000 
#    0.000    1.000    0.000    8.500    0.000    5.875 
#
# Total GULP energy -396689.935494 kJ/mol
# GULP energy per Si atom -12396.560484 kJ/mol
# Density = 1.470764 g / cm^3
# Si number density = 14.741191 Si / 1000 Ang^3
#
#
#
# Elastic Constant Matrix: (Units=GPa)
#
#
# Indices 1 2 3 4 5 6 
#
# 1 67.8705 38.4101 43.7212 0.0000 0.0000 0.0000
# 2 38.4101 71.6258 53.0183 0.0000 0.0000 0.0000
# 3 43.7212 53.0183 116.3283 0.0000 0.0000 0.0000
# 4 0.0000 0.0000 0.0000 25.4477 0.0000 0.0000
# 5 0.0000 0.0000 0.0000 0.0000 24.2746 0.0000
# 6 0.0000 0.0000 0.0000 0.0000 0.0000 19.2336
#
#
#
# Elastic Compliance Matrix: (Units=1/GPa)
#
#
# Indices 1 2 3 4 5 6 
#
# 1 0.022604 -0.008803 -0.004483 0.000000 0.000000 0.000000
# 2 -0.008803 0.024498 -0.007857 0.000000 0.000000 0.000000
# 3 -0.004483 -0.007857 0.013862 0.000000 0.000000 0.000000
# 4 0.000000 0.000000 0.000000 0.039296 0.000000 0.000000
# 5 0.000000 0.000000 0.000000 0.000000 0.041195 0.000000
# 6 0.000000 0.000000 0.000000 0.000000 0.000000 0.051992
#
#
# Mechanical properties :
#
#
# Convention : Reuss Voigt Hill
#
# Bulk Modulus (GPa) = 53.53952 58.45821 55.99887
# Shear Modulus (GPa) = 20.66457 21.83618 21.25038
#
# Velocity S-wave (km/s) = 3.74816 3.85295 3.80091
# Velocity P-wave (km/s) = 7.42496 7.71596 7.57186
#
# Compressibility (1/GPa) = 0.01867779
#
# Stress axis : x y z
#
# Youngs Moduli (GPa) = 44.24000 40.82009 72.13839
#
# Poissons Ratio (x) = 0.35934 0.32343
# Poissons Ratio (y) = 0.38944 0.56677
# Poissons Ratio (z) = 0.19835 0.32071
#
# Static dielectric constant tensor:
#      x y z
#    x 2.980810 0.000000 0.000000 
#    y 0.000000 2.703910 0.000000 
#    z 0.000000 0.000000 2.987760 
# 
# 
# High freq. dielectric constant tensor:
#      x y z
#    x 1.574630 0.000000 0.000000 
#    y 0.000000 1.528090 0.000000 
#    z 0.000000 0.000000 1.554910 
# 
# From -- ./inp_files/19768.got.cif
#   From: 2010.03.12/outbox.cif.g09.slc.cpg/sg40_10_cif.got.tgz:19768.got - 2010.04.14 01:38:03.
