data_PCOD8182738
_publ_section_title
;
Structure prediction by ZEFSAII (Michael W. Deem and Ramdas Pophale) SiO2 
 PCOD8182738
Probable space group: A M A 2
;
_chemical_formula_sum "Si O2"
_cell_formula_units_Z 64
_cell_length_a 8.831972
_cell_length_b 28.940286
_cell_length_c 12.673941
_cell_angle_alpha 90.000000
_cell_angle_beta 90.000000
_cell_angle_gamma 90.000000
_cell_volume 3239.456729
_symmetry_space_group_name_H-M "A M A 2"
_symmetry_group_IT_number 40
_symmetry_cell_setting 'orthorhombic'
loop_
_space_group_symop_operation_xyz
x,y,z
-x,-y,z
1/2-x,y,z
1/2+x,-y,z
x,1/2+y,1/2+z
-x,1/2-y,1/2+z
1/2-x,1/2+y,1/2+z
1/2+x,1/2-y,1/2+z
loop_
_atom_site_type_symbol
_atom_site_label
_atom_site_fract_x
_atom_site_fract_y
_atom_site_fract_z
Si Si1 0.571399 0.901437 0.437000
Si Si2 0.426047 0.887506 0.829393
Si Si3 0.573888 0.925062 0.210137
Si Si4 0.928001 0.203093 0.934383
Si Si5 0.071556 0.830826 0.158534
Si Si6 0.921984 0.542886 0.509977
Si Si7 0.070268 0.197880 0.358515
Si Si8 0.430208 0.550825 0.149747
O O1 0.750000 0.901553 0.445783
O O2 0.521214 0.930665 0.332819
O O3 0.519473 0.847576 0.425883
O O4 0.505241 0.926340 0.541206
O O5 0.250000 0.890141 0.795498
O O6 0.485910 0.834708 0.846962
O O7 0.449570 0.910463 0.944925
O O8 0.523969 0.914352 0.743098
O O9 0.750000 0.935557 0.197850
O O10 0.538775 0.873296 0.177128
O O11 0.482996 0.956975 0.129869
O O12 0.750000 0.198065 0.930257
O O13 0.978785 0.255549 0.917584
O O14 0.984714 0.191833 0.050899
O O15 0.250000 0.844415 0.157554
O O16 0.030436 0.796521 0.253399
O O17 0.750000 0.529938 0.518378
O O18 0.000000 0.500000 0.449123
O O19 0.250000 0.196086 0.334207
O O20 0.500000 0.500000 0.165922
O O21 0.250000 0.545821 0.148554
#
# Coordination Sequence:
#
# PCOD8182738 Si02
#       8
#     8   8   8   8   8   8   8   8
#     4   8  18  36  57  81 112 147 188 235 288 345
#     4  10  21  39  58  81 113 151 191 235 289 349
#     4  10  19  35  58  82 109 145 185 229 285 346
#     4   9  18  34  57  81 112 152 190 231 290 349
#     4  10  18  33  54  79 111 148 185 233 288 340
#     4  11  22  36  55  81 114 145 182 230 284 342
#     4   9  18  35  57  82 112 153 193 236 292 350
#     4  11  23  40  60  83 113 153 199 247 295 351
#
# _framework density 19.756398999999998
#
# number of rings (size 3 to 8) (size 9 to 14) (size 15 to 20)
#    0.000    2.250    1.250    2.625    0.000    3.500 
#    0.000   10.625    0.000    0.000    0.000    0.000 
#    0.000    0.000    0.000    0.000    0.000    0.000 
#
# Total GULP energy -396501.159590 kJ/mol
# GULP energy per Si atom -12390.661237 kJ/mol
# Density = 1.971143 g / cm^3
# Si number density = 19.756399 Si / 1000 Ang^3
#
#
#
# Elastic Constant Matrix: (Units=GPa)
#
#
# Indices 1 2 3 4 5 6 
#
# 1 50.4584 18.1947 27.3566 0.0000 0.0000 0.0000
# 2 18.1947 78.9442 36.1719 0.0000 0.0000 0.0000
# 3 27.3566 36.1719 112.4269 0.0000 0.0000 0.0000
# 4 0.0000 0.0000 0.0000 24.8608 0.0000 0.0000
# 5 0.0000 0.0000 0.0000 0.0000 24.2045 0.0000
# 6 0.0000 0.0000 0.0000 0.0000 0.0000 21.8285
#
#
#
# Elastic Compliance Matrix: (Units=1/GPa)
#
#
# Indices 1 2 3 4 5 6 
#
# 1 0.023534 -0.003284 -0.004670 0.000000 0.000000 0.000000
# 2 -0.003284 0.015316 -0.004128 0.000000 0.000000 0.000000
# 3 -0.004670 -0.004128 0.011359 0.000000 0.000000 0.000000
# 4 0.000000 0.000000 0.000000 0.040224 0.000000 0.000000
# 5 0.000000 0.000000 0.000000 0.000000 0.041315 0.000000
# 6 0.000000 0.000000 0.000000 0.000000 0.000000 0.045812
#
#
# Mechanical properties :
#
#
# Convention : Reuss Voigt Hill
#
# Bulk Modulus (GPa) = 38.39653 45.03065 41.71359
# Shear Modulus (GPa) = 23.76351 24.85251 24.30801
#
# Velocity S-wave (km/s) = 3.47194 3.55060 3.51149
# Velocity P-wave (km/s) = 5.96236 6.29694 6.13193
#
# Compressibility (1/GPa) = 0.02604402
#
# Stress axis : x y z
#
# Youngs Moduli (GPa) = 42.49086 65.29206 88.03388
#
# Poissons Ratio (x) = 0.21445 0.41111
# Poissons Ratio (y) = 0.13956 0.36345
# Poissons Ratio (z) = 0.19843 0.26956
#
# Static dielectric constant tensor:
#      x y z
#    x 3.404070 0.000000 0.000000 
#    y 0.000000 4.751570 0.000000 
#    z 0.000000 0.000000 4.078620 
# 
# 
# High freq. dielectric constant tensor:
#      x y z
#    x 1.746450 0.000000 0.000000 
#    y 0.000000 1.776150 0.000000 
#    z 0.000000 0.000000 1.773020 
# 
# From -- ./inp_files/10648.got.cif
#   From: 2010.03.12/outbox.cif.g09.slc.cpg/sg40_6_cif.got.tgz:10648.got - 2010.04.14 01:38:03.
