data_PCOD8182934
_publ_section_title
;
Structure prediction by ZEFSAII (Michael W. Deem and Ramdas Pophale) SiO2 
 PCOD8182934
Probable space group: A M A 2
;
_chemical_formula_sum "Si O2"
_cell_formula_units_Z 48
_cell_length_a 8.857505
_cell_length_b 13.700621
_cell_length_c 23.638403
_cell_angle_alpha 90.000000
_cell_angle_beta 90.000000
_cell_angle_gamma 90.000000
_cell_volume 2868.598660
_symmetry_space_group_name_H-M "A M A 2"
_symmetry_group_IT_number 40
_symmetry_cell_setting 'orthorhombic'
loop_
_space_group_symop_operation_xyz
x,y,z
-x,-y,z
1/2-x,y,z
1/2+x,-y,z
x,1/2+y,1/2+z
-x,1/2-y,1/2+z
1/2-x,1/2+y,1/2+z
1/2+x,1/2-y,1/2+z
loop_
_atom_site_type_symbol
_atom_site_label
_atom_site_fract_x
_atom_site_fract_y
_atom_site_fract_z
Si Si1 0.928202 0.224327 0.650240
Si Si2 0.072794 0.205654 0.982897
Si Si3 0.071285 0.897067 0.882981
Si Si4 0.923654 0.600617 0.044902
Si Si5 0.570548 0.103198 0.088865
Si Si6 0.574120 0.600270 0.254943
O O1 0.750000 0.246047 0.643307
O O2 0.979681 0.141714 0.605369
O O3 0.972360 0.187581 0.712830
O O4 0.020451 0.322578 0.638272
O O5 0.250000 0.181723 0.983339
O O6 0.000976 0.186700 0.921639
O O7 0.041780 0.318836 0.996930
O O8 0.993073 0.136264 0.028374
O O9 0.250000 0.901514 0.891543
O O10 0.025438 0.871250 0.818519
O O11 0.000000 0.000000 0.901141
O O12 0.750000 0.576154 0.048910
O O13 0.000000 0.500000 0.027737
O O14 0.750000 0.096354 0.085823
O O15 0.500000 0.000000 0.105395
O O16 0.500000 0.500000 0.234754
O O17 0.750000 0.580803 0.251462
#
# Coordination Sequence:
#
# PCOD8182934 Si02
#       6
#     8   8   8   8   8   8
#     4   9  18  33  49  70  99 128 156 191 233 280
#     4  10  20  34  49  69  97 128 159 197 239 282
#     4  10  19  31  48  72  98 128 161 196 237 282
#     4   9  18  30  47  69  94 122 153 189 232 277
#     4  11  21  33  50  72  96 125 158 196 239 286
#     4   9  18  31  49  72 100 129 159 195 236 279
#
# _framework density 16.732908999999999
#
# number of rings (size 3 to 8) (size 9 to 14) (size 15 to 20)
#    0.000    2.333    0.000    4.500    0.000    4.667 
#    0.000    0.000    0.000    1.000    0.000    2.333 
#    0.000    0.000    0.000    0.000    0.000    0.000 
#
# Total GULP energy -297617.648056 kJ/mol
# GULP energy per Si atom -12400.735336 kJ/mol
# Density = 1.669482 g / cm^3
# Si number density = 16.732909 Si / 1000 Ang^3
#
#
#
# Elastic Constant Matrix: (Units=GPa)
#
#
# Indices 1 2 3 4 5 6 
#
# 1 88.6895 57.8859 43.8212 0.0000 0.0000 0.0000
# 2 57.8859 123.8684 59.8981 0.0000 0.0000 0.0000
# 3 43.8212 59.8981 101.1051 0.0000 0.0000 0.0000
# 4 0.0000 0.0000 0.0000 21.3162 0.0000 0.0000
# 5 0.0000 0.0000 0.0000 0.0000 10.9069 0.0000
# 6 0.0000 0.0000 0.0000 0.0000 0.0000 31.7154
#
#
#
# Elastic Compliance Matrix: (Units=1/GPa)
#
#
# Indices 1 2 3 4 5 6 
#
# 1 0.017193 -0.006210 -0.003773 0.000000 0.000000 0.000000
# 2 -0.006210 0.013558 -0.005340 0.000000 0.000000 0.000000
# 3 -0.003773 -0.005340 0.014690 0.000000 0.000000 0.000000
# 4 0.000000 0.000000 0.000000 0.046913 0.000000 0.000000
# 5 0.000000 0.000000 0.000000 0.000000 0.091685 0.000000
# 6 0.000000 0.000000 0.000000 0.000000 0.000000 0.031530
#
#
# Mechanical properties :
#
#
# Convention : Reuss Voigt Hill
#
# Bulk Modulus (GPa) = 67.59647 70.76371 69.18009
# Shear Modulus (GPa) = 19.90883 22.92489 21.41686
#
# Velocity S-wave (km/s) = 3.45309 3.70543 3.58148
# Velocity P-wave (km/s) = 7.50889 7.79031 7.65089
#
# Compressibility (1/GPa) = 0.01479367
#
# Stress axis : x y z
#
# Youngs Moduli (GPa) = 58.16482 73.75948 68.07522
#
# Poissons Ratio (x) = 0.45805 0.25682
# Poissons Ratio (y) = 0.36121 0.36355
# Poissons Ratio (z) = 0.21943 0.39390
#
# Static dielectric constant tensor:
#      x y z
#    x 3.217150 0.000000 0.000000 
#    y 0.000000 3.096170 0.000000 
#    z 0.000000 0.000000 3.228070 
# 
# 
# High freq. dielectric constant tensor:
#      x y z
#    x 1.652720 0.000000 0.000000 
#    y 0.000000 1.634310 0.000000 
#    z 0.000000 0.000000 1.636280 
# 
# From -- ./inp_files/22000.got.cif
#   From: 2010.03.12/outbox.cif.g09.slc.cpg/sg40_11_cif.got.tgz:22000.got - 2010.04.14 01:38:03.
