data_PCOD8182847
_publ_section_title
;
Structure prediction by ZEFSAII (Michael W. Deem and Ramdas Pophale) SiO2 
 PCOD8182847
Probable space group: A M A 2
;
_chemical_formula_sum "Si O2"
_cell_formula_units_Z 64
_cell_length_a 8.829791
_cell_length_b 26.514759
_cell_length_c 18.001401
_cell_angle_alpha 90.000000
_cell_angle_beta 90.000000
_cell_angle_gamma 90.000000
_cell_volume 4214.484049
_symmetry_space_group_name_H-M "A M A 2"
_symmetry_group_IT_number 40
_symmetry_cell_setting 'orthorhombic'
loop_
_space_group_symop_operation_xyz
x,y,z
-x,-y,z
1/2-x,y,z
1/2+x,-y,z
x,1/2+y,1/2+z
-x,1/2-y,1/2+z
1/2-x,1/2+y,1/2+z
1/2+x,1/2-y,1/2+z
loop_
_atom_site_type_symbol
_atom_site_label
_atom_site_fract_x
_atom_site_fract_y
_atom_site_fract_z
Si Si1 0.073187 0.645384 0.223980
Si Si2 0.428953 0.648327 0.900452
Si Si3 0.417276 0.202357 0.257323
Si Si4 0.428483 0.256308 0.976817
Si Si5 0.072307 0.947443 0.642078
Si Si6 0.928314 0.552655 0.971274
Si Si7 0.419386 0.302603 0.353483
Si Si8 0.424603 0.745720 0.132519
O O1 0.250000 0.635151 0.230717
O O2 0.038449 0.692002 0.169532
O O3 0.992720 0.596434 0.192571
O O4 0.008373 0.655368 0.306304
O O5 0.250000 0.649419 0.914786
O O6 0.467263 0.657665 0.813245
O O7 0.501839 0.690498 0.952801
O O8 0.497542 0.594642 0.919877
O O9 0.250000 0.191838 0.224065
O O10 0.411547 0.251835 0.307105
O O11 0.536213 0.209433 0.190607
O O12 0.250000 0.258833 0.965791
O O13 0.493173 0.209197 0.929909
O O14 0.468770 0.246976 0.062167
O O15 0.250000 0.951102 0.654032
O O16 0.030570 0.935739 0.556736
O O17 0.000000 0.000000 0.667781
O O18 0.750000 0.551034 0.958167
O O19 0.000000 0.500000 0.946195
O O20 0.250000 0.322125 0.371475
O O21 0.250000 0.750185 0.109330
#
# Coordination Sequence:
#
# PCOD8182847 Si02
#       8
#     8   8   8   8   8   8   8   8
#     4  10  19  30  45  64  86 114 147 180 216 259
#     4  10  19  31  46  63  86 115 147 181 218 259
#     4   8  16  29  43  60  83 111 141 176 215 254
#     4  11  20  29  43  63  88 116 147 180 215 257
#     4  10  20  32  45  62  85 114 147 184 221 255
#     4  10  20  32  46  64  87 115 148 184 220 256
#     4   9  17  30  45  61  84 112 143 178 215 255
#     4  10  19  29  43  63  87 115 146 179 214 255
#
# _framework density 15.185725
#
# number of rings (size 3 to 8) (size 9 to 14) (size 15 to 20)
#    0.000    2.250    0.000    4.875    0.000    8.500 
#    0.000    0.000    0.000    0.000    0.000    0.000 
#    0.000    1.000    0.000    7.000    0.000    5.500 
#
# Total GULP energy -396812.031145 kJ/mol
# GULP energy per Si atom -12400.375973 kJ/mol
# Density = 1.515116 g / cm^3
# Si number density = 15.185725 Si / 1000 Ang^3
#
#
#
# Elastic Constant Matrix: (Units=GPa)
#
#
# Indices 1 2 3 4 5 6 
#
# 1 88.7046 42.4638 40.6603 0.0000 0.0000 0.0000
# 2 42.4638 88.7425 49.6309 0.0000 0.0000 0.0000
# 3 40.6603 49.6309 74.8238 0.0000 0.0000 0.0000
# 4 0.0000 0.0000 0.0000 30.8964 0.0000 0.0000
# 5 0.0000 0.0000 0.0000 0.0000 26.9047 0.0000
# 6 0.0000 0.0000 0.0000 0.0000 0.0000 26.0258
#
#
#
# Elastic Compliance Matrix: (Units=1/GPa)
#
#
# Indices 1 2 3 4 5 6 
#
# 1 0.016049 -0.004454 -0.005767 0.000000 0.000000 0.000000
# 2 -0.004454 0.019150 -0.010282 0.000000 0.000000 0.000000
# 3 -0.005767 -0.010282 0.023318 0.000000 0.000000 0.000000
# 4 0.000000 0.000000 0.000000 0.032366 0.000000 0.000000
# 5 0.000000 0.000000 0.000000 0.000000 0.037168 0.000000
# 6 0.000000 0.000000 0.000000 0.000000 0.000000 0.038423
#
#
# Mechanical properties :
#
#
# Convention : Reuss Voigt Hill
#
# Bulk Modulus (GPa) = 57.10406 57.53119 57.31763
# Shear Modulus (GPa) = 23.43908 24.73312 24.08610
#
# Velocity S-wave (km/s) = 3.93300 4.04010 3.98691
# Velocity P-wave (km/s) = 7.63610 7.72855 7.68247
#
# Compressibility (1/GPa) = 0.01751189
#
# Stress axis : x y z
#
# Youngs Moduli (GPa) = 62.30896 52.21825 42.88462
#
# Poissons Ratio (x) = 0.23261 0.24730
# Poissons Ratio (y) = 0.27755 0.44094
# Poissons Ratio (z) = 0.35931 0.53690
#
# Static dielectric constant tensor:
#      x y z
#    x 3.084390 0.000000 0.000000 
#    y 0.000000 2.778750 0.000000 
#    z 0.000000 0.000000 2.946230 
# 
# 
# High freq. dielectric constant tensor:
#      x y z
#    x 1.602370 0.000000 0.000000 
#    y 0.000000 1.549650 0.000000 
#    z 0.000000 0.000000 1.568270 
# 
# From -- ./inp_files/19620.got.cif
#   From: 2010.03.12/outbox.cif.g09.slc.cpg/sg40_10_cif.got.tgz:19620.got - 2010.04.14 01:38:03.
