data_PCOD8182506
_publ_section_title
;
Structure prediction by ZEFSAII (Michael W. Deem and Ramdas Pophale) SiO2 
 PCOD8182506
Probable space group: A M A 2
;
_chemical_formula_sum "Si O2"
_cell_formula_units_Z 56
_cell_length_a 8.821889
_cell_length_b 13.613390
_cell_length_c 29.323235
_cell_angle_alpha 90.000000
_cell_angle_beta 90.000000
_cell_angle_gamma 90.000000
_cell_volume 3521.597820
_symmetry_space_group_name_H-M "A M A 2"
_symmetry_group_IT_number 40
_symmetry_cell_setting 'orthorhombic'
loop_
_space_group_symop_operation_xyz
x,y,z
-x,-y,z
1/2-x,y,z
1/2+x,-y,z
x,1/2+y,1/2+z
-x,1/2-y,1/2+z
1/2-x,1/2+y,1/2+z
1/2+x,1/2-y,1/2+z
loop_
_atom_site_type_symbol
_atom_site_label
_atom_site_fract_x
_atom_site_fract_y
_atom_site_fract_z
Si Si1 0.424111 0.207320 0.664360
Si Si2 0.069790 0.710262 0.527607
Si Si3 0.927632 0.606423 0.246274
Si Si4 0.929167 0.108215 0.943786
Si Si5 0.428059 0.399055 0.610215
Si Si6 0.929098 0.395512 0.071718
Si Si7 0.424711 0.896782 0.844851
O O1 0.250000 0.195027 0.677605
O O2 0.521262 0.184519 0.708797
O O3 0.460630 0.318053 0.648806
O O4 0.467725 0.132867 0.623752
O O5 0.250000 0.712060 0.529808
O O6 0.013125 0.681516 0.477664
O O7 0.007248 0.630197 0.563025
O O8 0.004590 0.817662 0.537901
O O9 0.750000 0.592146 0.241527
O O10 0.974983 0.651799 0.296372
O O11 0.000000 0.500000 0.237682
O O12 0.750000 0.101877 0.954454
O O13 0.959167 0.156910 0.893118
O O14 0.000000 0.000000 0.948253
O O15 0.500000 0.500000 0.628180
O O16 0.250000 0.409907 0.600899
O O17 0.750000 0.395591 0.063282
O O18 0.000000 0.500000 0.060195
O O19 0.250000 0.919274 0.841017
O O20 0.500000 0.000000 0.848954
#
# Coordination Sequence:
#
# PCOD8182506 Si02
#       7
#     8   8   8   8   8   8   8
#     4   9  19  32  46  66  91 119 150 182 219 264
#     4  11  21  32  47  68  92 120 154 186 223 268
#     4  10  18  28  44  66  92 121 152 184 221 264
#     4  10  18  30  46  65  92 122 152 186 225 268
#     4  10  20  34  49  66  90 119 152 188 226 267
#     4  10  20  34  49  67  92 121 153 188 225 264
#     4   8  16  28  42  62  88 118 149 182 221 265
#
# _framework density 15.901873
#
# number of rings (size 3 to 8) (size 9 to 14) (size 15 to 20)
#    0.000    2.286    0.000    4.714    0.000    5.714 
#    0.000    0.000    0.000    0.000    0.000    1.000 
#    0.000    2.286    0.000    0.000    0.000    0.000 
#
# Total GULP energy -347010.459099 kJ/mol
# GULP energy per Si atom -12393.230682 kJ/mol
# Density = 1.586568 g / cm^3
# Si number density = 15.901873 Si / 1000 Ang^3
#
#
#
# Elastic Constant Matrix: (Units=GPa)
#
#
# Indices 1 2 3 4 5 6 
#
# 1 94.9998 45.8396 59.6214 0.0000 0.0000 0.0000
# 2 45.8396 93.4118 55.0826 0.0000 0.0000 0.0000
# 3 59.6214 55.0826 131.9543 0.0000 0.0000 0.0000
# 4 0.0000 0.0000 0.0000 17.7691 0.0000 0.0000
# 5 0.0000 0.0000 0.0000 0.0000 24.6353 0.0000
# 6 0.0000 0.0000 0.0000 0.0000 0.0000 27.4855
#
#
#
# Elastic Compliance Matrix: (Units=1/GPa)
#
#
# Indices 1 2 3 4 5 6 
#
# 1 0.016174 -0.004812 -0.005299 0.000000 0.000000 0.000000
# 2 -0.004812 0.015633 -0.004351 0.000000 0.000000 0.000000
# 3 -0.005299 -0.004351 0.011789 0.000000 0.000000 0.000000
# 4 0.000000 0.000000 0.000000 0.056277 0.000000 0.000000
# 5 0.000000 0.000000 0.000000 0.000000 0.040592 0.000000
# 6 0.000000 0.000000 0.000000 0.000000 0.000000 0.036383
#
#
# Mechanical properties :
#
#
# Convention : Reuss Voigt Hill
#
# Bulk Modulus (GPa) = 68.16458 71.27256 69.71857
# Shear Modulus (GPa) = 23.73448 24.63279 24.18364
#
# Velocity S-wave (km/s) = 3.86756 3.94007 3.90398
# Velocity P-wave (km/s) = 7.93113 8.10039 8.01621
#
# Compressibility (1/GPa) = 0.01467038
#
# Stress axis : x y z
#
# Youngs Moduli (GPa) = 61.82725 63.96868 84.82390
#
# Poissons Ratio (x) = 0.30783 0.44950
# Poissons Ratio (y) = 0.29753 0.36910
# Poissons Ratio (z) = 0.32763 0.27835
#
# Static dielectric constant tensor:
#      x y z
#    x 3.136520 0.000000 0.000000 
#    y 0.000000 2.784040 0.000000 
#    z 0.000000 0.000000 3.430710 
# 
# 
# High freq. dielectric constant tensor:
#      x y z
#    x 1.628740 0.000000 0.000000 
#    y 0.000000 1.577020 0.000000 
#    z 0.000000 0.000000 1.614440 
# 
# From -- ./inp_files/26413.got.cif
#   From: 2010.03.12/outbox.cif.g09.slc.cpg/sg40_14_cif.got.tgz:26413.got - 2010.04.14 01:38:03.
