data_PCOD8182586
_publ_section_title
;
Structure prediction by ZEFSAII (Michael W. Deem and Ramdas Pophale) SiO2 
 PCOD8182586
Probable space group: A M A 2
;
_chemical_formula_sum "Si O2"
_cell_formula_units_Z 56
_cell_length_a 8.489067
_cell_length_b 18.411047
_cell_length_c 20.835668
_cell_angle_alpha 90.000000
_cell_angle_beta 90.000000
_cell_angle_gamma 90.000000
_cell_volume 3256.460965
_symmetry_space_group_name_H-M "A M A 2"
_symmetry_group_IT_number 40
_symmetry_cell_setting 'orthorhombic'
loop_
_space_group_symop_operation_xyz
x,y,z
-x,-y,z
1/2-x,y,z
1/2+x,-y,z
x,1/2+y,1/2+z
-x,1/2-y,1/2+z
1/2-x,1/2+y,1/2+z
1/2+x,1/2-y,1/2+z
loop_
_atom_site_type_symbol
_atom_site_label
_atom_site_fract_x
_atom_site_fract_y
_atom_site_fract_z
Si Si1 0.435072 0.923205 0.057610
Si Si2 0.565836 0.844272 0.679240
Si Si3 0.437381 0.921350 0.557184
Si Si4 0.922379 0.213875 0.488719
Si Si5 0.937891 0.356103 0.429920
Si Si6 0.065236 0.419620 0.300737
Si Si7 0.075718 0.706906 0.623489
O O1 0.250000 0.925303 0.044603
O O2 0.473493 0.865868 0.114132
O O3 0.500000 0.000000 0.082070
O O4 0.524993 0.904207 0.991961
O O5 0.750000 0.848267 0.667642
O O6 0.487213 0.899446 0.628749
O O7 0.522212 0.868561 0.750377
O O8 0.509315 0.761156 0.672832
O O9 0.250000 0.919924 0.554480
O O10 0.507650 0.863448 0.504036
O O11 0.500000 0.000000 0.538302
O O12 0.750000 0.197030 0.460478
O O13 0.002592 0.272545 0.440704
O O14 0.906782 0.253081 0.556449
O O15 0.750000 0.357236 0.418392
O O16 0.031148 0.389100 0.370958
O O17 0.250000 0.419718 0.287099
O O18 0.000000 0.500000 0.294093
O O19 0.250000 0.687108 0.649712
#
# Coordination Sequence:
#
# PCOD8182586 Si02
#       7
#     8   8   8   8   8   8   8
#     4  11  20  31  48  73 101 131 163 200 243 289
#     4  11  21  34  50  70  95 128 164 199 238 288
#     4  10  18  30  47  71  99 128 158 196 241 285
#     4   7  14  28  47  66  90 121 154 190 235 283
#     4  10  19  34  51  69  94 128 165 203 243 289
#     4  12  24  37  50  69  96 129 165 202 239 284
#     4   9  17  32  50  70  95 125 158 198 242 288
#
# _framework density 17.196581999999999
#
# number of rings (size 3 to 8) (size 9 to 14) (size 15 to 20)
#    0.000    2.000    0.000    7.714    0.000    0.000 
#    0.000    2.143    0.000    0.000    0.000    1.000 
#    0.000    2.286    0.000    0.000    0.000    0.000 
#
# Total GULP energy -347019.442559 kJ/mol
# GULP energy per Si atom -12393.551520 kJ/mol
# Density = 1.715744 g / cm^3
# Si number density = 17.196582 Si / 1000 Ang^3
#
#
#
# Elastic Constant Matrix: (Units=GPa)
#
#
# Indices 1 2 3 4 5 6 
#
# 1 76.8071 27.4960 9.2961 0.0000 0.0000 0.0000
# 2 27.4960 137.1362 40.5456 0.0000 0.0000 0.0000
# 3 9.2961 40.5456 48.5601 0.0000 0.0000 0.0000
# 4 0.0000 0.0000 0.0000 28.3594 0.0000 0.0000
# 5 0.0000 0.0000 0.0000 0.0000 20.8968 0.0000
# 6 0.0000 0.0000 0.0000 0.0000 0.0000 28.6923
#
#
#
# Elastic Compliance Matrix: (Units=1/GPa)
#
#
# Indices 1 2 3 4 5 6 
#
# 1 0.014034 -0.002681 -0.000448 0.000000 0.000000 0.000000
# 2 -0.002681 0.010195 -0.007999 0.000000 0.000000 0.000000
# 3 -0.000448 -0.007999 0.027357 0.000000 0.000000 0.000000
# 4 0.000000 0.000000 0.000000 0.035262 0.000000 0.000000
# 5 0.000000 0.000000 0.000000 0.000000 0.047854 0.000000
# 6 0.000000 0.000000 0.000000 0.000000 0.000000 0.034853
#
#
# Mechanical properties :
#
#
# Convention : Reuss Voigt Hill
#
# Bulk Modulus (GPa) = 34.09478 46.35321 40.22400
# Shear Modulus (GPa) = 24.80328 27.93408 26.36868
#
# Velocity S-wave (km/s) = 3.80193 4.03475 3.92007
# Velocity P-wave (km/s) = 6.25639 6.97990 6.62803
#
# Compressibility (1/GPa) = 0.02933000
#
# Stress axis : x y z
#
# Youngs Moduli (GPa) = 71.25692 98.09174 36.55333
#
# Poissons Ratio (x) = 0.26303 0.01636
# Poissons Ratio (y) = 0.19107 0.29238
# Poissons Ratio (z) = 0.03190 0.78460
#
# Static dielectric constant tensor:
#      x y z
#    x 3.258560 0.000000 0.000000 
#    y 0.000000 3.694200 0.000000 
#    z 0.000000 0.000000 2.976290 
# 
# 
# High freq. dielectric constant tensor:
#      x y z
#    x 1.670120 0.000000 0.000000 
#    y 0.000000 1.674570 0.000000 
#    z 0.000000 0.000000 1.618090 
# 
# From -- ./inp_files/22314.got.cif
#   From: 2010.03.12/outbox.cif.g09.slc.cpg/sg40_12_cif.got.tgz:22314.got - 2010.04.14 01:38:03.
