data_PCOD8182923
_publ_section_title
;
Structure prediction by ZEFSAII (Michael W. Deem and Ramdas Pophale) SiO2 
 PCOD8182923
Probable space group: A M A 2
;
_chemical_formula_sum "Si O2"
_cell_formula_units_Z 64
_cell_length_a 9.351978
_cell_length_b 14.772722
_cell_length_c 27.080120
_cell_angle_alpha 90.000000
_cell_angle_beta 90.000000
_cell_angle_gamma 90.000000
_cell_volume 3741.231533
_symmetry_space_group_name_H-M "A M A 2"
_symmetry_group_IT_number 40
_symmetry_cell_setting 'orthorhombic'
loop_
_space_group_symop_operation_xyz
x,y,z
-x,-y,z
1/2-x,y,z
1/2+x,-y,z
x,1/2+y,1/2+z
-x,1/2-y,1/2+z
1/2-x,1/2+y,1/2+z
1/2+x,1/2-y,1/2+z
loop_
_atom_site_type_symbol
_atom_site_label
_atom_site_fract_x
_atom_site_fract_y
_atom_site_fract_z
Si Si1 0.417975 0.587914 0.117190
Si Si2 0.413647 0.085331 0.504049
Si Si3 0.417604 0.908804 0.347727
Si Si4 0.916024 0.089239 0.233752
Si Si5 0.419194 0.777472 0.150565
Si Si6 0.915998 0.587662 0.454677
Si Si7 0.915634 0.281374 0.917934
Si Si8 0.917859 0.588153 0.567499
O O1 0.500000 0.500000 0.137282
O O2 0.250000 0.571629 0.124008
O O3 0.457769 0.607397 0.060123
O O4 0.475119 0.674111 0.148460
O O5 0.250000 0.056334 0.501064
O O6 0.445300 0.173082 0.471016
O O7 0.500000 0.000000 0.482687
O O8 0.250000 0.921022 0.359540
O O9 0.444945 0.886473 0.290500
O O10 0.481627 0.824188 0.377062
O O11 0.500000 0.000000 0.363561
O O12 0.750000 0.069954 0.223680
O O13 0.972081 0.172930 0.200460
O O14 0.000000 0.000000 0.217495
O O15 0.250000 0.773602 0.149253
O O16 0.472117 0.829922 0.101727
O O17 0.750000 0.564290 0.450800
O O18 0.954535 0.675313 0.421945
O O19 0.958770 0.610025 0.511051
O O20 0.000000 0.500000 0.434499
O O21 0.750000 0.294741 0.902603
O O22 0.750000 0.570900 0.573829
O O23 0.000000 0.500000 0.586356
#
# Coordination Sequence:
#
# PCOD8182923 Si02
#       8
#     8   8   8   8   8   8   8   8
#     4   9  17  30  46  64  89 120 152 185 220 260
#     4   9  17  28  43  65  92 120 149 182 220 264
#     4  10  20  33  49  70  95 120 148 184 227 273
#     4   9  18  32  49  70  94 119 146 179 221 268
#     4   9  16  28  48  68  88 119 153 181 218 268
#     4   9  18  31  46  66  93 123 154 189 226 265
#     4  10  19  31  48  68  91 121 156 190 226 269
#     4   9  16  27  44  67  94 122 150 180 218 265
#
# _framework density 17.106665
#
# number of rings (size 3 to 8) (size 9 to 14) (size 15 to 20)
#    0.000    2.750    0.000    1.875    0.000    5.500 
#    0.000    1.250    0.000    6.750    0.000    3.500 
#    0.000    0.000    0.000    0.000    0.000    0.000 
#
# Total GULP energy -396762.147975 kJ/mol
# GULP energy per Si atom -12398.817124 kJ/mol
# Density = 1.706773 g / cm^3
# Si number density = 17.106665 Si / 1000 Ang^3
#
#
#
# Elastic Constant Matrix: (Units=GPa)
#
#
# Indices 1 2 3 4 5 6 
#
# 1 54.5876 57.0561 34.8461 0.0000 0.0000 0.0000
# 2 57.0561 158.4281 62.2912 0.0000 0.0000 0.0000
# 3 34.8461 62.2912 67.8421 0.0000 0.0000 0.0000
# 4 0.0000 0.0000 0.0000 27.1332 0.0000 0.0000
# 5 0.0000 0.0000 0.0000 0.0000 8.7676 0.0000
# 6 0.0000 0.0000 0.0000 0.0000 0.0000 30.5188
#
#
#
# Elastic Compliance Matrix: (Units=1/GPa)
#
#
# Indices 1 2 3 4 5 6 
#
# 1 0.032803 -0.008121 -0.009392 0.000000 0.000000 0.000000
# 2 -0.008121 0.011888 -0.006745 0.000000 0.000000 0.000000
# 3 -0.009392 -0.006745 0.025757 0.000000 0.000000 0.000000
# 4 0.000000 0.000000 0.000000 0.036855 0.000000 0.000000
# 5 0.000000 0.000000 0.000000 0.000000 0.114057 0.000000
# 6 0.000000 0.000000 0.000000 0.000000 0.000000 0.032767
#
#
# Mechanical properties :
#
#
# Convention : Reuss Voigt Hill
#
# Bulk Modulus (GPa) = 45.59363 65.47161 55.53262
# Shear Modulus (GPa) = 16.13145 21.72822 18.92983
#
# Velocity S-wave (km/s) = 3.07415 3.56780 3.33013
# Velocity P-wave (km/s) = 6.26984 7.43827 6.87891
#
# Compressibility (1/GPa) = 0.02193289
#
# Stress axis : x y z
#
# Youngs Moduli (GPa) = 30.48534 84.11528 38.82400
#
# Poissons Ratio (x) = 0.68306 0.36465
# Poissons Ratio (y) = 0.24756 0.26186
# Poissons Ratio (z) = 0.28633 0.56733
#
# Static dielectric constant tensor:
#      x y z
#    x 3.097310 0.000000 0.000000 
#    y 0.000000 3.390130 0.000000 
#    z 0.000000 0.000000 3.128270 
# 
# 
# High freq. dielectric constant tensor:
#      x y z
#    x 1.645770 0.000000 0.000000 
#    y 0.000000 1.660290 0.000000 
#    z 0.000000 0.000000 1.641040 
# 
# From -- ./inp_files/26446.got.cif
#   From: 2010.03.12/outbox.cif.g09.slc.cpg/sg40_14_cif.got.tgz:26446.got - 2010.04.14 01:38:03.
