data_PCOD8182289
_publ_section_title
;
Structure prediction by ZEFSAII (Michael W. Deem and Ramdas Pophale) SiO2 
 PCOD8182289
Probable space group: A B M 2
;
_chemical_formula_sum "Si O2"
_cell_formula_units_Z 64
_cell_length_a 11.330241
_cell_length_b 18.088895
_cell_length_c 14.401578
_cell_angle_alpha 90.000000
_cell_angle_beta 90.000000
_cell_angle_gamma 90.000000
_cell_volume 2951.625586
_symmetry_space_group_name_H-M "A B M 2"
_symmetry_group_IT_number 39
_symmetry_cell_setting 'orthorhombic'
loop_
_space_group_symop_operation_xyz
x,y,z
-x,-y,z
-x,1/2+y,z
x,1/2-y,z
x,1/2+y,1/2+z
-x,1/2-y,1/2+z
-x,y,1/2+z
x,-y,1/2+z
loop_
_atom_site_type_symbol
_atom_site_label
_atom_site_fract_x
_atom_site_fract_y
_atom_site_fract_z
Si Si1 0.485828 0.336441 0.700840
Si Si2 0.307585 0.414986 0.285253
Si Si3 0.920906 0.389419 0.104219
Si Si4 0.167944 0.949342 0.601990
Si Si5 0.707882 0.560430 0.907305
Si Si6 0.774870 0.667249 0.763031
Si Si7 0.490884 0.087001 0.513313
Si Si8 0.252121 0.663766 0.953360
O O1 0.512137 0.250000 0.711548
O O2 0.560994 0.381377 0.776743
O O3 0.347528 0.355252 0.712204
O O4 0.527963 0.363326 0.600158
O O5 0.254059 0.422716 0.183031
O O6 0.316155 0.491054 0.341244
O O7 0.228531 0.356724 0.345389
O O8 0.879394 0.471112 0.130491
O O9 0.882483 0.339218 0.191121
O O10 0.062113 0.389818 0.091921
O O11 0.864278 0.356663 0.010802
O O12 0.232286 0.960708 0.504213
O O13 0.794092 0.615919 0.852542
O O14 0.583853 0.601223 0.929991
O O15 0.768639 0.750000 0.800570
O O16 0.360469 0.110963 0.483011
O O17 0.500000 0.000000 0.540130
O O18 0.283635 0.750000 0.967382
#
# Coordination Sequence:
#
# PCOD8182289 Si02
#       8
#     8   8   8   8   8   8   8   8
#     4  11  25  42  67 101 145 187 219 275 353 424
#     4  12  24  45  71 102 140 182 229 290 346 422
#     4  11  23  46  72  97 134 180 237 289 337 411
#     4  11  25  47  70 100 130 177 238 296 346 394
#     4  12  25  44  69 105 139 179 232 293 345 415
#     4  11  25  45  69 101 142 187 228 279 352 420
#     4  12  23  40  70 105 140 184 230 284 345 424
#     4  12  25  45  71 104 145 187 228 282 357 423
#
# _framework density 21.682967000000001
#
# number of rings (size 3 to 8) (size 9 to 14) (size 15 to 20)
#    0.000    0.500    6.250    1.875    1.750    3.000 
#    0.000    5.000    0.000    0.000    0.000    0.000 
#    0.000    0.000    0.000    0.000    0.000    0.000 
#
# Total GULP energy -396800.074370 kJ/mol
# GULP energy per Si atom -12400.002324 kJ/mol
# Density = 2.163362 g / cm^3
# Si number density = 21.682967 Si / 1000 Ang^3
#
#
#
# Elastic Constant Matrix: (Units=GPa)
#
#
# Indices 1 2 3 4 5 6 
#
# 1 78.8006 33.2170 27.0929 0.0000 0.0000 0.0000
# 2 33.2170 111.2908 34.1439 0.0000 0.0000 0.0000
# 3 27.0929 34.1439 112.2360 0.0000 0.0000 0.0000
# 4 0.0000 0.0000 0.0000 21.4186 0.0000 0.0000
# 5 0.0000 0.0000 0.0000 0.0000 13.2816 0.0000
# 6 0.0000 0.0000 0.0000 0.0000 0.0000 29.8012
#
#
#
# Elastic Compliance Matrix: (Units=1/GPa)
#
#
# Indices 1 2 3 4 5 6 
#
# 1 0.015133 -0.003746 -0.002514 0.000000 0.000000 0.000000
# 2 -0.003746 0.010838 -0.002393 0.000000 0.000000 0.000000
# 3 -0.002514 -0.002393 0.010244 0.000000 0.000000 0.000000
# 4 0.000000 0.000000 0.000000 0.046688 0.000000 0.000000
# 5 0.000000 0.000000 0.000000 0.000000 0.075292 0.000000
# 6 0.000000 0.000000 0.000000 0.000000 0.000000 0.033556
#
#
# Mechanical properties :
#
#
# Convention : Reuss Voigt Hill
#
# Bulk Modulus (GPa) = 52.87840 54.58167 53.73003
# Shear Modulus (GPa) = 23.21701 26.75853 24.98777
#
# Velocity S-wave (km/s) = 3.27578 3.51676 3.39841
# Velocity P-wave (km/s) = 6.22476 6.45890 6.34291
#
# Compressibility (1/GPa) = 0.01891131
#
# Stress axis : x y z
#
# Youngs Moduli (GPa) = 66.07898 92.27182 97.61363
#
# Poissons Ratio (x) = 0.34562 0.24536
# Poissons Ratio (y) = 0.24751 0.23357
# Poissons Ratio (z) = 0.16610 0.22078
#
# Static dielectric constant tensor:
#      x y z
#    x 3.916870 0.000000 0.000000 
#    y 0.000000 3.923120 0.000000 
#    z 0.000000 0.000000 4.211080 
# 
# 
# High freq. dielectric constant tensor:
#      x y z
#    x 1.836380 0.000000 0.000000 
#    y 0.000000 1.852650 0.000000 
#    z 0.000000 0.000000 1.865130 
# 
# From -- ./inp_files/9476.got.cif
#   From: 2010.03.12/outbox.cif.g09.slc.cpg/sg39_5_cif.got.tgz:9476.got - 2010.04.14 02:53:20.
