data_PCOD8182698
_publ_section_title
;
Structure prediction by ZEFSAII (Michael W. Deem and Ramdas Pophale) SiO2 
 PCOD8182698
Probable space group: A M A 2
;
_chemical_formula_sum "Si O2"
_cell_formula_units_Z 64
_cell_length_a 9.320930
_cell_length_b 19.648064
_cell_length_c 20.498845
_cell_angle_alpha 90.000000
_cell_angle_beta 90.000000
_cell_angle_gamma 90.000000
_cell_volume 3754.122174
_symmetry_space_group_name_H-M "A M A 2"
_symmetry_group_IT_number 40
_symmetry_cell_setting 'orthorhombic'
loop_
_space_group_symop_operation_xyz
x,y,z
-x,-y,z
1/2-x,y,z
1/2+x,-y,z
x,1/2+y,1/2+z
-x,1/2-y,1/2+z
1/2-x,1/2+y,1/2+z
1/2+x,1/2-y,1/2+z
loop_
_atom_site_type_symbol
_atom_site_label
_atom_site_fract_x
_atom_site_fract_y
_atom_site_fract_z
Si Si1 0.914208 0.435200 0.144240
Si Si2 0.915204 0.435146 0.297677
Si Si3 0.918050 0.932789 0.191427
Si Si4 0.419972 0.800593 0.226941
Si Si5 0.914611 0.934782 0.038716
Si Si6 0.918277 0.789434 0.990819
Si Si7 0.918833 0.287983 0.101094
Si Si8 0.081564 0.707342 0.343919
O O1 0.750000 0.448421 0.126810
O O2 0.937217 0.426590 0.220875
O O3 0.968996 0.365801 0.110889
O O4 0.000000 0.500000 0.116441
O O5 0.750000 0.445822 0.316384
O O6 0.982225 0.367875 0.331111
O O7 0.000000 0.500000 0.325070
O O8 0.750000 0.937634 0.209068
O O9 0.942863 0.922858 0.114803
O O10 0.990940 0.869884 0.227789
O O11 0.000000 0.000000 0.216052
O O12 0.250000 0.816008 0.228404
O O13 0.462114 0.756091 0.164041
O O14 0.475499 0.761454 0.291419
O O15 0.750000 0.949747 0.023504
O O16 0.968301 0.867276 0.001774
O O17 0.000000 0.000000 0.012168
O O18 0.750000 0.783021 0.006129
O O19 0.002183 0.738703 0.037319
O O20 0.955915 0.768198 0.916804
O O21 0.750000 0.283533 0.089491
O O22 0.250000 0.700187 0.332650
#
# Coordination Sequence:
#
# PCOD8182698 Si02
#       8
#     8   8   8   8   8   8   8   8
#     4   9  17  30  49  74 101 128 161 202 246 291
#     4   9  16  29  47  70  99 132 167 200 237 286
#     4  10  19  32  50  76 105 131 163 208 254 298
#     4  10  18  32  54  76  97 131 172 209 250 298
#     4   9  18  30  45  68  99 133 167 199 238 288
#     4  10  20  34  50  72 101 134 170 207 247 295
#     4  10  19  32  52  75 100 130 167 209 252 296
#     4   9  18  33  52  71  99 137 171 202 246 302
#
# _framework density 17.047927000000001
#
# number of rings (size 3 to 8) (size 9 to 14) (size 15 to 20)
#    0.000    2.500    2.500    0.375    0.000    2.000 
#    0.000    1.875    0.000    0.750    0.000    1.750 
#    0.000    0.000    0.000    0.000    0.000    0.000 
#
# Total GULP energy -396789.652954 kJ/mol
# GULP energy per Si atom -12399.676655 kJ/mol
# Density = 1.700912 g / cm^3
# Si number density = 17.047927 Si / 1000 Ang^3
#
#
#
# Elastic Constant Matrix: (Units=GPa)
#
#
# Indices 1 2 3 4 5 6 
#
# 1 54.6872 57.5715 33.3081 0.0000 0.0000 0.0000
# 2 57.5715 149.1316 61.4098 0.0000 0.0000 0.0000
# 3 33.3081 61.4098 78.5988 0.0000 0.0000 0.0000
# 4 0.0000 0.0000 0.0000 23.3912 0.0000 0.0000
# 5 0.0000 0.0000 0.0000 0.0000 18.2303 0.0000
# 6 0.0000 0.0000 0.0000 0.0000 0.0000 34.0533
#
#
#
# Elastic Compliance Matrix: (Units=1/GPa)
#
#
# Indices 1 2 3 4 5 6 
#
# 1 0.032539 -0.010148 -0.005860 0.000000 0.000000 0.000000
# 2 -0.010148 0.013051 -0.005896 0.000000 0.000000 0.000000
# 3 -0.005860 -0.005896 0.019813 0.000000 0.000000 0.000000
# 4 0.000000 0.000000 0.000000 0.042751 0.000000 0.000000
# 5 0.000000 0.000000 0.000000 0.000000 0.054854 0.000000
# 6 0.000000 0.000000 0.000000 0.000000 0.000000 0.029366
#
#
# Mechanical properties :
#
#
# Convention : Reuss Voigt Hill
#
# Bulk Modulus (GPa) = 46.31064 65.22181 55.76623
# Shear Modulus (GPa) = 20.54395 23.81017 22.17706
#
# Velocity S-wave (km/s) = 3.47518 3.74125 3.61066
# Velocity P-wave (km/s) = 6.58228 7.55007 7.08272
#
# Compressibility (1/GPa) = 0.02159331
#
# Stress axis : x y z
#
# Youngs Moduli (GPa) = 30.73282 76.62111 50.47164
#
# Poissons Ratio (x) = 0.77757 0.29577
# Poissons Ratio (y) = 0.31189 0.29760
# Poissons Ratio (z) = 0.18010 0.45179
#
# Static dielectric constant tensor:
#      x y z
#    x 3.067580 0.000000 0.000000 
#    y 0.000000 3.330740 0.000000 
#    z 0.000000 0.000000 3.002930 
# 
# 
# High freq. dielectric constant tensor:
#      x y z
#    x 1.641670 0.000000 0.000000 
#    y 0.000000 1.665350 0.000000 
#    z 0.000000 0.000000 1.634620 
# 
# From -- ./inp_files/19589.got.cif
#   From: 2010.03.12/outbox.cif.g09.slc.cpg/sg40_10_cif.got.tgz:19589.got - 2010.04.14 01:38:03.
