data_PCOD8182865
_publ_section_title
;
Structure prediction by ZEFSAII (Michael W. Deem and Ramdas Pophale) SiO2 
 PCOD8182865
Probable space group: A M A 2
;
_chemical_formula_sum "Si O2"
_cell_formula_units_Z 64
_cell_length_a 8.878207
_cell_length_b 33.500673
_cell_length_c 11.792114
_cell_angle_alpha 90.000000
_cell_angle_beta 90.000000
_cell_angle_gamma 90.000000
_cell_volume 3507.280232
_symmetry_space_group_name_H-M "A M A 2"
_symmetry_group_IT_number 40
_symmetry_cell_setting 'orthorhombic'
loop_
_space_group_symop_operation_xyz
x,y,z
-x,-y,z
1/2-x,y,z
1/2+x,-y,z
x,1/2+y,1/2+z
-x,1/2-y,1/2+z
1/2-x,1/2+y,1/2+z
1/2+x,1/2-y,1/2+z
loop_
_atom_site_type_symbol
_atom_site_label
_atom_site_fract_x
_atom_site_fract_y
_atom_site_fract_z
Si Si1 0.075100 0.679971 0.114280
Si Si2 0.929866 0.877263 0.026960
Si Si3 0.083915 0.610140 0.950126
Si Si4 0.070738 0.958232 0.099497
Si Si5 0.923608 0.539304 0.858178
Si Si6 0.928486 0.767192 0.407981
Si Si7 0.926936 0.179019 0.852555
Si Si8 0.080470 0.669150 0.741795
O O1 0.250000 0.687107 0.146960
O O2 0.967523 0.681886 0.221405
O O3 0.051972 0.636370 0.060625
O O4 0.015596 0.713368 0.025596
O O5 0.750000 0.881662 0.033475
O O6 0.997468 0.849354 0.129185
O O7 0.002211 0.921271 0.029464
O O8 0.979085 0.856400 0.910148
O O9 0.250000 0.590913 0.957769
O O10 0.073599 0.636261 0.838241
O O11 0.962058 0.575276 0.942607
O O12 0.250000 0.959401 0.083411
O O13 0.021171 0.951706 0.230126
O O14 0.000000 0.000000 0.054885
O O15 0.750000 0.530976 0.858618
O O16 0.000000 0.500000 0.907644
O O17 0.750000 0.773857 0.401354
O O18 0.975439 0.721147 0.408547
O O19 0.995940 0.790753 0.296519
O O20 0.750000 0.171101 0.867099
O O21 0.250000 0.679321 0.705479
#
# Coordination Sequence:
#
# PCOD8182865 Si02
#       8
#     8   8   8   8   8   8   8   8
#     4   9  19  37  57  75 100 139 184 223 267 325
#     4  11  21  34  56  81 110 146 188 228 273 332
#     4   9  16  31  54  75 100 135 175 219 264 312
#     4  10  20  34  53  80 115 148 182 224 276 331
#     4  10  19  29  47  77 112 142 171 211 261 321
#     4   8  17  34  54  76 105 140 177 224 277 321
#     4  11  23  36  53  78 111 144 181 230 278 324
#     4   8  15  29  51  76 101 136 177 217 264 320
#
# _framework density 18.247757
#
# number of rings (size 3 to 8) (size 9 to 14) (size 15 to 20)
#    0.000    2.500    1.250    3.000    1.750    1.500 
#    0.000    0.625    0.000    2.250    0.000    1.750 
#    0.000    0.000    0.000    0.000    0.000    0.000 
#
# Total GULP energy -396663.548062 kJ/mol
# GULP energy per Si atom -12395.735877 kJ/mol
# Density = 1.820622 g / cm^3
# Si number density = 18.247757 Si / 1000 Ang^3
#
#
#
# Elastic Constant Matrix: (Units=GPa)
#
#
# Indices 1 2 3 4 5 6 
#
# 1 55.6993 42.2233 21.1727 0.0000 0.0000 0.0000
# 2 42.2233 126.0976 39.6230 0.0000 0.0000 0.0000
# 3 21.1727 39.6230 76.2024 0.0000 0.0000 0.0000
# 4 0.0000 0.0000 0.0000 24.2551 0.0000 0.0000
# 5 0.0000 0.0000 0.0000 0.0000 24.1677 0.0000
# 6 0.0000 0.0000 0.0000 0.0000 0.0000 23.2839
#
#
#
# Elastic Compliance Matrix: (Units=1/GPa)
#
#
# Indices 1 2 3 4 5 6 
#
# 1 0.024642 -0.007291 -0.003056 0.000000 0.000000 0.000000
# 2 -0.007291 0.011636 -0.004025 0.000000 0.000000 0.000000
# 3 -0.003056 -0.004025 0.016065 0.000000 0.000000 0.000000
# 4 0.000000 0.000000 0.000000 0.041228 0.000000 0.000000
# 5 0.000000 0.000000 0.000000 0.000000 0.041377 0.000000
# 6 0.000000 0.000000 0.000000 0.000000 0.000000 0.042948
#
#
# Mechanical properties :
#
#
# Convention : Reuss Voigt Hill
#
# Bulk Modulus (GPa) = 42.37241 51.55968 46.96605
# Shear Modulus (GPa) = 23.30922 24.67336 23.99129
#
# Velocity S-wave (km/s) = 3.57792 3.68112 3.62989
# Velocity P-wave (km/s) = 6.35135 6.81060 6.58498
#
# Compressibility (1/GPa) = 0.02360026
#
# Stress axis : x y z
#
# Youngs Moduli (GPa) = 40.58078 85.93663 62.24829
#
# Poissons Ratio (x) = 0.62658 0.19020
# Poissons Ratio (y) = 0.29588 0.25054
# Poissons Ratio (z) = 0.12400 0.34588
#
# Static dielectric constant tensor:
#      x y z
#    x 3.126880 0.000000 0.000000 
#    y 0.000000 3.542310 0.000000 
#    z 0.000000 0.000000 3.183450 
# 
# 
# High freq. dielectric constant tensor:
#      x y z
#    x 1.688070 0.000000 0.000000 
#    y 0.000000 1.712540 0.000000 
#    z 0.000000 0.000000 1.682540 
# 
# From -- ./inp_files/10691.got.cif
#   From: 2010.03.12/outbox.cif.g09.slc.cpg/sg40_6_cif.got.tgz:10691.got - 2010.04.14 01:38:03.
