data_PCOD8182406
_publ_section_title
;
Structure prediction by ZEFSAII (Michael W. Deem and Ramdas Pophale) SiO2 
 PCOD8182406
Probable space group: A M A 2
;
_chemical_formula_sum "Si O2"
_cell_formula_units_Z 64
_cell_length_a 18.517097
_cell_length_b 16.351647
_cell_length_c 11.641271
_cell_angle_alpha 90.000000
_cell_angle_beta 90.000000
_cell_angle_gamma 90.000000
_cell_volume 3524.802631
_symmetry_space_group_name_H-M "A M A 2"
_symmetry_group_IT_number 40
_symmetry_cell_setting 'orthorhombic'
loop_
_space_group_symop_operation_xyz
x,y,z
-x,-y,z
1/2-x,y,z
1/2+x,-y,z
x,1/2+y,1/2+z
-x,1/2-y,1/2+z
1/2-x,1/2+y,1/2+z
1/2+x,1/2-y,1/2+z
loop_
_atom_site_type_symbol
_atom_site_label
_atom_site_fract_x
_atom_site_fract_y
_atom_site_fract_z
Si Si1 0.414036 0.229088 0.244160
Si Si2 0.835318 0.828882 0.644762
Si Si3 0.028723 0.324874 0.432253
Si Si4 0.332865 0.611322 0.893068
Si Si5 0.927417 0.670287 0.680171
Si Si6 0.052500 0.318927 0.046072
Si Si7 0.423024 0.455752 0.870334
Si Si8 0.536221 0.913237 0.731864
O O1 0.408156 0.297620 0.344339
O O2 0.365391 0.153066 0.279386
O O3 0.496700 0.199486 0.231190
O O4 0.387715 0.269298 0.122700
O O5 0.750000 0.834519 0.673621
O O6 0.849604 0.837559 0.508265
O O7 0.866836 0.741449 0.686363
O O8 0.877078 0.904071 0.710627
O O9 0.983195 0.242901 0.456769
O O10 0.980231 0.391898 0.365195
O O11 0.062064 0.361339 0.548904
O O12 0.250000 0.602417 0.869483
O O13 0.363399 0.520995 0.902493
O O14 0.902098 0.591949 0.753825
O O15 0.994429 0.346749 0.141984
O O16 0.083292 0.394663 0.977703
O O17 0.500000 0.500000 0.860620
O O18 0.500000 0.000000 0.701419
#
# Coordination Sequence:
#
# PCOD8182406 Si02
#       8
#     8   8   8   8   8   8   8   8
#     4  10  17  34  58  81 110 148 192 240 274 345
#     4  11  21  36  60  88 119 155 196 243 297 354
#     4  10  17  33  55  84 112 139 198 232 275 335
#     4  11  23  38  57  86 123 154 188 242 311 357
#     4  11  20  34  60  87 113 151 199 238 285 341
#     4  10  18  31  58  81 112 142 196 236 276 329
#     4  12  21  34  57  92 117 149 188 249 291 342
#     4  11  20  33  56  87 114 147 188 246 281 336
#
# _framework density 18.157046000000001
#
# number of rings (size 3 to 8) (size 9 to 14) (size 15 to 20)
#    0.000    1.250    7.500    1.875    0.000    1.000 
#    0.000    0.625    0.000    8.250    0.000    0.000 
#    0.000    0.000    0.000    0.000    0.000    0.000 
#
# Total GULP energy -396536.068814 kJ/mol
# GULP energy per Si atom -12391.752150 kJ/mol
# Density = 1.811572 g / cm^3
# Si number density = 18.157046 Si / 1000 Ang^3
#
#
#
# Elastic Constant Matrix: (Units=GPa)
#
#
# Indices 1 2 3 4 5 6 
#
# 1 90.9461 43.2165 31.7620 0.0000 0.0000 0.0000
# 2 43.2165 90.6086 34.0833 0.0000 0.0000 0.0000
# 3 31.7620 34.0833 100.7625 0.0000 0.0000 0.0000
# 4 0.0000 0.0000 0.0000 37.8607 0.0000 0.0000
# 5 0.0000 0.0000 0.0000 0.0000 18.3415 0.0000
# 6 0.0000 0.0000 0.0000 0.0000 0.0000 23.5925
#
#
#
# Elastic Compliance Matrix: (Units=1/GPa)
#
#
# Indices 1 2 3 4 5 6 
#
# 1 0.014793 -0.006075 -0.002608 0.000000 0.000000 0.000000
# 2 -0.006075 0.015140 -0.003206 0.000000 0.000000 0.000000
# 3 -0.002608 -0.003206 0.011831 0.000000 0.000000 0.000000
# 4 0.000000 0.000000 0.000000 0.026413 0.000000 0.000000
# 5 0.000000 0.000000 0.000000 0.000000 0.054521 0.000000
# 6 0.000000 0.000000 0.000000 0.000000 0.000000 0.042386
#
#
# Mechanical properties :
#
#
# Convention : Reuss Voigt Hill
#
# Bulk Modulus (GPa) = 55.59980 55.60454 55.60217
# Shear Modulus (GPa) = 25.65981 27.50931 26.58456
#
# Velocity S-wave (km/s) = 3.76335 3.89662 3.83057
# Velocity P-wave (km/s) = 7.04073 7.13692 7.08899
#
# Compressibility (1/GPa) = 0.01798567
#
# Stress axis : x y z
#
# Youngs Moduli (GPa) = 67.59964 66.05082 84.52338
#
# Poissons Ratio (x) = 0.40123 0.22046
# Poissons Ratio (y) = 0.41063 0.27101
# Poissons Ratio (z) = 0.17632 0.21178
#
# Static dielectric constant tensor:
#      x y z
#    x 3.060140 0.000000 0.000000 
#    y 0.000000 3.316690 0.000000 
#    z 0.000000 0.000000 3.724370 
# 
# 
# High freq. dielectric constant tensor:
#      x y z
#    x 1.658380 0.000000 0.000000 
#    y 0.000000 1.702450 0.000000 
#    z 0.000000 0.000000 1.719040 
# 
# From -- ./inp_files/13244.got.cif
#   From: 2010.03.12/outbox.cif.g09.slc.cpg/sg40_7_cif.got.tgz:13244.got - 2010.04.14 01:38:03.
