data_PCOD8182929
_publ_section_title
;
Structure prediction by ZEFSAII (Michael W. Deem and Ramdas Pophale) SiO2 
 PCOD8182929
Probable space group: A M A 2
;
_chemical_formula_sum "Si O2"
_cell_formula_units_Z 64
_cell_length_a 9.193224
_cell_length_b 29.956207
_cell_length_c 14.257571
_cell_angle_alpha 90.000000
_cell_angle_beta 90.000000
_cell_angle_gamma 90.000000
_cell_volume 3926.451235
_symmetry_space_group_name_H-M "A M A 2"
_symmetry_group_IT_number 40
_symmetry_cell_setting 'orthorhombic'
loop_
_space_group_symop_operation_xyz
x,y,z
-x,-y,z
1/2-x,y,z
1/2+x,-y,z
x,1/2+y,1/2+z
-x,1/2-y,1/2+z
1/2-x,1/2+y,1/2+z
1/2+x,1/2-y,1/2+z
loop_
_atom_site_type_symbol
_atom_site_label
_atom_site_fract_x
_atom_site_fract_y
_atom_site_fract_z
Si Si1 0.584016 0.370406 0.598590
Si Si2 0.077341 0.727901 0.924047
Si Si3 0.078807 0.455048 0.548708
Si Si4 0.915262 0.816019 0.915924
Si Si5 0.917189 0.200204 0.594447
Si Si6 0.916203 0.636939 0.257711
Si Si7 0.582376 0.543191 0.331917
Si Si8 0.922545 0.285360 0.712352
O O1 0.750000 0.382199 0.626394
O O2 0.484244 0.414130 0.609863
O O3 0.576501 0.355407 0.490931
O O4 0.520787 0.330979 0.664586
O O5 0.250000 0.729133 0.930226
O O6 0.022927 0.715203 0.819800
O O7 0.011345 0.775377 0.953906
O O8 0.013008 0.693503 0.000607
O O9 0.250000 0.459240 0.566669
O O10 0.041224 0.446468 0.439595
O O11 0.000000 0.500000 0.583301
O O12 0.750000 0.799915 0.901096
O O13 0.978496 0.832609 0.818338
O O14 0.750000 0.209329 0.566504
O O15 0.931357 0.153706 0.651147
O O16 0.978566 0.241443 0.657360
O O17 0.750000 0.643452 0.293833
O O18 0.961538 0.585201 0.266979
O O19 0.500000 0.500000 0.292955
O O20 0.750000 0.531643 0.323021
O O21 0.750000 0.284420 0.708604
#
# Coordination Sequence:
#
# PCOD8182929 Si02
#       8
#     8   8   8   8   8   8   8   8
#     4  10  19  32  48  68  95 131 167 198 240 288
#     4  11  21  34  50  69  97 132 169 206 244 287
#     4  10  19  31  48  71  99 127 159 196 238 288
#     4  11  20  29  47  72  99 130 167 204 241 283
#     4  10  19  34  51  69  97 131 165 203 247 289
#     4  10  19  33  50  69  98 135 168 199 244 290
#     4   9  18  30  46  69  96 128 160 194 238 289
#     4   9  18  33  50  67  94 132 164 197 246 291
#
# _framework density 16.299706
#
# number of rings (size 3 to 8) (size 9 to 14) (size 15 to 20)
#    0.000    2.000    3.750    1.125    0.000    2.000 
#    0.000    1.250    0.000    0.000    0.000    0.875 
#    0.000    4.000    0.000    0.000    0.000    0.000 
#
# Total GULP energy -396783.040165 kJ/mol
# GULP energy per Si atom -12399.470005 kJ/mol
# Density = 1.626261 g / cm^3
# Si number density = 16.299706 Si / 1000 Ang^3
#
#
#
# Elastic Constant Matrix: (Units=GPa)
#
#
# Indices 1 2 3 4 5 6 
#
# 1 63.7978 34.1506 27.3561 0.0000 0.0000 0.0000
# 2 34.1506 102.9810 27.4337 0.0000 0.0000 0.0000
# 3 27.3561 27.4337 70.8827 0.0000 0.0000 0.0000
# 4 0.0000 0.0000 0.0000 24.1773 0.0000 0.0000
# 5 0.0000 0.0000 0.0000 0.0000 22.0579 0.0000
# 6 0.0000 0.0000 0.0000 0.0000 0.0000 26.8271
#
#
#
# Elastic Compliance Matrix: (Units=1/GPa)
#
#
# Indices 1 2 3 4 5 6 
#
# 1 0.021173 -0.005402 -0.006081 0.000000 0.000000 0.000000
# 2 -0.005402 0.012205 -0.002639 0.000000 0.000000 0.000000
# 3 -0.006081 -0.002639 0.017476 0.000000 0.000000 0.000000
# 4 0.000000 0.000000 0.000000 0.041361 0.000000 0.000000
# 5 0.000000 0.000000 0.000000 0.000000 0.045335 0.000000
# 6 0.000000 0.000000 0.000000 0.000000 0.000000 0.037276
#
#
# Mechanical properties :
#
#
# Convention : Reuss Voigt Hill
#
# Bulk Modulus (GPa) = 44.22585 46.17136 45.19860
# Shear Modulus (GPa) = 23.74095 24.52721 24.13408
#
# Velocity S-wave (km/s) = 3.82059 3.88334 3.85209
# Velocity P-wave (km/s) = 6.83040 6.96384 6.89744
#
# Compressibility (1/GPa) = 0.02261121
#
# Stress axis : x y z
#
# Youngs Moduli (GPa) = 47.22893 81.93483 57.22120
#
# Poissons Ratio (x) = 0.44258 0.34796
# Poissons Ratio (y) = 0.25511 0.15100
# Poissons Ratio (z) = 0.28720 0.21622
#
# Static dielectric constant tensor:
#      x y z
#    x 3.026200 0.000000 0.000000 
#    y 0.000000 3.120250 0.000000 
#    z 0.000000 0.000000 2.950510 
# 
# 
# High freq. dielectric constant tensor:
#      x y z
#    x 1.623290 0.000000 0.000000 
#    y 0.000000 1.617610 0.000000 
#    z 0.000000 0.000000 1.597860 
# 
# From -- ./inp_files/15857.got.cif
#   From: 2010.03.12/outbox.cif.g09.slc.cpg/sg40_8_cif.got.tgz:15857.got - 2010.04.14 01:38:03.
