data_PCOD8182266
_publ_section_title
;
Structure prediction by ZEFSAII (Michael W. Deem and Ramdas Pophale) SiO2 
 PCOD8182266
Probable space group: A B M 2
;
_chemical_formula_sum "Si O2"
_cell_formula_units_Z 40
_cell_length_a 6.759644
_cell_length_b 20.238083
_cell_length_c 13.006612
_cell_angle_alpha 90.000000
_cell_angle_beta 90.000000
_cell_angle_gamma 90.000000
_cell_volume 1779.333609
_symmetry_space_group_name_H-M "A B M 2"
_symmetry_group_IT_number 39
_symmetry_cell_setting 'orthorhombic'
loop_
_space_group_symop_operation_xyz
x,y,z
-x,-y,z
-x,1/2+y,z
x,1/2-y,z
x,1/2+y,1/2+z
-x,1/2-y,1/2+z
-x,y,1/2+z
x,-y,1/2+z
loop_
_atom_site_type_symbol
_atom_site_label
_atom_site_fract_x
_atom_site_fract_y
_atom_site_fract_z
Si Si1 0.756649 0.250000 0.754810
Si Si2 0.521955 0.250000 0.408153
Si Si3 0.949833 0.355551 0.180841
Si Si4 0.826312 0.955143 0.044487
Si Si5 0.330136 0.106118 0.843709
Si Si6 0.500000 0.500000 0.701939
Si Si7 0.629802 0.750000 0.627651
O O1 0.712479 0.250000 0.877216
O O2 0.526955 0.250000 0.719104
O O3 0.870983 0.186148 0.723465
O O4 0.625459 0.316686 0.364578
O O5 0.517848 0.250000 0.530651
O O6 0.872406 0.397981 0.277670
O O7 0.766890 0.314701 0.132695
O O8 0.049562 0.395577 0.090955
O O9 0.693818 0.992571 0.130011
O O10 0.687733 0.930790 0.952309
O O11 0.000000 0.000000 0.998155
O O12 0.489370 0.065718 0.774009
#
# Coordination Sequence:
#
# PCOD8182266 Si02
#       7
#     4   4   8   8   8   4   4
#     4  11  22  45  70 100 148 188 236 306 375 436
#     4  12  25  44  79 111 147 197 245 307 386 449
#     4  11  25  46  70 105 147 192 249 307 374 446
#     4  12  28  47  75 109 147 202 255 309 379 455
#     4  12  27  48  79 110 153 195 258 308 385 457
#     4  12  28  54  76 110 156 204 248 324 376 458
#     4  11  25  45  69 107 147 195 241 311 373 453
#
# _framework density 22.480326000000002
#
# number of rings (size 3 to 8) (size 9 to 14) (size 15 to 20)
#    0.000    0.400    4.000    3.600    8.400    2.400 
#    0.000    0.000    0.000    0.000    0.000    0.000 
#    0.000    0.000    0.000    0.000    0.000    0.000 
#
# Total GULP energy -247880.095992 kJ/mol
# GULP energy per Si atom -12394.004800 kJ/mol
# Density = 2.242916 g / cm^3
# Si number density = 22.480326 Si / 1000 Ang^3
#
#
#
# Elastic Constant Matrix: (Units=GPa)
#
#
# Indices 1 2 3 4 5 6 
#
# 1 94.2597 22.1498 26.4107 0.0000 0.0000 0.0000
# 2 22.1498 98.5578 36.1538 0.0000 0.0000 0.0000
# 3 26.4107 36.1538 118.1307 0.0000 0.0000 0.0000
# 4 0.0000 0.0000 0.0000 23.1844 0.0000 0.0000
# 5 0.0000 0.0000 0.0000 0.0000 29.0205 0.0000
# 6 0.0000 0.0000 0.0000 0.0000 0.0000 -51.7906
#
#
#
# Elastic Compliance Matrix: (Units=1/GPa)
#
#
# Indices 1 2 3 4 5 6 
#
# 1 0.011615 -0.001867 -0.002025 0.000000 0.000000 0.000000
# 2 -0.001867 0.011730 -0.003172 0.000000 0.000000 0.000000
# 3 -0.002025 -0.003172 0.009889 0.000000 0.000000 0.000000
# 4 0.000000 0.000000 0.000000 0.043132 0.000000 0.000000
# 5 0.000000 0.000000 0.000000 0.000000 0.034458 0.000000
# 6 0.000000 0.000000 0.000000 0.000000 0.000000 -0.019309
#
#
# Mechanical properties :
#
#
# Convention : Reuss Voigt Hill
#
# Bulk Modulus (GPa) = 52.34606 53.37521 52.86064
# Shear Modulus (GPa) = 44.63712 15.16512 29.90112
#
# Velocity S-wave (km/s) = 4.46085 2.60011 3.65101
# Velocity P-wave (km/s) = 7.06173 5.72789 6.42950
#
# Compressibility (1/GPa) = 0.01910364
#
# Stress axis : x y z
#
# Youngs Moduli (GPa) = 86.09337 85.25342 101.12341
#
# Poissons Ratio (x) = 0.15921 0.20481
# Poissons Ratio (y) = 0.16078 0.32080
# Poissons Ratio (z) = 0.17437 0.27046
#
# Static dielectric constant tensor:
#      x y z
#    x 4.206090 0.000000 0.000000 
#    y 0.000000 5.573480 0.000000 
#    z 0.000000 0.000000 4.110970 
# 
# 
# High freq. dielectric constant tensor:
#      x y z
#    x 1.888470 0.000000 0.000000 
#    y 0.000000 1.896350 0.000000 
#    z 0.000000 0.000000 1.898430 
# 
# From -- ./inp_files/7439.got.cif
#   From: 2010.03.12/outbox.cif.g09.slc.cpg/sg39_4_cif.got.tgz:7439.got - 2010.04.14 02:53:20.
