data_PCOD8182070
_publ_section_title
;
Structure prediction by ZEFSAII (Michael W. Deem and Ramdas Pophale) SiO2 
 PCOD8182070
Probable space group: A B M 2
;
_chemical_formula_sum "Si O2"
_cell_formula_units_Z 64
_cell_length_a 35.035567
_cell_length_b 9.132491
_cell_length_c 9.957517
_cell_angle_alpha 90.000000
_cell_angle_beta 90.000000
_cell_angle_gamma 90.000000
_cell_volume 3186.027057
_symmetry_space_group_name_H-M "A B M 2"
_symmetry_group_IT_number 39
_symmetry_cell_setting 'orthorhombic'
loop_
_space_group_symop_operation_xyz
x,y,z
-x,-y,z
-x,1/2+y,z
x,1/2-y,z
x,1/2+y,1/2+z
-x,1/2-y,1/2+z
-x,y,1/2+z
x,-y,1/2+z
loop_
_atom_site_type_symbol
_atom_site_label
_atom_site_fract_x
_atom_site_fract_y
_atom_site_fract_z
Si Si1 0.668813 0.417751 0.732760
Si Si2 0.539701 0.079176 0.488989
Si Si3 0.582188 0.419358 0.761091
Si Si4 0.960299 0.420824 0.946203
Si Si5 0.917812 0.580642 0.174100
Si Si6 0.831188 0.582249 0.202432
Si Si7 0.711380 0.580903 0.503077
Si Si8 0.788620 0.919097 0.932115
O O1 0.675697 0.250000 0.689264
O O2 0.624740 0.462137 0.716028
O O3 0.694518 0.519791 0.640650
O O4 0.680442 0.443372 0.886607
O O5 0.534097 0.250000 0.461841
O O6 0.553632 0.047480 0.639214
O O7 0.500000 0.000000 0.462885
O O8 0.570998 0.018884 0.386367
O O9 0.580428 0.250000 0.804944
O O10 0.965903 0.250000 0.973350
O O11 0.929002 0.481116 0.048824
O O12 0.000000 0.500000 0.972307
O O13 0.946368 0.452520 0.795978
O O14 0.919572 0.750000 0.130247
O O15 0.875260 0.537863 0.219163
O O16 0.824303 0.750000 0.245928
O O17 0.805482 0.480208 0.294542
O O18 0.819558 0.556628 0.048585
O O19 0.721068 0.750000 0.524385
O O20 0.750000 0.500000 0.467596
O O21 0.778932 0.750000 0.910807
#
# Coordination Sequence:
#
# PCOD8182070 Si02
#       8
#     8   8   8   8   8   8   8   8
#     4  10  22  40  60  85 117 150 189 238 288 340
#     4  11  23  38  59  86 115 150 190 232 281 337
#     4  10  22  40  61  86 116 150 190 237 287 340
#     4  11  23  38  59  86 115 150 190 232 281 337
#     4  10  22  40  61  86 116 150 190 237 287 340
#     4  10  22  40  60  85 117 150 189 238 288 340
#     4  11  23  38  59  86 116 153 194 237 287 342
#     4  11  23  38  59  86 116 153 194 237 287 342
#
# _framework density 20.087713000000001
#
# number of rings (size 3 to 8) (size 9 to 14) (size 15 to 20)
#    0.000    1.500    0.000    4.500    0.000   10.000 
#    0.000    0.000    0.000    0.000    0.000    0.000 
#    0.000    0.000    0.000    0.000    0.000    0.000 
#
# Total GULP energy -397045.349655 kJ/mol
# GULP energy per Si atom -12407.667177 kJ/mol
# Density = 2.004199 g / cm^3
# Si number density = 20.087713 Si / 1000 Ang^3
#
#
#
# Elastic Constant Matrix: (Units=GPa)
#
#
# Indices 1 2 3 4 5 6 
#
# 1 90.8061 40.0173 7.4805 0.0000 0.0000 0.0000
# 2 40.0173 105.0604 43.1883 0.0000 0.0000 0.0000
# 3 7.4805 43.1883 62.1110 0.0000 0.0000 0.0000
# 4 0.0000 0.0000 0.0000 37.5930 0.0000 0.0000
# 5 0.0000 0.0000 0.0000 0.0000 34.8992 0.0000
# 6 0.0000 0.0000 0.0000 0.0000 0.0000 35.3414
#
#
#
# Elastic Compliance Matrix: (Units=1/GPa)
#
#
# Indices 1 2 3 4 5 6 
#
# 1 0.013559 -0.006292 0.002742 0.000000 0.000000 0.000000
# 2 -0.006292 0.016248 -0.010540 0.000000 0.000000 0.000000
# 3 0.002742 -0.010540 0.023099 0.000000 0.000000 0.000000
# 4 0.000000 0.000000 0.000000 0.026601 0.000000 0.000000
# 5 0.000000 0.000000 0.000000 0.000000 0.028654 0.000000
# 6 0.000000 0.000000 0.000000 0.000000 0.000000 0.028295
#
#
# Mechanical properties :
#
#
# Convention : Reuss Voigt Hill
#
# Bulk Modulus (GPa) = 40.44299 48.81663 44.62981
# Shear Modulus (GPa) = 28.92220 32.71947 30.82084
#
# Velocity S-wave (km/s) = 3.79858 4.04025 3.92128
# Velocity P-wave (km/s) = 6.27820 6.79112 6.53970
#
# Compressibility (1/GPa) = 0.02472616
#
# Stress axis : x y z
#
# Youngs Moduli (GPa) = 73.74978 61.54746 43.29233
#
# Poissons Ratio (x) = 0.38725 -0.11870
# Poissons Ratio (y) = 0.46403 0.45629
# Poissons Ratio (z) = -0.20222 0.64870
#
# Static dielectric constant tensor:
#      x y z
#    x 3.868740 0.000000 0.000000 
#    y 0.000000 3.779380 0.000000 
#    z 0.000000 0.000000 3.657250 
# 
# 
# High freq. dielectric constant tensor:
#      x y z
#    x 1.799450 0.000000 0.000000 
#    y 0.000000 1.788680 0.000000 
#    z 0.000000 0.000000 1.791640 
# 
# From -- ./inp_files/7090.got.cif
#   From: 2010.03.12/outbox.cif.g09.slc.cpg/sg39_4_cif.got.tgz:7090.got - 2010.04.14 02:53:20.
