data_PCOD8182045
_publ_section_title
;
Structure prediction by ZEFSAII (Michael W. Deem and Ramdas Pophale) SiO2 
 PCOD8182045
Probable space group: A B M 2
;
_chemical_formula_sum "Si O2"
_cell_formula_units_Z 64
_cell_length_a 14.202673
_cell_length_b 23.312232
_cell_length_c 9.308486
_cell_angle_alpha 90.000000
_cell_angle_beta 90.000000
_cell_angle_gamma 90.000000
_cell_volume 3082.002555
_symmetry_space_group_name_H-M "A B M 2"
_symmetry_group_IT_number 39
_symmetry_cell_setting 'orthorhombic'
loop_
_space_group_symop_operation_xyz
x,y,z
-x,-y,z
-x,1/2+y,z
x,1/2-y,z
x,1/2+y,1/2+z
-x,1/2-y,1/2+z
-x,y,1/2+z
x,-y,1/2+z
loop_
_atom_site_type_symbol
_atom_site_label
_atom_site_fract_x
_atom_site_fract_y
_atom_site_fract_z
Si Si1 0.212728 0.004809 0.712440
Si Si2 0.110765 0.099228 0.115906
Si Si3 0.959886 0.562700 0.832739
Si Si4 0.357085 0.814121 0.936051
Si Si5 0.442162 0.134507 0.984703
Si Si6 0.520114 0.563232 0.263948
Si Si7 0.721635 0.186643 0.626199
Si Si8 0.693163 0.564707 0.466647
O O1 0.139592 0.054953 0.751242
O O2 0.298960 0.033284 0.622095
O O3 0.163196 0.961737 0.602050
O O4 0.240341 0.966338 0.850308
O O5 0.185876 0.148588 0.143457
O O6 0.034279 0.098654 0.241392
O O7 0.055394 0.104809 0.966839
O O8 0.000000 0.500000 0.876492
O O9 0.327739 0.750000 0.992689
O O10 0.346496 0.816384 0.764338
O O11 0.289707 0.866417 0.993301
O O12 0.466494 0.824282 0.977669
O O13 0.439601 0.095311 0.127085
O O14 0.344756 0.169804 0.991395
O O15 0.432216 0.096467 0.837956
O O16 0.500000 0.500000 0.210162
O O17 0.588601 0.561372 0.403598
O O18 0.760811 0.250000 0.600296
#
# Coordination Sequence:
#
# PCOD8182045 Si02
#       8
#     8   8   8   8   8   8   8   8
#     4  11  21  37  63  96 132 166 207 263 330 405
#     4  11  22  40  63  96 129 167 215 264 340 396
#     4  10  22  38  65  97 129 166 205 263 331 414
#     4  10  22  41  64  91 125 174 230 273 319 380
#     4  11  21  44  61  90 123 174 220 264 321 389
#     4  11  25  35  58  92 135 171 211 261 330 396
#     4  11  23  43  67  91 123 171 228 281 329 389
#     4  11  23  38  60  95 134 172 213 271 334 390
#
# _framework density 20.765720000000002
#
# number of rings (size 3 to 8) (size 9 to 14) (size 15 to 20)
#    0.000    1.250    5.000    1.875    8.750    0.000 
#    0.000    0.625    0.000    0.750    0.000    0.000 
#    0.000    0.000    0.000    0.000    0.000    0.000 
#
# Total GULP energy -396523.260777 kJ/mol
# GULP energy per Si atom -12391.351899 kJ/mol
# Density = 2.071846 g / cm^3
# Si number density = 20.765720 Si / 1000 Ang^3
#
#
#
# Elastic Constant Matrix: (Units=GPa)
#
#
# Indices 1 2 3 4 5 6 
#
# 1 99.0103 47.5613 38.7517 0.0000 0.0000 0.0000
# 2 47.5613 122.2420 48.1089 0.0000 0.0000 0.0000
# 3 38.7517 48.1089 64.4882 0.0000 0.0000 0.0000
# 4 0.0000 0.0000 0.0000 16.1365 0.0000 0.0000
# 5 0.0000 0.0000 0.0000 0.0000 37.2828 0.0000
# 6 0.0000 0.0000 0.0000 0.0000 0.0000 25.2063
#
#
#
# Elastic Compliance Matrix: (Units=1/GPa)
#
#
# Indices 1 2 3 4 5 6 
#
# 1 0.013948 -0.003013 -0.006134 0.000000 0.000000 0.000000
# 2 -0.003013 0.012231 -0.007314 0.000000 0.000000 0.000000
# 3 -0.006134 -0.007314 0.024649 0.000000 0.000000 0.000000
# 4 0.000000 0.000000 0.000000 0.061971 0.000000 0.000000
# 5 0.000000 0.000000 0.000000 0.000000 0.026822 0.000000
# 6 0.000000 0.000000 0.000000 0.000000 0.000000 0.039673
#
#
# Mechanical properties :
#
#
# Convention : Reuss Voigt Hill
#
# Bulk Modulus (GPa) = 55.84567 61.62047 58.73307
# Shear Modulus (GPa) = 22.91635 25.81304 24.36469
#
# Velocity S-wave (km/s) = 3.32560 3.52953 3.42908
# Velocity P-wave (km/s) = 6.45738 6.80799 6.63500
#
# Compressibility (1/GPa) = 0.01790649
#
# Stress axis : x y z
#
# Youngs Moduli (GPa) = 71.69514 81.75792 40.56936
#
# Poissons Ratio (x) = 0.24632 0.24885
# Poissons Ratio (y) = 0.21600 0.29673
# Poissons Ratio (z) = 0.43977 0.59800
#
# Static dielectric constant tensor:
#      x y z
#    x 3.688460 0.000000 0.000000 
#    y 0.000000 4.006000 0.000000 
#    z 0.000000 0.000000 3.688100 
# 
# 
# High freq. dielectric constant tensor:
#      x y z
#    x 1.798550 0.000000 0.000000 
#    y 0.000000 1.799810 0.000000 
#    z 0.000000 0.000000 1.810080 
# 
# From -- ./inp_files/3532.got.cif
#   From: 2010.03.12/outbox.cif.g09.slc.cpg/sg39_2_cif.got.tgz:3532.got - 2010.04.14 02:53:20.
