data_PCOD8182652
_publ_section_title
;
Structure prediction by ZEFSAII (Michael W. Deem and Ramdas Pophale) SiO2 
 PCOD8182652
Probable space group: A M A 2
;
_chemical_formula_sum "Si O2"
_cell_formula_units_Z 48
_cell_length_a 18.574816
_cell_length_b 16.629215
_cell_length_c 8.445171
_cell_angle_alpha 90.000000
_cell_angle_beta 90.000000
_cell_angle_gamma 90.000000
_cell_volume 2608.583341
_symmetry_space_group_name_H-M "A M A 2"
_symmetry_group_IT_number 40
_symmetry_cell_setting 'orthorhombic'
loop_
_space_group_symop_operation_xyz
x,y,z
-x,-y,z
1/2-x,y,z
1/2+x,-y,z
x,1/2+y,1/2+z
-x,1/2-y,1/2+z
1/2-x,1/2+y,1/2+z
1/2+x,1/2-y,1/2+z
loop_
_atom_site_type_symbol
_atom_site_label
_atom_site_fract_x
_atom_site_fract_y
_atom_site_fract_z
Si Si1 0.417958 0.073937 0.801400
Si Si2 0.560481 0.255166 0.900296
Si Si3 0.668095 0.785599 0.672267
Si Si4 0.833443 0.692505 0.976411
Si Si5 0.926461 0.100365 0.704930
Si Si6 0.567817 0.319824 0.578413
O O1 0.352135 0.131105 0.757996
O O2 0.486727 0.092257 0.686721
O O3 0.395252 0.981406 0.783062
O O4 0.437032 0.094350 0.987344
O O5 0.589236 0.172789 0.823961
O O6 0.548125 0.324176 0.764776
O O7 0.622789 0.281903 0.014902
O O8 0.486089 0.243801 0.993263
O O9 0.750000 0.790658 0.620386
O O10 0.654573 0.708894 0.788101
O O11 0.750000 0.672657 0.012401
O O12 0.884168 0.619133 0.040132
O O13 0.854295 0.776590 0.063428
#
# Coordination Sequence:
#
# PCOD8182652 Si02
#       6
#     8   8   8   8   8   8
#     4   9  18  34  52  76 104 131 165 206 257 310
#     4  10  18  31  52  74 100 133 173 215 255 304
#     4  10  20  33  50  73 102 135 172 214 256 302
#     4   9  17  30  49  72  98 131 170 206 246 300
#     4   9  18  32  54  77 100 131 167 209 254 308
#     4   9  17  30  51  74 100 133 169 210 254 304
#
# _framework density 18.400793
#
# number of rings (size 3 to 8) (size 9 to 14) (size 15 to 20)
#    0.000    2.667    0.000    4.000    0.000    3.333 
#    0.000    1.667    0.000   10.000    0.000    0.000 
#    0.000    0.000    0.000    0.000    0.000    0.000 
#
# Total GULP energy -297331.948880 kJ/mol
# GULP energy per Si atom -12388.831203 kJ/mol
# Density = 1.835891 g / cm^3
# Si number density = 18.400793 Si / 1000 Ang^3
#
#
#
# Elastic Constant Matrix: (Units=GPa)
#
#
# Indices 1 2 3 4 5 6 
#
# 1 71.1329 23.3749 43.7152 0.0000 0.0000 0.0000
# 2 23.3749 88.2926 28.8258 0.0000 0.0000 0.0000
# 3 43.7152 28.8258 107.8338 0.0000 0.0000 0.0000
# 4 0.0000 0.0000 0.0000 24.0416 0.0000 0.0000
# 5 0.0000 0.0000 0.0000 0.0000 25.3645 0.0000
# 6 0.0000 0.0000 0.0000 0.0000 0.0000 16.4448
#
#
#
# Elastic Compliance Matrix: (Units=1/GPa)
#
#
# Indices 1 2 3 4 5 6 
#
# 1 0.019337 -0.002805 -0.007089 0.000000 0.000000 0.000000
# 2 -0.002805 0.012816 -0.002289 0.000000 0.000000 0.000000
# 3 -0.007089 -0.002289 0.012759 0.000000 0.000000 0.000000
# 4 0.000000 0.000000 0.000000 0.041595 0.000000 0.000000
# 5 0.000000 0.000000 0.000000 0.000000 0.039425 0.000000
# 6 0.000000 0.000000 0.000000 0.000000 0.000000 0.060809
#
#
# Mechanical properties :
#
#
# Convention : Reuss Voigt Hill
#
# Bulk Modulus (GPa) = 48.67108 51.01012 49.84060
# Shear Modulus (GPa) = 22.94052 24.59308 23.76680
#
# Velocity S-wave (km/s) = 3.53471 3.65981 3.59781
# Velocity P-wave (km/s) = 6.57015 6.75580 6.66362
#
# Compressibility (1/GPa) = 0.02054608
#
# Stress axis : x y z
#
# Youngs Moduli (GPa) = 51.71549 78.02879 78.37428
#
# Poissons Ratio (x) = 0.21885 0.55561
# Poissons Ratio (y) = 0.14505 0.17939
# Poissons Ratio (z) = 0.36662 0.17860
#
# Static dielectric constant tensor:
#      x y z
#    x 3.431340 0.000000 0.000000 
#    y 0.000000 3.252030 0.000000 
#    z 0.000000 0.000000 3.496410 
# 
# 
# High freq. dielectric constant tensor:
#      x y z
#    x 1.709960 0.000000 0.000000 
#    y 0.000000 1.682340 0.000000 
#    z 0.000000 0.000000 1.706810 
# 
# From -- ./inp_files/7590.got.cif
#   From: 2010.03.12/outbox.cif.g09.slc.cpg/sg40_4_cif.got.tgz:7590.got - 2010.04.14 01:38:03.
