data_PCOD8182015
_publ_section_title
;
Structure prediction by ZEFSAII (Michael W. Deem and Ramdas Pophale) SiO2 
 PCOD8182015
Probable space group: A B M 2
;
_chemical_formula_sum "Si O2"
_cell_formula_units_Z 36
_cell_length_a 5.435658
_cell_length_b 24.151118
_cell_length_c 13.421977
_cell_angle_alpha 90.000000
_cell_angle_beta 90.000000
_cell_angle_gamma 90.000000
_cell_volume 1761.999797
_symmetry_space_group_name_H-M "A B M 2"
_symmetry_group_IT_number 39
_symmetry_cell_setting 'orthorhombic'
loop_
_space_group_symop_operation_xyz
x,y,z
-x,-y,z
-x,1/2+y,z
x,1/2-y,z
x,1/2+y,1/2+z
-x,1/2-y,1/2+z
-x,y,1/2+z
x,-y,1/2+z
loop_
_atom_site_type_symbol
_atom_site_label
_atom_site_fract_x
_atom_site_fract_y
_atom_site_fract_z
Si Si1 0.023157 0.353684 0.700530
Si Si2 0.500000 0.000000 0.676388
Si Si3 0.482478 0.688314 0.643795
Si Si4 0.852370 0.554171 0.331224
Si Si5 0.707719 0.906990 0.542411
O O1 0.769343 0.319313 0.707115
O O2 0.035223 0.399645 0.787555
O O3 0.272974 0.317071 0.714561
O O4 0.039294 0.382413 0.589996
O O5 0.657622 0.040627 0.745575
O O6 0.336466 0.037559 0.605253
O O7 0.479381 0.750000 0.596805
O O8 0.497235 0.640517 0.558612
O O9 0.717004 0.579091 0.426863
O O10 0.000000 0.500000 0.365084
#
# Coordination Sequence:
#
# PCOD8182015 Si02
#       5
#     8   4   8   8   8
#     4  10  22  43  64  95 134 164 224 271 328 392
#     4  12  22  44  62 100 136 174 218 276 330 410
#     4  10  21  44  70  90 131 177 218 281 336 382
#     4  12  23  39  65  97 136 178 219 270 339 404
#     4  10  25  38  66  96 135 173 221 269 336 393
#
# _framework density 20.431329999999999
#
# number of rings (size 3 to 8) (size 9 to 14) (size 15 to 20)
#    1.333    0.000    4.444    1.333    3.111    1.778 
#    0.000    2.222    0.000    0.000    0.000    0.000 
#    0.000    0.000    0.000    0.000    0.000    0.000 
#
# Total GULP energy -222984.863070 kJ/mol
# GULP energy per Si atom -12388.047948 kJ/mol
# Density = 2.038483 g / cm^3
# Si number density = 20.431330 Si / 1000 Ang^3
#
#
#
# Elastic Constant Matrix: (Units=GPa)
#
#
# Indices 1 2 3 4 5 6 
#
# 1 127.3535 33.0791 17.7829 0.0000 0.0000 0.0000
# 2 33.0791 115.1424 35.9122 0.0000 0.0000 0.0000
# 3 17.7829 35.9122 81.9840 0.0000 0.0000 0.0000
# 4 0.0000 0.0000 0.0000 -0.0473 0.0000 0.0000
# 5 0.0000 0.0000 0.0000 0.0000 15.8241 0.0000
# 6 0.0000 0.0000 0.0000 0.0000 0.0000 23.5875
#
#
#
# Elastic Compliance Matrix: (Units=1/GPa)
#
#
# Indices 1 2 3 4 5 6 
#
# 1 0.008542 -0.002173 -0.000901 0.000000 0.000000 0.000000
# 2 -0.002173 0.010612 -0.004177 0.000000 0.000000 0.000000
# 3 -0.000901 -0.004177 0.014223 0.000000 0.000000 0.000000
# 4 0.000000 0.000000 0.000000-21.157898 0.000000 0.000000
# 5 0.000000 0.000000 0.000000 0.000000 0.063195 0.000000
# 6 0.000000 0.000000 0.000000 0.000000 0.000000 0.042395
#
#
# Mechanical properties :
#
#
# Convention : Reuss Voigt Hill
#
# Bulk Modulus (GPa) = 52.98114 55.33649 54.15881
# Shear Modulus (GPa) = -0.23812 23.71989 11.74089
#
# Velocity S-wave (km/s) = -0.34176 3.41098 2.39979
# Velocity P-wave (km/s) = 5.08251 6.53115 5.85183
#
# Compressibility (1/GPa) = 0.01887464
#
# Stress axis : x y z
#
# Youngs Moduli (GPa) = 117.06281 94.23264 70.31025
#
# Poissons Ratio (x) = 0.20478 0.06335
# Poissons Ratio (y) = 0.25439 0.29369
# Poissons Ratio (z) = 0.10547 0.39362
#
# Static dielectric constant tensor:
#      x y z
#    x 3.660020 0.000000 0.000000 
#    y 0.000000 3.766010 0.000000 
#    z 0.000000 0.000000 3.255540 
# 
# 
# High freq. dielectric constant tensor:
#      x y z
#    x 1.800700 0.000000 0.000000 
#    y 0.000000 1.805620 0.000000 
#    z 0.000000 0.000000 1.758600 
# 
# From -- ./inp_files/4483.got.cif
#   From: 2010.03.12/outbox.cif.g09.slc.cpg/sg39_3_cif.got.tgz:4483.got - 2010.04.14 02:53:20.
