data_PCOD8182570
_publ_section_title
;
Structure prediction by ZEFSAII (Michael W. Deem and Ramdas Pophale) SiO2 
 PCOD8182570
Probable space group: A M A 2
;
_chemical_formula_sum "Si O2"
_cell_formula_units_Z 64
_cell_length_a 8.954904
_cell_length_b 33.433575
_cell_length_c 11.808635
_cell_angle_alpha 90.000000
_cell_angle_beta 90.000000
_cell_angle_gamma 90.000000
_cell_volume 3535.439834
_symmetry_space_group_name_H-M "A M A 2"
_symmetry_group_IT_number 40
_symmetry_cell_setting 'orthorhombic'
loop_
_space_group_symop_operation_xyz
x,y,z
-x,-y,z
1/2-x,y,z
1/2+x,-y,z
x,1/2+y,1/2+z
-x,1/2-y,1/2+z
1/2-x,1/2+y,1/2+z
1/2+x,1/2-y,1/2+z
loop_
_atom_site_type_symbol
_atom_site_label
_atom_site_fract_x
_atom_site_fract_y
_atom_site_fract_z
Si Si1 0.922673 0.039511 0.648690
Si Si2 0.074385 0.458903 0.886852
Si Si3 0.081724 0.613609 0.217184
Si Si4 0.574488 0.125970 0.306200
Si Si5 0.422294 0.762570 0.688340
Si Si6 0.578634 0.165053 0.536125
Si Si7 0.078487 0.184702 0.873792
Si Si8 0.926683 0.184674 0.114182
O O1 0.750000 0.033548 0.664805
O O2 0.966299 0.047973 0.518324
O O3 0.976606 0.075308 0.728609
O O4 0.000000 0.000000 0.694770
O O5 0.250000 0.463747 0.868960
O O6 0.009844 0.419292 0.822203
O O7 0.000000 0.500000 0.841070
O O8 0.250000 0.599197 0.196064
O O9 0.067563 0.639167 0.331340
O O10 0.033192 0.639772 0.111038
O O11 0.750000 0.121132 0.308420
O O12 0.529763 0.156866 0.406801
O O13 0.523503 0.145981 0.188309
O O14 0.250000 0.749980 0.705787
O O15 0.438791 0.788455 0.572067
O O16 0.474609 0.787441 0.797179
O O17 0.528762 0.724390 0.682063
O O18 0.750000 0.150920 0.557527
O O19 0.250000 0.199979 0.870300
O O20 0.019527 0.184285 0.000175
O O21 0.750000 0.184630 0.091026
#
# Coordination Sequence:
#
# PCOD8182570 Si02
#       8
#     8   8   8   8   8   8   8   8
#     4  10  18  29  49  77 111 143 172 214 267 328
#     4   9  17  31  51  76 108 142 174 212 266 324
#     4  10  19  32  52  77 104 138 177 223 270 315
#     4   9  18  34  54  78 108 145 180 217 269 330
#     4  10  21  36  58  83 108 141 182 226 279 334
#     4   9  17  33  54  75 103 142 177 212 267 330
#     4  10  22  40  57  75 107 145 185 231 274 321
#     4  11  23  37  57  81 108 144 188 231 275 330
#
# _framework density 18.102414
#
# number of rings (size 3 to 8) (size 9 to 14) (size 15 to 20)
#    0.000    2.250    1.250    1.875    1.750    2.500 
#    0.000    2.500    0.000    0.750    0.000    3.500 
#    0.000    0.000    0.000    0.000    0.000    0.000 
#
# Total GULP energy -396717.940631 kJ/mol
# GULP energy per Si atom -12397.435645 kJ/mol
# Density = 1.806121 g / cm^3
# Si number density = 18.102414 Si / 1000 Ang^3
#
#
#
# Elastic Constant Matrix: (Units=GPa)
#
#
# Indices 1 2 3 4 5 6 
#
# 1 51.7476 28.4107 15.0479 0.0000 0.0000 0.0000
# 2 28.4107 108.6849 30.0934 0.0000 0.0000 0.0000
# 3 15.0479 30.0934 72.2672 0.0000 0.0000 0.0000
# 4 0.0000 0.0000 0.0000 20.6734 0.0000 0.0000
# 5 0.0000 0.0000 0.0000 0.0000 19.4238 0.0000
# 6 0.0000 0.0000 0.0000 0.0000 0.0000 33.0861
#
#
#
# Elastic Compliance Matrix: (Units=1/GPa)
#
#
# Indices 1 2 3 4 5 6 
#
# 1 0.022981 -0.005293 -0.002581 0.000000 0.000000 0.000000
# 2 -0.005293 0.011619 -0.003736 0.000000 0.000000 0.000000
# 3 -0.002581 -0.003736 0.015931 0.000000 0.000000 0.000000
# 4 0.000000 0.000000 0.000000 0.048371 0.000000 0.000000
# 5 0.000000 0.000000 0.000000 0.000000 0.051483 0.000000
# 6 0.000000 0.000000 0.000000 0.000000 0.000000 0.030224
#
#
# Mechanical properties :
#
#
# Convention : Reuss Voigt Hill
#
# Bulk Modulus (GPa) = 36.61605 42.20041 39.40823
# Shear Modulus (GPa) = 23.48155 25.24652 24.36404
#
# Velocity S-wave (km/s) = 3.60550 3.73855 3.67263
# Velocity P-wave (km/s) = 6.13221 6.48061 6.30882
#
# Compressibility (1/GPa) = 0.02731043
#
# Stress axis : x y z
#
# Youngs Moduli (GPa) = 43.51435 86.06633 62.77117
#
# Poissons Ratio (x) = 0.45551 0.16203
# Poissons Ratio (y) = 0.23030 0.23453
# Poissons Ratio (z) = 0.11232 0.32157
#
# Static dielectric constant tensor:
#      x y z
#    x 3.296390 0.000000 0.000000 
#    y 0.000000 3.692370 0.000000 
#    z 0.000000 0.000000 3.211730 
# 
# 
# High freq. dielectric constant tensor:
#      x y z
#    x 1.700140 0.000000 0.000000 
#    y 0.000000 1.706620 0.000000 
#    z 0.000000 0.000000 1.671440 
# 
# From -- ./inp_files/10661.got.cif
#   From: 2010.03.12/outbox.cif.g09.slc.cpg/sg40_6_cif.got.tgz:10661.got - 2010.04.14 01:38:03.
