data_PCOD8182736
_publ_section_title
;
Structure prediction by ZEFSAII (Michael W. Deem and Ramdas Pophale) SiO2 
 PCOD8182736
Probable space group: A M A 2
;
_chemical_formula_sum "Si O2"
_cell_formula_units_Z 48
_cell_length_a 16.422584
_cell_length_b 9.153476
_cell_length_c 16.156478
_cell_angle_alpha 90.000000
_cell_angle_beta 90.000000
_cell_angle_gamma 90.000000
_cell_volume 2428.702012
_symmetry_space_group_name_H-M "A M A 2"
_symmetry_group_IT_number 40
_symmetry_cell_setting 'orthorhombic'
loop_
_space_group_symop_operation_xyz
x,y,z
-x,-y,z
1/2-x,y,z
1/2+x,-y,z
x,1/2+y,1/2+z
-x,1/2-y,1/2+z
1/2-x,1/2+y,1/2+z
1/2+x,1/2-y,1/2+z
loop_
_atom_site_type_symbol
_atom_site_label
_atom_site_fract_x
_atom_site_fract_y
_atom_site_fract_z
Si Si1 0.158359 0.473683 0.375000
Si Si2 0.346636 0.194047 0.459829
Si Si3 0.397555 0.798852 0.725516
Si Si4 0.917144 0.290700 0.276246
Si Si5 0.154972 0.547220 0.124895
Si Si6 0.654778 0.479492 0.797350
O O1 0.250000 0.525568 0.395948
O O2 0.123740 0.363254 0.446401
O O3 0.161502 0.378886 0.290783
O O4 0.102760 0.617363 0.360360
O O5 0.250000 0.198750 0.463917
O O6 0.383603 0.124129 0.543357
O O7 0.373852 0.095471 0.382477
O O8 0.489870 0.816172 0.754159
O O9 0.368828 0.629857 0.721285
O O10 0.385923 0.886636 0.638935
O O11 0.860395 0.346751 0.202126
O O12 0.899559 0.122174 0.289953
O O13 0.250000 0.524011 0.111014
O O14 0.750000 0.519235 0.794969
#
# Coordination Sequence:
#
# PCOD8182736 Si02
#       6
#     8   8   8   8   8   8
#     4   9  16  31  52  74  98 133 171 209 253 310
#     4   8  17  32  53  76 100 129 172 216 259 312
#     4  10  19  32  50  74 106 139 174 214 256 309
#     4  11  20  31  51  79 105 133 173 219 262 309
#     4  10  18  33  54  76 101 139 176 209 256 317
#     4  10  19  35  55  77 101 135 178 223 264 311
#
# _framework density 19.763643999999999
#
# number of rings (size 3 to 8) (size 9 to 14) (size 15 to 20)
#    0.000    2.333    0.000    7.500    0.000    0.000 
#    0.000    8.333    0.000    8.000    0.000    0.000 
#    0.000    0.000    0.000    0.000    0.000    0.000 
#
# Total GULP energy -297435.230341 kJ/mol
# GULP energy per Si atom -12393.134598 kJ/mol
# Density = 1.971866 g / cm^3
# Si number density = 19.763644 Si / 1000 Ang^3
#
#
#
# Elastic Constant Matrix: (Units=GPa)
#
#
# Indices 1 2 3 4 5 6 
#
# 1 75.3986 24.2547 14.7221 0.0000 0.0000 0.0000
# 2 24.2547 150.8655 52.9173 0.0000 0.0000 0.0000
# 3 14.7221 52.9173 81.6761 0.0000 0.0000 0.0000
# 4 0.0000 0.0000 0.0000 38.5841 0.0000 0.0000
# 5 0.0000 0.0000 0.0000 0.0000 9.8026 0.0000
# 6 0.0000 0.0000 0.0000 0.0000 0.0000 25.4782
#
#
#
# Elastic Compliance Matrix: (Units=1/GPa)
#
#
# Indices 1 2 3 4 5 6 
#
# 1 0.014107 -0.001781 -0.001389 0.000000 0.000000 0.000000
# 2 -0.001781 0.008803 -0.005382 0.000000 0.000000 0.000000
# 3 -0.001389 -0.005382 0.015981 0.000000 0.000000 0.000000
# 4 0.000000 0.000000 0.000000 0.025917 0.000000 0.000000
# 5 0.000000 0.000000 0.000000 0.000000 0.102014 0.000000
# 6 0.000000 0.000000 0.000000 0.000000 0.000000 0.039249
#
#
# Mechanical properties :
#
#
# Convention : Reuss Voigt Hill
#
# Bulk Modulus (GPa) = 45.89992 54.63650 50.26821
# Shear Modulus (GPa) = 21.69793 29.17606 25.43699
#
# Velocity S-wave (km/s) = 3.31701 3.84637 3.59145
# Velocity P-wave (km/s) = 6.15994 6.88702 6.53360
#
# Compressibility (1/GPa) = 0.02178653
#
# Stress axis : x y z
#
# Youngs Moduli (GPa) = 70.88728 113.60365 62.57473
#
# Poissons Ratio (x) = 0.20230 0.08692
# Poissons Ratio (y) = 0.12623 0.33678
# Poissons Ratio (z) = 0.09846 0.61143
#
# Static dielectric constant tensor:
#      x y z
#    x 3.376510 0.000000 0.000000 
#    y 0.000000 3.943440 0.000000 
#    z 0.000000 0.000000 3.698750 
# 
# 
# High freq. dielectric constant tensor:
#      x y z
#    x 1.762600 0.000000 0.000000 
#    y 0.000000 1.779190 0.000000 
#    z 0.000000 0.000000 1.729430 
# 
# From -- ./inp_files/20566.got.cif
#   From: 2010.03.12/outbox.cif.g09.slc.cpg/sg40_11_cif.got.tgz:20566.got - 2010.04.14 01:38:03.
