data_PCOD8182044
_publ_section_title
;
Structure prediction by ZEFSAII (Michael W. Deem and Ramdas Pophale) SiO2 
 PCOD8182044
Probable space group: A B M 2
;
_chemical_formula_sum "Si O2"
_cell_formula_units_Z 48
_cell_length_a 5.237919
_cell_length_b 16.390793
_cell_length_c 24.029882
_cell_angle_alpha 90.000000
_cell_angle_beta 90.000000
_cell_angle_gamma 90.000000
_cell_volume 2063.052985
_symmetry_space_group_name_H-M "A B M 2"
_symmetry_group_IT_number 39
_symmetry_cell_setting 'orthorhombic'
loop_
_space_group_symop_operation_xyz
x,y,z
-x,-y,z
-x,1/2+y,z
x,1/2-y,z
x,1/2+y,1/2+z
-x,1/2-y,1/2+z
-x,y,1/2+z
x,-y,1/2+z
loop_
_atom_site_type_symbol
_atom_site_label
_atom_site_fract_x
_atom_site_fract_y
_atom_site_fract_z
Si Si1 0.236592 0.450241 0.431690
Si Si2 0.412067 0.750000 0.083605
Si Si3 0.898954 0.750000 0.152712
Si Si4 0.896955 0.586034 0.673751
Si Si5 0.623568 0.847165 0.768253
Si Si6 0.676331 0.921615 0.554059
Si Si7 0.131461 0.654371 0.831722
O O1 0.500000 0.500000 0.426272
O O2 0.174720 0.429146 0.496053
O O3 0.220540 0.370368 0.393860
O O4 0.000000 0.500000 0.407739
O O5 0.609462 0.750000 0.133574
O O6 0.468481 0.666298 0.049428
O O7 0.119598 0.750000 0.105286
O O8 0.924289 0.834368 0.188068
O O9 0.642580 0.606171 0.708743
O O10 0.861106 0.581349 0.607215
O O11 0.000000 0.500000 0.695587
O O12 0.629523 0.750000 0.758961
O O13 0.356396 0.878538 0.792135
O O14 0.856555 0.876421 0.809112
O O15 0.500000 0.000000 0.563368
O O16 0.128161 0.750000 0.833117
#
# Coordination Sequence:
#
# PCOD8182044 Si02
#       7
#     8   4   4   8   8   8   8
#     4  11  24  43  68  95 133 172 214 279 331 386
#     4  10  22  38  64  88 124 176 216 258 323 390
#     4  10  22  40  58  90 128 168 220 268 311 386
#     4  11  22  39  66  95 135 178 220 267 336 400
#     4  10  22  42  63  96 131 171 215 282 325 386
#     4  10  23  42  65  99 137 172 219 275 331 393
#     4  10  23  43  69  93 130 170 222 271 332 386
#
# _framework density 23.266490999999998
#
# number of rings (size 3 to 8) (size 9 to 14) (size 15 to 20)
#    0.000    1.667    0.833    2.500    1.167   10.000 
#    0.000    0.000    1.833    0.000    0.000    0.000 
#    0.000    0.000    0.000    0.000    0.000    0.000 
#
# Total GULP energy -297345.250416 kJ/mol
# GULP energy per Si atom -12389.385434 kJ/mol
# Density = 2.321354 g / cm^3
# Si number density = 23.266491 Si / 1000 Ang^3
#
#
#
# Elastic Constant Matrix: (Units=GPa)
#
#
# Indices 1 2 3 4 5 6 
#
# 1 98.0265 21.9570 8.6190 0.0000 0.0000 0.0000
# 2 21.9570 138.2114 3.4522 0.0000 0.0000 0.0000
# 3 8.6190 3.4522 77.0977 0.0000 0.0000 0.0000
# 4 0.0000 0.0000 0.0000 18.9462 0.0000 0.0000
# 5 0.0000 0.0000 0.0000 0.0000 44.4442 0.0000
# 6 0.0000 0.0000 0.0000 0.0000 0.0000 21.1409
#
#
#
# Elastic Compliance Matrix: (Units=1/GPa)
#
#
# Indices 1 2 3 4 5 6 
#
# 1 0.010673 -0.001668 -0.001119 0.000000 0.000000 0.000000
# 2 -0.001668 0.007504 -0.000150 0.000000 0.000000 0.000000
# 3 -0.001119 -0.000150 0.013102 0.000000 0.000000 0.000000
# 4 0.000000 0.000000 0.000000 0.052781 0.000000 0.000000
# 5 0.000000 0.000000 0.000000 0.000000 0.022500 0.000000
# 6 0.000000 0.000000 0.000000 0.000000 0.000000 0.047302
#
#
# Mechanical properties :
#
#
# Convention : Reuss Voigt Hill
#
# Bulk Modulus (GPa) = 39.35774 42.37687 40.86730
# Shear Modulus (GPa) = 29.72594 35.52674 32.62634
#
# Velocity S-wave (km/s) = 3.57827 3.91186 3.74878
# Velocity P-wave (km/s) = 5.83308 6.21746 6.02833
#
# Compressibility (1/GPa) = 0.02540796
#
# Stress axis : x y z
#
# Youngs Moduli (GPa) = 93.69249 133.26289 76.32252
#
# Poissons Ratio (x) = 0.22224 0.08537
# Poissons Ratio (y) = 0.15625 0.01142
# Poissons Ratio (z) = 0.10480 0.01993
#
# Static dielectric constant tensor:
#      x y z
#    x 4.152970 0.000000 0.000000 
#    y 0.000000 4.443430 0.000000 
#    z 0.000000 0.000000 4.189720 
# 
# 
# High freq. dielectric constant tensor:
#      x y z
#    x 1.910980 0.000000 0.000000 
#    y 0.000000 1.933890 0.000000 
#    z 0.000000 0.000000 1.913430 
# 
# From -- ./inp_files/15264.got.cif
#   From: 2010.03.12/outbox.cif.g09.slc.cpg/sg39_8_cif.got.tgz:15264.got - 2010.04.14 02:53:20.
