data_PCOD8182158
_publ_section_title
;
Structure prediction by ZEFSAII (Michael W. Deem and Ramdas Pophale) SiO2 
 PCOD8182158
Probable space group: A B M 2
;
_chemical_formula_sum "Si O2"
_cell_formula_units_Z 64
_cell_length_a 23.707874
_cell_length_b 8.625114
_cell_length_c 15.247122
_cell_angle_alpha 90.000000
_cell_angle_beta 90.000000
_cell_angle_gamma 90.000000
_cell_volume 3117.779016
_symmetry_space_group_name_H-M "A B M 2"
_symmetry_group_IT_number 39
_symmetry_cell_setting 'orthorhombic'
loop_
_space_group_symop_operation_xyz
x,y,z
-x,-y,z
-x,1/2+y,z
x,1/2-y,z
x,1/2+y,1/2+z
-x,1/2-y,1/2+z
-x,y,1/2+z
x,-y,1/2+z
loop_
_atom_site_type_symbol
_atom_site_label
_atom_site_fract_x
_atom_site_fract_y
_atom_site_fract_z
Si Si1 0.633057 0.571439 0.311340
Si Si2 0.355859 0.427529 0.507823
Si Si3 0.253782 0.930389 0.248241
Si Si4 0.127614 0.427496 0.506111
Si Si5 0.757267 0.429562 0.560313
Si Si6 0.560786 0.066538 0.162150
Si Si7 0.061015 0.568868 0.659261
Si Si8 0.143765 0.069697 0.310800
O O1 0.645179 0.750000 0.287132
O O2 0.614733 0.554568 0.412991
O O3 0.688860 0.470440 0.297735
O O4 0.582312 0.507069 0.252692
O O5 0.338172 0.250000 0.525776
O O6 0.299915 0.531227 0.509218
O O7 0.398573 0.484777 0.582715
O O8 0.253720 0.750000 0.223241
O O9 0.249887 0.034093 0.162109
O O10 0.201198 0.970637 0.310582
O O11 0.118310 0.250000 0.533122
O O12 0.192427 0.469783 0.521155
O O13 0.085089 0.528911 0.563659
O O14 0.113058 0.455549 0.404001
O O15 0.772137 0.250000 0.548000
O O16 0.557889 0.250000 0.172321
O O17 0.500000 0.000000 0.139464
O O18 0.055225 0.750000 0.668479
O O19 0.103092 0.505482 0.734301
O O20 0.000000 0.500000 0.674627
O O21 0.158868 0.250000 0.296329
#
# Coordination Sequence:
#
# PCOD8182158 Si02
#       8
#     8   8   8   8   8   8   8   8
#     4  11  23  41  65  94 127 164 204 255 311 367
#     4  10  23  42  64  92 127 164 204 254 310 368
#     4  12  23  37  62  94 128 166 205 251 308 371
#     4  11  23  41  65  94 127 164 204 255 311 367
#     4  12  23  37  62  94 128 166 205 251 308 371
#     4  11  24  43  65  89 122 164 210 260 309 364
#     4  11  24  43  65  89 122 164 210 260 309 364
#     4  10  23  42  64  92 127 164 204 254 310 368
#
# _framework density 20.527432999999998
#
# number of rings (size 3 to 8) (size 9 to 14) (size 15 to 20)
#    0.000    1.000    2.500    4.500    0.000    7.000 
#    0.000    2.500    0.000    0.000    0.000    0.000 
#    0.000    0.000    0.000    0.000    0.000    0.000 
#
# Total GULP energy -397009.729197 kJ/mol
# GULP energy per Si atom -12406.554037 kJ/mol
# Density = 2.048071 g / cm^3
# Si number density = 20.527433 Si / 1000 Ang^3
#
#
#
# Elastic Constant Matrix: (Units=GPa)
#
#
# Indices 1 2 3 4 5 6 
#
# 1 95.0169 18.9919 17.0706 0.0000 0.0000 0.0000
# 2 18.9919 57.4169 20.0030 0.0000 0.0000 0.0000
# 3 17.0706 20.0030 100.1596 0.0000 0.0000 0.0000
# 4 0.0000 0.0000 0.0000 28.5829 0.0000 0.0000
# 5 0.0000 0.0000 0.0000 0.0000 14.1288 0.0000
# 6 0.0000 0.0000 0.0000 0.0000 0.0000 35.7440
#
#
#
# Elastic Compliance Matrix: (Units=1/GPa)
#
#
# Indices 1 2 3 4 5 6 
#
# 1 0.011420 -0.003331 -0.001281 0.000000 0.000000 0.000000
# 2 -0.003331 0.019691 -0.003365 0.000000 0.000000 0.000000
# 3 -0.001281 -0.003365 0.010874 0.000000 0.000000 0.000000
# 4 0.000000 0.000000 0.000000 0.034986 0.000000 0.000000
# 5 0.000000 0.000000 0.000000 0.000000 0.070777 0.000000
# 6 0.000000 0.000000 0.000000 0.000000 0.000000 0.027977
#
#
# Mechanical properties :
#
#
# Convention : Reuss Voigt Hill
#
# Bulk Modulus (GPa) = 38.41532 40.52492 39.47012
# Shear Modulus (GPa) = 24.95553 28.79302 26.87428
#
# Velocity S-wave (km/s) = 3.49049 3.74927 3.62220
# Velocity P-wave (km/s) = 5.91604 6.20705 6.06329
#
# Compressibility (1/GPa) = 0.02603128
#
# Stress axis : x y z
#
# Youngs Moduli (GPa) = 87.56217 50.78584 91.95927
#
# Poissons Ratio (x) = 0.16918 0.11781
# Poissons Ratio (y) = 0.29169 0.30941
# Poissons Ratio (z) = 0.11218 0.17088
#
# Static dielectric constant tensor:
#      x y z
#    x 3.681870 0.000000 0.000000 
#    y 0.000000 3.755850 0.000000 
#    z 0.000000 0.000000 3.885130 
# 
# 
# High freq. dielectric constant tensor:
#      x y z
#    x 1.794610 0.000000 0.000000 
#    y 0.000000 1.808050 0.000000 
#    z 0.000000 0.000000 1.815760 
# 
# From -- ./inp_files/10656.got.cif
#   From: 2010.03.12/outbox.cif.g09.slc.cpg/sg39_6_cif.got.tgz:10656.got - 2010.04.14 02:53:20.
