data_PCOD8182223
_publ_section_title
;
Structure prediction by ZEFSAII (Michael W. Deem and Ramdas Pophale) SiO2 
 PCOD8182223
Probable space group: A B M 2
;
_chemical_formula_sum "Si O2"
_cell_formula_units_Z 28
_cell_length_a 4.916501
_cell_length_b 25.681703
_cell_length_c 8.771201
_cell_angle_alpha 90.000000
_cell_angle_beta 90.000000
_cell_angle_gamma 90.000000
_cell_volume 1107.487962
_symmetry_space_group_name_H-M "A B M 2"
_symmetry_group_IT_number 39
_symmetry_cell_setting 'orthorhombic'
loop_
_space_group_symop_operation_xyz
x,y,z
-x,-y,z
-x,1/2+y,z
x,1/2-y,z
x,1/2+y,1/2+z
-x,1/2-y,1/2+z
-x,y,1/2+z
x,-y,1/2+z
loop_
_atom_site_type_symbol
_atom_site_label
_atom_site_fract_x
_atom_site_fract_y
_atom_site_fract_z
Si Si1 0.669291 0.691142 0.501300
Si Si2 0.500000 0.500000 0.596049
Si Si3 0.168844 0.047005 0.331251
Si Si4 0.845428 0.653217 0.829318
O O1 0.564775 0.750000 0.528238
O O2 0.767424 0.665551 0.657271
O O3 0.425157 0.656358 0.432905
O O4 0.924344 0.693529 0.385724
O O5 0.724099 0.529420 0.495668
O O6 0.404403 0.549368 0.702579
O O7 0.980754 0.097031 0.348398
O O8 0.000000 0.000000 0.259777
#
# Coordination Sequence:
#
# PCOD8182223 Si02
#       4
#     8   4   8   8
#     4  12  27  53  82 119 162 209 275 348 410 481
#     4  10  26  50  74 108 176 206 274 328 400 460
#     4  11  27  46  78 114 164 216 267 329 398 493
#     4  12  30  49  85 118 161 217 272 330 421 487
#
# _framework density 25.282443000000001
#
# number of rings (size 3 to 8) (size 9 to 14) (size 15 to 20)
#    0.000    0.571    0.000    5.143   16.000    0.000 
#    0.000    0.000    0.000    0.000    0.000    0.000 
#    0.000    0.000    0.000    0.000    0.000    0.000 
#
# Total GULP energy -173570.404156 kJ/mol
# GULP energy per Si atom -12397.886011 kJ/mol
# Density = 2.522490 g / cm^3
# Si number density = 25.282443 Si / 1000 Ang^3
#
#
#
# Elastic Constant Matrix: (Units=GPa)
#
#
# Indices 1 2 3 4 5 6 
#
# 1 165.4018 49.9144 88.1180 0.0000 0.0000 0.0000
# 2 49.9144 125.4302 75.7759 0.0000 0.0000 0.0000
# 3 88.1180 75.7759 174.9749 0.0000 0.0000 0.0000
# 4 0.0000 0.0000 0.0000 17.4128 0.0000 0.0000
# 5 0.0000 0.0000 0.0000 0.0000 28.0314 0.0000
# 6 0.0000 0.0000 0.0000 0.0000 0.0000 50.9582
#
#
#
# Elastic Compliance Matrix: (Units=1/GPa)
#
#
# Indices 1 2 3 4 5 6 
#
# 1 0.008366 -0.001062 -0.003753 0.000000 0.000000 0.000000
# 2 -0.001062 0.010932 -0.004200 0.000000 0.000000 0.000000
# 3 -0.003753 -0.004200 0.009424 0.000000 0.000000 0.000000
# 4 0.000000 0.000000 0.000000 0.057429 0.000000 0.000000
# 5 0.000000 0.000000 0.000000 0.000000 0.035674 0.000000
# 6 0.000000 0.000000 0.000000 0.000000 0.000000 0.019624
#
#
# Mechanical properties :
#
#
# Convention : Reuss Voigt Hill
#
# Bulk Modulus (GPa) = 93.52159 99.26929 96.39544
# Shear Modulus (GPa) = 30.66679 36.08040 33.37359
#
# Velocity S-wave (km/s) = 3.48655 3.78179 3.63716
# Velocity P-wave (km/s) = 7.29925 7.64320 7.47321
#
# Compressibility (1/GPa) = 0.01069272
#
# Stress axis : x y z
#
# Youngs Moduli (GPa) = 119.53363 91.47268 106.11155
#
# Poissons Ratio (x) = 0.09711 0.39827
# Poissons Ratio (y) = 0.12691 0.44564
# Poissons Ratio (z) = 0.44864 0.38416
#
# Static dielectric constant tensor:
#      x y z
#    x 4.990580 0.000000 0.000000 
#    y 0.000000 4.564690 0.000000 
#    z 0.000000 0.000000 4.660580 
# 
# 
# High freq. dielectric constant tensor:
#      x y z
#    x 2.032320 0.000000 0.000000 
#    y 0.000000 2.002760 0.000000 
#    z 0.000000 0.000000 2.031150 
# 
# From -- ./inp_files/1688.got.cif
#   From: 2010.03.12/outbox.cif.g09.slc.cpg/sg39_1_cif.got.tgz:1688.got - 2010.04.14 02:53:20.
