data_PCOD8182164
_publ_section_title
;
Structure prediction by ZEFSAII (Michael W. Deem and Ramdas Pophale) SiO2 
 PCOD8182164
Probable space group: A B M 2
;
_chemical_formula_sum "Si O2"
_cell_formula_units_Z 52
_cell_length_a 10.646571
_cell_length_b 23.271166
_cell_length_c 9.050624
_cell_angle_alpha 90.000000
_cell_angle_beta 90.000000
_cell_angle_gamma 90.000000
_cell_volume 2242.365597
_symmetry_space_group_name_H-M "A B M 2"
_symmetry_group_IT_number 39
_symmetry_cell_setting 'orthorhombic'
loop_
_space_group_symop_operation_xyz
x,y,z
-x,-y,z
-x,1/2+y,z
x,1/2-y,z
x,1/2+y,1/2+z
-x,1/2-y,1/2+z
-x,y,1/2+z
x,-y,1/2+z
loop_
_atom_site_type_symbol
_atom_site_label
_atom_site_fract_x
_atom_site_fract_y
_atom_site_fract_z
Si Si1 0.151953 0.818893 0.935500
Si Si2 0.000000 0.000000 0.217818
Si Si3 0.172258 0.530112 0.469433
Si Si4 0.494205 0.113156 0.736381
Si Si5 0.670364 0.418740 0.982983
Si Si6 0.671459 0.640045 0.987127
Si Si7 0.913950 0.315620 0.612617
O O1 0.176344 0.750000 0.941938
O O2 0.275847 0.853421 0.984101
O O3 0.117676 0.842065 0.771682
O O4 0.039247 0.841246 0.039961
O O5 0.909420 0.039051 0.320610
O O6 0.083550 0.041561 0.112292
O O7 0.219108 0.464598 0.473866
O O8 0.289445 0.572875 0.476274
O O9 0.577452 0.073119 0.843724
O O10 0.407246 0.072550 0.634374
O O11 0.407126 0.154927 0.838879
O O12 0.584256 0.151179 0.630692
O O13 0.797168 0.677566 0.999277
O O14 0.943184 0.250000 0.638490
#
# Coordination Sequence:
#
# PCOD8182164 Si02
#       7
#     8   4   8   8   8   8   8
#     4  10  23  42  66  94 125 162 205 257 318 377
#     4  10  24  38  52  96 126 158 208 238 322 380
#     4  11  24  37  62  90 128 167 201 252 316 362
#     4  10  24  41  63  90 122 168 219 245 312 360
#     4  11  23  42  62  91 125 166 207 263 300 374
#     4  11  23  42  62  91 125 166 207 263 300 374
#     4  10  23  42  66  94 125 162 205 257 318 377
#
# _framework density 23.189796999999999
#
# number of rings (size 3 to 8) (size 9 to 14) (size 15 to 20)
#    0.000    1.538    1.538    1.846    6.462    3.692 
#    0.000    4.615    0.000    0.000    0.000    0.000 
#    0.000    0.000    0.000    0.000    0.000    0.000 
#
# Total GULP energy -322378.496044 kJ/mol
# GULP energy per Si atom -12399.172925 kJ/mol
# Density = 2.313702 g / cm^3
# Si number density = 23.189797 Si / 1000 Ang^3
#
#
#
# Elastic Constant Matrix: (Units=GPa)
#
#
# Indices 1 2 3 4 5 6 
#
# 1 131.8677 30.9699 63.5268 0.0000 0.0000 0.0000
# 2 30.9699 53.1997 20.8530 0.0000 0.0000 0.0000
# 3 63.5268 20.8530 158.4174 0.0000 0.0000 0.0000
# 4 0.0000 0.0000 0.0000 16.9580 0.0000 0.0000
# 5 0.0000 0.0000 0.0000 0.0000 44.5417 0.0000
# 6 0.0000 0.0000 0.0000 0.0000 0.0000 23.2368
#
#
#
# Elastic Compliance Matrix: (Units=1/GPa)
#
#
# Indices 1 2 3 4 5 6 
#
# 1 0.010388 -0.004655 -0.003553 0.000000 0.000000 0.000000
# 2 -0.004655 0.021905 -0.001017 0.000000 0.000000 0.000000
# 3 -0.003553 -0.001017 0.007871 0.000000 0.000000 0.000000
# 4 0.000000 0.000000 0.000000 0.058969 0.000000 0.000000
# 5 0.000000 0.000000 0.000000 0.000000 0.022451 0.000000
# 6 0.000000 0.000000 0.000000 0.000000 0.000000 0.043035
#
#
# Mechanical properties :
#
#
# Convention : Reuss Voigt Hill
#
# Bulk Modulus (GPa) = 46.05030 63.79822 54.92426
# Shear Modulus (GPa) = 26.27321 32.15631 29.21476
#
# Velocity S-wave (km/s) = 3.36961 3.72782 3.55323
# Velocity P-wave (km/s) = 5.91947 6.78970 6.36946
#
# Compressibility (1/GPa) = 0.02171538
#
# Stress axis : x y z
#
# Youngs Moduli (GPa) = 96.26288 45.65085 127.04705
#
# Poissons Ratio (x) = 0.21249 0.45140
# Poissons Ratio (y) = 0.44808 0.12919
# Poissons Ratio (z) = 0.34203 0.04642
#
# Static dielectric constant tensor:
#      x y z
#    x 4.363970 0.000000 0.000000 
#    y 0.000000 3.485310 0.000000 
#    z 0.000000 0.000000 4.598450 
# 
# 
# High freq. dielectric constant tensor:
#      x y z
#    x 1.936900 0.000000 0.000000 
#    y 0.000000 1.866520 0.000000 
#    z 0.000000 0.000000 1.936250 
# 
# From -- ./inp_files/2788.got.cif
#   From: 2010.03.12/outbox.cif.g09.slc.cpg/sg39_2_cif.got.tgz:2788.got - 2010.04.14 02:53:20.
