data_PCOD8182333
_publ_section_title
;
Structure prediction by ZEFSAII (Michael W. Deem and Ramdas Pophale) SiO2 
 PCOD8182333
Probable space group: A M A 2
;
_chemical_formula_sum "Si O2"
_cell_formula_units_Z 64
_cell_length_a 18.248580
_cell_length_b 16.040444
_cell_length_c 13.249379
_cell_angle_alpha 90.000000
_cell_angle_beta 90.000000
_cell_angle_gamma 90.000000
_cell_volume 3878.296288
_symmetry_space_group_name_H-M "A M A 2"
_symmetry_group_IT_number 40
_symmetry_cell_setting 'orthorhombic'
loop_
_space_group_symop_operation_xyz
x,y,z
-x,-y,z
1/2-x,y,z
1/2+x,-y,z
x,1/2+y,1/2+z
-x,1/2-y,1/2+z
1/2-x,1/2+y,1/2+z
1/2+x,1/2-y,1/2+z
loop_
_atom_site_type_symbol
_atom_site_label
_atom_site_fract_x
_atom_site_fract_y
_atom_site_fract_z
Si Si1 0.166913 0.832902 0.927900
Si Si2 0.072572 0.955022 0.807236
Si Si3 0.665415 0.912041 0.389186
Si Si4 0.669331 0.062254 0.505891
Si Si5 0.830665 0.785831 0.234998
Si Si6 0.330956 0.071134 0.683974
Si Si7 0.096957 0.697943 0.053416
Si Si8 0.936059 0.172613 0.622667
O O1 0.250000 0.863158 0.952553
O O2 0.114101 0.909497 0.898722
O O3 0.169280 0.770800 0.834228
O O4 0.131807 0.787618 0.025759
O O5 0.053333 0.892756 0.714199
O O6 0.123848 0.030337 0.773322
O O7 0.000000 0.000000 0.848875
O O8 0.750000 0.890353 0.421562
O O9 0.652667 0.880538 0.273744
O O10 0.607830 0.864465 0.460086
O O11 0.652508 0.012176 0.400883
O O12 0.750000 0.104825 0.502187
O O13 0.608315 0.130553 0.530264
O O14 0.669421 0.990630 0.589651
O O15 0.750000 0.780741 0.183954
O O16 0.891287 0.754241 0.157221
O O17 0.250000 0.086815 0.725715
O O18 0.364298 0.160417 0.652652
O O19 0.011169 0.706169 0.077168
#
# Coordination Sequence:
#
# PCOD8182333 Si02
#       8
#     8   8   8   8   8   8   8   8
#     4   9  17  28  42  58  87 125 156 180 213 266
#     4  10  17  27  39  63  92 121 142 184 228 267
#     4   8  14  24  37  51  78 119 152 177 207 255
#     4   8  14  22  34  54  81 114 149 178 214 262
#     4   8  14  25  38  54  80 116 152 179 212 264
#     4   9  15  23  37  56  85 120 149 176 219 271
#     4  10  16  24  36  58  89 120 146 180 220 263
#     4  10  17  22  36  60  92 117 137 176 232 265
#
# _framework density 16.502089999999999
#
# number of rings (size 3 to 8) (size 9 to 14) (size 15 to 20)
#    0.000    3.000    1.250    3.375    0.000    3.000 
#    0.000    0.000    0.000    0.000    0.000    3.500 
#   11.250    0.000    6.750    1.250    0.000    0.000 
#
# Total GULP energy -396472.549041 kJ/mol
# GULP energy per Si atom -12389.767158 kJ/mol
# Density = 1.646453 g / cm^3
# Si number density = 16.502090 Si / 1000 Ang^3
#
#
#
# Elastic Constant Matrix: (Units=GPa)
#
#
# Indices 1 2 3 4 5 6 
#
# 1 147.2330 53.5660 42.9386 0.0000 0.0000 0.0000
# 2 53.5660 68.9661 41.2526 0.0000 0.0000 0.0000
# 3 42.9386 41.2526 36.8521 0.0000 0.0000 0.0000
# 4 0.0000 0.0000 0.0000 29.9248 0.0000 0.0000
# 5 0.0000 0.0000 0.0000 0.0000 19.8385 0.0000
# 6 0.0000 0.0000 0.0000 0.0000 0.0000 16.2249
#
#
#
# Elastic Compliance Matrix: (Units=1/GPa)
#
#
# Indices 1 2 3 4 5 6 
#
# 1 0.010430 -0.002517 -0.009335 0.000000 0.000000 0.000000
# 2 -0.002517 0.044491 -0.046871 0.000000 0.000000 0.000000
# 3 -0.009335 -0.046871 0.090480 0.000000 0.000000 0.000000
# 4 0.000000 0.000000 0.000000 0.033417 0.000000 0.000000
# 5 0.000000 0.000000 0.000000 0.000000 0.050407 0.000000
# 6 0.000000 0.000000 0.000000 0.000000 0.000000 0.061634
#
#
# Mechanical properties :
#
#
# Convention : Reuss Voigt Hill
#
# Bulk Modulus (GPa) = 35.77160 58.72952 47.25056
# Shear Modulus (GPa) = 11.97248 20.88392 16.42820
#
# Velocity S-wave (km/s) = 2.69646 3.56129 3.15861
# Velocity P-wave (km/s) = 5.60523 7.25099 6.48056
#
# Compressibility (1/GPa) = 0.02795514
#
# Stress axis : x y z
#
# Youngs Moduli (GPa) = 95.87521 22.47622 11.05216
#
# Poissons Ratio (x) = 0.05658 0.10317
# Poissons Ratio (y) = 0.24136 0.51803
# Poissons Ratio (z) = 0.89497 1.05348
#
# Static dielectric constant tensor:
#      x y z
#    x 3.227240 0.000000 0.000000 
#    y 0.000000 3.115010 0.000000 
#    z 0.000000 0.000000 2.797330 
# 
# 
# High freq. dielectric constant tensor:
#      x y z
#    x 1.646830 0.000000 0.000000 
#    y 0.000000 1.604510 0.000000 
#    z 0.000000 0.000000 1.574660 
# 
# From -- ./inp_files/17284.got.cif
#   From: 2010.03.12/outbox.cif.g09.slc.cpg/sg40_9_cif.got.tgz:17284.got - 2010.04.14 01:38:03.
