data_PCOD8182142
_publ_section_title
;
Structure prediction by ZEFSAII (Michael W. Deem and Ramdas Pophale) SiO2 
 PCOD8182142
Probable space group: A B M 2
;
_chemical_formula_sum "Si O2"
_cell_formula_units_Z 56
_cell_length_a 5.307905
_cell_length_b 13.779289
_cell_length_c 30.582659
_cell_angle_alpha 90.000000
_cell_angle_beta 90.000000
_cell_angle_gamma 90.000000
_cell_volume 2236.789897
_symmetry_space_group_name_H-M "A B M 2"
_symmetry_group_IT_number 39
_symmetry_cell_setting 'orthorhombic'
loop_
_space_group_symop_operation_xyz
x,y,z
-x,-y,z
-x,1/2+y,z
x,1/2-y,z
x,1/2+y,1/2+z
-x,1/2-y,1/2+z
-x,y,1/2+z
x,-y,1/2+z
loop_
_atom_site_type_symbol
_atom_site_label
_atom_site_fract_x
_atom_site_fract_y
_atom_site_fract_z
Si Si1 0.652710 0.856409 0.390870
Si Si2 0.216686 0.639030 0.702459
Si Si3 0.500000 0.500000 0.643606
Si Si4 0.000000 0.500000 0.772508
Si Si5 0.845372 0.632990 0.846299
Si Si6 0.385161 0.402800 0.486427
Si Si7 0.879562 0.856641 0.621568
Si Si8 0.104453 0.143103 0.033514
O O1 0.650694 0.750000 0.369847
O O2 0.904214 0.906082 0.371533
O O3 0.666325 0.840993 0.443177
O O4 0.391570 0.905122 0.375006
O O5 0.283579 0.750000 0.716489
O O6 0.437319 0.592617 0.673846
O O7 0.177587 0.570122 0.744021
O O8 0.972736 0.637525 0.671374
O O9 0.290214 0.451936 0.612517
O O10 0.169295 0.424952 0.800571
O O11 0.845193 0.750000 0.839232
O O12 0.500000 0.500000 0.466366
O O13 0.122169 0.422119 0.512402
O O14 0.606856 0.365245 0.518258
O O15 0.750295 0.750000 0.614301
O O16 0.106110 0.868419 0.586256
O O17 0.009590 0.250000 0.020023
#
# Coordination Sequence:
#
# PCOD8182142 Si02
#       8
#     8   8   4   4   8   8   8   8
#     4  10  22  45  70  97 137 184 226 285 358 434
#     4  11  25  46  69 103 144 188 243 295 364 444
#     4  12  22  42  72 102 134 194 242 304 366 428
#     4  12  24  46  70 100 138 180 230 308 368 424
#     4  10  24  42  70 103 137 182 235 291 361 440
#     4  12  26  41  70 106 142 181 241 297 351 423
#     4  10  24  44  69 101 142 192 242 293 361 437
#     4  11  25  45  68 101 144 193 237 293 352 424
#
# _framework density 25.035878
#
# number of rings (size 3 to 8) (size 9 to 14) (size 15 to 20)
#    0.000    1.143    1.429    3.429    5.000    3.429 
#    0.000    1.429    0.000    0.000    0.000    0.000 
#    0.000    0.000    0.000    0.000    0.000    0.000 
#
# Total GULP energy -346906.216354 kJ/mol
# GULP energy per Si atom -12389.507727 kJ/mol
# Density = 2.497890 g / cm^3
# Si number density = 25.035878 Si / 1000 Ang^3
#
#
#
# Elastic Constant Matrix: (Units=GPa)
#
#
# Indices 1 2 3 4 5 6 
#
# 1 141.8188 37.6127 48.4315 0.0000 0.0000 0.0000
# 2 37.6127 114.4407 36.4791 0.0000 0.0000 0.0000
# 3 48.4315 36.4791 139.1476 0.0000 0.0000 0.0000
# 4 0.0000 0.0000 0.0000 30.1385 0.0000 0.0000
# 5 0.0000 0.0000 0.0000 0.0000 24.9744 0.0000
# 6 0.0000 0.0000 0.0000 0.0000 0.0000 35.8488
#
#
#
# Elastic Compliance Matrix: (Units=1/GPa)
#
#
# Indices 1 2 3 4 5 6 
#
# 1 0.008400 -0.001996 -0.002401 0.000000 0.000000 0.000000
# 2 -0.001996 0.010009 -0.001929 0.000000 0.000000 0.000000
# 3 -0.002401 -0.001929 0.008528 0.000000 0.000000 0.000000
# 4 0.000000 0.000000 0.000000 0.033180 0.000000 0.000000
# 5 0.000000 0.000000 0.000000 0.000000 0.040041 0.000000
# 6 0.000000 0.000000 0.000000 0.000000 0.000000 0.027895
#
#
# Mechanical properties :
#
#
# Convention : Reuss Voigt Hill
#
# Bulk Modulus (GPa) = 69.99842 71.16153 70.57997
# Shear Modulus (GPa) = 34.37207 36.38457 35.37832
#
# Velocity S-wave (km/s) = 3.70930 3.81635 3.76321
# Velocity P-wave (km/s) = 6.80920 6.92134 6.86550
#
# Compressibility (1/GPa) = 0.01428604
#
# Stress axis : x y z
#
# Youngs Moduli (GPa) = 119.04246 99.90934 117.26104
#
# Poissons Ratio (x) = 0.19939 0.28150
# Poissons Ratio (y) = 0.23757 0.22624
# Poissons Ratio (z) = 0.28578 0.19276
#
# Static dielectric constant tensor:
#      x y z
#    x 4.361790 0.000000 0.000000 
#    y 0.000000 4.798030 0.000000 
#    z 0.000000 0.000000 4.208380 
# 
# 
# High freq. dielectric constant tensor:
#      x y z
#    x 1.986400 0.000000 0.000000 
#    y 0.000000 2.024490 0.000000 
#    z 0.000000 0.000000 1.986420 
# 
# From -- ./inp_files/17309.got.cif
#   From: 2010.03.12/outbox.cif.g09.slc.cpg/sg39_9_cif.got.tgz:17309.got - 2010.04.14 02:53:20.
