data_PCOD8182084
_publ_section_title
;
Structure prediction by ZEFSAII (Michael W. Deem and Ramdas Pophale) SiO2 
 PCOD8182084
Probable space group: A B M 2
;
_chemical_formula_sum "Si O2"
_cell_formula_units_Z 48
_cell_length_a 18.777314
_cell_length_b 8.471423
_cell_length_c 14.899574
_cell_angle_alpha 90.000000
_cell_angle_beta 90.000000
_cell_angle_gamma 90.000000
_cell_volume 2370.083724
_symmetry_space_group_name_H-M "A B M 2"
_symmetry_group_IT_number 39
_symmetry_cell_setting 'orthorhombic'
loop_
_space_group_symop_operation_xyz
x,y,z
-x,-y,z
-x,1/2+y,z
x,1/2-y,z
x,1/2+y,1/2+z
-x,1/2-y,1/2+z
-x,y,1/2+z
x,-y,1/2+z
loop_
_atom_site_type_symbol
_atom_site_label
_atom_site_fract_x
_atom_site_fract_y
_atom_site_fract_z
Si Si1 0.330678 0.569638 0.393230
Si Si2 0.183989 0.430744 0.347277
Si Si3 0.333839 0.932309 0.082120
Si Si4 0.422968 0.066643 0.240774
Si Si5 0.813665 0.932294 0.142313
Si Si6 0.078465 0.933595 0.003134
O O1 0.349239 0.750000 0.370002
O O2 0.246688 0.542371 0.382144
O O3 0.352889 0.534324 0.494977
O O4 0.373237 0.455771 0.326948
O O5 0.209199 0.250000 0.358981
O O6 0.164353 0.468366 0.244671
O O7 0.114959 0.466055 0.407206
O O8 0.339302 0.750000 0.056222
O O9 0.391548 0.972439 0.156998
O O10 0.254565 0.964543 0.117235
O O11 0.426412 0.250000 0.216477
O O12 0.500000 0.000000 0.264499
O O13 0.793007 0.750000 0.128801
O O14 0.880512 0.975907 0.081642
O O15 0.077332 0.750000 0.027336
O O16 0.000000 0.000000 0.996595
#
# Coordination Sequence:
#
# PCOD8182084 Si02
#       6
#     8   8   8   8   8   8
#     4  12  24  40  67  99 130 172 219 266 322 383
#     4  10  22  40  64  93 129 168 212 266 321 381
#     4  12  24  41  66  98 132 172 219 267 321 384
#     4  12  26  46  68  97 135 172 215 270 327 387
#     4  11  22  39  65  96 128 167 214 266 323 384
#     4  11  24  42  63  91 130 171 214 269 330 385
#
# _framework density 20.25245
#
# number of rings (size 3 to 8) (size 9 to 14) (size 15 to 20)
#    0.000    0.667    3.333    5.500    0.000    2.667 
#    0.000    5.000    0.000    0.000    0.000    0.000 
#    0.000    0.000    0.000    0.000    0.000    0.000 
#
# Total GULP energy -297802.583235 kJ/mol
# GULP energy per Si atom -12408.440968 kJ/mol
# Density = 2.020635 g / cm^3
# Si number density = 20.252450 Si / 1000 Ang^3
#
#
#
# Elastic Constant Matrix: (Units=GPa)
#
#
# Indices 1 2 3 4 5 6 
#
# 1 71.2595 23.3133 9.2501 0.0000 0.0000 0.0000
# 2 23.3133 87.8284 20.8404 0.0000 0.0000 0.0000
# 3 9.2501 20.8404 116.7010 0.0000 0.0000 0.0000
# 4 0.0000 0.0000 0.0000 29.0411 0.0000 0.0000
# 5 0.0000 0.0000 0.0000 0.0000 7.1664 0.0000
# 6 0.0000 0.0000 0.0000 0.0000 0.0000 35.0250
#
#
#
# Elastic Compliance Matrix: (Units=1/GPa)
#
#
# Indices 1 2 3 4 5 6 
#
# 1 0.015397 -0.003965 -0.000512 0.000000 0.000000 0.000000
# 2 -0.003965 0.012911 -0.001991 0.000000 0.000000 0.000000
# 3 -0.000512 -0.001991 0.008965 0.000000 0.000000 0.000000
# 4 0.000000 0.000000 0.000000 0.034434 0.000000 0.000000
# 5 0.000000 0.000000 0.000000 0.000000 0.139541 0.000000
# 6 0.000000 0.000000 0.000000 0.000000 0.000000 0.028551
#
#
# Mechanical properties :
#
#
# Convention : Reuss Voigt Hill
#
# Bulk Modulus (GPa) = 41.09306 42.51075 41.80190
# Shear Modulus (GPa) = 19.16818 29.07215 24.12016
#
# Velocity S-wave (km/s) = 3.07980 3.79289 3.45479
# Velocity P-wave (km/s) = 5.74294 6.34172 6.04974
#
# Compressibility (1/GPa) = 0.02433501
#
# Stress axis : x y z
#
# Youngs Moduli (GPa) = 64.94751 77.45368 111.54340
#
# Poissons Ratio (x) = 0.30714 0.05714
# Poissons Ratio (y) = 0.25755 0.22212
# Poissons Ratio (z) = 0.03327 0.15423
#
# Static dielectric constant tensor:
#      x y z
#    x 3.601000 0.000000 0.000000 
#    y 0.000000 3.813440 0.000000 
#    z 0.000000 0.000000 3.901260 
# 
# 
# High freq. dielectric constant tensor:
#      x y z
#    x 1.784420 0.000000 0.000000 
#    y 0.000000 1.803300 0.000000 
#    z 0.000000 0.000000 1.807610 
# 
# From -- ./inp_files/10035.got.cif
#   From: 2010.03.12/outbox.cif.g09.slc.cpg/sg39_6_cif.got.tgz:10035.got - 2010.04.14 02:53:20.
