data_PCOD8182569
_publ_section_title
;
Structure prediction by ZEFSAII (Michael W. Deem and Ramdas Pophale) SiO2 
 PCOD8182569
Probable space group: A M A 2
;
_chemical_formula_sum "Si O2"
_cell_formula_units_Z 56
_cell_length_a 9.030940
_cell_length_b 24.081959
_cell_length_c 13.153029
_cell_angle_alpha 90.000000
_cell_angle_beta 90.000000
_cell_angle_gamma 90.000000
_cell_volume 2860.556613
_symmetry_space_group_name_H-M "A M A 2"
_symmetry_group_IT_number 40
_symmetry_cell_setting 'orthorhombic'
loop_
_space_group_symop_operation_xyz
x,y,z
-x,-y,z
1/2-x,y,z
1/2+x,-y,z
x,1/2+y,1/2+z
-x,1/2-y,1/2+z
1/2-x,1/2+y,1/2+z
1/2+x,1/2-y,1/2+z
loop_
_atom_site_type_symbol
_atom_site_label
_atom_site_fract_x
_atom_site_fract_y
_atom_site_fract_z
Si Si1 0.573449 0.441317 0.685880
Si Si2 0.584785 0.241635 0.063194
Si Si3 0.420943 0.636891 0.502750
Si Si4 0.576124 0.122117 0.365282
Si Si5 0.913274 0.236330 0.290881
Si Si6 0.578400 0.642943 0.085847
Si Si7 0.422283 0.641506 0.281934
O O1 0.500000 0.500000 0.664552
O O2 0.750000 0.446874 0.689867
O O3 0.519528 0.403023 0.591605
O O4 0.516311 0.418858 0.794055
O O5 0.750000 0.252287 0.020551
O O6 0.592088 0.215602 0.175183
O O7 0.495172 0.298266 0.063825
O O8 0.503374 0.195778 0.995455
O O9 0.250000 0.649672 0.523171
O O10 0.443215 0.609229 0.389620
O O11 0.750000 0.119944 0.334496
O O12 0.511746 0.185396 0.352317
O O13 0.554754 0.105395 0.484108
O O14 0.750000 0.244894 0.337256
O O15 0.992364 0.296352 0.296504
O O16 0.750000 0.651996 0.108015
O O17 0.506245 0.613368 0.185841
O O18 0.250000 0.645739 0.250713
#
# Coordination Sequence:
#
# PCOD8182569 Si02
#       7
#     8   8   8   8   8   8   8
#     4  11  24  40  60  85 108 135 179 232 284 336
#     4  10  18  29  49  77 110 149 186 219 266 326
#     4  10  20  35  55  78 105 140 183 230 276 322
#     4  10  19  35  56  76 107 146 182 226 276 321
#     4   8  14  26  46  72 103 142 177 209 259 315
#     4  10  20  32  50  79 113 149 186 221 261 318
#     4   9  18  33  51  75 111 149 182 219 266 319
#
# _framework density 19.576609000000001
#
# number of rings (size 3 to 8) (size 9 to 14) (size 15 to 20)
#    0.000    2.286    1.429    3.000    0.000    4.571 
#    0.000    0.000    0.000    0.857    0.000    4.000 
#    0.000    0.000    0.000    0.000    0.000    0.000 
#
# Total GULP energy -346910.794731 kJ/mol
# GULP energy per Si atom -12389.671240 kJ/mol
# Density = 1.953205 g / cm^3
# Si number density = 19.576609 Si / 1000 Ang^3
#
#
#
# Elastic Constant Matrix: (Units=GPa)
#
#
# Indices 1 2 3 4 5 6 
#
# 1 85.5412 22.7034 52.7056 0.0000 0.0000 0.0000
# 2 22.7034 36.9804 26.5822 0.0000 0.0000 0.0000
# 3 52.7056 26.5822 143.6919 0.0000 0.0000 0.0000
# 4 0.0000 0.0000 0.0000 12.8312 0.0000 0.0000
# 5 0.0000 0.0000 0.0000 0.0000 31.2733 0.0000
# 6 0.0000 0.0000 0.0000 0.0000 0.0000 19.0496
#
#
#
# Elastic Compliance Matrix: (Units=1/GPa)
#
#
# Indices 1 2 3 4 5 6 
#
# 1 0.016400 -0.006625 -0.004790 0.000000 0.000000 0.000000
# 2 -0.006625 0.033865 -0.003835 0.000000 0.000000 0.000000
# 3 -0.004790 -0.003835 0.009426 0.000000 0.000000 0.000000
# 4 0.000000 0.000000 0.000000 0.077935 0.000000 0.000000
# 5 0.000000 0.000000 0.000000 0.000000 0.031976 0.000000
# 6 0.000000 0.000000 0.000000 0.000000 0.000000 0.052494
#
#
# Mechanical properties :
#
#
# Convention : Reuss Voigt Hill
#
# Bulk Modulus (GPa) = 34.25707 52.24401 43.25054
# Shear Modulus (GPa) = 19.06020 23.57897 21.31958
#
# Velocity S-wave (km/s) = 3.12368 3.47428 3.30363
# Velocity P-wave (km/s) = 5.52691 6.54515 6.05747
#
# Compressibility (1/GPa) = 0.02919105
#
# Stress axis : x y z
#
# Youngs Moduli (GPa) = 60.97605 29.52866 106.09409
#
# Poissons Ratio (x) = 0.19564 0.50816
# Poissons Ratio (y) = 0.40399 0.40684
# Poissons Ratio (z) = 0.29206 0.11323
#
# Static dielectric constant tensor:
#      x y z
#    x 3.461230 0.000000 0.000000 
#    y 0.000000 3.100790 0.000000 
#    z 0.000000 0.000000 4.070400 
# 
# 
# High freq. dielectric constant tensor:
#      x y z
#    x 1.748970 0.000000 0.000000 
#    y 0.000000 1.702420 0.000000 
#    z 0.000000 0.000000 1.787100 
# 
# From -- ./inp_files/15352.got.cif
#   From: 2010.03.12/outbox.cif.g09.slc.cpg/sg40_8_cif.got.tgz:15352.got - 2010.04.14 01:38:03.
