data_PCOD8182291
_publ_section_title
;
Structure prediction by ZEFSAII (Michael W. Deem and Ramdas Pophale) SiO2 
 PCOD8182291
Probable space group: A B M 2
;
_chemical_formula_sum "Si O2"
_cell_formula_units_Z 32
_cell_length_a 5.873174
_cell_length_b 23.046162
_cell_length_c 9.451169
_cell_angle_alpha 90.000000
_cell_angle_beta 90.000000
_cell_angle_gamma 90.000000
_cell_volume 1279.254658
_symmetry_space_group_name_H-M "A B M 2"
_symmetry_group_IT_number 39
_symmetry_cell_setting 'orthorhombic'
loop_
_space_group_symop_operation_xyz
x,y,z
-x,-y,z
-x,1/2+y,z
x,1/2-y,z
x,1/2+y,1/2+z
-x,1/2-y,1/2+z
-x,y,1/2+z
x,-y,1/2+z
loop_
_atom_site_type_symbol
_atom_site_label
_atom_site_fract_x
_atom_site_fract_y
_atom_site_fract_z
Si Si1 0.751535 0.685968 0.361400
Si Si2 0.419124 0.357793 0.638596
Si Si3 0.960830 0.574936 0.785376
Si Si4 0.290193 0.543676 0.554122
O O1 0.850493 0.750000 0.325600
O O2 0.696401 0.685950 0.528591
O O3 0.520143 0.676651 0.271749
O O4 0.934738 0.636819 0.329647
O O5 0.249962 0.409732 0.684508
O O6 0.619347 0.390464 0.553127
O O7 0.146858 0.535106 0.700523
O O8 0.879694 0.538326 0.921270
O O9 0.500000 0.500000 0.540598
#
# Coordination Sequence:
#
# PCOD8182291 Si02
#       4
#     8   8   8   8
#     4  11  24  43  74 108 150 200 247 309 380 448
#     4  11  23  47  69 111 150 188 256 312 360 460
#     4  11  24  50  73 109 153 196 256 311 374 463
#     4  11  26  50  78 108 150 198 252 320 382 444
#
# _framework density 25.014569000000002
#
# number of rings (size 3 to 8) (size 9 to 14) (size 15 to 20)
#    0.000    1.000    5.000    0.750    0.000    4.000 
#    4.500    1.250    0.000    0.000    0.000    0.000 
#    0.000    0.000    0.000    0.000    0.000    0.000 
#
# Total GULP energy -198428.225051 kJ/mol
# GULP energy per Si atom -12401.764066 kJ/mol
# Density = 2.495763 g / cm^3
# Si number density = 25.014569 Si / 1000 Ang^3
#
#
#
# Elastic Constant Matrix: (Units=GPa)
#
#
# Indices 1 2 3 4 5 6 
#
# 1 120.3057 56.7301 60.2414 0.0000 0.0000 0.0000
# 2 56.7301 121.9963 50.2451 0.0000 0.0000 0.0000
# 3 60.2414 50.2451 164.7170 0.0000 0.0000 0.0000
# 4 0.0000 0.0000 0.0000 27.7753 0.0000 0.0000
# 5 0.0000 0.0000 0.0000 0.0000 51.4754 0.0000
# 6 0.0000 0.0000 0.0000 0.0000 0.0000 32.9235
#
#
#
# Elastic Compliance Matrix: (Units=1/GPa)
#
#
# Indices 1 2 3 4 5 6 
#
# 1 0.011837 -0.004256 -0.003031 0.000000 0.000000 0.000000
# 2 -0.004256 0.010905 -0.001770 0.000000 0.000000 0.000000
# 3 -0.003031 -0.001770 0.007719 0.000000 0.000000 0.000000
# 4 0.000000 0.000000 0.000000 0.036003 0.000000 0.000000
# 5 0.000000 0.000000 0.000000 0.000000 0.019427 0.000000
# 6 0.000000 0.000000 0.000000 0.000000 0.000000 0.030373
#
#
# Mechanical properties :
#
#
# Convention : Reuss Voigt Hill
#
# Bulk Modulus (GPa) = 80.98667 82.38356 81.68511
# Shear Modulus (GPa) = 36.10271 38.42165 37.26218
#
# Velocity S-wave (km/s) = 3.80316 3.92340 3.86375
# Velocity P-wave (km/s) = 7.19246 7.31641 7.25470
#
# Compressibility (1/GPa) = 0.01234771
#
# Stress axis : x y z
#
# Youngs Moduli (GPa) = 84.48316 91.70081 129.54478
#
# Poissons Ratio (x) = 0.39028 0.39262
# Poissons Ratio (y) = 0.35956 0.22928
# Poissons Ratio (z) = 0.25605 0.16230
#
# Static dielectric constant tensor:
#      x y z
#    x 4.628000 0.000000 0.000000 
#    y 0.000000 4.283710 0.000000 
#    z 0.000000 0.000000 4.538820 
# 
# 
# High freq. dielectric constant tensor:
#      x y z
#    x 2.000400 0.000000 0.000000 
#    y 0.000000 2.000660 0.000000 
#    z 0.000000 0.000000 2.006090 
# 
# From -- ./inp_files/1713.got.cif
#   From: 2010.03.12/outbox.cif.g09.slc.cpg/sg39_1_cif.got.tgz:1713.got - 2010.04.14 02:53:20.
