data_PCOD8182448
_publ_section_title
;
Structure prediction by ZEFSAII (Michael W. Deem and Ramdas Pophale) SiO2 
 PCOD8182448
Probable space group: A M A 2
;
_chemical_formula_sum "Si O2"
_cell_formula_units_Z 64
_cell_length_a 9.018202
_cell_length_b 18.046988
_cell_length_c 26.113960
_cell_angle_alpha 90.000000
_cell_angle_beta 90.000000
_cell_angle_gamma 90.000000
_cell_volume 4250.083113
_symmetry_space_group_name_H-M "A M A 2"
_symmetry_group_IT_number 40
_symmetry_cell_setting 'orthorhombic'
loop_
_space_group_symop_operation_xyz
x,y,z
-x,-y,z
1/2-x,y,z
1/2+x,-y,z
x,1/2+y,1/2+z
-x,1/2-y,1/2+z
1/2-x,1/2+y,1/2+z
1/2+x,1/2-y,1/2+z
loop_
_atom_site_type_symbol
_atom_site_label
_atom_site_fract_x
_atom_site_fract_y
_atom_site_fract_z
Si Si1 0.923293 0.078755 0.762680
Si Si2 0.081761 0.201634 0.705539
Si Si3 0.078472 0.821815 0.860864
Si Si4 0.077687 0.924862 0.950478
Si Si5 0.077446 0.174971 0.149226
Si Si6 0.421571 0.078113 0.249520
Si Si7 0.424490 0.923129 0.067947
Si Si8 0.916536 0.199520 0.306353
O O1 0.750000 0.069671 0.751197
O O2 0.952696 0.119181 0.816308
O O3 0.996822 0.124987 0.716370
O O4 0.000000 0.000000 0.765676
O O5 0.250000 0.185350 0.687848
O O6 0.080099 0.250632 0.756165
O O7 0.994688 0.245332 0.661106
O O8 0.250000 0.799520 0.862146
O O9 0.024527 0.857570 0.914375
O O10 0.987694 0.746122 0.852743
O O11 0.250000 0.939148 0.942202
O O12 0.039840 0.904858 0.008917
O O13 0.000000 0.000000 0.932825
O O14 0.250000 0.186051 0.137079
O O15 0.052360 0.119237 0.196055
O O16 0.994409 0.143374 0.099856
O O17 0.250000 0.066264 0.261464
O O18 0.490676 0.125016 0.296207
O O19 0.500000 0.000000 0.245568
O O20 0.250000 0.929459 0.078837
O O21 0.500000 0.000000 0.084602
O O22 0.750000 0.177153 0.321508
#
# Coordination Sequence:
#
# PCOD8182448 Si02
#       8
#     8   8   8   8   8   8   8   8
#     4  10  18  27  41  61  85 112 142 174 208 247
#     4   9  17  29  43  59  81 108 138 172 208 247
#     4   9  17  29  43  59  82 112 143 174 209 247
#     4   9  18  30  43  60  83 111 143 178 212 245
#     4  10  19  30  44  61  82 110 142 174 210 250
#     4  10  19  29  42  60  83 110 139 171 206 246
#     4  10  19  30  43  60  83 111 143 178 213 246
#     4   9  17  28  42  60  81 106 137 171 206 246
#
# _framework density 15.058529
#
# number of rings (size 3 to 8) (size 9 to 14) (size 15 to 20)
#    0.000    2.500    0.000    3.000    0.000    7.000 
#    0.000    0.000    0.000    0.000    0.000    0.000 
#    0.000    1.000    0.000    8.000    0.000    4.750 
#
# Total GULP energy -396831.996057 kJ/mol
# GULP energy per Si atom -12400.999877 kJ/mol
# Density = 1.502426 g / cm^3
# Si number density = 15.058529 Si / 1000 Ang^3
#
#
#
# Elastic Constant Matrix: (Units=GPa)
#
#
# Indices 1 2 3 4 5 6 
#
# 1 108.6545 50.1213 36.3403 0.0000 0.0000 0.0000
# 2 50.1213 55.6483 24.9382 0.0000 0.0000 0.0000
# 3 36.3403 24.9382 57.2268 0.0000 0.0000 0.0000
# 4 0.0000 0.0000 0.0000 24.8839 0.0000 0.0000
# 5 0.0000 0.0000 0.0000 0.0000 18.6307 0.0000
# 6 0.0000 0.0000 0.0000 0.0000 0.0000 31.6510
#
#
#
# Elastic Compliance Matrix: (Units=1/GPa)
#
#
# Indices 1 2 3 4 5 6 
#
# 1 0.016855 -0.012905 -0.005080 0.000000 0.000000 0.000000
# 2 -0.012905 0.032211 -0.005842 0.000000 0.000000 0.000000
# 3 -0.005080 -0.005842 0.023246 0.000000 0.000000 0.000000
# 4 0.000000 0.000000 0.000000 0.040187 0.000000 0.000000
# 5 0.000000 0.000000 0.000000 0.000000 0.053675 0.000000
# 6 0.000000 0.000000 0.000000 0.000000 0.000000 0.031595
#
#
# Mechanical properties :
#
#
# Convention : Reuss Voigt Hill
#
# Bulk Modulus (GPa) = 40.55318 49.36991 44.96154
# Shear Modulus (GPa) = 19.71285 22.37512 21.04398
#
# Velocity S-wave (km/s) = 3.62205 3.85889 3.74234
# Velocity P-wave (km/s) = 6.66942 7.26025 6.97110
#
# Compressibility (1/GPa) = 0.02465898
#
# Stress axis : x y z
#
# Youngs Moduli (GPa) = 59.32839 31.04513 43.01806
#
# Poissons Ratio (x) = 0.40063 0.21853
# Poissons Ratio (y) = 0.76562 0.25132
# Poissons Ratio (z) = 0.30138 0.18137
#
# Static dielectric constant tensor:
#      x y z
#    x 3.090160 0.000000 0.000000 
#    y 0.000000 2.855050 0.000000 
#    z 0.000000 0.000000 2.768350 
# 
# 
# High freq. dielectric constant tensor:
#      x y z
#    x 1.595370 0.000000 0.000000 
#    y 0.000000 1.563270 0.000000 
#    z 0.000000 0.000000 1.542150 
# 
# From -- ./inp_files/24377.got.cif
#   From: 2010.03.12/outbox.cif.g09.slc.cpg/sg40_13_cif.got.tgz:24377.got - 2010.04.14 01:38:03.
