data_PCOD8182854
_publ_section_title
;
Structure prediction by ZEFSAII (Michael W. Deem and Ramdas Pophale) SiO2 
 PCOD8182854
Probable space group: A M A 2
;
_chemical_formula_sum "Si O2"
_cell_formula_units_Z 40
_cell_length_a 8.866382
_cell_length_b 15.567930
_cell_length_c 18.703482
_cell_angle_alpha 90.000000
_cell_angle_beta 90.000000
_cell_angle_gamma 90.000000
_cell_volume 2581.664333
_symmetry_space_group_name_H-M "A M A 2"
_symmetry_group_IT_number 40
_symmetry_cell_setting 'orthorhombic'
loop_
_space_group_symop_operation_xyz
x,y,z
-x,-y,z
1/2-x,y,z
1/2+x,-y,z
x,1/2+y,1/2+z
-x,1/2-y,1/2+z
1/2-x,1/2+y,1/2+z
1/2+x,1/2-y,1/2+z
loop_
_atom_site_type_symbol
_atom_site_label
_atom_site_fract_x
_atom_site_fract_y
_atom_site_fract_z
Si Si1 0.571271 0.756427 0.333300
Si Si2 0.919883 0.816775 0.960449
Si Si3 0.074273 0.909266 0.247311
Si Si4 0.919762 0.412580 0.324228
Si Si5 0.075522 0.909928 0.082523
O O1 0.750000 0.756974 0.332187
O O2 0.510713 0.756286 0.415629
O O3 0.508509 0.839412 0.294603
O O4 0.509724 0.670303 0.292887
O O5 0.750000 0.784475 0.975601
O O6 0.917367 0.903073 0.910925
O O7 0.001336 0.835137 0.035203
O O8 0.250000 0.912781 0.266787
O O9 0.049005 0.884941 0.164672
O O10 0.000000 0.000000 0.265509
O O11 0.750000 0.412612 0.293325
O O12 0.000000 0.500000 0.300736
O O13 0.250000 0.917670 0.063087
O O14 0.000000 0.000000 0.063967
#
# Coordination Sequence:
#
# PCOD8182854 Si02
#       5
#     8   8   8   8   8
#     4  10  19  31  47  67  93 126 163 199 238 284
#     4   9  18  29  44  65  94 124 154 192 232 279
#     4  10  20  34  49  69  97 129 164 200 240 284
#     4   9  17  27  42  65  92 122 151 189 232 277
#     4  10  19  29  45  68  96 127 157 192 237 290
#
# _framework density 15.493881
#
# number of rings (size 3 to 8) (size 9 to 14) (size 15 to 20)
#    1.200    1.200    0.000    4.200    0.000    4.000 
#    0.000    0.000    0.000    0.000    0.000    1.400 
#    0.000    9.600    0.000    0.000    0.000    0.000 
#
# Total GULP energy -247849.836281 kJ/mol
# GULP energy per Si atom -12392.491814 kJ/mol
# Density = 1.545862 g / cm^3
# Si number density = 15.493881 Si / 1000 Ang^3
#
#
#
# Elastic Constant Matrix: (Units=GPa)
#
#
# Indices 1 2 3 4 5 6 
#
# 1 169.6530 71.9148 56.2311 0.0000 0.0000 0.0000
# 2 71.9148 100.5227 49.0999 0.0000 0.0000 0.0000
# 3 56.2311 49.0999 63.6254 0.0000 0.0000 0.0000
# 4 0.0000 0.0000 0.0000 28.4337 0.0000 0.0000
# 5 0.0000 0.0000 0.0000 0.0000 23.6881 0.0000
# 6 0.0000 0.0000 0.0000 0.0000 0.0000 29.9946
#
#
#
# Elastic Compliance Matrix: (Units=1/GPa)
#
#
# Indices 1 2 3 4 5 6 
#
# 1 0.009348 -0.004257 -0.004977 0.000000 0.000000 0.000000
# 2 -0.004257 0.017905 -0.010055 0.000000 0.000000 0.000000
# 3 -0.004977 -0.010055 0.027875 0.000000 0.000000 0.000000
# 4 0.000000 0.000000 0.000000 0.035169 0.000000 0.000000
# 5 0.000000 0.000000 0.000000 0.000000 0.042215 0.000000
# 6 0.000000 0.000000 0.000000 0.000000 0.000000 0.033339
#
#
# Mechanical properties :
#
#
# Convention : Reuss Voigt Hill
#
# Bulk Modulus (GPa) = 60.42094 76.47696 68.44895
# Shear Modulus (GPa) = 23.81557 26.86030 25.33793
#
# Velocity S-wave (km/s) = 3.92483 4.16818 4.04833
# Velocity P-wave (km/s) = 7.72142 8.52241 8.13179
#
# Compressibility (1/GPa) = 0.01655055
#
# Stress axis : x y z
#
# Youngs Moduli (GPa) = 106.96910 55.85092 35.87470
#
# Poissons Ratio (x) = 0.23776 0.17854
# Poissons Ratio (y) = 0.45538 0.36071
# Poissons Ratio (z) = 0.53237 0.56157
#
# Static dielectric constant tensor:
#      x y z
#    x 3.171870 0.000000 0.000000 
#    y 0.000000 2.695380 0.000000 
#    z 0.000000 0.000000 2.698470 
# 
# 
# High freq. dielectric constant tensor:
#      x y z
#    x 1.619760 0.000000 0.000000 
#    y 0.000000 1.568330 0.000000 
#    z 0.000000 0.000000 1.560040 
# 
# From -- ./inp_files/14904.got.cif
#   From: 2010.03.12/outbox.cif.g09.slc.cpg/sg40_8_cif.got.tgz:14904.got - 2010.04.14 01:38:03.
