data_PCOD8182749
_publ_section_title
;
Structure prediction by ZEFSAII (Michael W. Deem and Ramdas Pophale) SiO2 
 PCOD8182749
Probable space group: A M A 2
;
_chemical_formula_sum "Si O2"
_cell_formula_units_Z 64
_cell_length_a 8.650569
_cell_length_b 33.668856
_cell_length_c 11.695554
_cell_angle_alpha 90.000000
_cell_angle_beta 90.000000
_cell_angle_gamma 90.000000
_cell_volume 3406.385796
_symmetry_space_group_name_H-M "A M A 2"
_symmetry_group_IT_number 40
_symmetry_cell_setting 'orthorhombic'
loop_
_space_group_symop_operation_xyz
x,y,z
-x,-y,z
1/2-x,y,z
1/2+x,-y,z
x,1/2+y,1/2+z
-x,1/2-y,1/2+z
1/2-x,1/2+y,1/2+z
1/2+x,1/2-y,1/2+z
loop_
_atom_site_type_symbol
_atom_site_label
_atom_site_fract_x
_atom_site_fract_y
_atom_site_fract_z
Si Si1 0.429193 0.315602 0.563140
Si Si2 0.567723 0.458747 0.039687
Si Si3 0.932064 0.957955 0.801324
Si Si4 0.568433 0.123043 0.870761
Si Si5 0.071156 0.682264 0.806457
Si Si6 0.074699 0.384765 0.937663
Si Si7 0.575476 0.169018 0.655826
Si Si8 0.066647 0.263689 0.993682
O O1 0.250000 0.314048 0.597907
O O2 0.464927 0.355224 0.490499
O O3 0.537320 0.314451 0.673012
O O4 0.473296 0.277203 0.488243
O O5 0.500000 0.500000 0.997405
O O6 0.750000 0.457880 0.028291
O O7 0.516078 0.450625 0.170396
O O8 0.493545 0.428226 0.951538
O O9 0.750000 0.960432 0.814414
O O10 0.993278 0.920669 0.874963
O O11 0.000000 0.000000 0.846197
O O12 0.750000 0.117607 0.847817
O O13 0.494312 0.150966 0.769521
O O14 0.250000 0.691287 0.829601
O O15 0.028953 0.637845 0.845004
O O16 0.967425 0.713522 0.875859
O O17 0.250000 0.386369 0.892344
O O18 0.064871 0.364407 0.060260
O O19 0.750000 0.179227 0.689428
O O20 0.504943 0.209784 0.602396
O O21 0.250000 0.256730 0.002073
#
# Coordination Sequence:
#
# PCOD8182749 Si02
#       8
#     8   8   8   8   8   8   8   8
#     4  11  24  39  58  85 114 150 193 237 287 343
#     4  10  19  30  48  80 116 149 183 224 277 338
#     4  10  20  33  53  82 117 152 190 232 282 342
#     4  10  20  36  57  82 115 150 188 234 287 343
#     4  11  23  40  59  79 110 150 193 235 281 337
#     4  10  18  33  57  80 108 143 183 232 282 335
#     4   8  16  31  53  79 107 142 179 222 279 336
#     4  10  21  38  60  85 113 146 188 238 290 340
#
# _framework density 18.788242
#
# number of rings (size 3 to 8) (size 9 to 14) (size 15 to 20)
#    0.000    2.000    1.250    3.750    1.750    2.000 
#    0.000    0.625    0.000    0.750    0.000    1.750 
#    0.000    0.000    0.000    0.000    0.000    0.000 
#
# Total GULP energy -396770.956066 kJ/mol
# GULP energy per Si atom -12399.092377 kJ/mol
# Density = 1.874548 g / cm^3
# Si number density = 18.788242 Si / 1000 Ang^3
#
#
#
# Elastic Constant Matrix: (Units=GPa)
#
#
# Indices 1 2 3 4 5 6 
#
# 1 61.3842 30.5936 17.5251 0.0000 0.0000 0.0000
# 2 30.5936 133.7329 33.7575 0.0000 0.0000 0.0000
# 3 17.5251 33.7575 66.6786 0.0000 0.0000 0.0000
# 4 0.0000 0.0000 0.0000 23.4224 0.0000 0.0000
# 5 0.0000 0.0000 0.0000 0.0000 22.4205 0.0000
# 6 0.0000 0.0000 0.0000 0.0000 0.0000 34.1662
#
#
#
# Elastic Compliance Matrix: (Units=1/GPa)
#
#
# Indices 1 2 3 4 5 6 
#
# 1 0.018963 -0.003531 -0.003196 0.000000 0.000000 0.000000
# 2 -0.003531 0.009231 -0.003745 0.000000 0.000000 0.000000
# 3 -0.003196 -0.003745 0.017733 0.000000 0.000000 0.000000
# 4 0.000000 0.000000 0.000000 0.042694 0.000000 0.000000
# 5 0.000000 0.000000 0.000000 0.000000 0.044602 0.000000
# 6 0.000000 0.000000 0.000000 0.000000 0.000000 0.029269
#
#
# Mechanical properties :
#
#
# Convention : Reuss Voigt Hill
#
# Bulk Modulus (GPa) = 40.02878 47.28313 43.65595
# Shear Modulus (GPa) = 26.07348 27.99643 27.03495
#
# Velocity S-wave (km/s) = 3.72930 3.86437 3.79744
# Velocity P-wave (km/s) = 6.31625 6.71805 6.52025
#
# Compressibility (1/GPa) = 0.02498203
#
# Stress axis : x y z
#
# Youngs Moduli (GPa) = 52.73317 108.33264 56.39050
#
# Poissons Ratio (x) = 0.38256 0.18024
# Poissons Ratio (y) = 0.18622 0.21119
# Poissons Ratio (z) = 0.16855 0.40572
#
# Static dielectric constant tensor:
#      x y z
#    x 3.341770 0.000000 0.000000 
#    y 0.000000 3.552320 0.000000 
#    z 0.000000 0.000000 3.217280 
# 
# 
# High freq. dielectric constant tensor:
#      x y z
#    x 1.725820 0.000000 0.000000 
#    y 0.000000 1.736350 0.000000 
#    z 0.000000 0.000000 1.700360 
# 
# From -- ./inp_files/10599.got.cif
#   From: 2010.03.12/outbox.cif.g09.slc.cpg/sg40_6_cif.got.tgz:10599.got - 2010.04.14 01:38:03.
