data_PCOD8182430
_publ_section_title
;
Structure prediction by ZEFSAII (Michael W. Deem and Ramdas Pophale) SiO2 
 PCOD8182430
Probable space group: A M A 2
;
_chemical_formula_sum "Si O2"
_cell_formula_units_Z 56
_cell_length_a 9.058121
_cell_length_b 22.226277
_cell_length_c 17.620644
_cell_angle_alpha 90.000000
_cell_angle_beta 90.000000
_cell_angle_gamma 90.000000
_cell_volume 3547.534415
_symmetry_space_group_name_H-M "A M A 2"
_symmetry_group_IT_number 40
_symmetry_cell_setting 'orthorhombic'
loop_
_space_group_symop_operation_xyz
x,y,z
-x,-y,z
1/2-x,y,z
1/2+x,-y,z
x,1/2+y,1/2+z
-x,1/2-y,1/2+z
1/2-x,1/2+y,1/2+z
1/2+x,1/2-y,1/2+z
loop_
_atom_site_type_symbol
_atom_site_label
_atom_site_fract_x
_atom_site_fract_y
_atom_site_fract_z
Si Si1 0.078988 0.286464 0.073320
Si Si2 0.922094 0.150192 0.284380
Si Si3 0.417469 0.718402 0.222513
Si Si4 0.583084 0.352376 0.538208
Si Si5 0.423661 0.936178 0.150435
Si Si6 0.923555 0.813939 0.427100
Si Si7 0.082257 0.195820 0.884902
O O1 0.250000 0.301754 0.067293
O O2 0.046055 0.215838 0.062060
O O3 0.021958 0.305947 0.156202
O O4 0.995046 0.325974 0.009694
O O5 0.750000 0.146301 0.303232
O O6 0.961447 0.213812 0.245748
O O7 0.972251 0.098051 0.226867
O O8 0.011043 0.141180 0.363025
O O9 0.250000 0.716774 0.192451
O O10 0.437677 0.675452 0.297148
O O11 0.750000 0.369168 0.562003
O O12 0.471467 0.398004 0.577170
O O13 0.562458 0.357802 0.446211
O O14 0.250000 0.944961 0.146066
O O15 0.500000 0.000000 0.149276
O O16 0.750000 0.823358 0.432564
O O17 0.962470 0.746471 0.402366
O O18 0.250000 0.222860 0.894622
#
# Coordination Sequence:
#
# PCOD8182430 Si02
#       7
#     8   8   8   8   8   8   8
#     4  10  18  27  41  62  90 119 147 178 216 260
#     4   9  18  32  45  58  84 116 145 182 227 263
#     4   9  15  26  43  63  88 115 147 178 213 260
#     4   9  17  30  45  60  84 116 149 183 221 261
#     4  11  22  34  48  65  86 115 152 192 228 263
#     4  10  18  26  41  62  83 111 148 181 214 261
#     4   8  16  29  42  60  86 115 143 177 219 262
#
# _framework density 15.785612
#
# number of rings (size 3 to 8) (size 9 to 14) (size 15 to 20)
#    0.000    2.571    1.429    3.857    0.000    5.714 
#    0.000    0.000    0.000    0.000    0.000    0.000 
#    0.000    1.143    0.000    8.286    0.000    4.000 
#
# Total GULP energy -347043.604023 kJ/mol
# GULP energy per Si atom -12394.414429 kJ/mol
# Density = 1.574968 g / cm^3
# Si number density = 15.785612 Si / 1000 Ang^3
#
#
#
# Elastic Constant Matrix: (Units=GPa)
#
#
# Indices 1 2 3 4 5 6 
#
# 1 85.5024 25.3151 64.3439 0.0000 0.0000 0.0000
# 2 25.3151 42.8759 36.1832 0.0000 0.0000 0.0000
# 3 64.3439 36.1832 150.4728 0.0000 0.0000 0.0000
# 4 0.0000 0.0000 0.0000 11.1781 0.0000 0.0000
# 5 0.0000 0.0000 0.0000 0.0000 31.6632 0.0000
# 6 0.0000 0.0000 0.0000 0.0000 0.0000 10.3105
#
#
#
# Elastic Compliance Matrix: (Units=1/GPa)
#
#
# Indices 1 2 3 4 5 6 
#
# 1 0.018131 -0.005222 -0.006497 0.000000 0.000000 0.000000
# 2 -0.005222 0.030765 -0.005165 0.000000 0.000000 0.000000
# 3 -0.006497 -0.005165 0.010666 0.000000 0.000000 0.000000
# 4 0.000000 0.000000 0.000000 0.089461 0.000000 0.000000
# 5 0.000000 0.000000 0.000000 0.000000 0.031582 0.000000
# 6 0.000000 0.000000 0.000000 0.000000 0.000000 0.096988
#
#
# Mechanical properties :
#
#
# Convention : Reuss Voigt Hill
#
# Bulk Modulus (GPa) = 38.76913 58.94840 48.85877
# Shear Modulus (GPa) = 15.62693 20.83095 18.22894
#
# Velocity S-wave (km/s) = 3.14976 3.63659 3.40189
# Velocity P-wave (km/s) = 6.15151 7.42006 6.81536
#
# Compressibility (1/GPa) = 0.02579372
#
# Stress axis : x y z
#
# Youngs Moduli (GPa) = 55.15337 32.50450 93.75520
#
# Poissons Ratio (x) = 0.16974 0.60917
# Poissons Ratio (y) = 0.28801 0.48424
# Poissons Ratio (z) = 0.35836 0.16788
#
# Static dielectric constant tensor:
#      x y z
#    x 2.978010 0.000000 0.000000 
#    y 0.000000 2.491620 0.000000 
#    z 0.000000 0.000000 3.430540 
# 
# 
# High freq. dielectric constant tensor:
#      x y z
#    x 1.612810 0.000000 0.000000 
#    y 0.000000 1.526910 0.000000 
#    z 0.000000 0.000000 1.626010 
# 
# From -- ./inp_files/19475.got.cif
#   From: 2010.03.12/outbox.cif.g09.slc.cpg/sg40_10_cif.got.tgz:19475.got - 2010.04.14 01:38:03.
