data_PCOD8182648
_publ_section_title
;
Structure prediction by ZEFSAII (Michael W. Deem and Ramdas Pophale) SiO2 
 PCOD8182648
Probable space group: A M A 2
;
_chemical_formula_sum "Si O2"
_cell_formula_units_Z 64
_cell_length_a 22.868300
_cell_length_b 9.136279
_cell_length_c 15.958337
_cell_angle_alpha 90.000000
_cell_angle_beta 90.000000
_cell_angle_gamma 90.000000
_cell_volume 3334.194006
_symmetry_space_group_name_H-M "A M A 2"
_symmetry_group_IT_number 40
_symmetry_cell_setting 'orthorhombic'
loop_
_space_group_symop_operation_xyz
x,y,z
-x,-y,z
1/2-x,y,z
1/2+x,-y,z
x,1/2+y,1/2+z
-x,1/2-y,1/2+z
1/2-x,1/2+y,1/2+z
1/2+x,1/2-y,1/2+z
loop_
_atom_site_type_symbol
_atom_site_label
_atom_site_fract_x
_atom_site_fract_y
_atom_site_fract_z
Si Si1 0.618552 0.149812 0.993640
Si Si2 0.116315 0.866576 0.807566
Si Si3 0.581253 0.859670 0.088820
Si Si4 0.983906 0.845905 0.534197
Si Si5 0.928271 0.858590 0.714406
Si Si6 0.316091 0.671438 0.124040
Si Si7 0.315619 0.338220 0.146720
Si Si8 0.523208 0.352793 0.765862
O O1 0.639185 0.097515 0.901180
O O2 0.566000 0.264628 0.981970
O O3 0.671740 0.230378 0.041675
O O4 0.594629 0.012412 0.045017
O O5 0.171604 0.845127 0.746531
O O6 0.076730 0.721103 0.814695
O O7 0.075522 0.991892 0.767036
O O8 0.540826 0.756963 0.031869
O O9 0.642077 0.776394 0.102645
O O10 0.545898 0.892965 0.173131
O O11 0.960327 0.887337 0.626596
O O12 0.000000 0.000000 0.490237
O O13 0.863412 0.789939 0.696607
O O14 0.965979 0.748251 0.768579
O O15 0.250000 0.703971 0.155434
O O16 0.323642 0.498189 0.104461
O O17 0.250000 0.280583 0.134363
O O18 0.500000 0.500000 0.810336
#
# Coordination Sequence:
#
# PCOD8182648 Si02
#       8
#     8   8   8   8   8   8   8   8
#     4  11  22  33  50  83 115 135 166 217 273 312
#     4  10  21  34  51  78 109 139 169 210 264 316
#     4  10  19  32  52  79 107 136 174 221 263 302
#     4  10  18  32  53  74 105 145 181 211 249 310
#     4   9  17  32  52  73  99 137 180 214 250 305
#     4   9  18  34  55  75  99 137 180 214 251 310
#     4   9  19  38  60  76  96 137 186 218 250 309
#     4  10  18  31  51  74 104 140 176 213 252 302
#
# _framework density 19.195045
#
# number of rings (size 3 to 8) (size 9 to 14) (size 15 to 20)
#    0.000    2.250    0.000    6.750    0.000    3.500 
#    0.000    1.250    0.000    0.000    0.000    7.000 
#    0.000    0.000    0.000    0.000    0.000    0.000 
#
# Total GULP energy -396655.929591 kJ/mol
# GULP energy per Si atom -12395.497800 kJ/mol
# Density = 1.915136 g / cm^3
# Si number density = 19.195045 Si / 1000 Ang^3
#
#
#
# Elastic Constant Matrix: (Units=GPa)
#
#
# Indices 1 2 3 4 5 6 
#
# 1 112.1671 31.8176 2.5685 0.0000 0.0000 0.0000
# 2 31.8176 89.1448 19.8038 0.0000 0.0000 0.0000
# 3 2.5685 19.8038 65.8574 0.0000 0.0000 0.0000
# 4 0.0000 0.0000 0.0000 11.4984 0.0000 0.0000
# 5 0.0000 0.0000 0.0000 0.0000 4.7891 0.0000
# 6 0.0000 0.0000 0.0000 0.0000 0.0000 24.9051
#
#
#
# Elastic Compliance Matrix: (Units=1/GPa)
#
#
# Indices 1 2 3 4 5 6 
#
# 1 0.009952 -0.003714 0.000729 0.000000 0.000000 0.000000
# 2 -0.003714 0.013407 -0.003887 0.000000 0.000000 0.000000
# 3 0.000729 -0.003887 0.016325 0.000000 0.000000 0.000000
# 4 0.000000 0.000000 0.000000 0.086968 0.000000 0.000000
# 5 0.000000 0.000000 0.000000 0.000000 0.208807 0.000000
# 6 0.000000 0.000000 0.000000 0.000000 0.000000 0.040152
#
#
# Mechanical properties :
#
#
# Convention : Reuss Voigt Hill
#
# Bulk Modulus (GPa) = 38.55114 41.72767 40.13940
# Shear Modulus (GPa) = 12.56275 22.43714 17.49994
#
# Velocity S-wave (km/s) = 2.56105 3.42263 3.02270
# Velocity P-wave (km/s) = 5.37334 6.11598 5.75665
#
# Compressibility (1/GPa) = 0.02593957
#
# Stress axis : x y z
#
# Youngs Moduli (GPa) = 100.48125 74.58938 61.25703
#
# Poissons Ratio (x) = 0.27702 -0.04464
# Poissons Ratio (y) = 0.37319 0.23808
# Poissons Ratio (z) = -0.07322 0.28990
#
# Static dielectric constant tensor:
#      x y z
#    x 3.566860 0.000000 0.000000 
#    y 0.000000 3.576580 0.000000 
#    z 0.000000 0.000000 3.173800 
# 
# 
# High freq. dielectric constant tensor:
#      x y z
#    x 1.744800 0.000000 0.000000 
#    y 0.000000 1.752570 0.000000 
#    z 0.000000 0.000000 1.711620 
# 
# From -- ./inp_files/21529.got.cif
#   From: 2010.03.12/outbox.cif.g09.slc.cpg/sg40_11_cif.got.tgz:21529.got - 2010.04.14 01:38:03.
