data_PCOD8182274
_publ_section_title
;
Structure prediction by ZEFSAII (Michael W. Deem and Ramdas Pophale) SiO2 
 PCOD8182274
Probable space group: A B M 2
;
_chemical_formula_sum "Si O2"
_cell_formula_units_Z 64
_cell_length_a 12.414206
_cell_length_b 26.182801
_cell_length_c 9.240964
_cell_angle_alpha 90.000000
_cell_angle_beta 90.000000
_cell_angle_gamma 90.000000
_cell_volume 3003.670789
_symmetry_space_group_name_H-M "A B M 2"
_symmetry_group_IT_number 39
_symmetry_cell_setting 'orthorhombic'
loop_
_space_group_symop_operation_xyz
x,y,z
-x,-y,z
-x,1/2+y,z
x,1/2-y,z
x,1/2+y,1/2+z
-x,1/2-y,1/2+z
-x,y,1/2+z
x,-y,1/2+z
loop_
_atom_site_type_symbol
_atom_site_label
_atom_site_fract_x
_atom_site_fract_y
_atom_site_fract_z
Si Si1 0.107797 0.032487 0.983040
Si Si2 0.671417 0.191217 0.988471
Si Si3 0.451068 0.945431 0.280985
Si Si4 0.461748 0.376250 0.049669
Si Si5 0.867197 0.348253 0.151679
Si Si6 0.276311 0.691012 0.663433
Si Si7 0.217074 0.457323 0.681600
Si Si8 0.079215 0.350779 0.991018
O O1 0.169178 0.031579 0.835310
O O2 0.083130 0.089694 0.032587
O O3 0.000000 0.000000 0.973066
O O4 0.191709 0.007472 0.091519
O O5 0.631675 0.250000 0.989413
O O6 0.720891 0.175470 0.832721
O O7 0.572170 0.154019 0.021999
O O8 0.762450 0.185326 0.112560
O O9 0.534526 0.912181 0.189523
O O10 0.424369 0.913257 0.422278
O O11 0.344989 0.951664 0.184301
O O12 0.500000 0.000000 0.324768
O O13 0.367332 0.336241 0.070158
O O14 0.837758 0.406848 0.116372
O O15 0.900035 0.340114 0.320544
O O16 0.962343 0.330921 0.043029
O O17 0.300819 0.750000 0.646894
O O18 0.162323 0.678458 0.592760
#
# Coordination Sequence:
#
# PCOD8182274 Si02
#       8
#     8   8   8   8   8   8   8   8
#     4  11  23  40  65  97 137 182 234 276 337 417
#     4  11  25  46  74 102 134 181 234 293 356 419
#     4  12  28  44  69 104 145 187 231 285 353 423
#     4  12  24  49  69 102 144 185 234 285 349 421
#     4  11  23  45  67 103 138 178 229 283 354 418
#     4  11  26  47  72 103 137 185 240 295 354 414
#     4  11  25  40  63  98 137 185 229 278 343 410
#     4  11  25  42  70 101 141 183 230 291 349 419
#
# _framework density 21.307262000000001
#
# number of rings (size 3 to 8) (size 9 to 14) (size 15 to 20)
#    0.000    0.750    3.750    3.375    7.000    2.000 
#    0.000    0.000    0.000    0.000    0.000    0.000 
#    0.000    0.000    0.000    0.000    0.000    0.000 
#
# Total GULP energy -396898.808782 kJ/mol
# GULP energy per Si atom -12403.087774 kJ/mol
# Density = 2.125877 g / cm^3
# Si number density = 21.307262 Si / 1000 Ang^3
#
#
#
# Elastic Constant Matrix: (Units=GPa)
#
#
# Indices 1 2 3 4 5 6 
#
# 1 113.8961 31.2986 23.3918 0.0000 0.0000 0.0000
# 2 31.2986 100.5945 45.6107 0.0000 0.0000 0.0000
# 3 23.3918 45.6107 67.9642 0.0000 0.0000 0.0000
# 4 0.0000 0.0000 0.0000 37.7753 0.0000 0.0000
# 5 0.0000 0.0000 0.0000 0.0000 39.5991 0.0000
# 6 0.0000 0.0000 0.0000 0.0000 0.0000 26.5013
#
#
#
# Elastic Compliance Matrix: (Units=1/GPa)
#
#
# Indices 1 2 3 4 5 6 
#
# 1 0.009769 -0.002178 -0.001901 0.000000 0.000000 0.000000
# 2 -0.002178 0.014774 -0.009165 0.000000 0.000000 0.000000
# 3 -0.001901 -0.009165 0.021519 0.000000 0.000000 0.000000
# 4 0.000000 0.000000 0.000000 0.026472 0.000000 0.000000
# 5 0.000000 0.000000 0.000000 0.000000 0.025253 0.000000
# 6 0.000000 0.000000 0.000000 0.000000 0.000000 0.037734
#
#
# Mechanical properties :
#
#
# Convention : Reuss Voigt Hill
#
# Bulk Modulus (GPa) = 51.08820 53.67299 52.38060
# Shear Modulus (GPa) = 29.66772 32.91871 31.29322
#
# Velocity S-wave (km/s) = 3.73550 3.93485 3.83647
# Velocity P-wave (km/s) = 6.52949 6.77412 6.65293
#
# Compressibility (1/GPa) = 0.01957399
#
# Stress axis : x y z
#
# Youngs Moduli (GPa) = 102.36765 67.68592 46.47106
#
# Poissons Ratio (x) = 0.14739 0.08833
# Poissons Ratio (y) = 0.22291 0.42593
# Poissons Ratio (z) = 0.19458 0.62037
#
# Static dielectric constant tensor:
#      x y z
#    x 3.896500 0.000000 0.000000 
#    y 0.000000 3.054270 0.000000 
#    z 0.000000 0.000000 4.117340 
# 
# 
# High freq. dielectric constant tensor:
#      x y z
#    x 1.846340 0.000000 0.000000 
#    y 0.000000 1.842290 0.000000 
#    z 0.000000 0.000000 1.843110 
# 
# From -- ./inp_files/2895.got.cif
#   From: 2010.03.12/outbox.cif.g09.slc.cpg/sg39_2_cif.got.tgz:2895.got - 2010.04.14 02:53:20.
