data_PCOD8182527
_publ_section_title
;
Structure prediction by ZEFSAII (Michael W. Deem and Ramdas Pophale) SiO2 
 PCOD8182527
Probable space group: A M A 2
;
_chemical_formula_sum "Si O2"
_cell_formula_units_Z 64
_cell_length_a 8.986461
_cell_length_b 18.645307
_cell_length_c 20.969255
_cell_angle_alpha 90.000000
_cell_angle_beta 90.000000
_cell_angle_gamma 90.000000
_cell_volume 3513.510320
_symmetry_space_group_name_H-M "A M A 2"
_symmetry_group_IT_number 40
_symmetry_cell_setting 'orthorhombic'
loop_
_space_group_symop_operation_xyz
x,y,z
-x,-y,z
1/2-x,y,z
1/2+x,-y,z
x,1/2+y,1/2+z
-x,1/2-y,1/2+z
1/2-x,1/2+y,1/2+z
1/2+x,1/2-y,1/2+z
loop_
_atom_site_type_symbol
_atom_site_label
_atom_site_fract_x
_atom_site_fract_y
_atom_site_fract_z
Si Si1 0.427802 0.925536 0.715090
Si Si2 0.086808 0.066111 0.903739
Si Si3 0.576248 0.677482 0.329365
Si Si4 0.587412 0.932317 0.053203
Si Si5 0.571807 0.364517 0.089489
Si Si6 0.927941 0.272890 0.543304
Si Si7 0.923282 0.071195 0.465655
Si Si8 0.419309 0.782533 0.404876
O O1 0.250000 0.933348 0.708082
O O2 0.470623 0.861248 0.763940
O O3 0.504132 0.905961 0.649077
O O4 0.500000 0.000000 0.739528
O O5 0.250000 0.070382 0.872149
O O6 0.994236 0.136864 0.889698
O O7 0.102526 0.054894 0.978410
O O8 0.000000 0.000000 0.871704
O O9 0.750000 0.679334 0.336639
O O10 0.512498 0.757595 0.341957
O O11 0.750000 0.933635 0.085062
O O12 0.517072 0.852949 0.063742
O O13 0.500000 0.000000 0.083896
O O14 0.750000 0.365450 0.091837
O O15 0.511370 0.282825 0.089663
O O16 0.513395 0.406667 0.028263
O O17 0.750000 0.264810 0.551119
O O18 0.973328 0.255295 0.470589
O O19 0.750000 0.059139 0.483171
O O20 0.938885 0.132007 0.411589
O O21 0.000000 0.000000 0.437550
O O22 0.250000 0.760684 0.392140
#
# Coordination Sequence:
#
# PCOD8182527 Si02
#       8
#     8   8   8   8   8   8   8   8
#     4  11  24  40  54  73 102 139 179 219 258 302
#     4  10  18  29  43  63  93 130 168 203 243 289
#     4  11  22  33  49  72  99 134 174 212 251 296
#     4   9  17  28  43  66  97 132 166 201 245 296
#     4  11  22  35  54  78 101 133 175 220 263 308
#     4   9  17  33  51  71 101 137 171 210 260 310
#     4  10  20  35  55  79 107 137 167 208 260 312
#     4   9  18  33  51  72 102 136 168 205 254 307
#
# _framework density 18.215402000000001
#
# number of rings (size 3 to 8) (size 9 to 14) (size 15 to 20)
#    0.000    2.000    1.250    4.125    0.000    6.500 
#    0.000    0.000    0.000    0.000    0.000    0.875 
#    0.000    6.000    0.000    0.000    0.000    0.000 
#
# Total GULP energy -396589.534179 kJ/mol
# GULP energy per Si atom -12393.422943 kJ/mol
# Density = 1.817394 g / cm^3
# Si number density = 18.215402 Si / 1000 Ang^3
#
#
#
# Elastic Constant Matrix: (Units=GPa)
#
#
# Indices 1 2 3 4 5 6 
#
# 1 88.9995 50.6212 33.6162 0.0000 0.0000 0.0000
# 2 50.6212 124.5675 23.6878 0.0000 0.0000 0.0000
# 3 33.6162 23.6878 44.8525 0.0000 0.0000 0.0000
# 4 0.0000 0.0000 0.0000 44.0364 0.0000 0.0000
# 5 0.0000 0.0000 0.0000 0.0000 20.3446 0.0000
# 6 0.0000 0.0000 0.0000 0.0000 0.0000 35.2330
#
#
#
# Elastic Compliance Matrix: (Units=1/GPa)
#
#
# Indices 1 2 3 4 5 6 
#
# 1 0.018462 -0.005415 -0.010977 0.000000 0.000000 0.000000
# 2 -0.005415 0.010512 -0.001493 0.000000 0.000000 0.000000
# 3 -0.010977 -0.001493 0.031311 0.000000 0.000000 0.000000
# 4 0.000000 0.000000 0.000000 0.022708 0.000000 0.000000
# 5 0.000000 0.000000 0.000000 0.000000 0.049153 0.000000
# 6 0.000000 0.000000 0.000000 0.000000 0.000000 0.028383
#
#
# Mechanical properties :
#
#
# Convention : Reuss Voigt Hill
#
# Bulk Modulus (GPa) = 40.79232 52.69665 46.74449
# Shear Modulus (GPa) = 24.45310 29.95574 27.20442
#
# Velocity S-wave (km/s) = 3.66791 4.05968 3.86876
# Velocity P-wave (km/s) = 6.35461 7.13913 6.75826
#
# Compressibility (1/GPa) = 0.02451442
#
# Stress axis : x y z
#
# Youngs Moduli (GPa) = 54.16436 95.12635 31.93741
#
# Poissons Ratio (x) = 0.51513 0.35059
# Poissons Ratio (y) = 0.29331 0.04769
# Poissons Ratio (z) = 0.59458 0.14205
#
# Static dielectric constant tensor:
#      x y z
#    x 3.660370 0.000000 0.000000 
#    y 0.000000 3.463580 0.000000 
#    z 0.000000 0.000000 2.940160 
# 
# 
# High freq. dielectric constant tensor:
#      x y z
#    x 1.713800 0.000000 0.000000 
#    y 0.000000 1.717200 0.000000 
#    z 0.000000 0.000000 1.648930 
# 
# From -- ./inp_files/22540.got.cif
#   From: 2010.03.12/outbox.cif.g09.slc.cpg/sg40_12_cif.got.tgz:22540.got - 2010.04.14 01:38:03.
