data_PCOD8182571
_publ_section_title
;
Structure prediction by ZEFSAII (Michael W. Deem and Ramdas Pophale) SiO2 
 PCOD8182571
Probable space group: A M A 2
;
_chemical_formula_sum "Si O2"
_cell_formula_units_Z 56
_cell_length_a 9.045730
_cell_length_b 23.889229
_cell_length_c 13.173193
_cell_angle_alpha 90.000000
_cell_angle_beta 90.000000
_cell_angle_gamma 90.000000
_cell_volume 2846.667931
_symmetry_space_group_name_H-M "A M A 2"
_symmetry_group_IT_number 40
_symmetry_cell_setting 'orthorhombic'
loop_
_space_group_symop_operation_xyz
x,y,z
-x,-y,z
1/2-x,y,z
1/2+x,-y,z
x,1/2+y,1/2+z
-x,1/2-y,1/2+z
1/2-x,1/2+y,1/2+z
1/2+x,1/2-y,1/2+z
loop_
_atom_site_type_symbol
_atom_site_label
_atom_site_fract_x
_atom_site_fract_y
_atom_site_fract_z
Si Si1 0.574798 0.440360 0.685880
Si Si2 0.583859 0.235836 0.064364
Si Si3 0.423735 0.630878 0.492845
Si Si4 0.581984 0.122194 0.362848
Si Si5 0.914355 0.242089 0.292628
Si Si6 0.580294 0.650213 0.076270
Si Si7 0.579340 0.644608 0.300405
O O1 0.500000 0.500000 0.678309
O O2 0.750000 0.446998 0.686090
O O3 0.518949 0.405246 0.588273
O O4 0.529214 0.411163 0.791257
O O5 0.750000 0.231566 0.020338
O O6 0.579642 0.215967 0.180419
O O7 0.530035 0.299011 0.057641
O O8 0.476804 0.195100 0.001538
O O9 0.250000 0.628322 0.486945
O O10 0.490411 0.608711 0.385431
O O11 0.750000 0.109275 0.327681
O O12 0.550282 0.189022 0.363441
O O13 0.559059 0.106226 0.482609
O O14 0.750000 0.266952 0.314650
O O15 0.035745 0.289886 0.306979
O O16 0.750000 0.672129 0.078605
O O17 0.543867 0.622051 0.186138
O O18 0.750000 0.638531 0.327177
#
# Coordination Sequence:
#
# PCOD8182571 Si02
#       7
#     8   8   8   8   8   8   8
#     4  11  25  42  62  85 107 135 179 234 288 337
#     4  10  18  29  49  79 111 148 189 224 265 323
#     4  11  22  36  54  76 106 144 184 229 280 327
#     4  10  19  35  57  78 109 146 181 224 275 328
#     4   9  17  29  48  77 113 150 184 221 268 321
#     4   9  19  33  51  80 116 152 184 219 264 320
#     4  10  20  32  50  79 114 151 189 223 261 318
#
# _framework density 19.672121000000001
#
# number of rings (size 3 to 8) (size 9 to 14) (size 15 to 20)
#    0.000    2.000    1.429    2.571    0.000    5.143 
#    0.000    0.000    0.000    0.857    0.000    2.000 
#    0.000    0.000    0.000    0.000    0.000    0.000 
#
# Total GULP energy -347072.646022 kJ/mol
# GULP energy per Si atom -12395.451644 kJ/mol
# Density = 1.962735 g / cm^3
# Si number density = 19.672121 Si / 1000 Ang^3
#
#
#
# Elastic Constant Matrix: (Units=GPa)
#
#
# Indices 1 2 3 4 5 6 
#
# 1 83.4843 23.1311 54.2160 0.0000 0.0000 0.0000
# 2 23.1311 40.2103 33.2300 0.0000 0.0000 0.0000
# 3 54.2160 33.2300 164.9463 0.0000 0.0000 0.0000
# 4 0.0000 0.0000 0.0000 12.0048 0.0000 0.0000
# 5 0.0000 0.0000 0.0000 0.0000 33.2376 0.0000
# 6 0.0000 0.0000 0.0000 0.0000 0.0000 21.9273
#
#
#
# Elastic Compliance Matrix: (Units=1/GPa)
#
#
# Indices 1 2 3 4 5 6 
#
# 1 0.016335 -0.005950 -0.004170 0.000000 0.000000 0.000000
# 2 -0.005950 0.032004 -0.004492 0.000000 0.000000 0.000000
# 3 -0.004170 -0.004492 0.008338 0.000000 0.000000 0.000000
# 4 0.000000 0.000000 0.000000 0.083300 0.000000 0.000000
# 5 0.000000 0.000000 0.000000 0.000000 0.030086 0.000000
# 6 0.000000 0.000000 0.000000 0.000000 0.000000 0.045605
#
#
# Mechanical properties :
#
#
# Convention : Reuss Voigt Hill
#
# Bulk Modulus (GPa) = 36.42643 56.64390 46.53517
# Shear Modulus (GPa) = 19.68150 25.30485 22.49318
#
# Velocity S-wave (km/s) = 3.16646 3.59044 3.38509
# Velocity P-wave (km/s) = 5.65028 6.78563 6.24381
#
# Compressibility (1/GPa) = 0.02745259
#
# Stress axis : x y z
#
# Youngs Moduli (GPa) = 61.21677 31.24580 119.92900
#
# Poissons Ratio (x) = 0.18593 0.50016
# Poissons Ratio (y) = 0.36427 0.53869
# Poissons Ratio (z) = 0.25530 0.14035
#
# Static dielectric constant tensor:
#      x y z
#    x 3.572960 0.000000 0.000000 
#    y 0.000000 2.998390 0.000000 
#    z 0.000000 0.000000 4.366970 
# 
# 
# High freq. dielectric constant tensor:
#      x y z
#    x 1.770090 0.000000 0.000000 
#    y 0.000000 1.696060 0.000000 
#    z 0.000000 0.000000 1.800880 
# 
# From -- ./inp_files/15353.got.cif
#   From: 2010.03.12/outbox.cif.g09.slc.cpg/sg40_8_cif.got.tgz:15353.got - 2010.04.14 01:38:03.
