data_PCOD8182967
_publ_section_title
;
Structure prediction by ZEFSAII (Michael W. Deem and Ramdas Pophale) SiO2 
 PCOD8182967
Probable space group: A M A 2
;
_chemical_formula_sum "Si O2"
_cell_formula_units_Z 64
_cell_length_a 8.989154
_cell_length_b 20.730341
_cell_length_c 19.524033
_cell_angle_alpha 90.000000
_cell_angle_beta 90.000000
_cell_angle_gamma 90.000000
_cell_volume 3638.268948
_symmetry_space_group_name_H-M "A M A 2"
_symmetry_group_IT_number 40
_symmetry_cell_setting 'orthorhombic'
loop_
_space_group_symop_operation_xyz
x,y,z
-x,-y,z
1/2-x,y,z
1/2+x,-y,z
x,1/2+y,1/2+z
-x,1/2-y,1/2+z
1/2-x,1/2+y,1/2+z
1/2+x,1/2-y,1/2+z
loop_
_atom_site_type_symbol
_atom_site_label
_atom_site_fract_x
_atom_site_fract_y
_atom_site_fract_z
Si Si1 0.923738 0.376774 0.837990
Si Si2 0.426634 0.769881 0.832751
Si Si3 0.578742 0.305114 0.047856
Si Si4 0.573505 0.309080 0.467141
Si Si5 0.578117 0.260392 0.196056
Si Si6 0.575186 0.435382 0.974934
Si Si7 0.923518 0.873639 0.187901
Si Si8 0.576916 0.435064 0.548621
O O1 0.750000 0.373654 0.851404
O O2 0.982458 0.303564 0.843539
O O3 0.991312 0.420605 0.898480
O O4 0.961503 0.404815 0.762379
O O5 0.250000 0.777457 0.834104
O O6 0.499066 0.812424 0.892428
O O7 0.487333 0.792562 0.758672
O O8 0.750000 0.290678 0.027823
O O9 0.555021 0.304619 0.129361
O O10 0.478800 0.252488 0.010078
O O11 0.531053 0.376133 0.023686
O O12 0.750000 0.306103 0.459990
O O13 0.520308 0.373784 0.505695
O O14 0.750000 0.255298 0.217038
O O15 0.519273 0.189946 0.176252
O O16 0.500000 0.500000 0.003497
O O17 0.750000 0.446990 0.973921
O O18 0.750000 0.853184 0.184980
O O19 0.962809 0.924456 0.128795
O O20 0.500000 0.500000 0.522152
O O21 0.750000 0.444757 0.537759
#
# Coordination Sequence:
#
# PCOD8182967 Si02
#       8
#     8   8   8   8   8   8   8   8
#     4   8  15  29  50  70 100 140 175 206 249 310
#     4  10  19  34  55  78 107 142 174 216 273 327
#     4  10  20  35  55  78 108 143 178 217 271 323
#     4  11  21  34  55  83 109 135 180 231 268 311
#     4  10  19  31  52  82 108 135 176 225 267 315
#     4  10  20  35  50  73 105 142 181 217 261 313
#     4   9  17  32  50  73 106 145 179 214 261 311
#     4  10  22  36  51  75 109 145 182 225 269 318
#
# _framework density 17.590782999999998
#
# number of rings (size 3 to 8) (size 9 to 14) (size 15 to 20)
#    0.000    2.250    2.500    1.875    0.000    3.000 
#    0.000    0.625    0.000    0.750    0.000    1.750 
#    0.000    0.000    0.000    0.000    0.000    0.000 
#
# Total GULP energy -396739.508911 kJ/mol
# GULP energy per Si atom -12398.109653 kJ/mol
# Density = 1.755075 g / cm^3
# Si number density = 17.590783 Si / 1000 Ang^3
#
#
#
# Elastic Constant Matrix: (Units=GPa)
#
#
# Indices 1 2 3 4 5 6 
#
# 1 64.4431 42.9220 44.4140 0.0000 0.0000 0.0000
# 2 42.9220 111.2363 59.2644 0.0000 0.0000 0.0000
# 3 44.4140 59.2644 109.3149 0.0000 0.0000 0.0000
# 4 0.0000 0.0000 0.0000 22.1089 0.0000 0.0000
# 5 0.0000 0.0000 0.0000 0.0000 26.2129 0.0000
# 6 0.0000 0.0000 0.0000 0.0000 0.0000 26.3279
#
#
#
# Elastic Compliance Matrix: (Units=1/GPa)
#
#
# Indices 1 2 3 4 5 6 
#
# 1 0.023861 -0.005684 -0.006613 0.000000 0.000000 0.000000
# 2 -0.005684 0.013995 -0.005278 0.000000 0.000000 0.000000
# 3 -0.006613 -0.005278 0.014696 0.000000 0.000000 0.000000
# 4 0.000000 0.000000 0.000000 0.045231 0.000000 0.000000
# 5 0.000000 0.000000 0.000000 0.000000 0.038149 0.000000
# 6 0.000000 0.000000 0.000000 0.000000 0.000000 0.037982
#
#
# Mechanical properties :
#
#
# Convention : Reuss Voigt Hill
#
# Bulk Modulus (GPa) = 57.46352 64.24390 60.85371
# Shear Modulus (GPa) = 23.27040 24.15621 23.71330
#
# Velocity S-wave (km/s) = 3.64108 3.70973 3.67557
# Velocity P-wave (km/s) = 7.10031 7.41283 7.25825
#
# Compressibility (1/GPa) = 0.01740234
#
# Stress axis : x y z
#
# Youngs Moduli (GPa) = 41.90949 71.45378 68.04454
#
# Poissons Ratio (x) = 0.40612 0.44999
# Poissons Ratio (y) = 0.23820 0.35914
# Poissons Ratio (z) = 0.27715 0.37714
#
# Static dielectric constant tensor:
#      x y z
#    x 3.153500 0.000000 0.000000 
#    y 0.000000 3.061470 0.000000 
#    z 0.000000 0.000000 3.561260 
# 
# 
# High freq. dielectric constant tensor:
#      x y z
#    x 1.672970 0.000000 0.000000 
#    y 0.000000 1.649660 0.000000 
#    z 0.000000 0.000000 1.689920 
# 
# From -- ./inp_files/22428.got.cif
#   From: 2010.03.12/outbox.cif.g09.slc.cpg/sg40_12_cif.got.tgz:22428.got - 2010.04.14 01:38:03.
