data_PCOD8182500
_publ_section_title
;
Structure prediction by ZEFSAII (Michael W. Deem and Ramdas Pophale) SiO2 
 PCOD8182500
Probable space group: A M A 2
;
_chemical_formula_sum "Si O2"
_cell_formula_units_Z 56
_cell_length_a 8.690921
_cell_length_b 18.418937
_cell_length_c 21.081285
_cell_angle_alpha 90.000000
_cell_angle_beta 90.000000
_cell_angle_gamma 90.000000
_cell_volume 3374.639956
_symmetry_space_group_name_H-M "A M A 2"
_symmetry_group_IT_number 40
_symmetry_cell_setting 'orthorhombic'
loop_
_space_group_symop_operation_xyz
x,y,z
-x,-y,z
1/2-x,y,z
1/2+x,-y,z
x,1/2+y,1/2+z
-x,1/2-y,1/2+z
1/2-x,1/2+y,1/2+z
1/2+x,1/2-y,1/2+z
loop_
_atom_site_type_symbol
_atom_site_label
_atom_site_fract_x
_atom_site_fract_y
_atom_site_fract_z
Si Si1 0.432226 0.923527 0.057610
Si Si2 0.569135 0.843756 0.673815
Si Si3 0.434255 0.922288 0.555431
Si Si4 0.917852 0.212835 0.487184
Si Si5 0.934983 0.355587 0.433176
Si Si6 0.930310 0.421740 0.301953
Si Si7 0.079537 0.708020 0.620463
O O1 0.250000 0.926594 0.053904
O O2 0.483007 0.865440 0.110765
O O3 0.500000 0.000000 0.080053
O O4 0.497809 0.906059 0.988037
O O5 0.750000 0.845611 0.660999
O O6 0.490296 0.899173 0.624892
O O7 0.524882 0.869921 0.743967
O O8 0.508714 0.761405 0.668654
O O9 0.250000 0.922832 0.555700
O O10 0.499098 0.864780 0.501953
O O11 0.500000 0.000000 0.536395
O O12 0.750000 0.195783 0.458678
O O13 0.999390 0.271832 0.440824
O O14 0.902546 0.251874 0.554320
O O15 0.750000 0.355217 0.439196
O O16 0.995231 0.385770 0.366333
O O17 0.750000 0.431535 0.308148
O O18 0.000000 0.500000 0.290273
O O19 0.250000 0.689833 0.647228
#
# Coordination Sequence:
#
# PCOD8182500 Si02
#       7
#     8   8   8   8   8   8   8
#     4  11  20  30  46  70  96 122 151 189 232 276
#     4  10  19  31  45  65  91 121 155 191 226 269
#     4  10  18  28  43  65  89 117 148 185 232 279
#     4   7  13  26  44  61  81 109 144 181 224 271
#     4   9  17  32  48  64  89 123 159 194 228 270
#     4  10  21  32  45  65  92 124 159 193 227 267
#     4   9  17  31  48  66  88 118 151 187 230 276
#
# _framework density 16.594363000000001
#
# number of rings (size 3 to 8) (size 9 to 14) (size 15 to 20)
#    0.000    2.571    0.000    5.143    0.000    4.000 
#    0.000    0.714    0.000    0.000    0.000    1.000 
#    0.000    2.286    0.000    0.000    0.000    0.000 
#
# Total GULP energy -346970.612923 kJ/mol
# GULP energy per Si atom -12391.807604 kJ/mol
# Density = 1.655659 g / cm^3
# Si number density = 16.594363 Si / 1000 Ang^3
#
#
#
# Elastic Constant Matrix: (Units=GPa)
#
#
# Indices 1 2 3 4 5 6 
#
# 1 68.9672 42.8259 25.6778 0.0000 0.0000 0.0000
# 2 42.8259 148.6578 54.1524 0.0000 0.0000 0.0000
# 3 25.6778 54.1524 64.4406 0.0000 0.0000 0.0000
# 4 0.0000 0.0000 0.0000 33.8364 0.0000 0.0000
# 5 0.0000 0.0000 0.0000 0.0000 16.1787 0.0000
# 6 0.0000 0.0000 0.0000 0.0000 0.0000 28.5741
#
#
#
# Elastic Compliance Matrix: (Units=1/GPa)
#
#
# Indices 1 2 3 4 5 6 
#
# 1 0.018396 -0.003789 -0.004146 0.000000 0.000000 0.000000
# 2 -0.003789 0.010475 -0.007293 0.000000 0.000000 0.000000
# 3 -0.004146 -0.007293 0.023299 0.000000 0.000000 0.000000
# 4 0.000000 0.000000 0.000000 0.029554 0.000000 0.000000
# 5 0.000000 0.000000 0.000000 0.000000 0.061810 0.000000
# 6 0.000000 0.000000 0.000000 0.000000 0.000000 0.034997
#
#
# Mechanical properties :
#
#
# Convention : Reuss Voigt Hill
#
# Bulk Modulus (GPa) = 46.05367 58.59753 52.32560
# Shear Modulus (GPa) = 23.12409 26.34515 24.73462
#
# Velocity S-wave (km/s) = 3.73700 3.98879 3.86494
# Velocity P-wave (km/s) = 6.81418 7.52345 7.17758
#
# Compressibility (1/GPa) = 0.02171380
#
# Stress axis : x y z
#
# Youngs Moduli (GPa) = 54.35857 95.46469 42.92098
#
# Poissons Ratio (x) = 0.36175 0.17795
# Poissons Ratio (y) = 0.20599 0.31301
# Poissons Ratio (z) = 0.22537 0.69620
#
# Static dielectric constant tensor:
#      x y z
#    x 3.101440 0.000000 0.000000 
#    y 0.000000 3.507860 0.000000 
#    z 0.000000 0.000000 2.989500 
# 
# 
# High freq. dielectric constant tensor:
#      x y z
#    x 1.635690 0.000000 0.000000 
#    y 0.000000 1.650050 0.000000 
#    z 0.000000 0.000000 1.596440 
# 
# From -- ./inp_files/22306.got.cif
#   From: 2010.03.12/outbox.cif.g09.slc.cpg/sg40_12_cif.got.tgz:22306.got - 2010.04.14 01:38:03.
