data_PCOD8182272
_publ_section_title
;
Structure prediction by ZEFSAII (Michael W. Deem and Ramdas Pophale) SiO2 
 PCOD8182272
Probable space group: A B M 2
;
_chemical_formula_sum "Si O2"
_cell_formula_units_Z 64
_cell_length_a 11.475202
_cell_length_b 18.302502
_cell_length_c 14.918351
_cell_angle_alpha 90.000000
_cell_angle_beta 90.000000
_cell_angle_gamma 90.000000
_cell_volume 3133.225290
_symmetry_space_group_name_H-M "A B M 2"
_symmetry_group_IT_number 39
_symmetry_cell_setting 'orthorhombic'
loop_
_space_group_symop_operation_xyz
x,y,z
-x,-y,z
-x,1/2+y,z
x,1/2-y,z
x,1/2+y,1/2+z
-x,1/2-y,1/2+z
-x,y,1/2+z
x,-y,1/2+z
loop_
_atom_site_type_symbol
_atom_site_label
_atom_site_fract_x
_atom_site_fract_y
_atom_site_fract_z
Si Si1 0.014767 0.332756 0.474280
Si Si2 0.798005 0.409053 0.215816
Si Si3 0.434649 0.577186 0.872756
Si Si4 0.019406 0.666971 0.770548
Si Si5 0.202506 0.914848 0.528652
Si Si6 0.660465 0.664115 0.873617
Si Si7 0.237936 0.420892 0.514628
Si Si8 0.238402 0.926509 0.730576
O O1 0.015710 0.250000 0.509962
O O2 0.970201 0.335842 0.371809
O O3 0.144655 0.363508 0.478526
O O4 0.925789 0.379272 0.534836
O O5 0.720593 0.362427 0.282916
O O6 0.810363 0.492252 0.248795
O O7 0.927669 0.375385 0.207588
O O8 0.736377 0.406332 0.119090
O O9 0.500000 0.500000 0.876806
O O10 0.525229 0.643365 0.869779
O O11 0.357787 0.588263 0.961434
O O12 0.359035 0.582814 0.782709
O O13 0.031217 0.750000 0.736828
O O14 0.145370 0.630357 0.768215
O O15 0.284075 0.871911 0.460977
O O16 0.262404 0.911697 0.626005
O O17 0.187269 0.998215 0.497300
O O18 0.675653 0.750000 0.881811
#
# Coordination Sequence:
#
# PCOD8182272 Si02
#       8
#     8   8   8   8   8   8   8   8
#     4  11  23  39  65  99 140 181 217 273 348 416
#     4  11  23  42  68 103 130 174 226 280 338 415
#     4  12  24  47  69  94 131 184 230 284 337 396
#     4  11  23  39  65  99 140 181 217 273 348 416
#     4  11  23  42  68 103 130 174 226 280 338 415
#     4  12  26  45  69  97 133 180 228 282 347 407
#     4  11  24  42  70  99 132 174 230 282 337 403
#     4  11  24  42  70  99 132 174 230 282 337 403
#
# _framework density 20.426235999999999
#
# number of rings (size 3 to 8) (size 9 to 14) (size 15 to 20)
#    0.000    0.750    5.000    2.250    0.000    8.000 
#    0.000    1.250    0.000    0.000    0.000    0.000 
#    0.000    0.000    0.000    0.000    0.000    0.000 
#
# Total GULP energy -397022.177623 kJ/mol
# GULP energy per Si atom -12406.943051 kJ/mol
# Density = 2.037974 g / cm^3
# Si number density = 20.426236 Si / 1000 Ang^3
#
#
#
# Elastic Constant Matrix: (Units=GPa)
#
#
# Indices 1 2 3 4 5 6 
#
# 1 114.2373 21.3186 27.5924 0.0000 0.0000 0.0000
# 2 21.3186 89.0758 8.9802 0.0000 0.0000 0.0000
# 3 27.5924 8.9802 87.2628 0.0000 0.0000 0.0000
# 4 0.0000 0.0000 0.0000 24.7547 0.0000 0.0000
# 5 0.0000 0.0000 0.0000 0.0000 29.4641 0.0000
# 6 0.0000 0.0000 0.0000 0.0000 0.0000 35.6890
#
#
#
# Elastic Compliance Matrix: (Units=1/GPa)
#
#
# Indices 1 2 3 4 5 6 
#
# 1 0.009839 -0.002062 -0.002899 0.000000 0.000000 0.000000
# 2 -0.002062 0.011776 -0.000560 0.000000 0.000000 0.000000
# 3 -0.002899 -0.000560 0.012434 0.000000 0.000000 0.000000
# 4 0.000000 0.000000 0.000000 0.040396 0.000000 0.000000
# 5 0.000000 0.000000 0.000000 0.000000 0.033940 0.000000
# 6 0.000000 0.000000 0.000000 0.000000 0.000000 0.028020
#
#
# Mechanical properties :
#
#
# Convention : Reuss Voigt Hill
#
# Bulk Modulus (GPa) = 43.46497 45.15094 44.30795
# Shear Modulus (GPa) = 32.23398 33.49388 32.86393
#
# Velocity S-wave (km/s) = 3.97680 4.05377 4.01547
# Velocity P-wave (km/s) = 6.51243 6.63801 6.57552
#
# Compressibility (1/GPa) = 0.02300703
#
# Stress axis : x y z
#
# Youngs Moduli (GPa) = 101.63887 84.91531 80.42574
#
# Poissons Ratio (x) = 0.17514 0.23313
# Poissons Ratio (y) = 0.20963 0.04502
# Poissons Ratio (z) = 0.29463 0.04753
#
# Static dielectric constant tensor:
#      x y z
#    x 3.631640 0.000000 0.000000 
#    y 0.000000 3.831010 0.000000 
#    z 0.000000 0.000000 3.874490 
# 
# 
# High freq. dielectric constant tensor:
#      x y z
#    x 1.793210 0.000000 0.000000 
#    y 0.000000 1.806170 0.000000 
#    z 0.000000 0.000000 1.811920 
# 
# From -- ./inp_files/9471.got.cif
#   From: 2010.03.12/outbox.cif.g09.slc.cpg/sg39_5_cif.got.tgz:9471.got - 2010.04.14 02:53:20.
