data_PCOD8182009
_publ_section_title
;
Structure prediction by ZEFSAII (Michael W. Deem and Ramdas Pophale) SiO2 
 PCOD8182009
Probable space group: A B M 2
;
_chemical_formula_sum "Si O2"
_cell_formula_units_Z 64
_cell_length_a 11.547946
_cell_length_b 17.945778
_cell_length_c 14.773462
_cell_angle_alpha 90.000000
_cell_angle_beta 90.000000
_cell_angle_gamma 90.000000
_cell_volume 3061.606102
_symmetry_space_group_name_H-M "A B M 2"
_symmetry_group_IT_number 39
_symmetry_cell_setting 'orthorhombic'
loop_
_space_group_symop_operation_xyz
x,y,z
-x,-y,z
-x,1/2+y,z
x,1/2-y,z
x,1/2+y,1/2+z
-x,1/2-y,1/2+z
-x,y,1/2+z
x,-y,1/2+z
loop_
_atom_site_type_symbol
_atom_site_label
_atom_site_fract_x
_atom_site_fract_y
_atom_site_fract_z
Si Si1 0.483267 0.336106 0.103200
Si Si2 0.655523 0.594060 0.937948
Si Si3 0.905029 0.335664 0.449086
Si Si4 0.482146 0.161905 0.307960
Si Si5 0.944982 0.578962 0.308778
Si Si6 0.016831 0.666394 0.142342
Si Si7 0.287341 0.428175 0.400485
Si Si8 0.748125 0.833689 0.562686
O O1 0.448151 0.250000 0.087150
O O2 0.453110 0.362891 0.205114
O O3 0.620575 0.347347 0.100432
O O4 0.416341 0.385071 0.028817
O O5 0.788023 0.617163 0.947881
O O6 0.603593 0.631499 0.847255
O O7 0.650527 0.505569 0.923686
O O8 0.872631 0.250000 0.432838
O O9 0.967952 0.348966 0.543355
O O10 0.994092 0.360169 0.371829
O O11 0.485471 0.250000 0.315247
O O12 0.384316 0.130968 0.373569
O O13 0.959721 0.605249 0.206173
O O14 0.808226 0.567682 0.322491
O O15 0.000000 0.500000 0.328072
O O16 0.984070 0.750000 0.174491
O O17 0.156534 0.656241 0.141862
O O18 0.222737 0.395173 0.487769
O O19 0.760252 0.750000 0.522251
#
# Coordination Sequence:
#
# PCOD8182009 Si02
#       8
#     8   8   8   8   8   8   8   8
#     4  10  23  43  70  98 131 179 229 278 338 405
#     4  12  25  45  65 100 142 180 225 278 350 414
#     4  11  24  44  70  96 130 178 230 282 338 408
#     4  11  25  45  69  99 135 178 230 282 336 410
#     4  12  26  45  66  97 138 180 222 280 349 411
#     4  10  24  43  69 102 130 172 235 286 337 405
#     4  12  25  44  68  97 140 180 224 283 346 412
#     4  10  21  42  69  97 130 178 229 278 338 404
#
# _framework density 20.904060000000001
#
# number of rings (size 3 to 8) (size 9 to 14) (size 15 to 20)
#    0.000    1.000    3.750    2.250    3.500    3.000 
#    4.500    0.000    0.000    0.000    0.000    0.000 
#    0.000    0.000    0.000    0.000    0.000    0.000 
#
# Total GULP energy -396877.496271 kJ/mol
# GULP energy per Si atom -12402.421758 kJ/mol
# Density = 2.085648 g / cm^3
# Si number density = 20.904060 Si / 1000 Ang^3
#
#
#
# Elastic Constant Matrix: (Units=GPa)
#
#
# Indices 1 2 3 4 5 6 
#
# 1 92.4482 26.0420 16.7967 0.0000 0.0000 0.0000
# 2 26.0420 95.4202 47.8497 0.0000 0.0000 0.0000
# 3 16.7967 47.8497 97.6054 0.0000 0.0000 0.0000
# 4 0.0000 0.0000 0.0000 19.9947 0.0000 0.0000
# 5 0.0000 0.0000 0.0000 0.0000 29.2547 0.0000
# 6 0.0000 0.0000 0.0000 0.0000 0.0000 30.6230
#
#
#
# Elastic Compliance Matrix: (Units=1/GPa)
#
#
# Indices 1 2 3 4 5 6 
#
# 1 0.011744 -0.002906 -0.000596 0.000000 0.000000 0.000000
# 2 -0.002906 0.014615 -0.006665 0.000000 0.000000 0.000000
# 3 -0.000596 -0.006665 0.013615 0.000000 0.000000 0.000000
# 4 0.000000 0.000000 0.000000 0.050013 0.000000 0.000000
# 5 0.000000 0.000000 0.000000 0.000000 0.034183 0.000000
# 6 0.000000 0.000000 0.000000 0.000000 0.000000 0.032655
#
#
# Mechanical properties :
#
#
# Convention : Reuss Voigt Hill
#
# Bulk Modulus (GPa) = 50.91663 51.87228 51.39445
# Shear Modulus (GPa) = 27.21732 28.96016 28.08874
#
# Velocity S-wave (km/s) = 3.61225 3.72611 3.66963
# Velocity P-wave (km/s) = 6.46591 6.58637 6.52642
#
# Compressibility (1/GPa) = 0.01963995
#
# Stress axis : x y z
#
# Youngs Moduli (GPa) = 85.15104 68.42162 73.44683
#
# Poissons Ratio (x) = 0.19884 0.04380
# Poissons Ratio (y) = 0.24746 0.48951
# Poissons Ratio (z) = 0.05077 0.45602
#
# Static dielectric constant tensor:
#      x y z
#    x 3.965470 0.000000 0.000000 
#    y 0.000000 3.859050 0.000000 
#    z 0.000000 0.000000 3.833790 
# 
# 
# High freq. dielectric constant tensor:
#      x y z
#    x 1.831610 0.000000 0.000000 
#    y 0.000000 1.821320 0.000000 
#    z 0.000000 0.000000 1.817510 
# 
# From -- ./inp_files/9451.got.cif
#   From: 2010.03.12/outbox.cif.g09.slc.cpg/sg39_5_cif.got.tgz:9451.got - 2010.04.14 02:53:20.
