data_PCOD8182522
_publ_section_title
;
Structure prediction by ZEFSAII (Michael W. Deem and Ramdas Pophale) SiO2 
 PCOD8182522
Probable space group: A M A 2
;
_chemical_formula_sum "Si O2"
_cell_formula_units_Z 64
_cell_length_a 9.027067
_cell_length_b 18.672912
_cell_length_c 21.455640
_cell_angle_alpha 90.000000
_cell_angle_beta 90.000000
_cell_angle_gamma 90.000000
_cell_volume 3616.597602
_symmetry_space_group_name_H-M "A M A 2"
_symmetry_group_IT_number 40
_symmetry_cell_setting 'orthorhombic'
loop_
_space_group_symop_operation_xyz
x,y,z
-x,-y,z
1/2-x,y,z
1/2+x,-y,z
x,1/2+y,1/2+z
-x,1/2-y,1/2+z
1/2-x,1/2+y,1/2+z
1/2+x,1/2-y,1/2+z
loop_
_atom_site_type_symbol
_atom_site_label
_atom_site_fract_x
_atom_site_fract_y
_atom_site_fract_z
Si Si1 0.425136 0.424389 0.916140
Si Si2 0.079242 0.166282 0.518858
Si Si3 0.576096 0.640425 0.785074
Si Si4 0.927128 0.225323 0.734100
Si Si5 0.921088 0.071199 0.156757
Si Si6 0.578940 0.221316 0.111668
Si Si7 0.084815 0.933095 0.601569
Si Si8 0.087361 0.932071 0.748170
O O1 0.500000 0.500000 0.933123
O O2 0.250000 0.432631 0.922779
O O3 0.472349 0.401477 0.846887
O O4 0.480374 0.360615 0.961492
O O5 0.250000 0.148131 0.504626
O O6 0.057919 0.249505 0.540290
O O7 0.021124 0.131843 0.583102
O O8 0.750000 0.657530 0.784028
O O9 0.489837 0.715759 0.781818
O O10 0.528340 0.591348 0.726886
O O11 0.750000 0.226726 0.732812
O O12 0.982177 0.147079 0.759534
O O13 0.981401 0.238230 0.663642
O O14 0.750000 0.053316 0.155571
O O15 0.962547 0.137074 0.111062
O O16 0.000000 0.000000 0.132771
O O17 0.750000 0.230499 0.132920
O O18 0.250000 0.926049 0.572027
O O19 0.098751 0.941954 0.674541
O O20 0.000000 0.000000 0.570758
O O21 0.250000 0.935602 0.778378
O O22 0.000000 0.000000 0.777276
#
# Coordination Sequence:
#
# PCOD8182522 Si02
#       8
#     8   8   8   8   8   8   8   8
#     4  11  23  38  54  73 101 135 175 215 249 293
#     4  11  21  33  49  68  94 132 171 206 248 291
#     4   9  20  36  52  71  98 133 168 204 250 300
#     4  10  18  30  49  74  99 125 164 210 251 294
#     4   9  17  31  50  74  99 124 156 195 244 298
#     4   9  19  33  48  68  98 132 164 199 245 304
#     4  10  18  29  42  61  91 125 163 199 235 282
#     4   9  18  28  41  65  95 126 159 196 238 288
#
# _framework density 17.696190000000001
#
# number of rings (size 3 to 8) (size 9 to 14) (size 15 to 20)
#    0.000    2.250    1.250    3.000    0.000    5.000 
#    0.000    0.000    0.000    0.000    0.000    0.875 
#    0.000    2.000    0.000    0.000    0.000    0.000 
#
# Total GULP energy -396504.732278 kJ/mol
# GULP energy per Si atom -12390.772884 kJ/mol
# Density = 1.765591 g / cm^3
# Si number density = 17.696190 Si / 1000 Ang^3
#
#
#
# Elastic Constant Matrix: (Units=GPa)
#
#
# Indices 1 2 3 4 5 6 
#
# 1 68.4656 46.1946 19.1167 0.0000 0.0000 0.0000
# 2 46.1946 135.3197 32.2223 0.0000 0.0000 0.0000
# 3 19.1167 32.2223 58.0584 0.0000 0.0000 0.0000
# 4 0.0000 0.0000 0.0000 22.1140 0.0000 0.0000
# 5 0.0000 0.0000 0.0000 0.0000 18.4315 0.0000
# 6 0.0000 0.0000 0.0000 0.0000 0.0000 30.3183
#
#
#
# Elastic Compliance Matrix: (Units=1/GPa)
#
#
# Indices 1 2 3 4 5 6 
#
# 1 0.019460 -0.005897 -0.003135 0.000000 0.000000 0.000000
# 2 -0.005897 0.010302 -0.003776 0.000000 0.000000 0.000000
# 3 -0.003135 -0.003776 0.020352 0.000000 0.000000 0.000000
# 4 0.000000 0.000000 0.000000 0.045220 0.000000 0.000000
# 5 0.000000 0.000000 0.000000 0.000000 0.054255 0.000000
# 6 0.000000 0.000000 0.000000 0.000000 0.000000 0.032983
#
#
# Mechanical properties :
#
#
# Convention : Reuss Voigt Hill
#
# Bulk Modulus (GPa) = 40.81850 50.76789 45.79319
# Shear Modulus (GPa) = 23.11036 25.12677 24.11857
#
# Velocity S-wave (km/s) = 3.61772 3.77224 3.69579
# Velocity P-wave (km/s) = 6.36921 6.90825 6.64420
#
# Compressibility (1/GPa) = 0.02449869
#
# Stress axis : x y z
#
# Youngs Moduli (GPa) = 51.38840 97.06870 49.13536
#
# Poissons Ratio (x) = 0.57237 0.15403
# Poissons Ratio (y) = 0.30301 0.18554
# Poissons Ratio (z) = 0.16109 0.36654
#
# Static dielectric constant tensor:
#      x y z
#    x 3.402140 0.000000 0.000000 
#    y 0.000000 3.541410 0.000000 
#    z 0.000000 0.000000 2.951360 
# 
# 
# High freq. dielectric constant tensor:
#      x y z
#    x 1.690530 0.000000 0.000000 
#    y 0.000000 1.691160 0.000000 
#    z 0.000000 0.000000 1.634550 
# 
# From -- ./inp_files/24376.got.cif
#   From: 2010.03.12/outbox.cif.g09.slc.cpg/sg40_13_cif.got.tgz:24376.got - 2010.04.14 01:38:03.
