data_PCOD8182859
_publ_section_title
;
Structure prediction by ZEFSAII (Michael W. Deem and Ramdas Pophale) SiO2 
 PCOD8182859
Probable space group: A M A 2
;
_chemical_formula_sum "Si O2"
_cell_formula_units_Z 56
_cell_length_a 8.570641
_cell_length_b 18.423827
_cell_length_c 21.033047
_cell_angle_alpha 90.000000
_cell_angle_beta 90.000000
_cell_angle_gamma 90.000000
_cell_volume 3321.202402
_symmetry_space_group_name_H-M "A M A 2"
_symmetry_group_IT_number 40
_symmetry_cell_setting 'orthorhombic'
loop_
_space_group_symop_operation_xyz
x,y,z
-x,-y,z
1/2-x,y,z
1/2+x,-y,z
x,1/2+y,1/2+z
-x,1/2-y,1/2+z
1/2-x,1/2+y,1/2+z
1/2+x,1/2-y,1/2+z
loop_
_atom_site_type_symbol
_atom_site_label
_atom_site_fract_x
_atom_site_fract_y
_atom_site_fract_z
Si Si1 0.069842 0.218135 0.448140
Si Si2 0.067981 0.149212 0.894762
Si Si3 0.065602 0.420690 0.521263
Si Si4 0.569378 0.786489 0.068949
Si Si5 0.929545 0.646881 0.137580
Si Si6 0.433452 0.577372 0.013228
Si Si7 0.435177 0.919798 0.768899
O O1 0.250000 0.221945 0.427921
O O2 0.013007 0.134824 0.458304
O O3 0.969768 0.264024 0.396881
O O4 0.046275 0.255803 0.515868
O O5 0.250000 0.135072 0.902725
O O6 0.011177 0.119564 0.828165
O O7 0.980077 0.106877 0.951005
O O8 0.250000 0.421042 0.528449
O O9 0.000000 0.500000 0.533135
O O10 0.987987 0.369640 0.576664
O O11 0.750000 0.784864 0.046233
O O12 0.547073 0.734479 0.130321
O O13 0.750000 0.625453 0.130553
O O14 0.991260 0.624153 0.206615
O O15 0.014950 0.601275 0.083303
O O16 0.500000 0.500000 0.993477
O O17 0.250000 0.572964 0.014508
O O18 0.250000 0.920797 0.776719
O O19 0.500000 0.000000 0.763086
#
# Coordination Sequence:
#
# PCOD8182859 Si02
#       7
#     8   8   8   8   8   8   8
#     4   9  17  30  46  66  90 120 153 188 229 275
#     4  11  21  33  48  67  91 123 157 193 231 273
#     4  11  20  31  47  69  95 123 152 189 232 276
#     4   9  16  29  47  68  91 118 151 188 229 275
#     4   9  19  33  49  67  93 126 158 190 227 269
#     4  10  19  29  46  70  97 124 153 189 231 273
#     4  11  22  35  48  67  94 126 160 193 225 265
#
# _framework density 16.861363999999998
#
# number of rings (size 3 to 8) (size 9 to 14) (size 15 to 20)
#    0.000    2.000    0.000    6.857    0.000    4.571 
#    0.000    0.000    0.000    0.000    0.000    1.000 
#    0.000    4.571    0.000    0.000    0.000    0.000 
#
# Total GULP energy -347008.486892 kJ/mol
# GULP energy per Si atom -12393.160246 kJ/mol
# Density = 1.682299 g / cm^3
# Si number density = 16.861364 Si / 1000 Ang^3
#
#
#
# Elastic Constant Matrix: (Units=GPa)
#
#
# Indices 1 2 3 4 5 6 
#
# 1 66.9692 40.7504 25.0460 0.0000 0.0000 0.0000
# 2 40.7504 159.2415 58.9479 0.0000 0.0000 0.0000
# 3 25.0460 58.9479 68.2011 0.0000 0.0000 0.0000
# 4 0.0000 0.0000 0.0000 29.9685 0.0000 0.0000
# 5 0.0000 0.0000 0.0000 0.0000 17.7927 0.0000
# 6 0.0000 0.0000 0.0000 0.0000 0.0000 30.5617
#
#
#
# Elastic Compliance Matrix: (Units=1/GPa)
#
#
# Indices 1 2 3 4 5 6 
#
# 1 0.018382 -0.003243 -0.003948 0.000000 0.000000 0.000000
# 2 -0.003243 0.009806 -0.007285 0.000000 0.000000 0.000000
# 3 -0.003948 -0.007285 0.022409 0.000000 0.000000 0.000000
# 4 0.000000 0.000000 0.000000 0.033368 0.000000 0.000000
# 5 0.000000 0.000000 0.000000 0.000000 0.056203 0.000000
# 6 0.000000 0.000000 0.000000 0.000000 0.000000 0.032721
#
#
# Mechanical properties :
#
#
# Convention : Reuss Voigt Hill
#
# Bulk Modulus (GPa) = 46.19760 60.43338 53.31549
# Shear Modulus (GPa) = 23.91713 26.97576 25.44644
#
# Velocity S-wave (km/s) = 3.77033 4.00416 3.88900
# Velocity P-wave (km/s) = 6.81262 7.56947 7.20100
#
# Compressibility (1/GPa) = 0.02164615
#
# Stress axis : x y z
#
# Youngs Moduli (GPa) = 54.40167 101.97491 44.62496
#
# Poissons Ratio (x) = 0.33066 0.17617
# Poissons Ratio (y) = 0.17640 0.32510
# Poissons Ratio (z) = 0.21477 0.74290
#
# Static dielectric constant tensor:
#      x y z
#    x 3.269680 0.000000 0.000000 
#    y 0.000000 3.705430 0.000000 
#    z 0.000000 0.000000 3.019750 
# 
# 
# High freq. dielectric constant tensor:
#      x y z
#    x 1.666860 0.000000 0.000000 
#    y 0.000000 1.662490 0.000000 
#    z 0.000000 0.000000 1.602280 
# 
# From -- ./inp_files/22324.got.cif
#   From: 2010.03.12/outbox.cif.g09.slc.cpg/sg40_12_cif.got.tgz:22324.got - 2010.04.14 01:38:03.
