data_PCOD8182679
_publ_section_title
;
Structure prediction by ZEFSAII (Michael W. Deem and Ramdas Pophale) SiO2 
 PCOD8182679
Probable space group: A M A 2
;
_chemical_formula_sum "Si O2"
_cell_formula_units_Z 64
_cell_length_a 8.869790
_cell_length_b 30.263651
_cell_length_c 14.541746
_cell_angle_alpha 90.000000
_cell_angle_beta 90.000000
_cell_angle_gamma 90.000000
_cell_volume 3903.473292
_symmetry_space_group_name_H-M "A M A 2"
_symmetry_group_IT_number 40
_symmetry_cell_setting 'orthorhombic'
loop_
_space_group_symop_operation_xyz
x,y,z
-x,-y,z
1/2-x,y,z
1/2+x,-y,z
x,1/2+y,1/2+z
-x,1/2-y,1/2+z
1/2-x,1/2+y,1/2+z
1/2+x,1/2-y,1/2+z
loop_
_atom_site_type_symbol
_atom_site_label
_atom_site_fract_x
_atom_site_fract_y
_atom_site_fract_z
Si Si1 0.427963 0.546501 0.883360
Si Si2 0.927440 0.953625 0.172385
Si Si3 0.928142 0.629042 0.962093
Si Si4 0.572250 0.177249 0.278784
Si Si5 0.572688 0.774957 0.780816
Si Si6 0.428109 0.293353 0.466415
Si Si7 0.928616 0.129464 0.100219
Si Si8 0.927630 0.795113 0.573342
O O1 0.500000 0.500000 0.910321
O O2 0.250000 0.543756 0.895452
O O3 0.472388 0.558813 0.777868
O O4 0.494671 0.581112 0.957435
O O5 0.750000 0.957492 0.161282
O O6 0.990859 0.918121 0.098853
O O7 0.000000 0.000000 0.144773
O O8 0.750000 0.623567 0.973032
O O9 0.978569 0.651935 0.868450
O O10 0.990740 0.660082 0.042284
O O11 0.750000 0.180976 0.267297
O O12 0.504083 0.225931 0.284187
O O13 0.506035 0.152645 0.191144
O O14 0.750000 0.776082 0.798968
O O15 0.493215 0.800328 0.864446
O O16 0.532157 0.794010 0.681155
O O17 0.250000 0.290042 0.463113
O O18 0.477532 0.338434 0.517459
O O19 0.487948 0.249039 0.519840
O O20 0.750000 0.122045 0.102856
O O21 0.750000 0.799358 0.557457
#
# Coordination Sequence:
#
# PCOD8182679 Si02
#       8
#     8   8   8   8   8   8   8   8
#     4  10  20  33  49  72 102 132 165 203 247 297
#     4  10  20  32  48  72 100 130 164 203 245 294
#     4  11  20  31  50  73  99 133 171 208 248 294
#     4   9  16  27  46  69  95 130 168 201 241 289
#     4  10  19  34  50  67  97 136 172 208 249 292
#     4  10  20  32  49  72  98 130 169 210 250 292
#     4  10  18  32  50  69  98 135 168 202 248 297
#     4  10  20  33  49  70  99 134 170 207 249 296
#
# _framework density 16.395654
#
# number of rings (size 3 to 8) (size 9 to 14) (size 15 to 20)
#    0.000    2.000    3.750    1.125    0.000    2.000 
#    0.000    0.625    0.000    0.000    0.000    0.875 
#    0.000    2.000    0.000    0.000    0.000    0.000 
#
# Total GULP energy -396690.013955 kJ/mol
# GULP energy per Si atom -12396.562936 kJ/mol
# Density = 1.635834 g / cm^3
# Si number density = 16.395654 Si / 1000 Ang^3
#
#
#
# Elastic Constant Matrix: (Units=GPa)
#
#
# Indices 1 2 3 4 5 6 
#
# 1 43.5235 48.4609 34.1660 0.0000 0.0000 0.0000
# 2 48.4609 134.0136 56.9505 0.0000 0.0000 0.0000
# 3 34.1660 56.9505 95.0804 0.0000 0.0000 0.0000
# 4 0.0000 0.0000 0.0000 13.6415 0.0000 0.0000
# 5 0.0000 0.0000 0.0000 0.0000 23.9243 0.0000
# 6 0.0000 0.0000 0.0000 0.0000 0.0000 27.0074
#
#
#
# Elastic Compliance Matrix: (Units=1/GPa)
#
#
# Indices 1 2 3 4 5 6 
#
# 1 0.042734 -0.011976 -0.008183 0.000000 0.000000 0.000000
# 2 -0.011976 0.013366 -0.003702 0.000000 0.000000 0.000000
# 3 -0.008183 -0.003702 0.015675 0.000000 0.000000 0.000000
# 4 0.000000 0.000000 0.000000 0.073306 0.000000 0.000000
# 5 0.000000 0.000000 0.000000 0.000000 0.041799 0.000000
# 6 0.000000 0.000000 0.000000 0.000000 0.000000 0.037027
#
#
# Mechanical properties :
#
#
# Convention : Reuss Voigt Hill
#
# Bulk Modulus (GPa) = 41.57431 61.30802 51.44116
# Shear Modulus (GPa) = 17.87973 21.78397 19.83185
#
# Velocity S-wave (km/s) = 3.30588 3.64901 3.48167
# Velocity P-wave (km/s) = 6.32327 7.43154 6.89969
#
# Compressibility (1/GPa) = 0.02405332
#
# Stress axis : x y z
#
# Youngs Moduli (GPa) = 23.40062 74.81723 63.79392
#
# Poissons Ratio (x) = 0.89599 0.52201
# Poissons Ratio (y) = 0.28024 0.23619
# Poissons Ratio (z) = 0.19148 0.27701
#
# Static dielectric constant tensor:
#      x y z
#    x 2.910220 0.000000 0.000000 
#    y 0.000000 3.131790 0.000000 
#    z 0.000000 0.000000 2.991920 
# 
# 
# High freq. dielectric constant tensor:
#      x y z
#    x 1.623890 0.000000 0.000000 
#    y 0.000000 1.629150 0.000000 
#    z 0.000000 0.000000 1.605300 
# 
# From -- ./inp_files/15860.got.cif
#   From: 2010.03.12/outbox.cif.g09.slc.cpg/sg40_8_cif.got.tgz:15860.got - 2010.04.14 01:38:03.
