data_PCOD8182725
_publ_section_title
;
Structure prediction by ZEFSAII (Michael W. Deem and Ramdas Pophale) SiO2 
 PCOD8182725
Probable space group: A M A 2
;
_chemical_formula_sum "Si O2"
_cell_formula_units_Z 64
_cell_length_a 17.058489
_cell_length_b 12.186820
_cell_length_c 16.438375
_cell_angle_alpha 90.000000
_cell_angle_beta 90.000000
_cell_angle_gamma 90.000000
_cell_volume 3417.352983
_symmetry_space_group_name_H-M "A M A 2"
_symmetry_group_IT_number 40
_symmetry_cell_setting 'orthorhombic'
loop_
_space_group_symop_operation_xyz
x,y,z
-x,-y,z
1/2-x,y,z
1/2+x,-y,z
x,1/2+y,1/2+z
-x,1/2-y,1/2+z
1/2-x,1/2+y,1/2+z
1/2+x,1/2-y,1/2+z
loop_
_atom_site_type_symbol
_atom_site_label
_atom_site_fract_x
_atom_site_fract_y
_atom_site_fract_z
Si Si1 0.842089 0.495905 0.000000
Si Si2 0.343122 0.867331 0.100647
Si Si3 0.657578 0.113450 0.917656
Si Si4 0.156879 0.632604 0.153512
Si Si5 0.842422 0.886609 0.836501
Si Si6 0.908348 0.336501 0.867285
Si Si7 0.657916 0.004134 0.254148
Si Si8 0.091675 0.836459 0.386858
O O1 0.750000 0.516944 0.998081
O O2 0.871162 0.461531 0.090332
O O3 0.861605 0.396285 0.939318
O O4 0.884671 0.608222 0.972999
O O5 0.250000 0.861655 0.102859
O O6 0.378420 0.749968 0.127080
O O7 0.371167 0.961467 0.163824
O O8 0.373090 0.893511 0.010273
O O9 0.750000 0.135397 0.913390
O O10 0.614200 0.208997 0.867794
O O11 0.633268 0.000025 0.877084
O O12 0.250000 0.638288 0.151301
O O13 0.126912 0.606414 0.243884
O O14 0.750000 0.864660 0.840766
O O15 0.885803 0.791053 0.886350
O O16 0.884692 0.391838 0.781153
O O17 0.000015 0.353495 0.877058
O O18 0.750000 0.983023 0.256036
O O19 0.638450 0.103765 0.314842
#
# Coordination Sequence:
#
# PCOD8182725 Si02
#       8
#     8   8   8   8   8   8   8   8
#     4  10  18  32  58  85 106 134 184 236 266 307
#     4   9  16  30  56  85 105 131 179 227 265 314
#     4  10  20  36  59  82 107 143 185 228 273 322
#     4   9  16  30  56  85 105 131 179 227 265 314
#     4  10  20  36  59  82 107 143 185 228 273 322
#     4  11  21  33  53  78 117 145 179 220 278 329
#     4  10  18  32  58  85 106 134 184 236 266 307
#     4  11  21  33  53  78 117 145 179 220 278 329
#
# _framework density 18.727944999999998
#
# number of rings (size 3 to 8) (size 9 to 14) (size 15 to 20)
#    0.000    2.000    2.500    4.500    0.000    0.500 
#    0.000    1.250   16.500    6.000    0.000    0.000 
#    0.000    0.000    0.000    0.000    0.000    0.000 
#
# Total GULP energy -396783.941717 kJ/mol
# GULP energy per Si atom -12399.498179 kJ/mol
# Density = 1.868532 g / cm^3
# Si number density = 18.727945 Si / 1000 Ang^3
#
#
#
# Elastic Constant Matrix: (Units=GPa)
#
#
# Indices 1 2 3 4 5 6 
#
# 1 67.4495 41.6445 26.6728 0.0000 0.0000 0.0000
# 2 41.6445 150.7932 89.9738 0.0000 0.0000 0.0000
# 3 26.6728 89.9738 137.9534 0.0000 0.0000 0.0000
# 4 0.0000 0.0000 0.0000 36.2427 0.0000 0.0000
# 5 0.0000 0.0000 0.0000 0.0000 3.2581 0.0000
# 6 0.0000 0.0000 0.0000 0.0000 0.0000 14.2571
#
#
#
# Elastic Compliance Matrix: (Units=1/GPa)
#
#
# Indices 1 2 3 4 5 6 
#
# 1 0.017886 -0.004709 -0.000387 0.000000 0.000000 0.000000
# 2 -0.004709 0.012096 -0.006979 0.000000 0.000000 0.000000
# 3 -0.000387 -0.006979 0.011875 0.000000 0.000000 0.000000
# 4 0.000000 0.000000 0.000000 0.027592 0.000000 0.000000
# 5 0.000000 0.000000 0.000000 0.000000 0.306924 0.000000
# 6 0.000000 0.000000 0.000000 0.000000 0.000000 0.070140
#
#
# Mechanical properties :
#
#
# Convention : Reuss Voigt Hill
#
# Bulk Modulus (GPa) = 56.47049 74.75315 65.61182
# Shear Modulus (GPa) = 10.49175 23.94527 17.21851
#
# Velocity S-wave (km/s) = 2.36946 3.57961 3.03545
# Velocity P-wave (km/s) = 6.14038 7.55558 6.88444
#
# Compressibility (1/GPa) = 0.01770837
#
# Stress axis : x y z
#
# Youngs Moduli (GPa) = 55.90908 82.67274 84.20912
#
# Poissons Ratio (x) = 0.38927 0.03262
# Poissons Ratio (y) = 0.26325 0.58766
# Poissons Ratio (z) = 0.02165 0.57694
#
# Static dielectric constant tensor:
#      x y z
#    x 3.117130 0.000000 0.000000 
#    y 0.000000 3.473100 0.000000 
#    z 0.000000 0.000000 3.657340 
# 
# 
# High freq. dielectric constant tensor:
#      x y z
#    x 1.699980 0.000000 0.000000 
#    y 0.000000 1.724310 0.000000 
#    z 0.000000 0.000000 1.723530 
# 
# From -- ./inp_files/20818.got.cif
#   From: 2010.03.12/outbox.cif.g09.slc.cpg/sg40_11_cif.got.tgz:20818.got - 2010.04.14 01:38:03.
