data_PCOD8182387
_publ_section_title
;
Structure prediction by ZEFSAII (Michael W. Deem and Ramdas Pophale) SiO2 
 PCOD8182387
Probable space group: A M A 2
;
_chemical_formula_sum "Si O2"
_cell_formula_units_Z 40
_cell_length_a 8.752271
_cell_length_b 21.076461
_cell_length_c 12.693504
_cell_angle_alpha 90.000000
_cell_angle_beta 90.000000
_cell_angle_gamma 90.000000
_cell_volume 2341.531313
_symmetry_space_group_name_H-M "A M A 2"
_symmetry_group_IT_number 40
_symmetry_cell_setting 'orthorhombic'
loop_
_space_group_symop_operation_xyz
x,y,z
-x,-y,z
1/2-x,y,z
1/2+x,-y,z
x,1/2+y,1/2+z
-x,1/2-y,1/2+z
1/2-x,1/2+y,1/2+z
1/2+x,1/2-y,1/2+z
loop_
_atom_site_type_symbol
_atom_site_label
_atom_site_fract_x
_atom_site_fract_y
_atom_site_fract_z
Si Si1 0.930711 0.702400 0.634240
Si Si2 0.430630 0.837962 0.585567
Si Si3 0.430872 0.162055 0.931354
Si Si4 0.071086 0.798072 0.364388
Si Si5 0.930634 0.430939 0.248795
O O1 0.750000 0.709938 0.622377
O O2 0.978357 0.675122 0.750008
O O3 0.006920 0.771204 0.626301
O O4 0.994279 0.653417 0.547083
O O5 0.250000 0.840424 0.603940
O O6 0.474008 0.844702 0.460780
O O7 0.509129 0.895853 0.645055
O O8 0.250000 0.162836 0.945413
O O9 0.497518 0.227706 0.883879
O O10 0.483360 0.105807 0.854232
O O11 0.250000 0.787361 0.364764
O O12 0.750000 0.434839 0.241019
O O13 0.000000 0.500000 0.254389
#
# Coordination Sequence:
#
# PCOD8182387 Si02
#       5
#     8   8   8   8   8
#     4  10  17  29  50  76 104 133 165 207 256 301
#     4  10  19  32  49  73 103 136 171 205 253 304
#     4   9  18  33  48  69 103 135 165 206 256 303
#     4   8  15  29  48  71 103 133 157 202 255 298
#     4  11  22  37  54  73 102 136 173 215 255 300
#
# _framework density 17.082837999999999
#
# number of rings (size 3 to 8) (size 9 to 14) (size 15 to 20)
#    0.000    2.400    2.000    3.000    0.000    1.600 
#    0.000    3.000    0.000    1.200    0.000    2.800 
#    0.000    0.000    0.000    0.000    0.000    0.000 
#
# Total GULP energy -247863.544136 kJ/mol
# GULP energy per Si atom -12393.177207 kJ/mol
# Density = 1.704396 g / cm^3
# Si number density = 17.082838 Si / 1000 Ang^3
#
#
#
# Elastic Constant Matrix: (Units=GPa)
#
#
# Indices 1 2 3 4 5 6 
#
# 1 56.2444 37.5213 47.3351 0.0000 0.0000 0.0000
# 2 37.5213 94.9849 72.5302 0.0000 0.0000 0.0000
# 3 47.3351 72.5302 187.2875 0.0000 0.0000 0.0000
# 4 0.0000 0.0000 0.0000 27.2445 0.0000 0.0000
# 5 0.0000 0.0000 0.0000 0.0000 27.2903 0.0000
# 6 0.0000 0.0000 0.0000 0.0000 0.0000 14.9390
#
#
#
# Elastic Compliance Matrix: (Units=1/GPa)
#
#
# Indices 1 2 3 4 5 6 
#
# 1 0.025789 -0.007398 -0.003653 0.000000 0.000000 0.000000
# 2 -0.007398 0.017071 -0.004741 0.000000 0.000000 0.000000
# 3 -0.003653 -0.004741 0.008099 0.000000 0.000000 0.000000
# 4 0.000000 0.000000 0.000000 0.036705 0.000000 0.000000
# 5 0.000000 0.000000 0.000000 0.000000 0.036643 0.000000
# 6 0.000000 0.000000 0.000000 0.000000 0.000000 0.066939
#
#
# Mechanical properties :
#
#
# Convention : Reuss Voigt Hill
#
# Bulk Modulus (GPa) = 51.61445 72.58777 62.10111
# Shear Modulus (GPa) = 21.80669 25.97010 23.88840
#
# Velocity S-wave (km/s) = 3.57673 3.90326 3.74356
# Velocity P-wave (km/s) = 6.88020 7.93081 7.42411
#
# Compressibility (1/GPa) = 0.01937442
#
# Stress axis : x y z
#
# Youngs Moduli (GPa) = 38.77608 58.57997 123.47617
#
# Poissons Ratio (x) = 0.43337 0.45106
# Poissons Ratio (y) = 0.28686 0.58542
# Poissons Ratio (z) = 0.14165 0.27774
#
# Static dielectric constant tensor:
#      x y z
#    x 3.152580 0.000000 0.000000 
#    y 0.000000 2.857340 0.000000 
#    z 0.000000 0.000000 3.853050 
# 
# 
# High freq. dielectric constant tensor:
#      x y z
#    x 1.656050 0.000000 0.000000 
#    y 0.000000 1.609590 0.000000 
#    z 0.000000 0.000000 1.680650 
# 
# From -- ./inp_files/10009.got.cif
#   From: 2010.03.12/outbox.cif.g09.slc.cpg/sg40_6_cif.got.tgz:10009.got - 2010.04.14 01:38:03.
