data_PCOD8182583
_publ_section_title
;
Structure prediction by ZEFSAII (Michael W. Deem and Ramdas Pophale) SiO2 
 PCOD8182583
Probable space group: A M A 2
;
_chemical_formula_sum "Si O2"
_cell_formula_units_Z 56
_cell_length_a 8.412343
_cell_length_b 18.382783
_cell_length_c 21.094987
_cell_angle_alpha 90.000000
_cell_angle_beta 90.000000
_cell_angle_gamma 90.000000
_cell_volume 3262.176800
_symmetry_space_group_name_H-M "A M A 2"
_symmetry_group_IT_number 40
_symmetry_cell_setting 'orthorhombic'
loop_
_space_group_symop_operation_xyz
x,y,z
-x,-y,z
1/2-x,y,z
1/2+x,-y,z
x,1/2+y,1/2+z
-x,1/2-y,1/2+z
1/2-x,1/2+y,1/2+z
1/2+x,1/2-y,1/2+z
loop_
_atom_site_type_symbol
_atom_site_label
_atom_site_fract_x
_atom_site_fract_y
_atom_site_fract_z
Si Si1 0.434952 0.284336 0.674630
Si Si2 0.934201 0.209492 0.795577
Si Si3 0.063378 0.580212 0.727183
Si Si4 0.062599 0.841819 0.606978
Si Si5 0.562673 0.154534 0.352130
Si Si6 0.562205 0.080971 0.480929
Si Si7 0.936706 0.420989 0.229856
O O1 0.250000 0.274662 0.691449
O O2 0.545124 0.250739 0.729253
O O3 0.481180 0.369452 0.672537
O O4 0.478988 0.237967 0.612037
O O5 0.750000 0.197886 0.811176
O O6 0.014159 0.260165 0.849421
O O7 0.019887 0.131203 0.789370
O O8 0.250000 0.581732 0.717452
O O9 0.000000 0.500000 0.716499
O O10 0.021209 0.607991 0.797358
O O11 0.250000 0.830649 0.603707
O O12 0.995551 0.878676 0.543202
O O13 0.020049 0.893573 0.665792
O O14 0.750000 0.145951 0.343234
O O15 0.502185 0.124024 0.419126
O O16 0.750000 0.078890 0.483196
O O17 0.500000 0.000000 0.478513
O O18 0.750000 0.421971 0.218336
O O19 0.000000 0.500000 0.247667
#
# Coordination Sequence:
#
# PCOD8182583 Si02
#       7
#     8   8   8   8   8   8   8
#     4  10  18  30  47  68  91 121 155 192 234 280
#     4  10  18  30  47  68  91 121 155 192 234 280
#     4  11  20  31  47  70  96 124 154 193 237 281
#     4  10  19  33  48  67  94 127 161 195 231 275
#     4  10  19  33  48  67  94 127 161 195 231 275
#     4  10  22  34  48  68  95 128 163 196 230 268
#     4  11  20  31  47  70  96 124 154 193 237 281
#
# _framework density 17.166450999999999
#
# number of rings (size 3 to 8) (size 9 to 14) (size 15 to 20)
#    0.000    1.714    0.000   10.286    0.000    4.571 
#    0.000    0.000    0.000    0.000    0.000    1.000 
#    0.000    0.000    0.000    0.000    0.000    0.000 
#
# Total GULP energy -347143.084778 kJ/mol
# GULP energy per Si atom -12397.967313 kJ/mol
# Density = 1.712738 g / cm^3
# Si number density = 17.166451 Si / 1000 Ang^3
#
#
#
# Elastic Constant Matrix: (Units=GPa)
#
#
# Indices 1 2 3 4 5 6 
#
# 1 70.1676 28.4401 17.9083 0.0000 0.0000 0.0000
# 2 28.4401 162.4995 65.6930 0.0000 0.0000 0.0000
# 3 17.9083 65.6930 80.6582 0.0000 0.0000 0.0000
# 4 0.0000 0.0000 0.0000 30.7981 0.0000 0.0000
# 5 0.0000 0.0000 0.0000 0.0000 17.1206 0.0000
# 6 0.0000 0.0000 0.0000 0.0000 0.0000 33.0777
#
#
#
# Elastic Compliance Matrix: (Units=1/GPa)
#
#
# Indices 1 2 3 4 5 6 
#
# 1 0.015521 -0.001973 -0.001839 0.000000 0.000000 0.000000
# 2 -0.001973 0.009426 -0.007239 0.000000 0.000000 0.000000
# 3 -0.001839 -0.007239 0.018702 0.000000 0.000000 0.000000
# 4 0.000000 0.000000 0.000000 0.032470 0.000000 0.000000
# 5 0.000000 0.000000 0.000000 0.000000 0.058409 0.000000
# 6 0.000000 0.000000 0.000000 0.000000 0.000000 0.030232
#
#
# Mechanical properties :
#
#
# Convention : Reuss Voigt Hill
#
# Bulk Modulus (GPa) = 46.41093 59.71203 53.06148
# Shear Modulus (GPa) = 25.76758 29.61820 27.69289
#
# Velocity S-wave (km/s) = 3.87853 4.15824 4.02082
# Velocity P-wave (km/s) = 6.86672 7.61015 7.24797
#
# Compressibility (1/GPa) = 0.02154665
#
# Stress axis : x y z
#
# Youngs Moduli (GPa) = 64.43042 106.09516 53.47024
#
# Poissons Ratio (x) = 0.20931 0.09834
# Poissons Ratio (y) = 0.12711 0.38705
# Poissons Ratio (z) = 0.11850 0.76799
#
# Static dielectric constant tensor:
#      x y z
#    x 3.281260 0.000000 0.000000 
#    y 0.000000 3.713470 0.000000 
#    z 0.000000 0.000000 3.163770 
# 
# 
# High freq. dielectric constant tensor:
#      x y z
#    x 1.680010 0.000000 0.000000 
#    y 0.000000 1.672610 0.000000 
#    z 0.000000 0.000000 1.615730 
# 
# From -- ./inp_files/22308.got.cif
#   From: 2010.03.12/outbox.cif.g09.slc.cpg/sg40_12_cif.got.tgz:22308.got - 2010.04.14 01:38:03.
