data_PCOD8182076
_publ_section_title
;
Structure prediction by ZEFSAII (Michael W. Deem and Ramdas Pophale) SiO2 
 PCOD8182076
Probable space group: A B M 2
;
_chemical_formula_sum "Si O2"
_cell_formula_units_Z 48
_cell_length_a 26.251558
_cell_length_b 9.013582
_cell_length_c 9.969004
_cell_angle_alpha 90.000000
_cell_angle_beta 90.000000
_cell_angle_gamma 90.000000
_cell_volume 2358.871415
_symmetry_space_group_name_H-M "A B M 2"
_symmetry_group_IT_number 39
_symmetry_cell_setting 'orthorhombic'
loop_
_space_group_symop_operation_xyz
x,y,z
-x,-y,z
-x,1/2+y,z
x,1/2-y,z
x,1/2+y,1/2+z
-x,1/2-y,1/2+z
-x,y,1/2+z
x,-y,1/2+z
loop_
_atom_site_type_symbol
_atom_site_label
_atom_site_fract_x
_atom_site_fract_y
_atom_site_fract_z
Si Si1 0.282807 0.077727 0.712760
Si Si2 0.775227 0.078425 0.484376
Si Si3 0.610458 0.422024 0.710054
Si Si4 0.551837 0.077733 0.978158
Si Si5 0.052071 0.579009 0.725922
Si Si6 0.109436 0.579667 0.457546
O O1 0.294566 0.250000 0.688163
O O2 0.262575 0.048527 0.861563
O O3 0.240687 0.024163 0.607757
O O4 0.333602 0.985328 0.689168
O O5 0.774008 0.250000 0.529521
O O6 0.831940 0.031850 0.440983
O O7 0.610645 0.250000 0.669923
O O8 0.570983 0.506012 0.615317
O O9 0.593842 0.446498 0.863253
O O10 0.540943 0.250000 0.003787
O O11 0.500000 0.000000 0.931380
O O12 0.039356 0.750000 0.746493
O O13 0.093506 0.551742 0.610631
O O14 0.000000 0.500000 0.685095
O O15 0.074225 0.519357 0.864366
O O16 0.101535 0.750000 0.415444
#
# Coordination Sequence:
#
# PCOD8182076 Si02
#       6
#     8   8   8   8   8   8
#     4  11  23  38  60  89 119 155 198 242 291 348
#     4  10  22  40  61  87 120 155 193 241 294 348
#     4  11  24  41  62  88 120 158 198 243 293 346
#     4  11  24  41  63  91 121 156 198 243 294 351
#     4  11  23  38  59  86 116 153 195 240 291 347
#     4  10  22  40  61  87 118 153 195 241 291 348
#
# _framework density 20.348714000000001
#
# number of rings (size 3 to 8) (size 9 to 14) (size 15 to 20)
#    0.000    1.333    0.000    5.000    0.000   11.333 
#    0.000    0.000    0.000    0.000    0.000    0.000 
#    0.000    0.000    0.000    0.000    0.000    0.000 
#
# Total GULP energy -297801.435593 kJ/mol
# GULP energy per Si atom -12408.393150 kJ/mol
# Density = 2.030240 g / cm^3
# Si number density = 20.348714 Si / 1000 Ang^3
#
#
#
# Elastic Constant Matrix: (Units=GPa)
#
#
# Indices 1 2 3 4 5 6 
#
# 1 100.9506 43.7030 12.1476 0.0000 0.0000 0.0000
# 2 43.7030 118.9386 50.1749 0.0000 0.0000 0.0000
# 3 12.1476 50.1749 73.7815 0.0000 0.0000 0.0000
# 4 0.0000 0.0000 0.0000 34.4068 0.0000 0.0000
# 5 0.0000 0.0000 0.0000 0.0000 35.4116 0.0000
# 6 0.0000 0.0000 0.0000 0.0000 0.0000 37.8110
#
#
#
# Elastic Compliance Matrix: (Units=1/GPa)
#
#
# Indices 1 2 3 4 5 6 
#
# 1 0.011885 -0.004966 0.001421 0.000000 0.000000 0.000000
# 2 -0.004966 0.013865 -0.008611 0.000000 0.000000 0.000000
# 3 0.001421 -0.008611 0.019176 0.000000 0.000000 0.000000
# 4 0.000000 0.000000 0.000000 0.029064 0.000000 0.000000
# 5 0.000000 0.000000 0.000000 0.000000 0.028239 0.000000
# 6 0.000000 0.000000 0.000000 0.000000 0.000000 0.026447
#
#
# Mechanical properties :
#
#
# Convention : Reuss Voigt Hill
#
# Bulk Modulus (GPa) = 48.51604 56.19127 52.35366
# Shear Modulus (GPa) = 31.27710 34.03556 32.65633
#
# Velocity S-wave (km/s) = 3.92478 4.09420 4.01039
# Velocity P-wave (km/s) = 6.66578 7.07277 6.87229
#
# Compressibility (1/GPa) = 0.02061174
#
# Stress axis : x y z
#
# Youngs Moduli (GPa) = 84.14062 72.12271 52.14906
#
# Poissons Ratio (x) = 0.35818 -0.07408
# Poissons Ratio (y) = 0.41786 0.44908
# Poissons Ratio (z) = -0.11952 0.62108
#
# Static dielectric constant tensor:
#      x y z
#    x 3.780590 0.000000 0.000000 
#    y 0.000000 3.794870 0.000000 
#    z 0.000000 0.000000 3.605600 
# 
# 
# High freq. dielectric constant tensor:
#      x y z
#    x 1.809470 0.000000 0.000000 
#    y 0.000000 1.803250 0.000000 
#    z 0.000000 0.000000 1.802490 
# 
# From -- ./inp_files/4134.got.cif
#   From: 2010.03.12/outbox.cif.g09.slc.cpg/sg39_3_cif.got.tgz:4134.got - 2010.04.14 02:53:20.
