data_PCOD8182592
_publ_section_title
;
Structure prediction by ZEFSAII (Michael W. Deem and Ramdas Pophale) SiO2 
 PCOD8182592
Probable space group: A M A 2
;
_chemical_formula_sum "Si O2"
_cell_formula_units_Z 64
_cell_length_a 8.660203
_cell_length_b 30.071380
_cell_length_c 14.481287
_cell_angle_alpha 90.000000
_cell_angle_beta 90.000000
_cell_angle_gamma 90.000000
_cell_volume 3771.278383
_symmetry_space_group_name_H-M "A M A 2"
_symmetry_group_IT_number 40
_symmetry_cell_setting 'orthorhombic'
loop_
_space_group_symop_operation_xyz
x,y,z
-x,-y,z
1/2-x,y,z
1/2+x,-y,z
x,1/2+y,1/2+z
-x,1/2-y,1/2+z
1/2-x,1/2+y,1/2+z
1/2+x,1/2-y,1/2+z
loop_
_atom_site_type_symbol
_atom_site_label
_atom_site_fract_x
_atom_site_fract_y
_atom_site_fract_z
Si Si1 0.576772 0.675299 0.490880
Si Si2 0.933376 0.704216 0.826428
Si Si3 0.930052 0.714655 0.211613
Si Si4 0.922890 0.277676 0.013731
Si Si5 0.068453 0.546094 0.396001
Si Si6 0.567211 0.546259 0.596658
Si Si7 0.572872 0.862236 0.817328
Si Si8 0.432370 0.364155 0.679926
O O1 0.750000 0.655350 0.474870
O O2 0.583889 0.727577 0.479523
O O3 0.454529 0.656379 0.419356
O O4 0.511450 0.663455 0.591288
O O5 0.750000 0.705416 0.832492
O O6 0.997256 0.661211 0.769764
O O7 0.982908 0.749591 0.775266
O O8 0.000786 0.696355 0.928380
O O9 0.750000 0.723641 0.222416
O O10 0.976270 0.717659 0.105154
O O11 0.967638 0.664385 0.244784
O O12 0.750000 0.295726 0.032963
O O13 0.250000 0.540853 0.412365
O O14 0.032333 0.585014 0.321556
O O15 0.000000 0.500000 0.356423
O O16 0.992693 0.557892 0.494480
O O17 0.500000 0.500000 0.634041
O O18 0.750000 0.543028 0.591547
O O19 0.512824 0.584647 0.668612
O O20 0.750000 0.854857 0.789445
O O21 0.250000 0.362154 0.684772
#
# Coordination Sequence:
#
# PCOD8182592 Si02
#       8
#     8   8   8   8   8   8   8   8
#     4  10  18  31  50  72 102 139 173 207 251 303
#     4  11  21  36  54  75 102 135 175 217 257 306
#     4  12  24  36  52  75 102 139 177 212 258 306
#     4  11  22  37  53  74 103 136 175 217 259 303
#     4  10  20  32  48  73 102 134 169 209 257 305
#     4  10  18  30  48  71 101 136 170 208 253 303
#     4  11  22  34  50  75 104 137 176 217 254 301
#     4   9  18  32  50  71  99 138 173 205 250 300
#
# _framework density 16.970372999999999
#
# number of rings (size 3 to 8) (size 9 to 14) (size 15 to 20)
#    0.000    1.500    3.750    3.750    0.000    2.000 
#    0.000    2.500    0.000    0.000    0.000    0.875 
#    0.000    4.000    0.000    0.000    0.000    0.000 
#
# Total GULP energy -396697.940049 kJ/mol
# GULP energy per Si atom -12396.810627 kJ/mol
# Density = 1.693175 g / cm^3
# Si number density = 16.970373 Si / 1000 Ang^3
#
#
#
# Elastic Constant Matrix: (Units=GPa)
#
#
# Indices 1 2 3 4 5 6 
#
# 1 67.2883 26.0164 7.7546 0.0000 0.0000 0.0000
# 2 26.0164 93.2174 22.6621 0.0000 0.0000 0.0000
# 3 7.7546 22.6621 61.7737 0.0000 0.0000 0.0000
# 4 0.0000 0.0000 0.0000 23.3916 0.0000 0.0000
# 5 0.0000 0.0000 0.0000 0.0000 24.5754 0.0000
# 6 0.0000 0.0000 0.0000 0.0000 0.0000 17.9865
#
#
#
# Elastic Compliance Matrix: (Units=1/GPa)
#
#
# Indices 1 2 3 4 5 6 
#
# 1 0.016669 -0.004549 -0.000424 0.000000 0.000000 0.000000
# 2 -0.004549 0.013020 -0.004205 0.000000 0.000000 0.000000
# 3 -0.000424 -0.004205 0.017784 0.000000 0.000000 0.000000
# 4 0.000000 0.000000 0.000000 0.042750 0.000000 0.000000
# 5 0.000000 0.000000 0.000000 0.000000 0.040691 0.000000
# 6 0.000000 0.000000 0.000000 0.000000 0.000000 0.055597
#
#
# Mechanical properties :
#
#
# Convention : Reuss Voigt Hill
#
# Bulk Modulus (GPa) = 34.34469 37.23840 35.79155
# Shear Modulus (GPa) = 23.30203 24.24710 23.77456
#
# Velocity S-wave (km/s) = 3.70956 3.78403 3.74698
# Velocity P-wave (km/s) = 6.21528 6.40958 6.31318
#
# Compressibility (1/GPa) = 0.02911658
#
# Stress axis : x y z
#
# Youngs Moduli (GPa) = 59.99092 76.80713 56.23023
#
# Poissons Ratio (x) = 0.34942 0.02382
# Poissons Ratio (y) = 0.27292 0.23646
# Poissons Ratio (z) = 0.02541 0.32299
#
# Static dielectric constant tensor:
#      x y z
#    x 3.218340 0.000000 0.000000 
#    y 0.000000 3.863660 0.000000 
#    z 0.000000 0.000000 3.095640 
# 
# 
# High freq. dielectric constant tensor:
#      x y z
#    x 1.659760 0.000000 0.000000 
#    y 0.000000 1.648920 0.000000 
#    z 0.000000 0.000000 1.627350 
# 
# From -- ./inp_files/15887.got.cif
#   From: 2010.03.12/outbox.cif.g09.slc.cpg/sg40_8_cif.got.tgz:15887.got - 2010.04.14 01:38:03.
