data_PCOD8182635
_publ_section_title
;
Structure prediction by ZEFSAII (Michael W. Deem and Ramdas Pophale) SiO2 
 PCOD8182635
Probable space group: A M A 2
;
_chemical_formula_sum "Si O2"
_cell_formula_units_Z 56
_cell_length_a 9.099261
_cell_length_b 18.977279
_cell_length_c 18.003717
_cell_angle_alpha 90.000000
_cell_angle_beta 90.000000
_cell_angle_gamma 90.000000
_cell_volume 3108.867713
_symmetry_space_group_name_H-M "A M A 2"
_symmetry_group_IT_number 40
_symmetry_cell_setting 'orthorhombic'
loop_
_space_group_symop_operation_xyz
x,y,z
-x,-y,z
1/2-x,y,z
1/2+x,-y,z
x,1/2+y,1/2+z
-x,1/2-y,1/2+z
1/2-x,1/2+y,1/2+z
1/2+x,1/2-y,1/2+z
loop_
_atom_site_type_symbol
_atom_site_label
_atom_site_fract_x
_atom_site_fract_y
_atom_site_fract_z
Si Si1 0.421579 0.790798 0.521300
Si Si2 0.080783 0.925896 0.430540
Si Si3 0.589895 0.436189 0.566402
Si Si4 0.084014 0.567076 0.390767
Si Si5 0.578649 0.680117 0.802963
Si Si6 0.076230 0.792082 0.897712
Si Si7 0.420219 0.198579 0.152377
O O1 0.250000 0.779640 0.501209
O O2 0.469219 0.869676 0.495044
O O3 0.511883 0.732388 0.476271
O O4 0.448359 0.773867 0.609379
O O5 0.250000 0.943596 0.441551
O O6 0.051847 0.892816 0.348404
O O7 0.000000 0.000000 0.440150
O O8 0.500000 0.500000 0.602532
O O9 0.750000 0.449223 0.598913
O O10 0.586849 0.440122 0.478595
O O11 0.537375 0.359590 0.591272
O O12 0.250000 0.571446 0.358932
O O13 0.000000 0.500000 0.355614
O O14 0.991831 0.635255 0.368811
O O15 0.750000 0.701720 0.810441
O O16 0.468381 0.736872 0.835651
O O17 0.532477 0.678728 0.717450
O O18 0.250000 0.799909 0.904081
O O19 0.250000 0.195152 0.179038
#
# Coordination Sequence:
#
# PCOD8182635 Si02
#       7
#     8   8   8   8   8   8   8
#     4   9  18  35  55  76 105 140 174 218 275 320
#     4   9  19  35  56  78 105 140 177 221 271 323
#     4   9  18  30  46  69 101 137 167 202 244 294
#     4  10  18  31  49  73 103 135 168 208 254 302
#     4  10  22  37  52  74 105 141 176 219 272 322
#     4  11  20  32  52  77 101 133 176 220 261 315
#     4  10  19  34  53  75 104 140 178 217 264 319
#
# _framework density 18.012989000000001
#
# number of rings (size 3 to 8) (size 9 to 14) (size 15 to 20)
#    0.000    2.286    1.429    3.000    0.000    5.143 
#    0.000    2.857    0.000    0.857    0.000    4.000 
#    0.000    0.000    0.000    0.000    0.000    0.000 
#
# Total GULP energy -346914.971454 kJ/mol
# GULP energy per Si atom -12389.820409 kJ/mol
# Density = 1.797199 g / cm^3
# Si number density = 18.012989 Si / 1000 Ang^3
#
#
#
# Elastic Constant Matrix: (Units=GPa)
#
#
# Indices 1 2 3 4 5 6 
#
# 1 84.6170 43.9494 17.1113 0.0000 0.0000 0.0000
# 2 43.9494 113.3171 23.5980 0.0000 0.0000 0.0000
# 3 17.1113 23.5980 50.2567 0.0000 0.0000 0.0000
# 4 0.0000 0.0000 0.0000 14.9821 0.0000 0.0000
# 5 0.0000 0.0000 0.0000 0.0000 23.9161 0.0000
# 6 0.0000 0.0000 0.0000 0.0000 0.0000 36.0550
#
#
#
# Elastic Compliance Matrix: (Units=1/GPa)
#
#
# Indices 1 2 3 4 5 6 
#
# 1 0.015112 -0.005309 -0.002653 0.000000 0.000000 0.000000
# 2 -0.005309 0.011646 -0.003661 0.000000 0.000000 0.000000
# 3 -0.002653 -0.003661 0.022520 0.000000 0.000000 0.000000
# 4 0.000000 0.000000 0.000000 0.066746 0.000000 0.000000
# 5 0.000000 0.000000 0.000000 0.000000 0.041813 0.000000
# 6 0.000000 0.000000 0.000000 0.000000 0.000000 0.027735
#
#
# Mechanical properties :
#
#
# Convention : Reuss Voigt Hill
#
# Bulk Modulus (GPa) = 38.41197 46.38978 42.40088
# Shear Modulus (GPa) = 22.98915 25.89280 24.44098
#
# Velocity S-wave (km/s) = 3.57635 3.79549 3.68754
# Velocity P-wave (km/s) = 6.19875 6.70948 6.45916
#
# Compressibility (1/GPa) = 0.02603355
#
# Stress axis : x y z
#
# Youngs Moduli (GPa) = 66.17447 85.86587 44.40501
#
# Poissons Ratio (x) = 0.45582 0.11779
# Poissons Ratio (y) = 0.35129 0.16256
# Poissons Ratio (z) = 0.17553 0.31435
#
# Static dielectric constant tensor:
#      x y z
#    x 3.432130 0.000000 0.000000 
#    y 0.000000 3.462860 0.000000 
#    z 0.000000 0.000000 3.109210 
# 
# 
# High freq. dielectric constant tensor:
#      x y z
#    x 1.700970 0.000000 0.000000 
#    y 0.000000 1.698490 0.000000 
#    z 0.000000 0.000000 1.662520 
# 
# From -- ./inp_files/19517.got.cif
#   From: 2010.03.12/outbox.cif.g09.slc.cpg/sg40_10_cif.got.tgz:19517.got - 2010.04.14 01:38:03.
