data_PCOD8182846
_publ_section_title
;
Structure prediction by ZEFSAII (Michael W. Deem and Ramdas Pophale) SiO2 
 PCOD8182846
Probable space group: A M A 2
;
_chemical_formula_sum "Si O2"
_cell_formula_units_Z 64
_cell_length_a 8.888822
_cell_length_b 18.574909
_cell_length_c 21.585428
_cell_angle_alpha 90.000000
_cell_angle_beta 90.000000
_cell_angle_gamma 90.000000
_cell_volume 3563.949722
_symmetry_space_group_name_H-M "A M A 2"
_symmetry_group_IT_number 40
_symmetry_cell_setting 'orthorhombic'
loop_
_space_group_symop_operation_xyz
x,y,z
-x,-y,z
1/2-x,y,z
1/2+x,-y,z
x,1/2+y,1/2+z
-x,1/2-y,1/2+z
1/2-x,1/2+y,1/2+z
1/2+x,1/2-y,1/2+z
loop_
_atom_site_type_symbol
_atom_site_label
_atom_site_fract_x
_atom_site_fract_y
_atom_site_fract_z
Si Si1 0.918185 0.929466 0.620320
Si Si2 0.426239 0.320438 0.900891
Si Si3 0.922279 0.071919 0.037811
Si Si4 0.071720 0.853998 0.161900
Si Si5 0.083355 0.067825 0.475355
Si Si6 0.427451 0.922972 0.291309
Si Si7 0.570868 0.719578 0.107894
Si Si8 0.075017 0.778894 0.983534
O O1 0.750000 0.921729 0.648954
O O2 0.902238 0.942875 0.547765
O O3 0.014170 0.857616 0.632887
O O4 0.000000 0.000000 0.649649
O O5 0.250000 0.307966 0.898029
O O6 0.476620 0.364970 0.961381
O O7 0.485007 0.362215 0.839974
O O8 0.506307 0.243972 0.916220
O O9 0.750000 0.052562 0.044521
O O10 0.983399 0.096115 0.105118
O O11 0.950202 0.135502 0.988467
O O12 0.000000 0.000000 0.013375
O O13 0.250000 0.838711 0.158363
O O14 0.023923 0.895007 0.224074
O O15 0.985286 0.778125 0.158187
O O16 0.250000 0.076367 0.445780
O O17 0.000000 0.000000 0.444022
O O18 0.250000 0.932200 0.297236
O O19 0.500000 0.000000 0.305426
O O20 0.750000 0.719109 0.103667
O O21 0.503291 0.738499 0.040920
O O22 0.250000 0.758025 0.987049
#
# Coordination Sequence:
#
# PCOD8182846 Si02
#       8
#     8   8   8   8   8   8   8   8
#     4  10  19  30  45  67  98 132 165 202 248 300
#     4  11  21  32  48  71  99 133 174 214 252 297
#     4   9  18  31  51  75  99 127 161 201 252 306
#     4   9  19  36  53  71 101 137 171 210 255 305
#     4  10  19  29  43  62  91 130 167 202 243 289
#     4  10  22  37  53  75 104 139 179 219 257 299
#     4  11  20  31  50  75 100 129 169 214 258 307
#     4  10  20  34  49  70 100 135 168 204 255 311
#
# _framework density 17.957605000000001
#
# number of rings (size 3 to 8) (size 9 to 14) (size 15 to 20)
#    0.000    2.000    1.250    4.125    0.000    6.000 
#    0.000    0.000    0.000    0.000    0.000    0.875 
#    0.000    2.000    0.000    0.000    0.000    0.000 
#
# Total GULP energy -396656.889750 kJ/mol
# GULP energy per Si atom -12395.527805 kJ/mol
# Density = 1.791673 g / cm^3
# Si number density = 17.957605 Si / 1000 Ang^3
#
#
#
# Elastic Constant Matrix: (Units=GPa)
#
#
# Indices 1 2 3 4 5 6 
#
# 1 92.1659 55.8883 28.4264 0.0000 0.0000 0.0000
# 2 55.8883 130.3402 38.0878 0.0000 0.0000 0.0000
# 3 28.4264 38.0878 63.0250 0.0000 0.0000 0.0000
# 4 0.0000 0.0000 0.0000 24.8715 0.0000 0.0000
# 5 0.0000 0.0000 0.0000 0.0000 17.5759 0.0000
# 6 0.0000 0.0000 0.0000 0.0000 0.0000 35.5470
#
#
#
# Elastic Compliance Matrix: (Units=1/GPa)
#
#
# Indices 1 2 3 4 5 6 
#
# 1 0.015295 -0.005516 -0.003565 0.000000 0.000000 0.000000
# 2 -0.005516 0.011307 -0.004345 0.000000 0.000000 0.000000
# 3 -0.003565 -0.004345 0.020100 0.000000 0.000000 0.000000
# 4 0.000000 0.000000 0.000000 0.040207 0.000000 0.000000
# 5 0.000000 0.000000 0.000000 0.000000 0.056896 0.000000
# 6 0.000000 0.000000 0.000000 0.000000 0.000000 0.028132
#
#
# Mechanical properties :
#
#
# Convention : Reuss Voigt Hill
#
# Bulk Modulus (GPa) = 50.37856 58.92623 54.65240
# Shear Modulus (GPa) = 24.34201 26.47412 25.40807
#
# Velocity S-wave (km/s) = 3.68574 3.84377 3.76559
# Velocity P-wave (km/s) = 6.79912 7.25153 7.02897
#
# Compressibility (1/GPa) = 0.01984971
#
# Stress axis : x y z
#
# Youngs Moduli (GPa) = 65.38284 88.43779 49.75018
#
# Poissons Ratio (x) = 0.48786 0.17734
# Poissons Ratio (y) = 0.36068 0.21618
# Poissons Ratio (z) = 0.23306 0.38428
#
# Static dielectric constant tensor:
#      x y z
#    x 3.500970 0.000000 0.000000 
#    y 0.000000 3.572790 0.000000 
#    z 0.000000 0.000000 3.038100 
# 
# 
# High freq. dielectric constant tensor:
#      x y z
#    x 1.703190 0.000000 0.000000 
#    y 0.000000 1.701810 0.000000 
#    z 0.000000 0.000000 1.642890 
# 
# From -- ./inp_files/22417.got.cif
#   From: 2010.03.12/outbox.cif.g09.slc.cpg/sg40_12_cif.got.tgz:22417.got - 2010.04.14 01:38:03.
