data_PCOD8182442
_publ_section_title
;
Structure prediction by ZEFSAII (Michael W. Deem and Ramdas Pophale) SiO2 
 PCOD8182442
Probable space group: A M A 2
;
_chemical_formula_sum "Si O2"
_cell_formula_units_Z 64
_cell_length_a 9.122293
_cell_length_b 26.084871
_cell_length_c 18.423598
_cell_angle_alpha 90.000000
_cell_angle_beta 90.000000
_cell_angle_gamma 90.000000
_cell_volume 4383.965819
_symmetry_space_group_name_H-M "A M A 2"
_symmetry_group_IT_number 40
_symmetry_cell_setting 'orthorhombic'
loop_
_space_group_symop_operation_xyz
x,y,z
-x,-y,z
1/2-x,y,z
1/2+x,-y,z
x,1/2+y,1/2+z
-x,1/2-y,1/2+z
1/2-x,1/2+y,1/2+z
1/2+x,1/2-y,1/2+z
loop_
_atom_site_type_symbol
_atom_site_label
_atom_site_fract_x
_atom_site_fract_y
_atom_site_fract_z
Si Si1 0.921223 0.447655 0.438280
Si Si2 0.424462 0.252887 0.434151
Si Si3 0.921726 0.749722 0.272526
Si Si4 0.422521 0.354688 0.192470
Si Si5 0.088740 0.799912 0.152735
Si Si6 0.086128 0.193570 0.568525
Si Si7 0.576618 0.145150 0.011850
Si Si8 0.422006 0.552801 0.270814
O O1 0.750000 0.453689 0.453660
O O2 0.952546 0.433698 0.354598
O O3 0.000000 0.500000 0.459857
O O4 0.987232 0.404380 0.489295
O O5 0.250000 0.255142 0.433906
O O6 0.487726 0.244001 0.353390
O O7 0.473078 0.205830 0.486930
O O8 0.481753 0.307572 0.463132
O O9 0.750000 0.756738 0.273598
O O10 0.964869 0.693828 0.242331
O O11 0.982936 0.795169 0.221872
O O12 0.250000 0.365603 0.192792
O O13 0.475531 0.344593 0.109819
O O14 0.508594 0.403152 0.222151
O O15 0.250000 0.812392 0.183086
O O16 0.092612 0.747581 0.108421
O O17 0.039187 0.844215 0.096674
O O18 0.250000 0.169380 0.566833
O O19 0.750000 0.136483 0.000555
O O20 0.500000 0.500000 0.249150
O O21 0.250000 0.548027 0.254445
#
# Coordination Sequence:
#
# PCOD8182442 Si02
#       8
#     8   8   8   8   8   8   8   8
#     4  10  20  31  43  60  81 105 135 170 204 237
#     4   8  14  25  41  59  79 108 141 168 200 240
#     4   9  16  25  39  59  82 108 138 170 201 236
#     4  10  18  27  41  60  82 108 137 168 203 240
#     4   8  15  26  39  56  78 106 136 165 200 239
#     4   8  14  26  41  55  76 106 138 168 197 236
#     4   9  16  28  44  58  78 109 140 168 201 241
#     4  10  20  32  44  59  80 106 136 169 203 237
#
# _framework density 14.598654
#
# number of rings (size 3 to 8) (size 9 to 14) (size 15 to 20)
#    0.000    3.000    0.000    3.375    0.000    3.500 
#    0.000    3.125    0.000    0.000    0.000    0.000 
#    0.000    1.000    0.000    5.250    0.000    4.500 
#
# Total GULP energy -396646.234693 kJ/mol
# GULP energy per Si atom -12395.194834 kJ/mol
# Density = 1.456543 g / cm^3
# Si number density = 14.598654 Si / 1000 Ang^3
#
#
#
# Elastic Constant Matrix: (Units=GPa)
#
#
# Indices 1 2 3 4 5 6 
#
# 1 61.6433 45.4301 42.4246 0.0000 0.0000 0.0000
# 2 45.4301 80.5706 54.5305 0.0000 0.0000 0.0000
# 3 42.4246 54.5305 110.5208 0.0000 0.0000 0.0000
# 4 0.0000 0.0000 0.0000 24.4239 0.0000 0.0000
# 5 0.0000 0.0000 0.0000 0.0000 21.1524 0.0000
# 6 0.0000 0.0000 0.0000 0.0000 0.0000 23.2683
#
#
#
# Elastic Compliance Matrix: (Units=1/GPa)
#
#
# Indices 1 2 3 4 5 6 
#
# 1 0.029261 -0.013358 -0.004642 0.000000 0.000000 0.000000
# 2 -0.013358 0.024732 -0.007075 0.000000 0.000000 0.000000
# 3 -0.004642 -0.007075 0.014321 0.000000 0.000000 0.000000
# 4 0.000000 0.000000 0.000000 0.040943 0.000000 0.000000
# 5 0.000000 0.000000 0.000000 0.000000 0.047276 0.000000
# 6 0.000000 0.000000 0.000000 0.000000 0.000000 0.042977
#
#
# Mechanical properties :
#
#
# Convention : Reuss Voigt Hill
#
# Bulk Modulus (GPa) = 55.05119 59.72278 57.38698
# Shear Modulus (GPa) = 19.55316 21.12556 20.33936
#
# Velocity S-wave (km/s) = 3.66373 3.80819 3.73666
# Velocity P-wave (km/s) = 7.46249 7.76756 7.61656
#
# Compressibility (1/GPa) = 0.01816491
#
# Stress axis : x y z
#
# Youngs Moduli (GPa) = 34.17499 40.43416 69.82956
#
# Poissons Ratio (x) = 0.54010 0.32412
# Poissons Ratio (y) = 0.45649 0.49404
# Poissons Ratio (z) = 0.15863 0.28607
#
# Static dielectric constant tensor:
#      x y z
#    x 2.823360 0.000000 0.000000 
#    y 0.000000 2.621100 0.000000 
#    z 0.000000 0.000000 3.101170 
# 
# 
# High freq. dielectric constant tensor:
#      x y z
#    x 1.555540 0.000000 0.000000 
#    y 0.000000 1.525130 0.000000 
#    z 0.000000 0.000000 1.550300 
# 
# From -- ./inp_files/19708.got.cif
#   From: 2010.03.12/outbox.cif.g09.slc.cpg/sg40_10_cif.got.tgz:19708.got - 2010.04.14 01:38:03.
