data_PCOD8182849
_publ_section_title
;
Structure prediction by ZEFSAII (Michael W. Deem and Ramdas Pophale) SiO2 
 PCOD8182849
Probable space group: A M A 2
;
_chemical_formula_sum "Si O2"
_cell_formula_units_Z 48
_cell_length_a 9.383088
_cell_length_b 16.940856
_cell_length_c 18.300720
_cell_angle_alpha 90.000000
_cell_angle_beta 90.000000
_cell_angle_gamma 90.000000
_cell_volume 2909.037480
_symmetry_space_group_name_H-M "A M A 2"
_symmetry_group_IT_number 40
_symmetry_cell_setting 'orthorhombic'
loop_
_space_group_symop_operation_xyz
x,y,z
-x,-y,z
1/2-x,y,z
1/2+x,-y,z
x,1/2+y,1/2+z
-x,1/2-y,1/2+z
1/2-x,1/2+y,1/2+z
1/2+x,1/2-y,1/2+z
loop_
_atom_site_type_symbol
_atom_site_label
_atom_site_fract_x
_atom_site_fract_y
_atom_site_fract_z
Si Si1 0.082320 0.077966 0.115240
Si Si2 0.919300 0.277509 0.879401
Si Si3 0.081572 0.579502 0.976921
Si Si4 0.593006 0.317043 0.107458
Si Si5 0.409080 0.332669 0.503023
Si Si6 0.416131 0.226767 0.215584
O O1 0.250000 0.061421 0.106980
O O2 0.050175 0.144036 0.176108
O O3 0.019525 0.104284 0.036429
O O4 0.000000 0.000000 0.141858
O O5 0.750000 0.282055 0.878888
O O6 0.976814 0.356069 0.919115
O O7 0.980494 0.275348 0.797250
O O8 0.964303 0.197922 0.923674
O O9 0.250000 0.566435 0.968465
O O10 0.000000 0.500000 0.958866
O O11 0.044070 0.607686 0.059502
O O12 0.750000 0.331760 0.140629
O O13 0.598966 0.243406 0.053611
O O14 0.485817 0.300648 0.173684
O O15 0.250000 0.370543 0.497646
O O16 0.250000 0.244158 0.216718
#
# Coordination Sequence:
#
# PCOD8182849 Si02
#       6
#     8   8   8   8   8   8
#     4  10  19  29  43  65  92 118 145 178 214 255
#     4   8  15  29  47  66  89 116 143 175 219 262
#     4   9  17  29  45  65  90 118 146 177 213 255
#     4   8  15  28  44  62  85 114 147 181 216 252
#     4   8  14  28  48  63  80 112 150 182 214 255
#     4   9  17  29  46  67  89 114 145 179 214 257
#
# _framework density 16.500302999999999
#
# number of rings (size 3 to 8) (size 9 to 14) (size 15 to 20)
#    0.000    3.333    0.000    2.500    0.000    2.000 
#    0.000    4.167    0.000    1.000    0.000    2.333 
#    0.000    0.000    0.000    0.000    0.000    0.000 
#
# Total GULP energy -297443.077385 kJ/mol
# GULP energy per Si atom -12393.461558 kJ/mol
# Density = 1.646275 g / cm^3
# Si number density = 16.500303 Si / 1000 Ang^3
#
#
#
# Elastic Constant Matrix: (Units=GPa)
#
#
# Indices 1 2 3 4 5 6 
#
# 1 52.0205 16.1769 40.6445 0.0000 0.0000 0.0000
# 2 16.1769 20.1097 35.3867 0.0000 0.0000 0.0000
# 3 40.6445 35.3867 124.7324 0.0000 0.0000 0.0000
# 4 0.0000 0.0000 0.0000 17.4867 0.0000 0.0000
# 5 0.0000 0.0000 0.0000 0.0000 19.9590 0.0000
# 6 0.0000 0.0000 0.0000 0.0000 0.0000 25.9430
#
#
#
# Elastic Compliance Matrix: (Units=1/GPa)
#
#
# Indices 1 2 3 4 5 6 
#
# 1 0.027298 -0.012594 -0.005322 0.000000 0.000000 0.000000
# 2 -0.012594 0.105110 -0.025716 0.000000 0.000000 0.000000
# 3 -0.005322 -0.025716 0.017047 0.000000 0.000000 0.000000
# 4 0.000000 0.000000 0.000000 0.057186 0.000000 0.000000
# 5 0.000000 0.000000 0.000000 0.000000 0.050103 0.000000
# 6 0.000000 0.000000 0.000000 0.000000 0.000000 0.038546
#
#
# Mechanical properties :
#
#
# Convention : Reuss Voigt Hill
#
# Bulk Modulus (GPa) = 16.07955 42.36432 29.22194
# Shear Modulus (GPa) = 12.39817 19.65470 16.02644
#
# Velocity S-wave (km/s) = 2.74412 3.45508 3.11992
# Velocity P-wave (km/s) = 4.45044 6.45348 5.54319
#
# Compressibility (1/GPa) = 0.06219078
#
# Stress axis : x y z
#
# Youngs Moduli (GPa) = 36.63292 9.51381 58.66090
#
# Poissons Ratio (x) = 0.11982 0.31220
# Poissons Ratio (y) = 0.46135 1.50853
# Poissons Ratio (z) = 0.19497 0.24466
#
# Static dielectric constant tensor:
#      x y z
#    x 3.020070 0.000000 0.000000 
#    y 0.000000 2.981620 0.000000 
#    z 0.000000 0.000000 3.394780 
# 
# 
# High freq. dielectric constant tensor:
#      x y z
#    x 1.620110 0.000000 0.000000 
#    y 0.000000 1.613930 0.000000 
#    z 0.000000 0.000000 1.626590 
# 
# From -- ./inp_files/16343.got.cif
#   From: 2010.03.12/outbox.cif.g09.slc.cpg/sg40_9_cif.got.tgz:16343.got - 2010.04.14 01:38:03.
