data_PCOD8182768
_publ_section_title
;
Structure prediction by ZEFSAII (Michael W. Deem and Ramdas Pophale) SiO2 
 PCOD8182768
Probable space group: A M A 2
;
_chemical_formula_sum "Si O2"
_cell_formula_units_Z 52
_cell_length_a 19.635578
_cell_length_b 13.619494
_cell_length_c 10.240582
_cell_angle_alpha 90.000000
_cell_angle_beta 90.000000
_cell_angle_gamma 90.000000
_cell_volume 2738.604403
_symmetry_space_group_name_H-M "A M A 2"
_symmetry_group_IT_number 40
_symmetry_cell_setting 'orthorhombic'
loop_
_space_group_symop_operation_xyz
x,y,z
-x,-y,z
1/2-x,y,z
1/2+x,-y,z
x,1/2+y,1/2+z
-x,1/2-y,1/2+z
1/2-x,1/2+y,1/2+z
1/2+x,1/2-y,1/2+z
loop_
_atom_site_type_symbol
_atom_site_label
_atom_site_fract_x
_atom_site_fract_y
_atom_site_fract_z
Si Si1 0.000000 0.000000 0.821950
Si Si2 0.091803 0.878234 0.011529
Si Si3 0.104467 0.154894 0.798800
Si Si4 0.543224 0.138476 0.290645
Si Si5 0.103666 0.564429 0.826819
Si Si6 0.329668 0.065058 0.055756
Si Si7 0.171537 0.688542 0.029760
O O1 0.051928 0.070811 0.743565
O O2 0.956575 0.078176 0.902510
O O3 0.125535 0.775756 0.970331
O O4 0.155016 0.949828 0.041657
O O5 0.041725 0.863836 0.133955
O O6 0.067138 0.255444 0.839765
O O7 0.141059 0.121556 0.930659
O O8 0.158138 0.172522 0.683511
O O9 0.468556 0.117936 0.345659
O O10 0.595230 0.053250 0.337215
O O11 0.135345 0.601302 0.689634
O O12 0.153307 0.592543 0.945779
O O13 0.250000 0.084368 0.065127
O O14 0.250000 0.714940 0.012326
#
# Coordination Sequence:
#
# PCOD8182768 Si02
#       7
#     4   8   8   8   8   8   8
#     4  10  18  34  56  86 104 130 180 232 276 300
#     4   9  18  33  57  79 106 138 176 222 264 319
#     4  10  21  35  56  77 108 140 174 219 263 320
#     4   9  18  35  55  80 102 135 177 218 271 311
#     4  10  20  34  57  78 104 134 175 226 262 306
#     4  10  19  35  55  78 102 137 177 214 256 313
#     4  11  22  36  51  78 113 149 177 209 264 326
#
# _framework density 18.987774000000002
#
# number of rings (size 3 to 8) (size 9 to 14) (size 15 to 20)
#    0.000    2.154    0.000    5.077    0.000    2.462 
#    0.000    5.385    0.000    0.000    0.000    0.000 
#    0.000    0.000    0.000    0.000    0.000    0.000 
#
# Total GULP energy -322318.373267 kJ/mol
# GULP energy per Si atom -12396.860510 kJ/mol
# Density = 1.894456 g / cm^3
# Si number density = 18.987774 Si / 1000 Ang^3
#
#
#
# Elastic Constant Matrix: (Units=GPa)
#
#
# Indices 1 2 3 4 5 6 
#
# 1 91.2077 34.1653 20.9345 0.0000 0.0000 0.0000
# 2 34.1653 100.3606 27.4483 0.0000 0.0000 0.0000
# 3 20.9345 27.4483 65.6316 0.0000 0.0000 0.0000
# 4 0.0000 0.0000 0.0000 28.0351 0.0000 0.0000
# 5 0.0000 0.0000 0.0000 0.0000 24.6529 0.0000
# 6 0.0000 0.0000 0.0000 0.0000 0.0000 20.2547
#
#
#
# Elastic Compliance Matrix: (Units=1/GPa)
#
#
# Indices 1 2 3 4 5 6 
#
# 1 0.012942 -0.003700 -0.002581 0.000000 0.000000 0.000000
# 2 -0.003700 0.012309 -0.003968 0.000000 0.000000 0.000000
# 3 -0.002581 -0.003968 0.017719 0.000000 0.000000 0.000000
# 4 0.000000 0.000000 0.000000 0.035670 0.000000 0.000000
# 5 0.000000 0.000000 0.000000 0.000000 0.040563 0.000000
# 6 0.000000 0.000000 0.000000 0.000000 0.000000 0.049371
#
#
# Mechanical properties :
#
#
# Convention : Reuss Voigt Hill
#
# Bulk Modulus (GPa) = 44.49707 46.92178 45.70943
# Shear Modulus (GPa) = 25.43724 26.23198 25.83461
#
# Velocity S-wave (km/s) = 3.66411 3.72091 3.69262
# Velocity P-wave (km/s) = 6.43323 6.57461 6.50430
#
# Compressibility (1/GPa) = 0.02247339
#
# Stress axis : x y z
#
# Youngs Moduli (GPa) = 77.26579 81.24287 56.43643
#
# Poissons Ratio (x) = 0.30060 0.14565
# Poissons Ratio (y) = 0.28589 0.22391
# Poissons Ratio (z) = 0.19941 0.32233
#
# Static dielectric constant tensor:
#      x y z
#    x 3.489920 0.000000 0.000000 
#    y 0.000000 3.631550 0.000000 
#    z 0.000000 0.000000 3.233570 
# 
# 
# High freq. dielectric constant tensor:
#      x y z
#    x 1.739920 0.000000 0.000000 
#    y 0.000000 1.743600 0.000000 
#    z 0.000000 0.000000 1.721100 
# 
# From -- ./inp_files/8232.got.cif
#   From: 2010.03.12/outbox.cif.g09.slc.cpg/sg40_5_cif.got.tgz:8232.got - 2010.04.14 01:38:03.
