data_PCOD8182115
_publ_section_title
;
Structure prediction by ZEFSAII (Michael W. Deem and Ramdas Pophale) SiO2 
 PCOD8182115
Probable space group: A B M 2
;
_chemical_formula_sum "Si O2"
_cell_formula_units_Z 64
_cell_length_a 6.642031
_cell_length_b 17.478236
_cell_length_c 27.018634
_cell_angle_alpha 90.000000
_cell_angle_beta 90.000000
_cell_angle_gamma 90.000000
_cell_volume 3136.619844
_symmetry_space_group_name_H-M "A B M 2"
_symmetry_group_IT_number 39
_symmetry_cell_setting 'orthorhombic'
loop_
_space_group_symop_operation_xyz
x,y,z
-x,-y,z
-x,1/2+y,z
x,1/2-y,z
x,1/2+y,1/2+z
-x,1/2-y,1/2+z
-x,y,1/2+z
x,-y,1/2+z
loop_
_atom_site_type_symbol
_atom_site_label
_atom_site_fract_x
_atom_site_fract_y
_atom_site_fract_z
Si Si1 0.435859 0.920093 0.985260
Si Si2 0.441823 0.916561 0.734822
Si Si3 0.875675 0.423341 0.073698
Si Si4 0.099458 0.417561 0.309941
Si Si5 0.629682 0.837400 0.387480
Si Si6 0.739295 0.836676 0.050195
Si Si7 0.698282 0.335421 0.313193
Si Si8 0.563897 0.837984 0.637133
O O1 0.349533 0.862933 0.944210
O O2 0.500000 0.000000 0.960133
O O3 0.272792 0.937122 0.027825
O O4 0.639783 0.885561 0.007091
O O5 0.215040 0.913492 0.757003
O O6 0.595216 0.897438 0.778369
O O7 0.473936 0.857278 0.690627
O O8 0.500000 0.000000 0.714702
O O9 0.749461 0.393164 0.121228
O O10 0.000000 0.500000 0.087855
O O11 0.029162 0.357784 0.057596
O O12 0.246843 0.397662 0.354785
O O13 0.000000 0.500000 0.318548
O O14 0.933729 0.351505 0.312718
O O15 0.710429 0.750000 0.382737
O O16 0.398017 0.841730 0.368273
O O17 0.726469 0.750000 0.032707
O O18 0.622030 0.851110 0.100916
O O19 0.661242 0.250000 0.292313
O O20 0.638608 0.750000 0.636283
#
# Coordination Sequence:
#
# PCOD8182115 Si02
#       8
#     8   8   8   8   8   8   8   8
#     4  11  23  39  64  95 128 167 212 260 317 374
#     4  11  23  40  64  93 125 163 210 259 318 376
#     4  11  23  41  65  93 126 168 213 260 315 376
#     4  11  23  41  65  94 127 166 211 263 318 379
#     4  10  24  41  64  94 127 169 213 260 319 380
#     4  10  22  42  64  90 126 164 208 263 316 378
#     4  10  22  42  64  89 126 165 206 259 317 377
#     4  10  24  42  64  92 126 167 210 261 322 380
#
# _framework density 20.404129999999999
#
# number of rings (size 3 to 8) (size 9 to 14) (size 15 to 20)
#    0.000    1.500    2.500    1.500    3.500    5.500 
#    0.000    1.250    0.000    0.000    0.000    0.000 
#    0.000    0.000    0.000    0.000    0.000    0.000 
#
# Total GULP energy -396804.165359 kJ/mol
# GULP energy per Si atom -12400.130167 kJ/mol
# Density = 2.035769 g / cm^3
# Si number density = 20.404130 Si / 1000 Ang^3
#
#
#
# Elastic Constant Matrix: (Units=GPa)
#
#
# Indices 1 2 3 4 5 6 
#
# 1 108.8409 45.3222 28.1543 0.0000 0.0000 0.0000
# 2 45.3222 108.1943 46.5762 0.0000 0.0000 0.0000
# 3 28.1543 46.5762 97.6061 0.0000 0.0000 0.0000
# 4 0.0000 0.0000 0.0000 34.5152 0.0000 0.0000
# 5 0.0000 0.0000 0.0000 0.0000 21.8445 0.0000
# 6 0.0000 0.0000 0.0000 0.0000 0.0000 39.4438
#
#
#
# Elastic Compliance Matrix: (Units=1/GPa)
#
#
# Indices 1 2 3 4 5 6 
#
# 1 0.011250 -0.004173 -0.001254 0.000000 0.000000 0.000000
# 2 -0.004173 0.013180 -0.005086 0.000000 0.000000 0.000000
# 3 -0.001254 -0.005086 0.013034 0.000000 0.000000 0.000000
# 4 0.000000 0.000000 0.000000 0.028973 0.000000 0.000000
# 5 0.000000 0.000000 0.000000 0.000000 0.045778 0.000000
# 6 0.000000 0.000000 0.000000 0.000000 0.000000 0.025353
#
#
# Mechanical properties :
#
#
# Convention : Reuss Voigt Hill
#
# Bulk Modulus (GPa) = 60.83112 61.63853 61.23483
# Shear Modulus (GPa) = 30.47475 32.13328 31.30402
#
# Velocity S-wave (km/s) = 3.86885 3.97273 3.92114
# Velocity P-wave (km/s) = 7.05941 7.16365 7.11172
#
# Compressibility (1/GPa) = 0.01643895
#
# Stress axis : x y z
#
# Youngs Moduli (GPa) = 88.89225 75.87337 76.72422
#
# Poissons Ratio (x) = 0.31660 0.09619
# Poissons Ratio (y) = 0.37092 0.39019
# Poissons Ratio (z) = 0.11145 0.38586
#
# Static dielectric constant tensor:
#      x y z
#    x 3.814870 0.000000 0.000000 
#    y 0.000000 3.771220 0.000000 
#    z 0.000000 0.000000 3.534270 
# 
# 
# High freq. dielectric constant tensor:
#      x y z
#    x 1.798920 0.000000 0.000000 
#    y 0.000000 1.816390 0.000000 
#    z 0.000000 0.000000 1.783790 
# 
# From -- ./inp_files/17368.got.cif
#   From: 2010.03.12/outbox.cif.g09.slc.cpg/sg39_9_cif.got.tgz:17368.got - 2010.04.14 02:53:20.
