data_PCOD8182633
_publ_section_title
;
Structure prediction by ZEFSAII (Michael W. Deem and Ramdas Pophale) SiO2 
 PCOD8182633
Probable space group: A M A 2
;
_chemical_formula_sum "Si O2"
_cell_formula_units_Z 48
_cell_length_a 8.453603
_cell_length_b 23.924681
_cell_length_c 13.705540
_cell_angle_alpha 90.000000
_cell_angle_beta 90.000000
_cell_angle_gamma 90.000000
_cell_volume 2771.942108
_symmetry_space_group_name_H-M "A M A 2"
_symmetry_group_IT_number 40
_symmetry_cell_setting 'orthorhombic'
loop_
_space_group_symop_operation_xyz
x,y,z
-x,-y,z
1/2-x,y,z
1/2+x,-y,z
x,1/2+y,1/2+z
-x,1/2-y,1/2+z
1/2-x,1/2+y,1/2+z
1/2+x,1/2-y,1/2+z
loop_
_atom_site_type_symbol
_atom_site_label
_atom_site_fract_x
_atom_site_fract_y
_atom_site_fract_z
Si Si1 0.065053 0.277418 0.103440
Si Si2 0.936771 0.833478 0.003044
Si Si3 0.565609 0.331522 0.920198
Si Si4 0.061651 0.559033 0.611933
Si Si5 0.935550 0.773376 0.812716
Si Si6 0.937192 0.060016 0.327034
O O1 0.250000 0.284684 0.082573
O O2 0.027647 0.289960 0.215343
O O3 0.007139 0.214567 0.078168
O O4 0.973010 0.320394 0.033607
O O5 0.750000 0.835713 0.003792
O O6 0.994532 0.817939 0.894176
O O7 0.002266 0.893393 0.037841
O O8 0.750000 0.324305 0.899663
O O9 0.473557 0.288955 0.849292
O O10 0.511971 0.394150 0.897749
O O11 0.250000 0.558235 0.621100
O O12 0.000000 0.500000 0.570939
O O13 0.989458 0.572260 0.716865
O O14 0.750000 0.777661 0.792886
O O15 0.750000 0.061463 0.334486
O O16 0.000000 0.000000 0.362276
#
# Coordination Sequence:
#
# PCOD8182633 Si02
#       6
#     8   8   8   8   8   8
#     4  10  19  33  51  74 100 130 165 205 251 303
#     4   8  17  31  48  68  97 130 161 197 243 293
#     4  11  21  34  51  74 102 134 166 204 251 300
#     4  10  18  31  49  72 100 132 165 203 247 294
#     4  10  19  33  51  74 100 131 168 208 251 300
#     4  11  21  34  51  74 101 131 165 205 248 298
#
# _framework density 17.316379999999999
#
# number of rings (size 3 to 8) (size 9 to 14) (size 15 to 20)
#    0.000    2.000    0.000    7.500    0.000    1.333 
#    0.000    9.167    0.000    1.000    0.000    4.667 
#    0.000    0.000    0.000    0.000    0.000    0.000 
#
# Total GULP energy -297615.013791 kJ/mol
# GULP energy per Si atom -12400.625575 kJ/mol
# Density = 1.727697 g / cm^3
# Si number density = 17.316380 Si / 1000 Ang^3
#
#
#
# Elastic Constant Matrix: (Units=GPa)
#
#
# Indices 1 2 3 4 5 6 
#
# 1 60.5410 15.6715 13.1315 0.0000 0.0000 0.0000
# 2 15.6715 131.4752 65.4644 0.0000 0.0000 0.0000
# 3 13.1315 65.4644 107.7499 0.0000 0.0000 0.0000
# 4 0.0000 0.0000 0.0000 33.5537 0.0000 0.0000
# 5 0.0000 0.0000 0.0000 0.0000 27.7235 0.0000
# 6 0.0000 0.0000 0.0000 0.0000 0.0000 23.2348
#
#
#
# Elastic Compliance Matrix: (Units=1/GPa)
#
#
# Indices 1 2 3 4 5 6 
#
# 1 0.017154 -0.001439 -0.001216 0.000000 0.000000 0.000000
# 2 -0.001439 0.011026 -0.006523 0.000000 0.000000 0.000000
# 3 -0.001216 -0.006523 0.013392 0.000000 0.000000 0.000000
# 4 0.000000 0.000000 0.000000 0.029803 0.000000 0.000000
# 5 0.000000 0.000000 0.000000 0.000000 0.036070 0.000000
# 6 0.000000 0.000000 0.000000 0.000000 0.000000 0.043039
#
#
# Mechanical properties :
#
#
# Convention : Reuss Voigt Hill
#
# Bulk Modulus (GPa) = 43.07630 54.25565 48.66598
# Shear Modulus (GPa) = 28.31580 30.60233 29.45906
#
# Velocity S-wave (km/s) = 4.04815 4.20842 4.12907
# Velocity P-wave (km/s) = 6.83960 7.41717 7.13423
#
# Compressibility (1/GPa) = 0.02321462
#
# Stress axis : x y z
#
# Youngs Moduli (GPa) = 58.29524 90.69750 74.66981
#
# Poissons Ratio (x) = 0.13053 0.09081
# Poissons Ratio (y) = 0.08389 0.48710
# Poissons Ratio (z) = 0.07090 0.59165
#
# Static dielectric constant tensor:
#      x y z
#    x 3.227450 0.000000 0.000000 
#    y 0.000000 3.352190 0.000000 
#    z 0.000000 0.000000 3.221900 
# 
# 
# High freq. dielectric constant tensor:
#      x y z
#    x 1.675480 0.000000 0.000000 
#    y 0.000000 1.661610 0.000000 
#    z 0.000000 0.000000 1.657980 
# 
# From -- ./inp_files/10263.got.cif
#   From: 2010.03.12/outbox.cif.g09.slc.cpg/sg40_6_cif.got.tgz:10263.got - 2010.04.14 01:38:03.
