data_PCOD8182989
_publ_section_title
;
Structure prediction by ZEFSAII (Michael W. Deem and Ramdas Pophale) SiO2 
 PCOD8182989
Probable space group: A M A 2
;
_chemical_formula_sum "Si O2"
_cell_formula_units_Z 64
_cell_length_a 8.931257
_cell_length_b 30.402610
_cell_length_c 14.235516
_cell_angle_alpha 90.000000
_cell_angle_beta 90.000000
_cell_angle_gamma 90.000000
_cell_volume 3865.419817
_symmetry_space_group_name_H-M "A M A 2"
_symmetry_group_IT_number 40
_symmetry_cell_setting 'orthorhombic'
loop_
_space_group_symop_operation_xyz
x,y,z
-x,-y,z
1/2-x,y,z
1/2+x,-y,z
x,1/2+y,1/2+z
-x,1/2-y,1/2+z
1/2-x,1/2+y,1/2+z
1/2+x,1/2-y,1/2+z
loop_
_atom_site_type_symbol
_atom_site_label
_atom_site_fract_x
_atom_site_fract_y
_atom_site_fract_z
Si Si1 0.926579 0.270706 0.757530
Si Si2 0.581811 0.817872 0.741642
Si Si3 0.573418 0.955494 0.654092
Si Si4 0.417405 0.634759 0.433065
Si Si5 0.423626 0.801179 0.432015
Si Si6 0.072087 0.544438 0.369976
Si Si7 0.427721 0.715894 0.545074
Si Si8 0.422508 0.370420 0.085256
O O1 0.750000 0.263317 0.762888
O O2 0.976181 0.285909 0.653694
O O3 0.013347 0.226362 0.784246
O O4 0.981059 0.305428 0.835904
O O5 0.750000 0.810187 0.702725
O O6 0.586783 0.853148 0.823877
O O7 0.474127 0.834427 0.660234
O O8 0.750000 0.959029 0.644235
O O9 0.522197 0.948648 0.761827
O O10 0.518236 0.914785 0.591149
O O11 0.500000 0.000000 0.613819
O O12 0.250000 0.630797 0.473207
O O13 0.489397 0.585598 0.433053
O O14 0.500091 0.672271 0.495309
O O15 0.250000 0.793134 0.407860
O O16 0.486216 0.760668 0.496020
O O17 0.445423 0.847697 0.484208
O O18 0.250000 0.541116 0.376386
O O19 0.000000 0.500000 0.411103
O O20 0.250000 0.714973 0.533638
O O21 0.250000 0.381793 0.104187
#
# Coordination Sequence:
#
# PCOD8182989 Si02
#       8
#     8   8   8   8   8   8   8   8
#     4  11  21  33  48  72  99 126 168 213 248 287
#     4  11  19  30  49  70  97 134 169 201 244 296
#     4  10  19  32  49  73 101 131 166 202 247 300
#     4   9  16  29  48  67  90 128 168 192 228 291
#     4  10  20  35  51  68  97 135 167 200 252 299
#     4   9  17  29  45  68  94 124 159 193 235 289
#     4   9  17  31  49  68  94 128 163 202 243 290
#     4  11  21  33  49  72 101 134 170 208 248 293
#
# _framework density 16.557064
#
# number of rings (size 3 to 8) (size 9 to 14) (size 15 to 20)
#    0.000    2.000    3.750    1.500    0.000    1.500 
#    0.000    0.000    0.000    0.000    0.000    0.875 
#    0.000    4.000    0.000    0.000    0.000    0.000 
#
# Total GULP energy -396677.010402 kJ/mol
# GULP energy per Si atom -12396.156575 kJ/mol
# Density = 1.651938 g / cm^3
# Si number density = 16.557064 Si / 1000 Ang^3
#
#
#
# Elastic Constant Matrix: (Units=GPa)
#
#
# Indices 1 2 3 4 5 6 
#
# 1 49.8018 29.6242 20.7418 0.0000 0.0000 0.0000
# 2 29.6242 110.4361 28.8056 0.0000 0.0000 0.0000
# 3 20.7418 28.8056 69.8870 0.0000 0.0000 0.0000
# 4 0.0000 0.0000 0.0000 20.8063 0.0000 0.0000
# 5 0.0000 0.0000 0.0000 0.0000 19.7476 0.0000
# 6 0.0000 0.0000 0.0000 0.0000 0.0000 26.4997
#
#
#
# Elastic Compliance Matrix: (Units=1/GPa)
#
#
# Indices 1 2 3 4 5 6 
#
# 1 0.025550 -0.005463 -0.005331 0.000000 0.000000 0.000000
# 2 -0.005463 0.011314 -0.003042 0.000000 0.000000 0.000000
# 3 -0.005331 -0.003042 0.017145 0.000000 0.000000 0.000000
# 4 0.000000 0.000000 0.000000 0.048062 0.000000 0.000000
# 5 0.000000 0.000000 0.000000 0.000000 0.050639 0.000000
# 6 0.000000 0.000000 0.000000 0.000000 0.000000 0.037736
#
#
# Mechanical properties :
#
#
# Convention : Reuss Voigt Hill
#
# Bulk Modulus (GPa) = 37.97071 43.16315 40.56693
# Shear Modulus (GPa) = 22.03642 23.47427 22.75534
#
# Velocity S-wave (km/s) = 3.65216 3.76943 3.71126
# Velocity P-wave (km/s) = 6.38493 6.71347 6.55126
#
# Compressibility (1/GPa) = 0.02633609
#
# Stress axis : x y z
#
# Youngs Moduli (GPa) = 39.13950 88.38680 58.32659
#
# Poissons Ratio (x) = 0.48286 0.31095
# Poissons Ratio (y) = 0.21382 0.17742
# Poissons Ratio (z) = 0.20866 0.26886
#
# Static dielectric constant tensor:
#      x y z
#    x 2.961310 0.000000 0.000000 
#    y 0.000000 3.242860 0.000000 
#    z 0.000000 0.000000 2.940220 
# 
# 
# High freq. dielectric constant tensor:
#      x y z
#    x 1.623970 0.000000 0.000000 
#    y 0.000000 1.636030 0.000000 
#    z 0.000000 0.000000 1.606200 
# 
# From -- ./inp_files/15865.got.cif
#   From: 2010.03.12/outbox.cif.g09.slc.cpg/sg40_8_cif.got.tgz:15865.got - 2010.04.14 01:38:03.
