data_PCOD8182864
_publ_section_title
;
Structure prediction by ZEFSAII (Michael W. Deem and Ramdas Pophale) SiO2 
 PCOD8182864
Probable space group: A M A 2
;
_chemical_formula_sum "Si O2"
_cell_formula_units_Z 56
_cell_length_a 8.943186
_cell_length_b 18.869879
_cell_length_c 17.313607
_cell_angle_alpha 90.000000
_cell_angle_beta 90.000000
_cell_angle_gamma 90.000000
_cell_volume 2921.789566
_symmetry_space_group_name_H-M "A M A 2"
_symmetry_group_IT_number 40
_symmetry_cell_setting 'orthorhombic'
loop_
_space_group_symop_operation_xyz
x,y,z
-x,-y,z
1/2-x,y,z
1/2+x,-y,z
x,1/2+y,1/2+z
-x,1/2-y,1/2+z
1/2-x,1/2+y,1/2+z
1/2+x,1/2-y,1/2+z
loop_
_atom_site_type_symbol
_atom_site_label
_atom_site_fract_x
_atom_site_fract_y
_atom_site_fract_z
Si Si1 0.915882 0.705429 0.732460
Si Si2 0.416443 0.567311 0.901505
Si Si3 0.424319 0.315118 0.983891
Si Si4 0.071156 0.423149 0.282852
Si Si5 0.074097 0.698876 0.370447
Si Si6 0.086658 0.066491 0.220103
Si Si7 0.918618 0.344457 0.142293
O O1 0.750000 0.676603 0.750344
O O2 0.982423 0.742498 0.808864
O O3 0.915336 0.762765 0.665048
O O4 0.012075 0.641004 0.700302
O O5 0.500000 0.500000 0.939819
O O6 0.250000 0.575517 0.937706
O O7 0.518946 0.635797 0.914263
O O8 0.402337 0.555564 0.810993
O O9 0.250000 0.326018 0.998700
O O10 0.454586 0.233345 0.955634
O O11 0.511559 0.343547 0.057768
O O12 0.250000 0.428027 0.282560
O O13 0.000000 0.500000 0.296224
O O14 0.017772 0.373228 0.354620
O O15 0.015356 0.391773 0.201140
O O16 0.250000 0.682974 0.356367
O O17 0.250000 0.067704 0.182035
O O18 0.000000 0.000000 0.182551
O O19 0.750000 0.375660 0.140117
#
# Coordination Sequence:
#
# PCOD8182864 Si02
#       7
#     8   8   8   8   8   8   8
#     4   9  17  33  53  73 102 137 172 217 266 314
#     4  10  20  32  47  72 105 140 175 212 255 306
#     4  11  21  35  55  80 111 147 184 225 273 328
#     4  11  22  38  61  86 113 146 189 235 284 339
#     4   9  19  35  56  81 110 143 181 227 277 327
#     4  10  19  29  47  73 101 132 169 210 253 303
#     4  10  22  38  55  79 111 145 181 224 276 331
#
# _framework density 19.166336000000001
#
# number of rings (size 3 to 8) (size 9 to 14) (size 15 to 20)
#    0.000    2.000    1.429    3.857    0.000    5.714 
#    0.000    2.857    0.000    0.857    0.000    6.000 
#    0.000    0.000    0.000    0.000    0.000    0.000 
#
# Total GULP energy -347045.600598 kJ/mol
# GULP energy per Si atom -12394.485736 kJ/mol
# Density = 1.912271 g / cm^3
# Si number density = 19.166336 Si / 1000 Ang^3
#
#
#
# Elastic Constant Matrix: (Units=GPa)
#
#
# Indices 1 2 3 4 5 6 
#
# 1 126.4230 59.3931 16.3320 0.0000 0.0000 0.0000
# 2 59.3931 123.4820 12.0699 0.0000 0.0000 0.0000
# 3 16.3320 12.0699 31.1718 0.0000 0.0000 0.0000
# 4 0.0000 0.0000 0.0000 15.2060 0.0000 0.0000
# 5 0.0000 0.0000 0.0000 0.0000 7.7384 0.0000
# 6 0.0000 0.0000 0.0000 0.0000 0.0000 37.5656
#
#
#
# Elastic Compliance Matrix: (Units=1/GPa)
#
#
# Indices 1 2 3 4 5 6 
#
# 1 0.010620 -0.004744 -0.003727 0.000000 0.000000 0.000000
# 2 -0.004744 0.010536 -0.001594 0.000000 0.000000 0.000000
# 3 -0.003727 -0.001594 0.034650 0.000000 0.000000 0.000000
# 4 0.000000 0.000000 0.000000 0.065763 0.000000 0.000000
# 5 0.000000 0.000000 0.000000 0.000000 0.129226 0.000000
# 6 0.000000 0.000000 0.000000 0.000000 0.000000 0.026620
#
#
# Mechanical properties :
#
#
# Convention : Reuss Voigt Hill
#
# Bulk Modulus (GPa) = 28.03026 50.74078 39.38552
# Shear Modulus (GPa) = 16.15833 24.98746 20.57289
#
# Velocity S-wave (km/s) = 2.90670 3.61462 3.27981
# Velocity P-wave (km/s) = 5.09133 6.62963 5.91074
#
# Compressibility (1/GPa) = 0.03567573
#
# Stress axis : x y z
#
# Youngs Moduli (GPa) = 94.16110 94.91401 28.85968
#
# Poissons Ratio (x) = 0.45025 0.10757
# Poissons Ratio (y) = 0.44668 0.04601
# Poissons Ratio (z) = 0.35098 0.15130
#
# Static dielectric constant tensor:
#      x y z
#    x 3.744590 0.000000 0.000000 
#    y 0.000000 3.540840 0.000000 
#    z 0.000000 0.000000 3.123200 
# 
# 
# High freq. dielectric constant tensor:
#      x y z
#    x 1.757080 0.000000 0.000000 
#    y 0.000000 1.747060 0.000000 
#    z 0.000000 0.000000 1.702950 
# 
# From -- ./inp_files/19503.got.cif
#   From: 2010.03.12/outbox.cif.g09.slc.cpg/sg40_10_cif.got.tgz:19503.got - 2010.04.14 01:38:03.
