data_PCOD8182060
_publ_section_title
;
Structure prediction by ZEFSAII (Michael W. Deem and Ramdas Pophale) SiO2 
 PCOD8182060
Probable space group: A B M 2
;
_chemical_formula_sum "Si O2"
_cell_formula_units_Z 40
_cell_length_a 11.474153
_cell_length_b 13.965436
_cell_length_c 11.610172
_cell_angle_alpha 90.000000
_cell_angle_beta 90.000000
_cell_angle_gamma 90.000000
_cell_volume 1860.431950
_symmetry_space_group_name_H-M "A B M 2"
_symmetry_group_IT_number 39
_symmetry_cell_setting 'orthorhombic'
loop_
_space_group_symop_operation_xyz
x,y,z
-x,-y,z
-x,1/2+y,z
x,1/2-y,z
x,1/2+y,1/2+z
-x,1/2-y,1/2+z
-x,y,1/2+z
x,-y,1/2+z
loop_
_atom_site_type_symbol
_atom_site_label
_atom_site_fract_x
_atom_site_fract_y
_atom_site_fract_z
Si Si1 0.765939 0.642448 0.419800
Si Si2 0.789287 0.854326 0.818035
Si Si3 0.366441 0.026303 0.242678
Si Si4 0.195860 0.543955 0.555489
Si Si5 0.967499 0.098827 0.757897
O O1 0.735530 0.750000 0.466423
O O2 0.655235 0.598107 0.349928
O O3 0.800335 0.569361 0.521690
O O4 0.872795 0.655560 0.331501
O O5 0.729495 0.750000 0.817886
O O6 0.911682 0.843644 0.748398
O O7 0.705237 0.928586 0.757217
O O8 0.813580 0.886195 0.948065
O O9 0.315651 0.070284 0.124265
O O10 0.500000 0.000000 0.230402
O O11 0.084243 0.568301 0.633927
O O12 0.000000 0.000000 0.824865
#
# Coordination Sequence:
#
# PCOD8182060 Si02
#       5
#     8   8   8   8   8
#     4  10  22  40  64  93 123 159 204 252 303 365
#     4  11  24  40  63  92 123 160 206 252 306 367
#     4  10  23  43  64  85 122 165 205 258 313 358
#     4  10  22  39  64  89 127 160 204 246 309 365
#     4  11  20  39  62  89 126 162 192 240 306 369
#
# _framework density 21.500384
#
# number of rings (size 3 to 8) (size 9 to 14) (size 15 to 20)
#    0.000    1.600    6.000    0.600    2.800    8.800 
#    0.000    0.000    0.000    0.000    0.000    0.000 
#    0.000    0.000    0.000    0.000    0.000    0.000 
#
# Total GULP energy -247854.003541 kJ/mol
# GULP energy per Si atom -12392.700177 kJ/mol
# Density = 2.145145 g / cm^3
# Si number density = 21.500384 Si / 1000 Ang^3
#
#
#
# Elastic Constant Matrix: (Units=GPa)
#
#
# Indices 1 2 3 4 5 6 
#
# 1 147.0940 6.1750 40.5060 0.0000 0.0000 0.0000
# 2 6.1750 106.1455 16.5619 0.0000 0.0000 0.0000
# 3 40.5060 16.5619 97.3446 0.0000 0.0000 0.0000
# 4 0.0000 0.0000 0.0000 11.1072 0.0000 0.0000
# 5 0.0000 0.0000 0.0000 0.0000 19.0705 0.0000
# 6 0.0000 0.0000 0.0000 0.0000 0.0000 8.1178
#
#
#
# Elastic Compliance Matrix: (Units=1/GPa)
#
#
# Indices 1 2 3 4 5 6 
#
# 1 0.007678 0.000053 -0.003204 0.000000 0.000000 0.000000
# 2 0.000053 0.009678 -0.001669 0.000000 0.000000 0.000000
# 3 -0.003204 -0.001669 0.011890 0.000000 0.000000 0.000000
# 4 0.000000 0.000000 0.000000 0.090032 0.000000 0.000000
# 5 0.000000 0.000000 0.000000 0.000000 0.052437 0.000000
# 6 0.000000 0.000000 0.000000 0.000000 0.000000 0.123186
#
#
# Mechanical properties :
#
#
# Convention : Reuss Voigt Hill
#
# Bulk Modulus (GPa) = 51.00118 53.00777 52.00447
# Shear Modulus (GPa) = 16.07323 26.81519 21.44421
#
# Velocity S-wave (km/s) = 2.73715 3.53540 3.16157
# Velocity P-wave (km/s) = 5.81050 6.43220 6.12924
#
# Compressibility (1/GPa) = 0.01960739
#
# Stress axis : x y z
#
# Youngs Moduli (GPa) = 130.23417 103.32381 84.10444
#
# Poissons Ratio (x) = -0.00550 0.26948
# Poissons Ratio (y) = -0.00693 0.14035
# Poissons Ratio (z) = 0.41729 0.17243
#
# Static dielectric constant tensor:
#      x y z
#    x 3.708710 0.000000 0.000000 
#    y 0.000000 3.922880 0.000000 
#    z 0.000000 0.000000 3.863740 
# 
# 
# High freq. dielectric constant tensor:
#      x y z
#    x 1.821890 0.000000 0.000000 
#    y 0.000000 1.841060 0.000000 
#    z 0.000000 0.000000 1.842790 
# 
# From -- ./inp_files/5655.got.cif
#   From: 2010.03.12/outbox.cif.g09.slc.cpg/sg39_3_cif.got.tgz:5655.got - 2010.04.14 02:53:20.
