data_PCOD8182290
_publ_section_title
;
Structure prediction by ZEFSAII (Michael W. Deem and Ramdas Pophale) SiO2 
 PCOD8182290
Probable space group: A B M 2
;
_chemical_formula_sum "Si O2"
_cell_formula_units_Z 40
_cell_length_a 8.079556
_cell_length_b 18.263168
_cell_length_c 12.196969
_cell_angle_alpha 90.000000
_cell_angle_beta 90.000000
_cell_angle_gamma 90.000000
_cell_volume 1799.763872
_symmetry_space_group_name_H-M "A B M 2"
_symmetry_group_IT_number 39
_symmetry_cell_setting 'orthorhombic'
loop_
_space_group_symop_operation_xyz
x,y,z
-x,-y,z
-x,1/2+y,z
x,1/2-y,z
x,1/2+y,1/2+z
-x,1/2-y,1/2+z
-x,y,1/2+z
x,-y,1/2+z
loop_
_atom_site_type_symbol
_atom_site_label
_atom_site_fract_x
_atom_site_fract_y
_atom_site_fract_z
Si Si1 0.826054 0.958611 0.484440
Si Si2 0.807893 0.166518 0.334080
Si Si3 0.675542 0.405378 0.551480
Si Si4 0.902210 0.927580 0.249187
Si Si5 0.329937 0.834788 0.105617
O O1 0.793236 0.950212 0.354898
O O2 0.820069 0.880643 0.548606
O O3 0.674137 0.006573 0.534555
O O4 0.000000 0.000000 0.505216
O O5 0.832604 0.250000 0.366750
O O6 0.763454 0.123900 0.442889
O O7 0.672075 0.157299 0.237369
O O8 0.978032 0.136457 0.287099
O O9 0.784062 0.390575 0.659566
O O10 0.500010 0.367319 0.560789
O O11 0.000000 0.000000 0.204756
O O12 0.311792 0.750000 0.070329
#
# Coordination Sequence:
#
# PCOD8182290 Si02
#       5
#     8   8   8   8   8
#     4  11  23  46  73 103 137 184 239 296 349 418
#     4  11  25  44  68 101 142 185 236 292 349 424
#     4  12  24  45  74 101 145 187 235 287 361 419
#     4  11  24  44  72 103 138 181 242 298 347 414
#     4  11  27  47  69 104 148 185 232 295 359 422
#
# _framework density 22.225138000000001
#
# number of rings (size 3 to 8) (size 9 to 14) (size 15 to 20)
#    0.000    0.800    4.000    4.200    2.800    2.400 
#    0.000    0.000    0.000    0.000    0.000    0.000 
#    0.000    0.000    0.000    0.000    0.000    0.000 
#
# Total GULP energy -247967.855597 kJ/mol
# GULP energy per Si atom -12398.392780 kJ/mol
# Density = 2.217455 g / cm^3
# Si number density = 22.225138 Si / 1000 Ang^3
#
#
#
# Elastic Constant Matrix: (Units=GPa)
#
#
# Indices 1 2 3 4 5 6 
#
# 1 68.9260 34.7662 34.2405 0.0000 0.0000 0.0000
# 2 34.7662 137.5536 47.4013 0.0000 0.0000 0.0000
# 3 34.2405 47.4013 146.2346 0.0000 0.0000 0.0000
# 4 0.0000 0.0000 0.0000 35.8420 0.0000 0.0000
# 5 0.0000 0.0000 0.0000 0.0000 29.4028 0.0000
# 6 0.0000 0.0000 0.0000 0.0000 0.0000 30.1721
#
#
#
# Elastic Compliance Matrix: (Units=1/GPa)
#
#
# Indices 1 2 3 4 5 6 
#
# 1 0.017754 -0.003439 -0.003042 0.000000 0.000000 0.000000
# 2 -0.003439 0.008850 -0.002064 0.000000 0.000000 0.000000
# 3 -0.003042 -0.002064 0.008220 0.000000 0.000000 0.000000
# 4 0.000000 0.000000 0.000000 0.027900 0.000000 0.000000
# 5 0.000000 0.000000 0.000000 0.000000 0.034010 0.000000
# 6 0.000000 0.000000 0.000000 0.000000 0.000000 0.033143
#
#
# Mechanical properties :
#
#
# Convention : Reuss Voigt Hill
#
# Bulk Modulus (GPa) = 56.38783 65.05892 60.72338
# Shear Modulus (GPa) = 32.70560 34.83712 33.77136
#
# Velocity S-wave (km/s) = 3.84025 3.96342 3.90232
# Velocity P-wave (km/s) = 6.71488 7.09092 6.90546
#
# Compressibility (1/GPa) = 0.01773432
#
# Stress axis : x y z
#
# Youngs Moduli (GPa) = 56.32441 112.99230 121.66061
#
# Poissons Ratio (x) = 0.38857 0.37014
# Poissons Ratio (y) = 0.19369 0.25105
# Poissons Ratio (z) = 0.17136 0.23316
#
# Static dielectric constant tensor:
#      x y z
#    x 3.905520 0.000000 0.000000 
#    y 0.000000 4.278620 0.000000 
#    z 0.000000 0.000000 4.436250 
# 
# 
# High freq. dielectric constant tensor:
#      x y z
#    x 1.852810 0.000000 0.000000 
#    y 0.000000 1.882940 0.000000 
#    z 0.000000 0.000000 1.900960 
# 
# From -- ./inp_files/4935.got.cif
#   From: 2010.03.12/outbox.cif.g09.slc.cpg/sg39_3_cif.got.tgz:4935.got - 2010.04.14 02:53:20.
