data_PCOD8182915
_publ_section_title
;
Structure prediction by ZEFSAII (Michael W. Deem and Ramdas Pophale) SiO2 
 PCOD8182915
Probable space group: A M A 2
;
_chemical_formula_sum "Si O2"
_cell_formula_units_Z 64
_cell_length_a 9.056668
_cell_length_b 23.277140
_cell_length_c 18.932319
_cell_angle_alpha 90.000000
_cell_angle_beta 90.000000
_cell_angle_gamma 90.000000
_cell_volume 3991.185194
_symmetry_space_group_name_H-M "A M A 2"
_symmetry_group_IT_number 40
_symmetry_cell_setting 'orthorhombic'
loop_
_space_group_symop_operation_xyz
x,y,z
-x,-y,z
1/2-x,y,z
1/2+x,-y,z
x,1/2+y,1/2+z
-x,1/2-y,1/2+z
1/2-x,1/2+y,1/2+z
1/2+x,1/2-y,1/2+z
loop_
_atom_site_type_symbol
_atom_site_label
_atom_site_fract_x
_atom_site_fract_y
_atom_site_fract_z
Si Si1 0.419979 0.440954 0.459860
Si Si2 0.922021 0.668642 0.822691
Si Si3 0.078318 0.940825 0.245279
Si Si4 0.579076 0.663154 0.362793
Si Si5 0.079606 0.758150 0.449105
Si Si6 0.577678 0.120767 0.100491
Si Si7 0.422168 0.241940 0.108080
Si Si8 0.074859 0.719134 0.240182
O O1 0.500000 0.500000 0.444137
O O2 0.250000 0.454849 0.473269
O O3 0.443985 0.401006 0.391684
O O4 0.482727 0.409997 0.530041
O O5 0.750000 0.663515 0.807350
O O6 0.990799 0.608026 0.797750
O O7 0.957002 0.683622 0.904691
O O8 0.980008 0.720932 0.774436
O O9 0.250000 0.950180 0.259628
O O10 0.048498 0.922440 0.164833
O O11 0.000000 0.000000 0.263093
O O12 0.750000 0.676685 0.348661
O O13 0.521719 0.706305 0.422991
O O14 0.488548 0.668501 0.289780
O O15 0.250000 0.740561 0.434923
O O16 0.049414 0.769611 0.531138
O O17 0.750000 0.137461 0.094314
O O18 0.487010 0.178379 0.113052
O O19 0.250000 0.239219 0.126200
O O20 0.504343 0.284386 0.162486
O O21 0.250000 0.713085 0.235368
#
# Coordination Sequence:
#
# PCOD8182915 Si02
#       8
#     8   8   8   8   8   8   8   8
#     4  10  21  33  48  68  97 133 169 205 241 285
#     4   8  15  30  48  64  87 122 157 189 230 284
#     4  10  19  31  47  65  91 127 165 199 230 279
#     4  10  19  32  49  72  97 123 160 207 248 284
#     4   9  18  31  48  70  95 126 160 194 242 297
#     4  10  19  33  46  64  97 135 167 195 236 282
#     4  11  20  29  47  75 100 124 161 204 239 287
#     4  10  19  33  51  68  94 129 161 194 244 302
#
# _framework density 16.035336000000001
#
# number of rings (size 3 to 8) (size 9 to 14) (size 15 to 20)
#    0.000    2.250    2.500    2.250    0.000    2.500 
#    0.000    0.625    0.000    0.000    0.000    0.875 
#    0.000    2.000    0.000    0.000    0.000    0.000 
#
# Total GULP energy -396753.481990 kJ/mol
# GULP energy per Si atom -12398.546312 kJ/mol
# Density = 1.599884 g / cm^3
# Si number density = 16.035336 Si / 1000 Ang^3
#
#
#
# Elastic Constant Matrix: (Units=GPa)
#
#
# Indices 1 2 3 4 5 6 
#
# 1 69.5628 33.2894 47.1529 0.0000 0.0000 0.0000
# 2 33.2894 69.4854 43.4871 0.0000 0.0000 0.0000
# 3 47.1529 43.4871 106.2165 0.0000 0.0000 0.0000
# 4 0.0000 0.0000 0.0000 21.5374 0.0000 0.0000
# 5 0.0000 0.0000 0.0000 0.0000 22.7950 0.0000
# 6 0.0000 0.0000 0.0000 0.0000 0.0000 25.4842
#
#
#
# Elastic Compliance Matrix: (Units=1/GPa)
#
#
# Indices 1 2 3 4 5 6 
#
# 1 0.022298 -0.006034 -0.007429 0.000000 0.000000 0.000000
# 2 -0.006034 0.020982 -0.005912 0.000000 0.000000 0.000000
# 3 -0.007429 -0.005912 0.015133 0.000000 0.000000 0.000000
# 4 0.000000 0.000000 0.000000 0.046431 0.000000 0.000000
# 5 0.000000 0.000000 0.000000 0.000000 0.043869 0.000000
# 6 0.000000 0.000000 0.000000 0.000000 0.000000 0.039240
#
#
# Mechanical properties :
#
#
# Convention : Reuss Voigt Hill
#
# Bulk Modulus (GPa) = 50.85176 54.79150 52.82163
# Shear Modulus (GPa) = 21.43557 22.05234 21.74395
#
# Velocity S-wave (km/s) = 3.66015 3.71244 3.68639
# Velocity P-wave (km/s) = 7.04581 7.25394 7.15063
#
# Compressibility (1/GPa) = 0.01966500
#
# Stress axis : x y z
#
# Youngs Moduli (GPa) = 44.84631 47.65966 66.08056
#
# Poissons Ratio (x) = 0.28756 0.49089
# Poissons Ratio (y) = 0.27058 0.39067
# Poissons Ratio (z) = 0.33315 0.28176
#
# Static dielectric constant tensor:
#      x y z
#    x 3.005020 0.000000 0.000000 
#    y 0.000000 2.902990 0.000000 
#    z 0.000000 0.000000 3.231240 
# 
# 
# High freq. dielectric constant tensor:
#      x y z
#    x 1.613520 0.000000 0.000000 
#    y 0.000000 1.587440 0.000000 
#    z 0.000000 0.000000 1.616360 
# 
# From -- ./inp_files/19739.got.cif
#   From: 2010.03.12/outbox.cif.g09.slc.cpg/sg40_10_cif.got.tgz:19739.got - 2010.04.14 01:38:03.
