data_PCOD8182375
_publ_section_title
;
Structure prediction by ZEFSAII (Michael W. Deem and Ramdas Pophale) SiO2 
 PCOD8182375
Probable space group: A M A 2
;
_chemical_formula_sum "Si O2"
_cell_formula_units_Z 48
_cell_length_a 8.712620
_cell_length_b 31.338739
_cell_length_c 9.126884
_cell_angle_alpha 90.000000
_cell_angle_beta 90.000000
_cell_angle_gamma 90.000000
_cell_volume 2492.027445
_symmetry_space_group_name_H-M "A M A 2"
_symmetry_group_IT_number 40
_symmetry_cell_setting 'orthorhombic'
loop_
_space_group_symop_operation_xyz
x,y,z
-x,-y,z
1/2-x,y,z
1/2+x,-y,z
x,1/2+y,1/2+z
-x,1/2-y,1/2+z
1/2-x,1/2+y,1/2+z
1/2+x,1/2-y,1/2+z
loop_
_atom_site_type_symbol
_atom_site_label
_atom_site_fract_x
_atom_site_fract_y
_atom_site_fract_z
Si Si1 0.929302 0.710418 0.820670
Si Si2 0.430437 0.042524 0.796929
Si Si3 0.069407 0.871005 0.796116
Si Si4 0.928413 0.134232 0.125329
Si Si5 0.573068 0.293832 0.131548
Si Si6 0.070859 0.959275 0.116637
O O1 0.750000 0.704465 0.858778
O O2 0.999226 0.669584 0.733216
O O3 0.959542 0.751656 0.723417
O O4 0.026911 0.716089 0.966239
O O5 0.250000 0.041553 0.778596
O O6 0.495557 0.086156 0.726381
O O7 0.500000 0.000000 0.719229
O O8 0.479598 0.042321 0.965535
O O9 0.250000 0.878365 0.802691
O O10 0.030495 0.831806 0.692296
O O11 0.002823 0.862551 0.960485
O O12 0.750000 0.144718 0.112084
O O13 0.956126 0.086689 0.194101
O O14 0.750000 0.307391 0.140172
O O15 0.250000 0.966619 0.086023
O O16 0.000000 0.000000 0.206787
#
# Coordination Sequence:
#
# PCOD8182375 Si02
#       6
#     8   8   8   8   8   8
#     4  10  21  38  57  76 103 138 173 213 265 320
#     4  10  17  27  45  73 107 140 177 219 261 307
#     4  10  19  34  55  78 107 143 178 217 267 315
#     4   8  16  31  52  76 102 136 177 215 256 314
#     4  11  23  37  55  81 107 133 173 221 265 317
#     4   9  15  25  43  70 103 138 176 217 262 309
#
# _framework density 19.261424000000002
#
# number of rings (size 3 to 8) (size 9 to 14) (size 15 to 20)
#    0.000    2.333    0.000    6.000    0.000    2.667 
#    0.000    5.000    0.000    1.000    0.000    4.667 
#    0.000    0.000    0.000    0.000    0.000    0.000 
#
# Total GULP energy -297465.878606 kJ/mol
# GULP energy per Si atom -12394.411609 kJ/mol
# Density = 1.921758 g / cm^3
# Si number density = 19.261424 Si / 1000 Ang^3
#
#
#
# Elastic Constant Matrix: (Units=GPa)
#
#
# Indices 1 2 3 4 5 6 
#
# 1 89.4286 49.8728 23.7135 0.0000 0.0000 0.0000
# 2 49.8728 157.1743 42.0145 0.0000 0.0000 0.0000
# 3 23.7135 42.0145 70.3628 0.0000 0.0000 0.0000
# 4 0.0000 0.0000 0.0000 24.7284 0.0000 0.0000
# 5 0.0000 0.0000 0.0000 0.0000 19.0506 0.0000
# 6 0.0000 0.0000 0.0000 0.0000 0.0000 31.3098
#
#
#
# Elastic Compliance Matrix: (Units=1/GPa)
#
#
# Indices 1 2 3 4 5 6 
#
# 1 0.013931 -0.003767 -0.002446 0.000000 0.000000 0.000000
# 2 -0.003767 0.008589 -0.003859 0.000000 0.000000 0.000000
# 3 -0.002446 -0.003859 0.017341 0.000000 0.000000 0.000000
# 4 0.000000 0.000000 0.000000 0.040439 0.000000 0.000000
# 5 0.000000 0.000000 0.000000 0.000000 0.052492 0.000000
# 6 0.000000 0.000000 0.000000 0.000000 0.000000 0.031939
#
#
# Mechanical properties :
#
#
# Convention : Reuss Voigt Hill
#
# Bulk Modulus (GPa) = 50.71644 60.90748 55.81196
# Shear Modulus (GPa) = 26.11678 28.44207 27.27942
#
# Velocity S-wave (km/s) = 3.68626 3.84687 3.76742
# Velocity P-wave (km/s) = 6.67127 7.17087 6.92557
#
# Compressibility (1/GPa) = 0.01971747
#
# Stress axis : x y z
#
# Youngs Moduli (GPa) = 71.78073 116.42526 57.66740
#
# Poissons Ratio (x) = 0.43854 0.14105
# Poissons Ratio (y) = 0.27038 0.22255
# Poissons Ratio (z) = 0.17557 0.44932
#
# Static dielectric constant tensor:
#      x y z
#    x 3.429890 0.000000 0.000000 
#    y 0.000000 4.375250 0.000000 
#    z 0.000000 0.000000 3.123450 
# 
# 
# High freq. dielectric constant tensor:
#      x y z
#    x 1.741530 0.000000 0.000000 
#    y 0.000000 1.780890 0.000000 
#    z 0.000000 0.000000 1.695790 
# 
# From -- ./inp_files/4628.got.cif
#   From: 2010.03.12/outbox.cif.g09.slc.cpg/sg40_3_cif.got.tgz:4628.got - 2010.04.14 01:38:03.
