data_PCOD8182086
_publ_section_title
;
Structure prediction by ZEFSAII (Michael W. Deem and Ramdas Pophale) SiO2 
 PCOD8182086
Probable space group: A B M 2
;
_chemical_formula_sum "Si O2"
_cell_formula_units_Z 40
_cell_length_a 7.523197
_cell_length_b 9.532331
_cell_length_c 24.946437
_cell_angle_alpha 90.000000
_cell_angle_beta 90.000000
_cell_angle_gamma 90.000000
_cell_volume 1788.998904
_symmetry_space_group_name_H-M "A B M 2"
_symmetry_group_IT_number 39
_symmetry_cell_setting 'orthorhombic'
loop_
_space_group_symop_operation_xyz
x,y,z
-x,-y,z
-x,1/2+y,z
x,1/2-y,z
x,1/2+y,1/2+z
-x,1/2-y,1/2+z
-x,y,1/2+z
x,-y,1/2+z
loop_
_atom_site_type_symbol
_atom_site_label
_atom_site_fract_x
_atom_site_fract_y
_atom_site_fract_z
Si Si1 0.245929 0.750000 0.971241
Si Si2 0.172209 0.087247 0.798761
Si Si3 0.981579 0.250000 0.566179
Si Si4 0.698959 0.021284 0.411861
Si Si5 0.000000 0.500000 0.640445
Si Si6 0.349034 0.250000 0.997544
Si Si7 0.336334 0.418363 0.210680
O O1 0.218050 0.623857 0.930112
O O2 0.434906 0.750000 0.004013
O O3 0.080460 0.750000 0.010087
O O4 0.159400 0.250000 0.779116
O O5 0.194980 0.087727 0.862658
O O6 0.325329 0.000909 0.767799
O O7 0.000000 0.000000 0.782226
O O8 0.053711 0.122147 0.600517
O O9 0.765928 0.250000 0.553327
O O10 0.707782 0.114828 0.464613
O O11 0.500000 0.000000 0.391017
O O12 0.161743 0.552911 0.676321
O O13 0.500000 0.500000 0.181493
O O14 0.367096 0.250000 0.217661
#
# Coordination Sequence:
#
# PCOD8182086 Si02
#       7
#     4   8   4   8   4   4   8
#     4  10  24  40  69 101 140 187 241 292 351 426
#     4  12  26  42  70 107 149 190 239 291 355 437
#     4  12  26  44  74  98 138 190 238 306 366 420
#     4  10  22  40  64  99 146 187 231 284 348 426
#     4  12  28  50  72 106 146 180 248 310 368 434
#     4  10  22  44  63  99 142 183 239 292 345 422
#     4  12  28  50  80 109 146 190 239 298 371 440
#
# _framework density 22.358871000000001
#
# number of rings (size 3 to 8) (size 9 to 14) (size 15 to 20)
#    0.000    0.800    3.000    3.000    8.400    1.600 
#    0.000    0.000    0.000    0.000    0.000    0.000 
#    0.000    0.000    0.000    0.000    0.000    0.000 
#
# Total GULP energy -247896.317073 kJ/mol
# GULP energy per Si atom -12394.815854 kJ/mol
# Density = 2.230798 g / cm^3
# Si number density = 22.358871 Si / 1000 Ang^3
#
#
#
# Elastic Constant Matrix: (Units=GPa)
#
#
# Indices 1 2 3 4 5 6 
#
# 1 86.0624 37.8388 17.7843 0.0000 0.0000 0.0000
# 2 37.8388 202.2976 34.0319 0.0000 0.0000 0.0000
# 3 17.7843 34.0319 71.7175 0.0000 0.0000 0.0000
# 4 0.0000 0.0000 0.0000 30.9123 0.0000 0.0000
# 5 0.0000 0.0000 0.0000 0.0000 1.9169 0.0000
# 6 0.0000 0.0000 0.0000 0.0000 0.0000 35.5853
#
#
#
# Elastic Compliance Matrix: (Units=1/GPa)
#
#
# Indices 1 2 3 4 5 6 
#
# 1 0.012986 -0.002051 -0.002247 0.000000 0.000000 0.000000
# 2 -0.002051 0.005696 -0.002194 0.000000 0.000000 0.000000
# 3 -0.002247 -0.002194 0.015542 0.000000 0.000000 0.000000
# 4 0.000000 0.000000 0.000000 0.032350 0.000000 0.000000
# 5 0.000000 0.000000 0.000000 0.000000 0.521688 0.000000
# 6 0.000000 0.000000 0.000000 0.000000 0.000000 0.028101
#
#
# Mechanical properties :
#
#
# Convention : Reuss Voigt Hill
#
# Bulk Modulus (GPa) = 47.08256 59.93195 53.50725
# Shear Modulus (GPa) = 7.85637 31.71104 19.78371
#
# Velocity S-wave (km/s) = 1.87654 3.77009 2.97783
# Velocity P-wave (km/s) = 5.07923 6.76861 5.98384
#
# Compressibility (1/GPa) = 0.02123929
#
# Stress axis : x y z
#
# Youngs Moduli (GPa) = 77.00896 175.56287 64.34161
#
# Poissons Ratio (x) = 0.36006 0.14457
# Poissons Ratio (y) = 0.15794 0.14119
# Poissons Ratio (z) = 0.17303 0.38524
#
# Static dielectric constant tensor:
#      x y z
#    x 4.342790 0.000000 0.000000 
#    y 0.000000 4.355350 0.000000 
#    z 0.000000 0.000000 3.859290 
# 
# 
# High freq. dielectric constant tensor:
#      x y z
#    x 1.885930 0.000000 0.000000 
#    y 0.000000 1.901690 0.000000 
#    z 0.000000 0.000000 1.871140 
# 
# From -- ./inp_files/15481.got.cif
#   From: 2010.03.12/outbox.cif.g09.slc.cpg/sg39_8_cif.got.tgz:15481.got - 2010.04.14 02:53:20.
