data_PCOD8182607
_publ_section_title
;
Structure prediction by ZEFSAII (Michael W. Deem and Ramdas Pophale) SiO2 
 PCOD8182607
Probable space group: A M A 2
;
_chemical_formula_sum "Si O2"
_cell_formula_units_Z 64
_cell_length_a 9.339531
_cell_length_b 25.708144
_cell_length_c 14.039405
_cell_angle_alpha 90.000000
_cell_angle_beta 90.000000
_cell_angle_gamma 90.000000
_cell_volume 3370.889329
_symmetry_space_group_name_H-M "A M A 2"
_symmetry_group_IT_number 40
_symmetry_cell_setting 'orthorhombic'
loop_
_space_group_symop_operation_xyz
x,y,z
-x,-y,z
1/2-x,y,z
1/2+x,-y,z
x,1/2+y,1/2+z
-x,1/2-y,1/2+z
1/2-x,1/2+y,1/2+z
1/2+x,1/2-y,1/2+z
loop_
_atom_site_type_symbol
_atom_site_label
_atom_site_fract_x
_atom_site_fract_y
_atom_site_fract_z
Si Si1 0.094215 0.820854 0.212660
Si Si2 0.918992 0.744439 0.995292
Si Si3 0.088570 0.095607 0.137156
Si Si4 0.920652 0.726914 0.212788
Si Si5 0.919976 0.836838 0.858109
Si Si6 0.093663 0.861824 0.410659
Si Si7 0.087109 0.051253 0.347498
Si Si8 0.416258 0.550740 0.439852
O O1 0.250000 0.800928 0.174555
O O2 0.122416 0.860378 0.298122
O O3 0.009712 0.852729 0.131059
O O4 0.996478 0.776183 0.262119
O O5 0.750000 0.744841 0.988877
O O6 0.974032 0.796513 0.940860
O O7 0.976087 0.691649 0.947288
O O8 0.969979 0.738958 0.104287
O O9 0.250000 0.116110 0.119405
O O10 0.075715 0.066371 0.236777
O O11 0.045250 0.057195 0.051613
O O12 0.750000 0.725016 0.225874
O O13 0.992928 0.675920 0.260291
O O14 0.750000 0.830957 0.840538
O O15 0.960524 0.895920 0.885977
O O16 0.250000 0.873253 0.459911
O O17 0.977732 0.907381 0.423086
O O18 0.250000 0.042132 0.377043
O O19 0.000000 0.000000 0.365488
O O20 0.500000 0.500000 0.400457
O O21 0.250000 0.539338 0.423963
#
# Coordination Sequence:
#
# PCOD8182607 Si02
#       8
#     8   8   8   8   8   8   8   8
#     4  10  18  30  50  75 105 142 176 213 261 319
#     4   9  18  35  57  78 106 144 181 217 273 336
#     4   9  18  32  50  75 106 141 181 224 269 320
#     4  11  21  33  54  81 109 141 179 225 271 323
#     4  10  20  38  58  79 110 149 186 225 277 336
#     4   9  17  32  52  70  96 137 176 211 255 313
#     4  10  19  30  47  73 105 138 175 219 265 319
#     4  10  21  36  56  77 107 148 187 231 281 334
#
# _framework density 18.986087000000001
#
# number of rings (size 3 to 8) (size 9 to 14) (size 15 to 20)
#    0.000    2.250    1.250    2.250    0.000    4.000 
#    0.000    3.750    0.000    0.750    0.000    1.750 
#    0.000    0.000    0.000    0.000    0.000    0.000 
#
# Total GULP energy -396441.061457 kJ/mol
# GULP energy per Si atom -12388.783171 kJ/mol
# Density = 1.894287 g / cm^3
# Si number density = 18.986087 Si / 1000 Ang^3
#
#
#
# Elastic Constant Matrix: (Units=GPa)
#
#
# Indices 1 2 3 4 5 6 
#
# 1 101.9069 70.6759 23.6622 0.0000 0.0000 0.0000
# 2 70.6759 145.6886 38.0374 0.0000 0.0000 0.0000
# 3 23.6622 38.0374 49.4254 0.0000 0.0000 0.0000
# 4 0.0000 0.0000 0.0000 22.6058 0.0000 0.0000
# 5 0.0000 0.0000 0.0000 0.0000 19.0814 0.0000
# 6 0.0000 0.0000 0.0000 0.0000 0.0000 35.2102
#
#
#
# Elastic Compliance Matrix: (Units=1/GPa)
#
#
# Indices 1 2 3 4 5 6 
#
# 1 0.014940 -0.006733 -0.001971 0.000000 0.000000 0.000000
# 2 -0.006733 0.011624 -0.005723 0.000000 0.000000 0.000000
# 3 -0.001971 -0.005723 0.025580 0.000000 0.000000 0.000000
# 4 0.000000 0.000000 0.000000 0.044236 0.000000 0.000000
# 5 0.000000 0.000000 0.000000 0.000000 0.052407 0.000000
# 6 0.000000 0.000000 0.000000 0.000000 0.000000 0.028401
#
#
# Mechanical properties :
#
#
# Convention : Reuss Voigt Hill
#
# Bulk Modulus (GPa) = 42.93391 62.41911 52.67651
# Shear Modulus (GPa) = 23.38570 26.35583 24.87076
#
# Velocity S-wave (km/s) = 3.51341 3.72985 3.62325
# Velocity P-wave (km/s) = 6.25469 7.17612 6.73119
#
# Compressibility (1/GPa) = 0.02329161
#
# Stress axis : x y z
#
# Youngs Moduli (GPa) = 66.93362 86.02578 39.09300
#
# Poissons Ratio (x) = 0.57923 0.07704
# Poissons Ratio (y) = 0.45068 0.22371
# Poissons Ratio (z) = 0.13191 0.49229
#
# Static dielectric constant tensor:
#      x y z
#    x 3.599880 0.000000 0.000000 
#    y 0.000000 3.492810 0.000000 
#    z 0.000000 0.000000 3.301700 
# 
# 
# High freq. dielectric constant tensor:
#      x y z
#    x 1.733160 0.000000 0.000000 
#    y 0.000000 1.734040 0.000000 
#    z 0.000000 0.000000 1.702090 
# 
# From -- ./inp_files/15625.got.cif
#   From: 2010.03.12/outbox.cif.g09.slc.cpg/sg40_8_cif.got.tgz:15625.got - 2010.04.14 01:38:03.
