data_PCOD8182046
_publ_section_title
;
Structure prediction by ZEFSAII (Michael W. Deem and Ramdas Pophale) SiO2 
 PCOD8182046
Probable space group: A B M 2
;
_chemical_formula_sum "Si O2"
_cell_formula_units_Z 32
_cell_length_a 9.057784
_cell_length_b 16.780467
_cell_length_c 9.634525
_cell_angle_alpha 90.000000
_cell_angle_beta 90.000000
_cell_angle_gamma 90.000000
_cell_volume 1464.388504
_symmetry_space_group_name_H-M "A B M 2"
_symmetry_group_IT_number 39
_symmetry_cell_setting 'orthorhombic'
loop_
_space_group_symop_operation_xyz
x,y,z
-x,-y,z
-x,1/2+y,z
x,1/2-y,z
x,1/2+y,1/2+z
-x,1/2-y,1/2+z
-x,y,1/2+z
x,-y,1/2+z
loop_
_atom_site_type_symbol
_atom_site_label
_atom_site_fract_x
_atom_site_fract_y
_atom_site_fract_z
Si Si1 0.402858 0.838290 0.607040
Si Si2 0.278707 0.095635 0.636560
Si Si3 0.181344 0.250000 0.260524
Si Si4 0.333660 0.975410 0.409449
Si Si5 0.901698 0.750000 0.576474
O O1 0.436349 0.750000 0.542768
O O2 0.551921 0.878536 0.660363
O O3 0.288591 0.827560 0.737770
O O4 0.326632 0.892261 0.491553
O O5 0.242674 0.038282 0.767305
O O6 0.175448 0.171881 0.636211
O O7 0.254674 0.045217 0.496699
O O8 0.102899 0.250000 0.408878
O O9 0.067260 0.250000 0.132250
O O10 0.500000 0.000000 0.374554
#
# Coordination Sequence:
#
# PCOD8182046 Si02
#       5
#     8   8   4   8   4
#     4   9  21  39  70  97 135 172 221 281 331 399
#     4  11  24  41  73 101 134 172 224 276 346 394
#     4  10  27  44  68  96 138 176 237 276 322 402
#     4  10  22  38  66 104 140 165 214 281 341 393
#     4  12  27  46  72  94 132 190 231 270 334 400
#
# _framework density 21.852125999999998
#
# number of rings (size 3 to 8) (size 9 to 14) (size 15 to 20)
#    0.750    1.000    1.250    2.250   15.750    0.000 
#    0.000    1.250    0.000    0.000    0.000    0.000 
#    0.000    0.000    0.000    0.000    0.000    0.000 
#
# Total GULP energy -198336.531380 kJ/mol
# GULP energy per Si atom -12396.033211 kJ/mol
# Density = 2.180239 g / cm^3
# Si number density = 21.852126 Si / 1000 Ang^3
#
#
#
# Elastic Constant Matrix: (Units=GPa)
#
#
# Indices 1 2 3 4 5 6 
#
# 1 69.3261 20.9990 38.4500 0.0000 0.0000 0.0000
# 2 20.9990 132.2595 44.8329 0.0000 0.0000 0.0000
# 3 38.4500 44.8329 115.0621 0.0000 0.0000 0.0000
# 4 0.0000 0.0000 0.0000 41.9938 0.0000 0.0000
# 5 0.0000 0.0000 0.0000 0.0000 27.1159 0.0000
# 6 0.0000 0.0000 0.0000 0.0000 0.0000 3.4431
#
#
#
# Elastic Compliance Matrix: (Units=1/GPa)
#
#
# Indices 1 2 3 4 5 6 
#
# 1 0.017806 -0.000933 -0.005586 0.000000 0.000000 0.000000
# 2 -0.000933 0.008760 -0.003102 0.000000 0.000000 0.000000
# 3 -0.005586 -0.003102 0.011766 0.000000 0.000000 0.000000
# 4 0.000000 0.000000 0.000000 0.023813 0.000000 0.000000
# 5 0.000000 0.000000 0.000000 0.000000 0.036879 0.000000
# 6 0.000000 0.000000 0.000000 0.000000 0.000000 0.290434
#
#
# Mechanical properties :
#
#
# Convention : Reuss Voigt Hill
#
# Bulk Modulus (GPa) = 52.38413 58.35683 55.37048
# Shear Modulus (GPa) = 12.04635 28.66829 20.35732
#
# Velocity S-wave (km/s) = 2.35045 3.62598 3.05551
# Velocity P-wave (km/s) = 5.60271 6.65534 6.15158
#
# Compressibility (1/GPa) = 0.01908975
#
# Stress axis : x y z
#
# Youngs Moduli (GPa) = 56.16196 114.14963 84.98905
#
# Poissons Ratio (x) = 0.10654 0.47478
# Poissons Ratio (y) = 0.05242 0.26360
# Poissons Ratio (z) = 0.31374 0.35404
#
# Static dielectric constant tensor:
#      x y z
#    x 3.520280 0.000000 0.000000 
#    y 0.000000 4.125640 0.000000 
#    z 0.000000 0.000000 3.807480 
# 
# 
# High freq. dielectric constant tensor:
#      x y z
#    x 1.816090 0.000000 0.000000 
#    y 0.000000 1.877470 0.000000 
#    z 0.000000 0.000000 1.859330 
# 
# From -- ./inp_files/2500.got.cif
#   From: 2010.03.12/outbox.cif.g09.slc.cpg/sg39_2_cif.got.tgz:2500.got - 2010.04.14 02:53:20.
