data_PCOD8182352
_publ_section_title
;
Structure prediction by ZEFSAII (Michael W. Deem and Ramdas Pophale) SiO2 
 PCOD8182352
Probable space group: A M A 2
;
_chemical_formula_sum "Si O2"
_cell_formula_units_Z 48
_cell_length_a 17.700554
_cell_length_b 7.704237
_cell_length_c 14.008561
_cell_angle_alpha 90.000000
_cell_angle_beta 90.000000
_cell_angle_gamma 90.000000
_cell_volume 1910.337140
_symmetry_space_group_name_H-M "A M A 2"
_symmetry_group_IT_number 40
_symmetry_cell_setting 'orthorhombic'
loop_
_space_group_symop_operation_xyz
x,y,z
-x,-y,z
1/2-x,y,z
1/2+x,-y,z
x,1/2+y,1/2+z
-x,1/2-y,1/2+z
1/2-x,1/2+y,1/2+z
1/2+x,1/2-y,1/2+z
loop_
_atom_site_type_symbol
_atom_site_label
_atom_site_fract_x
_atom_site_fract_y
_atom_site_fract_z
Si Si1 0.665485 0.330635 0.830610
Si Si2 0.834515 0.669365 0.696425
Si Si3 0.911888 0.998180 0.038234
Si Si4 0.588112 0.501820 0.988801
Si Si5 0.161547 0.175181 0.882502
Si Si6 0.338453 0.824819 0.644532
O O1 0.750000 0.313468 0.871579
O O2 0.658959 0.500000 0.763517
O O3 0.646686 0.169283 0.759241
O O4 0.609460 0.336580 0.922130
O O5 0.750000 0.686535 0.655457
O O6 0.890540 0.663420 0.604904
O O7 0.853316 0.830716 0.767794
O O8 0.886638 0.829350 0.097080
O O9 0.867183 0.000465 0.935797
O O10 0.000000 0.000000 0.017576
O O11 0.500000 0.500000 0.009459
O O12 0.632817 0.499535 0.091238
O O13 0.613362 0.670650 0.929956
O O14 0.250000 0.207364 0.902111
O O15 0.250000 0.792635 0.624922
#
# Coordination Sequence:
#
# PCOD8182352 Si02
#       6
#     8   8   8   8   8   8
#     4   8  14  25  42  65  97 138 178 215 259 317
#     4   8  14  25  42  65  97 138 178 215 259 317
#     4  10  17  25  43  74 108 135 171 225 272 314
#     4  10  17  25  43  74 108 135 171 225 272 314
#     4   9  17  30  46  69 106 145 180 218 263 325
#     4   9  17  30  46  69 106 145 180 218 263 325
#
# _framework density 25.126455
#
# number of rings (size 3 to 8) (size 9 to 14) (size 15 to 20)
#    0.000    3.000    0.000    6.000    0.000    6.000 
#    0.000    0.000    0.000    0.000    0.000   60.667 
#    0.000   77.333    0.000    0.000    0.000    0.000 
#
# Total GULP energy -297362.388771 kJ/mol
# GULP energy per Si atom -12390.099532 kJ/mol
# Density = 2.506927 g / cm^3
# Si number density = 25.126455 Si / 1000 Ang^3
#
#
#
# Elastic Constant Matrix: (Units=GPa)
#
#
# Indices 1 2 3 4 5 6 
#
# 1 163.9612 11.2870 90.7151 0.0000 0.0000 0.0000
# 2 11.2870 54.6405 17.9810 0.0000 0.0000 0.0000
# 3 90.7151 17.9810 206.3899 0.0000 0.0000 0.0000
# 4 0.0000 0.0000 0.0000 27.7837 0.0000 0.0000
# 5 0.0000 0.0000 0.0000 0.0000 5.4421 0.0000
# 6 0.0000 0.0000 0.0000 0.0000 0.0000 21.4749
#
#
#
# Elastic Compliance Matrix: (Units=1/GPa)
#
#
# Indices 1 2 3 4 5 6 
#
# 1 0.008073 -0.000515 -0.003503 0.000000 0.000000 0.000000
# 2 -0.000515 0.018874 -0.001418 0.000000 0.000000 0.000000
# 3 -0.003503 -0.001418 0.006509 0.000000 0.000000 0.000000
# 4 0.000000 0.000000 0.000000 0.035992 0.000000 0.000000
# 5 0.000000 0.000000 0.000000 0.000000 0.183752 0.000000
# 6 0.000000 0.000000 0.000000 0.000000 0.000000 0.046566
#
#
# Mechanical properties :
#
#
# Convention : Reuss Voigt Hill
#
# Bulk Modulus (GPa) = 44.28045 73.88421 59.08233
# Shear Modulus (GPa) = 15.71506 31.27404 23.49455
#
# Velocity S-wave (km/s) = 2.50359 3.53181 3.06118
# Velocity P-wave (km/s) = 5.10084 6.78972 6.00495
#
# Compressibility (1/GPa) = 0.02258333
#
# Stress axis : x y z
#
# Youngs Moduli (GPa) = 123.87322 52.98175 153.64267
#
# Poissons Ratio (x) = 0.02727 0.53827
# Poissons Ratio (y) = 0.06376 0.21789
# Poissons Ratio (z) = 0.43398 0.07514
#
# Static dielectric constant tensor:
#      x y z
#    x 4.088310 0.000000 0.000000 
#    y 0.000000 4.982540 0.000000 
#    z 0.000000 0.000000 5.998350 
# 
# 
# High freq. dielectric constant tensor:
#      x y z
#    x 1.970290 0.000000 0.000000 
#    y 0.000000 1.995570 0.000000 
#    z 0.000000 0.000000 2.026340 
# 
# From -- ./inp_files/17004.got.cif
#   From: 2010.03.12/outbox.cif.g09.slc.cpg/sg40_9_cif.got.tgz:17004.got - 2010.04.14 01:38:03.
