data_PCOD8182564
_publ_section_title
;
Structure prediction by ZEFSAII (Michael W. Deem and Ramdas Pophale) SiO2 
 PCOD8182564
Probable space group: A M A 2
;
_chemical_formula_sum "Si O2"
_cell_formula_units_Z 64
_cell_length_a 9.168187
_cell_length_b 33.388018
_cell_length_c 11.700583
_cell_angle_alpha 90.000000
_cell_angle_beta 90.000000
_cell_angle_gamma 90.000000
_cell_volume 3581.637294
_symmetry_space_group_name_H-M "A M A 2"
_symmetry_group_IT_number 40
_symmetry_cell_setting 'orthorhombic'
loop_
_space_group_symop_operation_xyz
x,y,z
-x,-y,z
1/2-x,y,z
1/2+x,-y,z
x,1/2+y,1/2+z
-x,1/2-y,1/2+z
1/2-x,1/2+y,1/2+z
1/2+x,1/2-y,1/2+z
loop_
_atom_site_type_symbol
_atom_site_label
_atom_site_fract_x
_atom_site_fract_y
_atom_site_fract_z
Si Si1 0.082830 0.810387 0.591500
Si Si2 0.080725 0.960233 0.345219
Si Si3 0.080880 0.267625 0.553515
Si Si4 0.915543 0.887618 0.990005
Si Si5 0.083483 0.170966 0.201459
Si Si6 0.581343 0.627355 0.902766
Si Si7 0.920354 0.539339 0.580471
Si Si8 0.917755 0.673145 0.349663
O O1 0.250000 0.796432 0.580107
O O2 0.059155 0.852685 0.526856
O O3 0.037108 0.814765 0.722694
O O4 0.981703 0.776690 0.535305
O O5 0.250000 0.968615 0.364425
O O6 0.029979 0.919302 0.409194
O O7 0.042023 0.953061 0.212873
O O8 0.000000 0.000000 0.392864
O O9 0.250000 0.265781 0.585786
O O10 0.054386 0.289611 0.433399
O O11 0.999338 0.289364 0.658572
O O12 0.750000 0.900668 0.964625
O O13 0.976948 0.863079 0.883192
O O14 0.925889 0.862305 0.104815
O O15 0.018488 0.925509 0.003022
O O16 0.250000 0.182758 0.229266
O O17 0.010259 0.153345 0.314005
O O18 0.750000 0.628259 0.862866
O O19 0.750000 0.534985 0.559561
O O20 0.000000 0.500000 0.535996
O O21 0.750000 0.658923 0.356589
#
# Coordination Sequence:
#
# PCOD8182564 Si02
#       8
#     8   8   8   8   8   8   8   8
#     4  10  22  38  56  78 106 140 181 225 270 322
#     4   9  18  31  50  76 109 144 177 216 267 324
#     4  10  21  36  55  77 104 137 176 221 271 320
#     4  10  19  32  52  77 103 136 175 218 263 313
#     4  10  20  33  52  77 106 138 176 216 263 320
#     4  10  20  35  54  80 111 144 180 223 274 327
#     4  10  18  29  48  76 111 142 172 212 263 321
#     4   9  20  38  55  73 101 139 178 217 266 321
#
# _framework density 17.868921
#
# number of rings (size 3 to 8) (size 9 to 14) (size 15 to 20)
#    0.000    2.250    1.250    1.500    1.750    3.500 
#    0.000    0.000    0.000    0.750    0.000    1.750 
#    0.000    0.000    0.000    0.000    0.000    0.000 
#
# Total GULP energy -396852.470173 kJ/mol
# GULP energy per Si atom -12401.639693 kJ/mol
# Density = 1.782825 g / cm^3
# Si number density = 17.868921 Si / 1000 Ang^3
#
#
#
# Elastic Constant Matrix: (Units=GPa)
#
#
# Indices 1 2 3 4 5 6 
#
# 1 97.2824 62.4267 39.7089 0.0000 0.0000 0.0000
# 2 62.4267 134.7271 45.0822 0.0000 0.0000 0.0000
# 3 39.7089 45.0822 79.6799 0.0000 0.0000 0.0000
# 4 0.0000 0.0000 0.0000 20.5949 0.0000 0.0000
# 5 0.0000 0.0000 0.0000 0.0000 19.7198 0.0000
# 6 0.0000 0.0000 0.0000 0.0000 0.0000 37.0438
#
#
#
# Elastic Compliance Matrix: (Units=1/GPa)
#
#
# Indices 1 2 3 4 5 6 
#
# 1 0.015905 -0.005819 -0.004634 0.000000 0.000000 0.000000
# 2 -0.005819 0.011285 -0.003485 0.000000 0.000000 0.000000
# 3 -0.004634 -0.003485 0.016831 0.000000 0.000000 0.000000
# 4 0.000000 0.000000 0.000000 0.048556 0.000000 0.000000
# 5 0.000000 0.000000 0.000000 0.000000 0.050711 0.000000
# 6 0.000000 0.000000 0.000000 0.000000 0.000000 0.026995
#
#
# Mechanical properties :
#
#
# Convention : Reuss Voigt Hill
#
# Bulk Modulus (GPa) = 61.93766 67.34723 64.64245
# Shear Modulus (GPa) = 24.56519 26.43645 25.50082
#
# Velocity S-wave (km/s) = 3.71178 3.85056 3.78180
# Velocity P-wave (km/s) = 7.28747 7.58554 7.43800
#
# Compressibility (1/GPa) = 0.01614527
#
# Stress axis : x y z
#
# Youngs Moduli (GPa) = 62.87328 88.61448 59.41312
#
# Poissons Ratio (x) = 0.51566 0.27532
# Poissons Ratio (y) = 0.36587 0.20705
# Poissons Ratio (z) = 0.29135 0.30881
#
# Static dielectric constant tensor:
#      x y z
#    x 3.392900 0.000000 0.000000 
#    y 0.000000 3.496760 0.000000 
#    z 0.000000 0.000000 3.073460 
# 
# 
# High freq. dielectric constant tensor:
#      x y z
#    x 1.698660 0.000000 0.000000 
#    y 0.000000 1.694600 0.000000 
#    z 0.000000 0.000000 1.661740 
# 
# From -- ./inp_files/10623.got.cif
#   From: 2010.03.12/outbox.cif.g09.slc.cpg/sg40_6_cif.got.tgz:10623.got - 2010.04.14 01:38:03.
