data_PCOD8182552
_publ_section_title
;
Structure prediction by ZEFSAII (Michael W. Deem and Ramdas Pophale) SiO2 
 PCOD8182552
Probable space group: A M A 2
;
_chemical_formula_sum "Si O2"
_cell_formula_units_Z 56
_cell_length_a 8.999935
_cell_length_b 21.116259
_cell_length_c 14.310578
_cell_angle_alpha 90.000000
_cell_angle_beta 90.000000
_cell_angle_gamma 90.000000
_cell_volume 2719.653201
_symmetry_space_group_name_H-M "A M A 2"
_symmetry_group_IT_number 40
_symmetry_cell_setting 'orthorhombic'
loop_
_space_group_symop_operation_xyz
x,y,z
-x,-y,z
1/2-x,y,z
1/2+x,-y,z
x,1/2+y,1/2+z
-x,1/2-y,1/2+z
1/2-x,1/2+y,1/2+z
1/2+x,1/2-y,1/2+z
loop_
_atom_site_type_symbol
_atom_site_label
_atom_site_fract_x
_atom_site_fract_y
_atom_site_fract_z
Si Si1 0.926949 0.434513 0.219500
Si Si2 0.927275 0.432802 0.611760
Si Si3 0.587698 0.338079 0.067416
Si Si4 0.587943 0.444269 0.917362
Si Si5 0.425470 0.866723 0.273882
Si Si6 0.074429 0.619599 0.413537
Si Si7 0.425517 0.261344 0.921019
O O1 0.750000 0.441018 0.209444
O O2 0.982063 0.374764 0.156547
O O3 0.981320 0.420525 0.324785
O O4 0.000000 0.500000 0.185695
O O5 0.750000 0.436702 0.621958
O O6 0.978483 0.415941 0.506618
O O7 0.000000 0.500000 0.639373
O O8 0.990061 0.374766 0.675065
O O9 0.750000 0.308884 0.094226
O O10 0.613243 0.388297 0.987274
O O11 0.482992 0.284642 0.022874
O O12 0.500000 0.500000 0.970965
O O13 0.750000 0.465648 0.879313
O O14 0.478994 0.427149 0.832390
O O15 0.250000 0.867827 0.257322
O O16 0.475701 0.803558 0.331205
O O17 0.250000 0.625213 0.411276
O O18 0.010108 0.690943 0.406753
O O19 0.250000 0.263644 0.928474
#
# Coordination Sequence:
#
# PCOD8182552 Si02
#       7
#     8   8   8   8   8   8   8
#     4  10  20  36  57  81 110 142 179 221 268 319
#     4  11  22  37  57  80 109 143 181 224 270 318
#     4   9  19  33  52  79 109 140 173 218 269 315
#     4  10  18  29  46  72 106 140 175 215 264 318
#     4  10  20  34  54  79 106 138 177 220 265 318
#     4   9  20  38  58  79 107 144 181 223 270 314
#     4   9  19  37  58  80 108 143 181 217 263 324
#
# _framework density 20.590858999999998
#
# number of rings (size 3 to 8) (size 9 to 14) (size 15 to 20)
#    0.000    2.286    0.000    2.571    0.000    2.857 
#    0.000    4.286    0.000    0.000    0.000    0.000 
#    0.000    0.000    0.000    0.000    0.000    0.000 
#
# Total GULP energy -347003.997664 kJ/mol
# GULP energy per Si atom -12392.999917 kJ/mol
# Density = 2.054399 g / cm^3
# Si number density = 20.590859 Si / 1000 Ang^3
#
#
#
# Elastic Constant Matrix: (Units=GPa)
#
#
# Indices 1 2 3 4 5 6 
#
# 1 55.4947 23.5853 19.4139 0.0000 0.0000 0.0000
# 2 23.5853 83.7538 17.6813 0.0000 0.0000 0.0000
# 3 19.4139 17.6813 110.7207 0.0000 0.0000 0.0000
# 4 0.0000 0.0000 0.0000 14.2600 0.0000 0.0000
# 5 0.0000 0.0000 0.0000 0.0000 25.6177 0.0000
# 6 0.0000 0.0000 0.0000 0.0000 0.0000 19.4961
#
#
#
# Elastic Compliance Matrix: (Units=1/GPa)
#
#
# Indices 1 2 3 4 5 6 
#
# 1 0.021319 -0.005396 -0.002876 0.000000 0.000000 0.000000
# 2 -0.005396 0.013722 -0.001245 0.000000 0.000000 0.000000
# 3 -0.002876 -0.001245 0.009735 0.000000 0.000000 0.000000
# 4 0.000000 0.000000 0.000000 0.070126 0.000000 0.000000
# 5 0.000000 0.000000 0.000000 0.000000 0.039036 0.000000
# 6 0.000000 0.000000 0.000000 0.000000 0.000000 0.051292
#
#
# Mechanical properties :
#
#
# Convention : Reuss Voigt Hill
#
# Bulk Modulus (GPa) = 38.84886 41.25892 40.05389
# Shear Modulus (GPa) = 21.47336 24.49401 22.98368
#
# Velocity S-wave (km/s) = 3.23284 3.45274 3.34459
# Velocity P-wave (km/s) = 5.73088 5.99802 5.86597
#
# Compressibility (1/GPa) = 0.02574078
#
# Stress axis : x y z
#
# Youngs Moduli (GPa) = 46.90545 72.87428 102.72294
#
# Poissons Ratio (x) = 0.39326 0.29547
# Poissons Ratio (y) = 0.25312 0.12790
# Poissons Ratio (z) = 0.13492 0.09074
#
# Static dielectric constant tensor:
#      x y z
#    x 3.628640 0.000000 0.000000 
#    y 0.000000 3.826030 0.000000 
#    z 0.000000 0.000000 3.959170 
# 
# 
# High freq. dielectric constant tensor:
#      x y z
#    x 1.786870 0.000000 0.000000 
#    y 0.000000 1.800000 0.000000 
#    z 0.000000 0.000000 1.808890 
# 
# From -- ./inp_files/15341.got.cif
#   From: 2010.03.12/outbox.cif.g09.slc.cpg/sg40_8_cif.got.tgz:15341.got - 2010.04.14 01:38:03.
