data_PCOD8182504
_publ_section_title
;
Structure prediction by ZEFSAII (Michael W. Deem and Ramdas Pophale) SiO2 
 PCOD8182504
Probable space group: A M A 2
;
_chemical_formula_sum "Si O2"
_cell_formula_units_Z 40
_cell_length_a 8.857028
_cell_length_b 15.534751
_cell_length_c 18.928019
_cell_angle_alpha 90.000000
_cell_angle_beta 90.000000
_cell_angle_gamma 90.000000
_cell_volume 2604.338777
_symmetry_space_group_name_H-M "A M A 2"
_symmetry_group_IT_number 40
_symmetry_cell_setting 'orthorhombic'
loop_
_space_group_symop_operation_xyz
x,y,z
-x,-y,z
1/2-x,y,z
1/2+x,-y,z
x,1/2+y,1/2+z
-x,1/2-y,1/2+z
1/2-x,1/2+y,1/2+z
1/2+x,1/2-y,1/2+z
loop_
_atom_site_type_symbol
_atom_site_label
_atom_site_fract_x
_atom_site_fract_y
_atom_site_fract_z
Si Si1 0.577894 0.080290 0.583360
Si Si2 0.928900 0.824356 0.699239
Si Si3 0.577258 0.267781 0.580639
Si Si4 0.574070 0.589537 0.486093
Si Si5 0.072623 0.409157 0.323925
O O1 0.750000 0.056990 0.600460
O O2 0.483148 0.090413 0.656511
O O3 0.568526 0.172621 0.542688
O O4 0.500000 0.000000 0.541433
O O5 0.750000 0.815412 0.701847
O O6 0.000504 0.740987 0.658667
O O7 0.995802 0.833080 0.778188
O O8 0.750000 0.297619 0.589675
O O9 0.487997 0.334565 0.533932
O O10 0.500000 0.500000 0.509227
O O11 0.750000 0.580291 0.499311
O O12 0.536398 0.612404 0.405275
O O13 0.250000 0.412922 0.308882
O O14 0.000000 0.500000 0.303227
#
# Coordination Sequence:
#
# PCOD8182504 Si02
#       5
#     8   8   8   8   8
#     4   9  17  27  42  64  91 122 150 188 231 275
#     4  10  18  28  44  65  93 124 155 190 231 281
#     4   9  19  32  46  66  94 124 160 199 236 282
#     4  10  20  33  50  69  95 129 163 198 238 284
#     4  10  19  30  44  67  96 126 157 191 237 288
#
# _framework density 15.358984
#
# number of rings (size 3 to 8) (size 9 to 14) (size 15 to 20)
#    1.200    1.200    0.000    4.200    0.000    2.400 
#    0.000    0.000    0.000    0.000    0.000    1.400 
#    0.000    6.400    0.000    0.000    0.000    0.000 
#
# Total GULP energy -247761.797634 kJ/mol
# GULP energy per Si atom -12388.089882 kJ/mol
# Density = 1.532403 g / cm^3
# Si number density = 15.358984 Si / 1000 Ang^3
#
#
#
# Elastic Constant Matrix: (Units=GPa)
#
#
# Indices 1 2 3 4 5 6 
#
# 1 103.5166 44.8000 44.4746 0.0000 0.0000 0.0000
# 2 44.8000 82.1601 50.3309 0.0000 0.0000 0.0000
# 3 44.4746 50.3309 75.4973 0.0000 0.0000 0.0000
# 4 0.0000 0.0000 0.0000 22.0770 0.0000 0.0000
# 5 0.0000 0.0000 0.0000 0.0000 24.1879 0.0000
# 6 0.0000 0.0000 0.0000 0.0000 0.0000 28.9717
#
#
#
# Elastic Compliance Matrix: (Units=1/GPa)
#
#
# Indices 1 2 3 4 5 6 
#
# 1 0.013775 -0.004294 -0.005252 0.000000 0.000000 0.000000
# 2 -0.004294 0.021912 -0.012078 0.000000 0.000000 0.000000
# 3 -0.005252 -0.012078 0.024392 0.000000 0.000000 0.000000
# 4 0.000000 0.000000 0.000000 0.045296 0.000000 0.000000
# 5 0.000000 0.000000 0.000000 0.000000 0.041343 0.000000
# 6 0.000000 0.000000 0.000000 0.000000 0.000000 0.034516
#
#
# Mechanical properties :
#
#
# Convention : Reuss Voigt Hill
#
# Bulk Modulus (GPa) = 59.41800 60.04277 59.73038
# Shear Modulus (GPa) = 21.73043 23.15191 22.44117
#
# Velocity S-wave (km/s) = 3.76551 3.88672 3.82659
# Velocity P-wave (km/s) = 7.59444 7.70194 7.64838
#
# Compressibility (1/GPa) = 0.01682992
#
# Stress axis : x y z
#
# Youngs Moduli (GPa) = 72.59468 45.63777 40.99770
#
# Poissons Ratio (x) = 0.19596 0.21533
# Poissons Ratio (y) = 0.31170 0.49518
# Poissons Ratio (z) = 0.38129 0.55122
#
# Static dielectric constant tensor:
#      x y z
#    x 3.057010 0.000000 0.000000 
#    y 0.000000 2.791540 0.000000 
#    z 0.000000 0.000000 2.714300 
# 
# 
# High freq. dielectric constant tensor:
#      x y z
#    x 1.614120 0.000000 0.000000 
#    y 0.000000 1.566540 0.000000 
#    z 0.000000 0.000000 1.551690 
# 
# From -- ./inp_files/19092.got.cif
#   From: 2010.03.12/outbox.cif.g09.slc.cpg/sg40_10_cif.got.tgz:19092.got - 2010.04.14 01:38:03.
