data_PCOD8182727
_publ_section_title
;
Structure prediction by ZEFSAII (Michael W. Deem and Ramdas Pophale) SiO2 
 PCOD8182727
Probable space group: A M A 2
;
_chemical_formula_sum "Si O2"
_cell_formula_units_Z 64
_cell_length_a 17.692400
_cell_length_b 12.048564
_cell_length_c 15.983693
_cell_angle_alpha 90.000000
_cell_angle_beta 90.000000
_cell_angle_gamma 90.000000
_cell_volume 3407.212089
_symmetry_space_group_name_H-M "A M A 2"
_symmetry_group_IT_number 40
_symmetry_cell_setting 'orthorhombic'
loop_
_space_group_symop_operation_xyz
x,y,z
-x,-y,z
1/2-x,y,z
1/2+x,-y,z
x,1/2+y,1/2+z
-x,1/2-y,1/2+z
1/2-x,1/2+y,1/2+z
1/2+x,1/2-y,1/2+z
loop_
_atom_site_type_symbol
_atom_site_label
_atom_site_fract_x
_atom_site_fract_y
_atom_site_fract_z
Si Si1 0.073136 0.365708 0.369590
Si Si2 0.582911 0.111523 0.671870
Si Si3 0.405455 0.611927 0.416444
Si Si4 0.662863 0.749118 0.776543
Si Si5 0.160904 0.931178 0.400190
Si Si6 0.087004 0.632699 0.128843
Si Si7 0.659739 0.330399 0.952116
Si Si8 0.838469 0.237405 0.540426
O O1 0.074825 0.376806 0.270302
O O2 0.097594 0.479563 0.413743
O O3 0.131353 0.271763 0.397166
O O4 0.987938 0.337851 0.396201
O O5 0.503241 0.128784 0.625712
O O6 0.638745 0.205395 0.635135
O O7 0.617533 0.989804 0.652549
O O8 0.346078 0.659281 0.349251
O O9 0.380237 0.650516 0.509304
O O10 0.750000 0.746321 0.748701
O O11 0.635525 0.629688 0.814189
O O12 0.612008 0.777128 0.697205
O O13 0.250000 0.928998 0.404401
O O14 0.132113 0.862776 0.480875
O O15 0.132083 0.057566 0.404757
O O16 0.121070 0.674067 0.042128
O O17 0.750000 0.325122 0.961838
O O18 0.750000 0.258530 0.536273
#
# Coordination Sequence:
#
# PCOD8182727 Si02
#       8
#     8   8   8   8   8   8   8   8
#     4  11  22  39  60  85 122 156 190 244 301 353
#     4  11  21  37  58  88 118 152 196 243 298 349
#     4  10  19  39  58  84 116 152 199 240 292 354
#     4  10  18  32  59  84 111 152 195 242 284 341
#     4   8  17  34  53  81 115 147 186 232 286 339
#     4  11  20  37  58  87 117 153 200 244 289 349
#     4  11  23  38  57  88 124 155 191 242 301 353
#     4  10  20  35  59  86 114 150 196 243 286 344
#
# _framework density 18.783684999999998
#
# number of rings (size 3 to 8) (size 9 to 14) (size 15 to 20)
#    0.000    1.750    3.750    3.000    0.000    2.000 
#    0.000    1.250    0.000    3.000    0.000    0.000 
#    0.000    0.000    0.000    0.000    0.000    0.000 
#
# Total GULP energy -396780.917676 kJ/mol
# GULP energy per Si atom -12399.403677 kJ/mol
# Density = 1.874093 g / cm^3
# Si number density = 18.783685 Si / 1000 Ang^3
#
#
#
# Elastic Constant Matrix: (Units=GPa)
#
#
# Indices 1 2 3 4 5 6 
#
# 1 61.6835 39.6143 34.2118 0.0000 0.0000 0.0000
# 2 39.6143 102.7160 38.3114 0.0000 0.0000 0.0000
# 3 34.2118 38.3114 64.5690 0.0000 0.0000 0.0000
# 4 0.0000 0.0000 0.0000 31.9002 0.0000 0.0000
# 5 0.0000 0.0000 0.0000 0.0000 27.5641 0.0000
# 6 0.0000 0.0000 0.0000 0.0000 0.0000 28.5343
#
#
#
# Elastic Compliance Matrix: (Units=1/GPa)
#
#
# Indices 1 2 3 4 5 6 
#
# 1 0.025712 -0.006209 -0.009939 0.000000 0.000000 0.000000
# 2 -0.006209 0.014002 -0.005018 0.000000 0.000000 0.000000
# 3 -0.009939 -0.005018 0.023731 0.000000 0.000000 0.000000
# 4 0.000000 0.000000 0.000000 0.031348 0.000000 0.000000
# 5 0.000000 0.000000 0.000000 0.000000 0.036279 0.000000
# 6 0.000000 0.000000 0.000000 0.000000 0.000000 0.035046
#
#
# Mechanical properties :
#
#
# Convention : Reuss Voigt Hill
#
# Bulk Modulus (GPa) = 47.36632 50.36037 48.86334
# Shear Modulus (GPa) = 23.20316 25.38845 24.29581
#
# Velocity S-wave (km/s) = 3.51847 3.68043 3.60036
# Velocity P-wave (km/s) = 6.46356 6.70296 6.58435
#
# Compressibility (1/GPa) = 0.02111205
#
# Stress axis : x y z
#
# Youngs Moduli (GPa) = 38.89216 71.41902 42.13882
#
# Poissons Ratio (x) = 0.44345 0.41884
# Poissons Ratio (y) = 0.24149 0.21145
# Poissons Ratio (z) = 0.38657 0.35838
#
# Static dielectric constant tensor:
#      x y z
#    x 3.470630 0.000000 0.000000 
#    y 0.000000 3.664690 0.000000 
#    z 0.000000 0.000000 3.392580 
# 
# 
# High freq. dielectric constant tensor:
#      x y z
#    x 1.727610 0.000000 0.000000 
#    y 0.000000 1.721190 0.000000 
#    z 0.000000 0.000000 1.720080 
# 
# From -- ./inp_files/17848.got.cif
#   From: 2010.03.12/outbox.cif.g09.slc.cpg/sg40_9_cif.got.tgz:17848.got - 2010.04.14 01:38:03.
