data_PCOD8182612
_publ_section_title
;
Structure prediction by ZEFSAII (Michael W. Deem and Ramdas Pophale) SiO2 
 PCOD8182612
Probable space group: A M A 2
;
_chemical_formula_sum "Si O2"
_cell_formula_units_Z 64
_cell_length_a 8.386703
_cell_length_b 30.397598
_cell_length_c 14.586803
_cell_angle_alpha 90.000000
_cell_angle_beta 90.000000
_cell_angle_gamma 90.000000
_cell_volume 3718.695759
_symmetry_space_group_name_H-M "A M A 2"
_symmetry_group_IT_number 40
_symmetry_cell_setting 'orthorhombic'
loop_
_space_group_symop_operation_xyz
x,y,z
-x,-y,z
1/2-x,y,z
1/2+x,-y,z
x,1/2+y,1/2+z
-x,1/2-y,1/2+z
1/2-x,1/2+y,1/2+z
1/2+x,1/2-y,1/2+z
loop_
_atom_site_type_symbol
_atom_site_label
_atom_site_fract_x
_atom_site_fract_y
_atom_site_fract_z
Si Si1 0.436673 0.291370 0.105310
Si Si2 0.062331 0.546220 0.518282
Si Si3 0.062331 0.046220 0.811576
Si Si4 0.436673 0.291369 0.724548
Si Si5 0.434688 0.229461 0.414929
Si Si6 0.932608 0.322694 0.414929
Si Si7 0.439299 0.636139 0.598365
Si Si8 0.060701 0.636139 0.231493
O O1 0.250000 0.284138 0.090694
O O2 0.500000 0.250000 0.164929
O O3 0.469921 0.338755 0.150689
O O4 0.524525 0.296556 0.007654
O O5 0.250000 0.544671 0.511352
O O6 0.993819 0.554744 0.414929
O O7 0.012960 0.584590 0.590182
O O8 0.000000 0.500000 0.557946
O O9 0.250000 0.044671 0.818506
O O10 0.012960 0.084590 0.739676
O O11 0.000000 0.000000 0.771912
O O12 0.250000 0.284137 0.739164
O O13 0.524524 0.296556 0.822204
O O14 0.469921 0.338755 0.679169
O O15 0.250000 0.243150 0.414929
O O16 0.549622 0.270998 0.414929
O O17 0.750000 0.337412 0.414929
O O18 0.009778 0.342305 0.505998
O O19 0.009778 0.342304 0.323860
O O20 0.250000 0.643058 0.610488
O O21 0.250000 0.643058 0.219370
#
# Coordination Sequence:
#
# PCOD8182612 Si02
#       8
#     8   8   8   8   8   8   8   8
#     4  12  24  37  53  76 105 138 176 218 262 309
#     4   9  17  30  48  73 104 139 173 212 259 307
#     4   9  17  30  48  73 104 139 173 212 259 307
#     4  12  24  37  53  76 105 138 176 218 262 309
#     4  12  24  38  54  75 102 137 179 219 261 307
#     4  10  18  30  51  73 103 141 177 215 257 299
#     4  10  19  33  52  75 104 141 180 216 259 308
#     4  10  19  33  52  75 104 141 180 216 259 308
#
# _framework density 17.210336000000002
#
# number of rings (size 3 to 8) (size 9 to 14) (size 15 to 20)
#    0.000    1.500    3.750    3.375    0.000    1.000 
#    0.000    0.000    0.000    0.000    0.000    0.875 
#    0.000    0.000    0.000    0.000    0.000    0.000 
#
# Total GULP energy -396629.625215 kJ/mol
# GULP energy per Si atom -12394.675788 kJ/mol
# Density = 1.717116 g / cm^3
# Si number density = 17.210336 Si / 1000 Ang^3
#
#
#
# Elastic Constant Matrix: (Units=GPa)
#
#
# Indices 1 2 3 4 5 6 
#
# 1 50.5445 15.1913 20.7669 0.0000 0.0000 0.0000
# 2 15.1913 125.9244 48.6227 0.0000 0.0000 0.0000
# 3 20.7669 48.6227 109.2860 0.0000 0.0000 0.0000
# 4 0.0000 0.0000 0.0000 26.2950 0.0000 0.0000
# 5 0.0000 0.0000 0.0000 0.0000 16.7462 0.0000
# 6 0.0000 0.0000 0.0000 0.0000 0.0000 27.0923
#
#
#
# Elastic Compliance Matrix: (Units=1/GPa)
#
#
# Indices 1 2 3 4 5 6 
#
# 1 0.021618 -0.001234 -0.003559 0.000000 0.000000 0.000000
# 2 -0.001234 0.009659 -0.004063 0.000000 0.000000 0.000000
# 3 -0.003559 -0.004063 0.011634 0.000000 0.000000 0.000000
# 4 0.000000 0.000000 0.000000 0.038030 0.000000 0.000000
# 5 0.000000 0.000000 0.000000 0.000000 0.059715 0.000000
# 6 0.000000 0.000000 0.000000 0.000000 0.000000 0.036911
#
#
# Mechanical properties :
#
#
# Convention : Reuss Voigt Hill
#
# Bulk Modulus (GPa) = 39.68327 50.54632 45.11480
# Shear Modulus (GPa) = 24.54860 27.43830 25.99345
#
# Velocity S-wave (km/s) = 3.78085 3.99719 3.89052
# Velocity P-wave (km/s) = 6.49366 7.12298 6.81559
#
# Compressibility (1/GPa) = 0.02519954
#
# Stress axis : x y z
#
# Youngs Moduli (GPa) = 46.25860 103.53140 85.95322
#
# Poissons Ratio (x) = 0.12773 0.30590
# Poissons Ratio (y) = 0.05707 0.34922
# Poissons Ratio (z) = 0.16463 0.42064
#
# Static dielectric constant tensor:
#      x y z
#    x 3.127480 0.000000 0.000000 
#    y 0.000000 4.022840 0.000000 
#    z 0.000000 0.000000 3.260960 
# 
# 
# High freq. dielectric constant tensor:
#      x y z
#    x 1.660500 0.000000 0.000000 
#    y 0.000000 1.656390 0.000000 
#    z 0.000000 0.000000 1.640570 
# 
# From -- ./inp_files/15923.got.cif
#   From: 2010.03.12/outbox.cif.g09.slc.cpg/sg40_8_cif.got.tgz:15923.got - 2010.04.14 01:38:03.
