data_PCOD8182191
_publ_section_title
;
Structure prediction by ZEFSAII (Michael W. Deem and Ramdas Pophale) SiO2 
 PCOD8182191
Probable space group: A B M 2
;
_chemical_formula_sum "Si O2"
_cell_formula_units_Z 28
_cell_length_a 12.363545
_cell_length_b 12.649440
_cell_length_c 8.585206
_cell_angle_alpha 90.000000
_cell_angle_beta 90.000000
_cell_angle_gamma 90.000000
_cell_volume 1342.656856
_symmetry_space_group_name_H-M "A B M 2"
_symmetry_group_IT_number 39
_symmetry_cell_setting 'orthorhombic'
loop_
_space_group_symop_operation_xyz
x,y,z
-x,-y,z
-x,1/2+y,z
x,1/2-y,z
x,1/2+y,1/2+z
-x,1/2-y,1/2+z
-x,y,1/2+z
x,-y,1/2+z
loop_
_atom_site_type_symbol
_atom_site_label
_atom_site_fract_x
_atom_site_fract_y
_atom_site_fract_z
Si Si1 0.863126 0.926230 0.782910
Si Si2 0.079451 0.630653 0.932020
Si Si3 0.500000 0.500000 0.550602
Si Si4 0.621323 0.369969 0.299264
O O1 0.898682 0.904382 0.607622
O O2 0.749612 0.873264 0.821882
O O3 0.951107 0.876340 0.900353
O O4 0.856932 0.052873 0.813725
O O5 0.121240 0.750000 0.904641
O O6 0.562524 0.413032 0.451539
O O7 0.410260 0.440233 0.651509
O O8 0.583791 0.250000 0.272588
#
# Coordination Sequence:
#
# PCOD8182191 Si02
#       4
#     8   8   4   8
#     4  11  23  38  62  89 119 157 200 233 287 357
#     4  11  22  39  58  87 124 158 192 239 284 343
#     4  10  24  40  62  90 114 148 204 246 292 354
#     4  11  22  42  63  86 118 155 193 247 297 341
#
# _framework density 20.854172999999999
#
# number of rings (size 3 to 8) (size 9 to 14) (size 15 to 20)
#    0.000    1.143    0.000    8.571    0.000    0.000 
#    0.000   15.714    0.000    0.000    0.000    0.000 
#    0.000    0.000    0.000    0.000    0.000    0.000 
#
# Total GULP energy -173642.172742 kJ/mol
# GULP energy per Si atom -12403.012339 kJ/mol
# Density = 2.080671 g / cm^3
# Si number density = 20.854173 Si / 1000 Ang^3
#
#
#
# Elastic Constant Matrix: (Units=GPa)
#
#
# Indices 1 2 3 4 5 6 
#
# 1 90.9727 11.3531 28.9251 0.0000 0.0000 0.0000
# 2 11.3531 174.2341 49.4588 0.0000 0.0000 0.0000
# 3 28.9251 49.4588 79.5348 0.0000 0.0000 0.0000
# 4 0.0000 0.0000 0.0000 4.2767 0.0000 0.0000
# 5 0.0000 0.0000 0.0000 0.0000 21.1513 0.0000
# 6 0.0000 0.0000 0.0000 0.0000 0.0000 15.2198
#
#
#
# Elastic Compliance Matrix: (Units=1/GPa)
#
#
# Indices 1 2 3 4 5 6 
#
# 1 0.012477 0.000577 -0.004896 0.000000 0.000000 0.000000
# 2 0.000577 0.006996 -0.004561 0.000000 0.000000 0.000000
# 3 -0.004896 -0.004561 0.017190 0.000000 0.000000 0.000000
# 4 0.000000 0.000000 0.000000 0.233823 0.000000 0.000000
# 5 0.000000 0.000000 0.000000 0.000000 0.047278 0.000000
# 6 0.000000 0.000000 0.000000 0.000000 0.000000 0.065704
#
#
# Mechanical properties :
#
#
# Convention : Reuss Voigt Hill
#
# Bulk Modulus (GPa) = 52.90092 58.24617 55.57355
# Shear Modulus (GPa) = 12.26903 25.12986 18.69945
#
# Velocity S-wave (km/s) = 2.42817 3.47512 2.99770
# Velocity P-wave (km/s) = 5.76919 6.64024 6.21998
#
# Compressibility (1/GPa) = 0.01890326
#
# Stress axis : x y z
#
# Youngs Moduli (GPa) = 80.14649 142.93103 58.17401
#
# Poissons Ratio (x) = -0.08246 0.28485
# Poissons Ratio (y) = -0.04624 0.26530
# Poissons Ratio (z) = 0.39243 0.65184
#
# Static dielectric constant tensor:
#      x y z
#    x 3.886130 0.000000 0.000000 
#    y 0.000000 4.071570 0.000000 
#    z 0.000000 0.000000 3.798570 
# 
# 
# High freq. dielectric constant tensor:
#      x y z
#    x 1.808400 0.000000 0.000000 
#    y 0.000000 1.832840 0.000000 
#    z 0.000000 0.000000 1.823230 
# 
# From -- ./inp_files/2397.got.cif
#   From: 2010.03.12/outbox.cif.g09.slc.cpg/sg39_2_cif.got.tgz:2397.got - 2010.04.14 02:53:20.
