data_PCOD8182361
_publ_section_title
;
Structure prediction by ZEFSAII (Michael W. Deem and Ramdas Pophale) SiO2 
 PCOD8182361
Probable space group: A M A 2
;
_chemical_formula_sum "Si O2"
_cell_formula_units_Z 48
_cell_length_a 8.787232
_cell_length_b 31.477712
_cell_length_c 9.245836
_cell_angle_alpha 90.000000
_cell_angle_beta 90.000000
_cell_angle_gamma 90.000000
_cell_volume 2557.416343
_symmetry_space_group_name_H-M "A M A 2"
_symmetry_group_IT_number 40
_symmetry_cell_setting 'orthorhombic'
loop_
_space_group_symop_operation_xyz
x,y,z
-x,-y,z
1/2-x,y,z
1/2+x,-y,z
x,1/2+y,1/2+z
-x,1/2-y,1/2+z
1/2-x,1/2+y,1/2+z
1/2+x,1/2-y,1/2+z
loop_
_atom_site_type_symbol
_atom_site_label
_atom_site_fract_x
_atom_site_fract_y
_atom_site_fract_z
Si Si1 0.930518 0.711588 0.820670
Si Si2 0.429736 0.041941 0.818852
Si Si3 0.071379 0.872943 0.815003
Si Si4 0.927949 0.133499 0.140488
Si Si5 0.428573 0.288088 0.148386
Si Si6 0.928372 0.040593 0.134965
O O1 0.750000 0.709203 0.821060
O O2 0.001516 0.669878 0.741514
O O3 0.982527 0.753367 0.739103
O O4 0.990194 0.712993 0.984724
O O5 0.250000 0.039734 0.809416
O O6 0.489605 0.085585 0.746594
O O7 0.500000 0.000000 0.740463
O O8 0.487232 0.042283 0.982706
O O9 0.250000 0.882561 0.821365
O O10 0.031180 0.833931 0.712201
O O11 0.007632 0.863276 0.976778
O O12 0.750000 0.142268 0.131884
O O13 0.959290 0.086487 0.209738
O O14 0.250000 0.278467 0.158914
O O15 0.750000 0.033243 0.110977
O O16 0.000000 0.000000 0.222414
#
# Coordination Sequence:
#
# PCOD8182361 Si02
#       6
#     8   8   8   8   8   8
#     4  10  20  35  54  75 100 132 169 206 250 304
#     4  10  17  26  43  69  98 127 161 200 243 287
#     4   9  17  31  48  68  97 131 165 201 245 293
#     4   8  15  28  47  68  94 129 163 198 241 289
#     4  10  21  35  53  76 100 130 167 207 253 302
#     4   9  15  25  42  66  96 129 163 200 245 289
#
# _framework density 18.768943
#
# number of rings (size 3 to 8) (size 9 to 14) (size 15 to 20)
#    0.000    2.667    0.000    5.000    0.000    2.667 
#    0.000    5.833    0.000    1.000    0.000    2.333 
#    0.000    0.000    0.000    0.000    0.000    0.000 
#
# Total GULP energy -297413.113675 kJ/mol
# GULP energy per Si atom -12392.213070 kJ/mol
# Density = 1.872622 g / cm^3
# Si number density = 18.768943 Si / 1000 Ang^3
#
#
#
# Elastic Constant Matrix: (Units=GPa)
#
#
# Indices 1 2 3 4 5 6 
#
# 1 64.1354 49.9199 22.3209 0.0000 0.0000 0.0000
# 2 49.9199 162.2072 63.4511 0.0000 0.0000 0.0000
# 3 22.3209 63.4511 91.5677 0.0000 0.0000 0.0000
# 4 0.0000 0.0000 0.0000 23.8959 0.0000 0.0000
# 5 0.0000 0.0000 0.0000 0.0000 14.2963 0.0000
# 6 0.0000 0.0000 0.0000 0.0000 0.0000 34.8290
#
#
#
# Elastic Compliance Matrix: (Units=1/GPa)
#
#
# Indices 1 2 3 4 5 6 
#
# 1 0.020553 -0.005989 -0.000860 0.000000 0.000000 0.000000
# 2 -0.005989 0.010202 -0.005610 0.000000 0.000000 0.000000
# 3 -0.000860 -0.005610 0.015018 0.000000 0.000000 0.000000
# 4 0.000000 0.000000 0.000000 0.041848 0.000000 0.000000
# 5 0.000000 0.000000 0.000000 0.000000 0.069948 0.000000
# 6 0.000000 0.000000 0.000000 0.000000 0.000000 0.028712
#
#
# Mechanical properties :
#
#
# Convention : Reuss Voigt Hill
#
# Bulk Modulus (GPa) = 47.94896 65.47712 56.71304
# Shear Modulus (GPa) = 22.91997 26.75213 24.83605
#
# Velocity S-wave (km/s) = 3.49831 3.77946 3.64160
# Velocity P-wave (km/s) = 6.47456 7.34897 6.92558
#
# Compressibility (1/GPa) = 0.02085551
#
# Stress axis : x y z
#
# Youngs Moduli (GPa) = 48.65543 98.01585 66.58732
#
# Poissons Ratio (x) = 0.58699 0.05728
# Poissons Ratio (y) = 0.29138 0.37355
# Poissons Ratio (z) = 0.04185 0.54986
#
# Static dielectric constant tensor:
#      x y z
#    x 3.302470 0.000000 0.000000 
#    y 0.000000 4.057720 0.000000 
#    z 0.000000 0.000000 3.220800 
# 
# 
# High freq. dielectric constant tensor:
#      x y z
#    x 1.708540 0.000000 0.000000 
#    y 0.000000 1.760540 0.000000 
#    z 0.000000 0.000000 1.678600 
# 
# From -- ./inp_files/4570.got.cif
#   From: 2010.03.12/outbox.cif.g09.slc.cpg/sg40_3_cif.got.tgz:4570.got - 2010.04.14 01:38:03.
