data_PCOD8182269
_publ_section_title
;
Structure prediction by ZEFSAII (Michael W. Deem and Ramdas Pophale) SiO2 
 PCOD8182269
Probable space group: A B M 2
;
_chemical_formula_sum "Si O2"
_cell_formula_units_Z 56
_cell_length_a 19.991310
_cell_length_b 9.252799
_cell_length_c 14.915503
_cell_angle_alpha 90.000000
_cell_angle_beta 90.000000
_cell_angle_gamma 90.000000
_cell_volume 2759.003717
_symmetry_space_group_name_H-M "A B M 2"
_symmetry_group_IT_number 39
_symmetry_cell_setting 'orthorhombic'
loop_
_space_group_symop_operation_xyz
x,y,z
-x,-y,z
-x,1/2+y,z
x,1/2-y,z
x,1/2+y,1/2+z
-x,1/2-y,1/2+z
-x,y,1/2+z
x,-y,1/2+z
loop_
_atom_site_type_symbol
_atom_site_label
_atom_site_fract_x
_atom_site_fract_y
_atom_site_fract_z
Si Si1 0.838914 0.420910 0.171040
Si Si2 0.563567 0.087695 0.460162
Si Si3 0.688280 0.409444 0.173156
Si Si4 0.311631 0.588832 0.960063
Si Si5 0.436163 0.412125 0.174286
Si Si6 0.833506 0.079464 0.969268
Si Si7 0.070473 0.922341 0.811348
O O1 0.853776 0.250000 0.182978
O O2 0.763034 0.458146 0.201222
O O3 0.889032 0.518226 0.227294
O O4 0.851282 0.473716 0.069007
O O5 0.559438 0.250000 0.423208
O O6 0.564241 0.086103 0.567227
O O7 0.500000 0.000000 0.423261
O O8 0.630721 0.014360 0.421029
O O9 0.673104 0.250000 0.211736
O O10 0.632604 0.518377 0.212036
O O11 0.683759 0.403116 0.066663
O O12 0.321562 0.750000 0.920072
O O13 0.238888 0.520725 0.935259
O O14 0.500000 0.500000 0.210997
O O15 0.440954 0.250000 0.211343
O O16 0.824579 0.250000 0.973436
O O17 0.891352 0.030956 0.901904
O O18 0.062095 0.750000 0.803344
O O19 0.000000 0.000000 0.814758
#
# Coordination Sequence:
#
# PCOD8182269 Si02
#       7
#     8   8   8   8   8   8   8
#     4   9  18  36  59  82 109 143 180 220 266 318
#     4   9  15  21  31  54  89 128 167 211 257 302
#     4   8  14  25  43  65  92 127 168 211 257 307
#     4   8  13  25  44  64  88 125 169 211 254 304
#     4   9  15  21  32  54  89 129 170 214 259 304
#     4   8  17  35  58  80 107 143 180 217 264 319
#     4  11  23  39  58  83 112 141 175 216 262 318
#
# _framework density 20.297183
#
# number of rings (size 3 to 8) (size 9 to 14) (size 15 to 20)
#    0.000    3.143    0.000    3.000    0.000    4.571 
#    0.000    6.429    0.000    0.000    0.000    1.000 
#    0.000    6.857    0.000    0.857    0.000    0.000 
#
# Total GULP energy -347080.439841 kJ/mol
# GULP energy per Si atom -12395.729994 kJ/mol
# Density = 2.025099 g / cm^3
# Si number density = 20.297183 Si / 1000 Ang^3
#
#
#
# Elastic Constant Matrix: (Units=GPa)
#
#
# Indices 1 2 3 4 5 6 
#
# 1 205.2196 98.9323 52.7382 0.0000 0.0000 0.0000
# 2 98.9323 133.0831 34.1941 0.0000 0.0000 0.0000
# 3 52.7382 34.1941 53.3370 0.0000 0.0000 0.0000
# 4 0.0000 0.0000 0.0000 13.4397 0.0000 0.0000
# 5 0.0000 0.0000 0.0000 0.0000 -79.9582 0.0000
# 6 0.0000 0.0000 0.0000 0.0000 0.0000 36.2222
#
#
#
# Elastic Compliance Matrix: (Units=1/GPa)
#
#
# Indices 1 2 3 4 5 6 
#
# 1 0.008701 -0.005098 -0.005336 0.000000 0.000000 0.000000
# 2 -0.005098 0.011982 -0.002641 0.000000 0.000000 0.000000
# 3 -0.005336 -0.002641 0.025718 0.000000 0.000000 0.000000
# 4 0.000000 0.000000 0.000000 0.074406 0.000000 0.000000
# 5 0.000000 0.000000 0.000000 0.000000 -0.012507 0.000000
# 6 0.000000 0.000000 0.000000 0.000000 0.000000 0.027607
#
#
# Mechanical properties :
#
#
# Convention : Reuss Voigt Hill
#
# Bulk Modulus (GPa) = 49.37736 84.81875 67.09805
# Shear Modulus (GPa) = 29.61925 7.65907 18.63916
#
# Velocity S-wave (km/s) = 3.82420 1.94465 3.03366
# Velocity P-wave (km/s) = 6.62415 6.84992 6.73798
#
# Compressibility (1/GPa) = 0.02025220
#
# Stress axis : x y z
#
# Youngs Moduli (GPa) = 114.92281 83.45652 38.88338
#
# Poissons Ratio (x) = 0.42543 0.20747
# Poissons Ratio (y) = 0.58583 0.10271
# Poissons Ratio (z) = 0.61320 0.22044
#
# Static dielectric constant tensor:
#      x y z
#    x 4.130360 0.000000 0.000000 
#    y 0.000000 3.677940 0.000000 
#    z 0.000000 0.000000 3.292980 
# 
# 
# High freq. dielectric constant tensor:
#      x y z
#    x 1.801420 0.000000 0.000000 
#    y 0.000000 1.779190 0.000000 
#    z 0.000000 0.000000 1.760510 
# 
# From -- ./inp_files/10349.got.cif
#   From: 2010.03.12/outbox.cif.g09.slc.cpg/sg39_6_cif.got.tgz:10349.got - 2010.04.14 02:53:20.
