data_PCOD8182913
_publ_section_title
;
Structure prediction by ZEFSAII (Michael W. Deem and Ramdas Pophale) SiO2 
 PCOD8182913
Probable space group: A M A 2
;
_chemical_formula_sum "Si O2"
_cell_formula_units_Z 48
_cell_length_a 8.702474
_cell_length_b 23.926889
_cell_length_c 13.710912
_cell_angle_alpha 90.000000
_cell_angle_beta 90.000000
_cell_angle_gamma 90.000000
_cell_volume 2854.929004
_symmetry_space_group_name_H-M "A M A 2"
_symmetry_group_IT_number 40
_symmetry_cell_setting 'orthorhombic'
loop_
_space_group_symop_operation_xyz
x,y,z
-x,-y,z
1/2-x,y,z
1/2+x,-y,z
x,1/2+y,1/2+z
-x,1/2-y,1/2+z
1/2-x,1/2+y,1/2+z
1/2+x,1/2-y,1/2+z
loop_
_atom_site_type_symbol
_atom_site_label
_atom_site_fract_x
_atom_site_fract_y
_atom_site_fract_z
Si Si1 0.569745 0.837139 0.331470
Si Si2 0.069487 0.167438 0.920539
Si Si3 0.567169 0.941652 0.024361
Si Si4 0.070091 0.232528 0.735671
Si Si5 0.072017 0.229900 0.517534
Si Si6 0.068110 0.941584 0.235391
O O1 0.750000 0.848991 0.321693
O O2 0.522602 0.789421 0.254502
O O3 0.522007 0.817762 0.440735
O O4 0.476989 0.893615 0.311545
O O5 0.250000 0.166242 0.925968
O O6 0.014482 0.184786 0.811746
O O7 0.008415 0.106065 0.949510
O O8 0.014413 0.212315 0.999260
O O9 0.750000 0.945547 0.030815
O O10 0.502711 0.926815 0.130616
O O11 0.500000 0.000000 0.985403
O O12 0.250000 0.245895 0.749335
O O13 0.034109 0.209809 0.627294
O O14 0.250000 0.243184 0.503463
O O15 0.250000 0.946497 0.226027
O O16 0.000000 0.000000 0.274439
#
# Coordination Sequence:
#
# PCOD8182913 Si02
#       6
#     8   8   8   8   8   8
#     4  10  19  31  46  69  96 122 151 188 229 271
#     4   9  18  30  46  67  93 121 152 188 228 269
#     4  10  19  31  47  69  94 122 152 188 229 272
#     4   9  17  31  48  68  92 123 157 189 225 269
#     4   9  18  30  47  68  92 121 153 186 225 269
#     4  11  21  33  49  69  92 121 152 187 227 272
#
# _framework density 16.813027000000002
#
# number of rings (size 3 to 8) (size 9 to 14) (size 15 to 20)
#    0.000    2.333    0.000    4.500    0.000    5.333 
#    0.000    0.000    0.000    1.000    0.000    2.333 
#    0.000    0.000    0.000    0.000    0.000    0.000 
#
# Total GULP energy -297573.561062 kJ/mol
# GULP energy per Si atom -12398.898378 kJ/mol
# Density = 1.677476 g / cm^3
# Si number density = 16.813027 Si / 1000 Ang^3
#
#
#
# Elastic Constant Matrix: (Units=GPa)
#
#
# Indices 1 2 3 4 5 6 
#
# 1 32.5526 29.7105 9.9372 0.0000 0.0000 0.0000
# 2 29.7105 138.7324 63.5035 0.0000 0.0000 0.0000
# 3 9.9372 63.5035 100.0770 0.0000 0.0000 0.0000
# 4 0.0000 0.0000 0.0000 25.6519 0.0000 0.0000
# 5 0.0000 0.0000 0.0000 0.0000 18.6097 0.0000
# 6 0.0000 0.0000 0.0000 0.0000 0.0000 28.5094
#
#
#
# Elastic Compliance Matrix: (Units=1/GPa)
#
#
# Indices 1 2 3 4 5 6 
#
# 1 0.038460 -0.009145 0.001984 0.000000 0.000000 0.000000
# 2 -0.009145 0.012333 -0.006918 0.000000 0.000000 0.000000
# 3 0.001984 -0.006918 0.014185 0.000000 0.000000 0.000000
# 4 0.000000 0.000000 0.000000 0.038983 0.000000 0.000000
# 5 0.000000 0.000000 0.000000 0.000000 0.053735 0.000000
# 6 0.000000 0.000000 0.000000 0.000000 0.000000 0.035076
#
#
# Mechanical properties :
#
#
# Convention : Reuss Voigt Hill
#
# Bulk Modulus (GPa) = 27.15856 53.07383 40.11619
# Shear Modulus (GPa) = 21.44042 25.76825 23.60433
#
# Velocity S-wave (km/s) = 3.57491 3.91914 3.75097
# Velocity P-wave (km/s) = 5.76440 7.21908 6.53236
#
# Compressibility (1/GPa) = 0.03682081
#
# Stress axis : x y z
#
# Youngs Moduli (GPa) = 26.00097 81.08255 70.49661
#
# Poissons Ratio (x) = 0.74146 -0.13985
# Poissons Ratio (y) = 0.23777 0.48769
# Poissons Ratio (z) = -0.05158 0.56092
#
# Static dielectric constant tensor:
#      x y z
#    x 3.189770 0.000000 0.000000 
#    y 0.000000 3.257100 0.000000 
#    z 0.000000 0.000000 3.310860 
# 
# 
# High freq. dielectric constant tensor:
#      x y z
#    x 1.655140 0.000000 0.000000 
#    y 0.000000 1.639570 0.000000 
#    z 0.000000 0.000000 1.637440 
# 
# From -- ./inp_files/10309.got.cif
#   From: 2010.03.12/outbox.cif.g09.slc.cpg/sg40_6_cif.got.tgz:10309.got - 2010.04.14 01:38:03.
