data_PCOD8182714
_publ_section_title
;
Structure prediction by ZEFSAII (Michael W. Deem and Ramdas Pophale) SiO2 
 PCOD8182714
Probable space group: A M A 2
;
_chemical_formula_sum "Si O2"
_cell_formula_units_Z 64
_cell_length_a 8.599006
_cell_length_b 29.232463
_cell_length_c 12.712525
_cell_angle_alpha 90.000000
_cell_angle_beta 90.000000
_cell_angle_gamma 90.000000
_cell_volume 3195.548995
_symmetry_space_group_name_H-M "A M A 2"
_symmetry_group_IT_number 40
_symmetry_cell_setting 'orthorhombic'
loop_
_space_group_symop_operation_xyz
x,y,z
-x,-y,z
1/2-x,y,z
1/2+x,-y,z
x,1/2+y,1/2+z
-x,1/2-y,1/2+z
1/2-x,1/2+y,1/2+z
1/2+x,1/2-y,1/2+z
loop_
_atom_site_type_symbol
_atom_site_label
_atom_site_fract_x
_atom_site_fract_y
_atom_site_fract_z
Si Si1 0.929182 0.323958 0.989300
Si Si2 0.431753 0.300247 0.199445
Si Si3 0.932338 0.455401 0.848951
Si Si4 0.933062 0.888788 0.164555
Si Si5 0.066437 0.051157 0.971358
Si Si6 0.430672 0.398946 0.272424
Si Si7 0.571386 0.084295 0.539504
Si Si8 0.064267 0.702634 0.761087
O O1 0.750000 0.310301 0.004082
O O2 0.994697 0.309601 0.876685
O O3 0.948970 0.377856 0.001510
O O4 0.032955 0.299200 0.076209
O O5 0.250000 0.299755 0.218063
O O6 0.495011 0.346591 0.256236
O O7 0.506716 0.253035 0.241044
O O8 0.750000 0.458768 0.869540
O O9 0.975611 0.412994 0.774478
O O10 0.000000 0.500000 0.789430
O O11 0.027100 0.456233 0.960257
O O12 0.750000 0.888412 0.148181
O O13 0.994926 0.836192 0.177114
O O14 0.003960 0.916364 0.064610
O O15 0.250000 0.046720 0.981891
O O16 0.026998 0.075050 0.860973
O O17 0.000000 0.000000 0.978389
O O18 0.250000 0.398520 0.304832
O O19 0.455410 0.426767 0.162904
O O20 0.750000 0.100435 0.525250
O O21 0.250000 0.703017 0.756498
#
# Coordination Sequence:
#
# PCOD8182714 Si02
#       8
#     8   8   8   8   8   8   8   8
#     4  10  18  32  55  79 109 147 185 232 285 341
#     4   9  19  35  56  82 115 155 192 236 292 346
#     4  11  21  35  56  83 114 146 182 229 283 342
#     4   9  19  36  57  83 113 149 192 235 288 347
#     4  11  23  39  61  84 112 153 198 244 293 349
#     4   9  20  38  57  80 114 150 189 235 286 343
#     4  10  20  36  57  81 109 144 184 230 287 345
#     4   9  17  33  57  82 112 153 192 231 289 349
#
# _framework density 20.027857000000001
#
# number of rings (size 3 to 8) (size 9 to 14) (size 15 to 20)
#    0.000    2.250    1.250    2.625    0.000    4.000 
#    0.000    3.125    0.000    0.000    0.000    0.000 
#    0.000    0.000    0.000    0.000    0.000    0.000 
#
# Total GULP energy -396505.647907 kJ/mol
# GULP energy per Si atom -12390.801497 kJ/mol
# Density = 1.998227 g / cm^3
# Si number density = 20.027857 Si / 1000 Ang^3
#
#
#
# Elastic Constant Matrix: (Units=GPa)
#
#
# Indices 1 2 3 4 5 6 
#
# 1 30.6821 17.7766 21.8820 0.0000 0.0000 0.0000
# 2 17.7766 112.6021 51.3007 0.0000 0.0000 0.0000
# 3 21.8820 51.3007 119.1015 0.0000 0.0000 0.0000
# 4 0.0000 0.0000 0.0000 20.2087 0.0000 0.0000
# 5 0.0000 0.0000 0.0000 0.0000 24.7905 0.0000
# 6 0.0000 0.0000 0.0000 0.0000 0.0000 19.3219
#
#
#
# Elastic Compliance Matrix: (Units=1/GPa)
#
#
# Indices 1 2 3 4 5 6 
#
# 1 0.038623 -0.003564 -0.005561 0.000000 0.000000 0.000000
# 2 -0.003564 0.011378 -0.004246 0.000000 0.000000 0.000000
# 3 -0.005561 -0.004246 0.011247 0.000000 0.000000 0.000000
# 4 0.000000 0.000000 0.000000 0.049484 0.000000 0.000000
# 5 0.000000 0.000000 0.000000 0.000000 0.040338 0.000000
# 6 0.000000 0.000000 0.000000 0.000000 0.000000 0.051755
#
#
# Mechanical properties :
#
#
# Convention : Reuss Voigt Hill
#
# Bulk Modulus (GPa) = 28.98045 49.36715 39.17380
# Shear Modulus (GPa) = 20.74099 24.29263 22.51681
#
# Velocity S-wave (km/s) = 3.22158 3.48651 3.35666
# Velocity P-wave (km/s) = 5.32349 6.39613 5.88430
#
# Compressibility (1/GPa) = 0.03450602
#
# Stress axis : x y z
#
# Youngs Moduli (GPa) = 25.89114 87.88935 88.91422
#
# Poissons Ratio (x) = 0.31323 0.49445
# Poissons Ratio (y) = 0.09228 0.37753
# Poissons Ratio (z) = 0.14398 0.37318
#
# Static dielectric constant tensor:
#      x y z
#    x 3.302970 0.000000 0.000000 
#    y 0.000000 4.007060 0.000000 
#    z 0.000000 0.000000 3.749790 
# 
# 
# High freq. dielectric constant tensor:
#      x y z
#    x 1.752430 0.000000 0.000000 
#    y 0.000000 1.787320 0.000000 
#    z 0.000000 0.000000 1.783340 
# 
# From -- ./inp_files/10666.got.cif
#   From: 2010.03.12/outbox.cif.g09.slc.cpg/sg40_6_cif.got.tgz:10666.got - 2010.04.14 01:38:03.
