data_PCOD8182658
_publ_section_title
;
Structure prediction by ZEFSAII (Michael W. Deem and Ramdas Pophale) SiO2 
 PCOD8182658
Probable space group: A M A 2
;
_chemical_formula_sum "Si O2"
_cell_formula_units_Z 48
_cell_length_a 8.776947
_cell_length_b 13.798222
_cell_length_c 18.410754
_cell_angle_alpha 90.000000
_cell_angle_beta 90.000000
_cell_angle_gamma 90.000000
_cell_volume 2229.657619
_symmetry_space_group_name_H-M "A M A 2"
_symmetry_group_IT_number 40
_symmetry_cell_setting 'orthorhombic'
loop_
_space_group_symop_operation_xyz
x,y,z
-x,-y,z
1/2-x,y,z
1/2+x,-y,z
x,1/2+y,1/2+z
-x,1/2-y,1/2+z
1/2-x,1/2+y,1/2+z
1/2+x,1/2-y,1/2+z
loop_
_atom_site_type_symbol
_atom_site_label
_atom_site_fract_x
_atom_site_fract_y
_atom_site_fract_z
Si Si1 0.084307 0.906683 0.602220
Si Si2 0.930311 0.100801 0.981819
Si Si3 0.927783 0.604834 0.760925
Si Si4 0.082266 0.408595 0.271695
Si Si5 0.067253 0.193422 0.118078
Si Si6 0.424251 0.232263 0.864287
O O1 0.250000 0.904536 0.564693
O O2 0.102197 0.924844 0.687185
O O3 0.006240 0.800869 0.593122
O O4 0.000000 0.000000 0.567021
O O5 0.750000 0.092662 0.988960
O O6 0.003212 0.116764 0.060893
O O7 0.000000 0.000000 0.951486
O O8 0.972231 0.191645 0.929594
O O9 0.750000 0.597073 0.741075
O O10 0.949142 0.655623 0.840654
O O11 0.000000 0.500000 0.767524
O O12 0.009896 0.665695 0.697688
O O13 0.250000 0.395088 0.307720
O O14 0.000000 0.500000 0.308524
O O15 0.972279 0.319593 0.289272
O O16 0.250000 0.194387 0.119724
O O17 0.250000 0.211659 0.885331
#
# Coordination Sequence:
#
# PCOD8182658 Si02
#       6
#     8   8   8   8   8   8
#     4   9  19  33  55  86 121 159 199 248 301 357
#     4  12  26  44  66  93 126 167 210 258 316 377
#     4  11  24  41  65  94 125 163 210 261 314 373
#     4  10  18  31  52  83 118 155 194 241 298 354
#     4  11  22  41  65  93 130 168 211 260 313 372
#     4  11  23  40  61  89 122 160 204 256 310 369
#
# _framework density 21.527968000000001
#
# number of rings (size 3 to 8) (size 9 to 14) (size 15 to 20)
#    0.000    1.333    1.667    4.500    0.000    4.000 
#    0.000    0.833    0.000    0.000    0.000    0.000 
#    0.000    0.000    0.000    0.000    0.000    0.000 
#
# Total GULP energy -297400.937267 kJ/mol
# GULP energy per Si atom -12391.705719 kJ/mol
# Density = 2.147897 g / cm^3
# Si number density = 21.527968 Si / 1000 Ang^3
#
#
#
# Elastic Constant Matrix: (Units=GPa)
#
#
# Indices 1 2 3 4 5 6 
#
# 1 122.1786 52.1388 27.8846 0.0000 0.0000 0.0000
# 2 52.1388 128.6475 22.6564 0.0000 0.0000 0.0000
# 3 27.8846 22.6564 67.0027 0.0000 0.0000 0.0000
# 4 0.0000 0.0000 0.0000 10.6313 0.0000 0.0000
# 5 0.0000 0.0000 0.0000 0.0000 27.1362 0.0000
# 6 0.0000 0.0000 0.0000 0.0000 0.0000 30.7156
#
#
#
# Elastic Compliance Matrix: (Units=1/GPa)
#
#
# Indices 1 2 3 4 5 6 
#
# 1 0.010472 -0.003697 -0.003108 0.000000 0.000000 0.000000
# 2 -0.003697 0.009570 -0.001698 0.000000 0.000000 0.000000
# 3 -0.003108 -0.001698 0.016792 0.000000 0.000000 0.000000
# 4 0.000000 0.000000 0.000000 0.094062 0.000000 0.000000
# 5 0.000000 0.000000 0.000000 0.000000 0.036851 0.000000
# 6 0.000000 0.000000 0.000000 0.000000 0.000000 0.032557
#
#
# Mechanical properties :
#
#
# Convention : Reuss Voigt Hill
#
# Bulk Modulus (GPa) = 50.42967 58.13204 54.28086
# Shear Modulus (GPa) = 22.32953 28.03988 25.18470
#
# Velocity S-wave (km/s) = 3.22410 3.61291 3.42403
# Velocity P-wave (km/s) = 6.11031 6.66827 6.39538
#
# Compressibility (1/GPa) = 0.01982959
#
# Stress axis : x y z
#
# Youngs Moduli (GPa) = 95.49663 104.48949 59.55112
#
# Poissons Ratio (x) = 0.38626 0.18508
# Poissons Ratio (y) = 0.35301 0.10110
# Poissons Ratio (z) = 0.29680 0.17739
#
# Static dielectric constant tensor:
#      x y z
#    x 4.165250 0.000000 0.000000 
#    y 0.000000 4.176960 0.000000 
#    z 0.000000 0.000000 3.565010 
# 
# 
# High freq. dielectric constant tensor:
#      x y z
#    x 1.851450 0.000000 0.000000 
#    y 0.000000 1.854540 0.000000 
#    z 0.000000 0.000000 1.820230 
# 
# From -- ./inp_files/19205.got.cif
#   From: 2010.03.12/outbox.cif.g09.slc.cpg/sg40_10_cif.got.tgz:19205.got - 2010.04.14 01:38:03.
