data_PCOD8182135
_publ_section_title
;
Structure prediction by ZEFSAII (Michael W. Deem and Ramdas Pophale) SiO2 
 PCOD8182135
Probable space group: A B M 2
;
_chemical_formula_sum "Si O2"
_cell_formula_units_Z 48
_cell_length_a 7.233201
_cell_length_b 24.667277
_cell_length_c 12.435768
_cell_angle_alpha 90.000000
_cell_angle_beta 90.000000
_cell_angle_gamma 90.000000
_cell_volume 2218.831668
_symmetry_space_group_name_H-M "A B M 2"
_symmetry_group_IT_number 39
_symmetry_cell_setting 'orthorhombic'
loop_
_space_group_symop_operation_xyz
x,y,z
-x,-y,z
-x,1/2+y,z
x,1/2-y,z
x,1/2+y,1/2+z
-x,1/2-y,1/2+z
-x,y,1/2+z
x,-y,1/2+z
loop_
_atom_site_type_symbol
_atom_site_label
_atom_site_fract_x
_atom_site_fract_y
_atom_site_fract_z
Si Si1 0.059086 0.840908 0.930770
Si Si2 0.243640 0.423410 0.936002
Si Si3 0.413814 0.867747 0.822277
Si Si4 0.342676 0.456372 0.163783
Si Si5 0.118902 0.250000 0.807928
Si Si6 0.781063 0.250000 0.065729
Si Si7 0.000000 0.000000 0.287216
Si Si8 0.500009 0.750000 0.882733
O O1 0.228993 0.878990 0.892683
O O2 0.893601 0.876734 0.976296
O O3 0.002914 0.803746 0.827296
O O4 0.110618 0.803702 0.031496
O O5 0.414193 0.395476 0.878772
O O6 0.127585 0.461293 0.857811
O O7 0.323403 0.457056 0.035681
O O8 0.399878 0.896334 0.705715
O O9 0.437191 0.802756 0.814155
O O10 0.500000 0.500000 0.197865
O O11 0.141407 0.467932 0.212065
O O12 0.226991 0.250000 0.694364
O O13 0.280073 0.250000 0.898143
O O14 0.583845 0.250000 0.003638
#
# Coordination Sequence:
#
# PCOD8182135 Si02
#       8
#     8   8   8   8   4   4   4   4
#     4  10  23  44  66 101 139 180 240 283 352 420
#     4  12  26  45  74 100 140 187 231 302 353 428
#     4  11  24  47  70 104 146 182 236 295 350 425
#     4  12  28  45  74 109 138 192 240 293 372 422
#     4  11  21  43  69  96 146 191 225 292 352 412
#     4   9  23  39  67 100 142 181 229 292 336 422
#     4  12  26  50  70 104 148 182 240 304 350 434
#     4  10  22  44  68 106 140 186 240 284 342 434
#
# _framework density 21.633004
#
# number of rings (size 3 to 8) (size 9 to 14) (size 15 to 20)
#    0.000    1.000    5.000    1.000    4.667    4.000 
#    0.000    0.000    0.000    0.000    0.000    0.000 
#    0.000    0.000    0.000    0.000    0.000    0.000 
#
# Total GULP energy -297550.978001 kJ/mol
# GULP energy per Si atom -12397.957417 kJ/mol
# Density = 2.158377 g / cm^3
# Si number density = 21.633004 Si / 1000 Ang^3
#
#
#
# Elastic Constant Matrix: (Units=GPa)
#
#
# Indices 1 2 3 4 5 6 
#
# 1 148.1301 45.3120 39.4958 0.0000 0.0000 0.0000
# 2 45.3120 107.1798 40.0605 0.0000 0.0000 0.0000
# 3 39.4958 40.0605 81.8904 0.0000 0.0000 0.0000
# 4 0.0000 0.0000 0.0000 12.0866 0.0000 0.0000
# 5 0.0000 0.0000 0.0000 0.0000 28.1693 0.0000
# 6 0.0000 0.0000 0.0000 0.0000 0.0000 26.5028
#
#
#
# Elastic Compliance Matrix: (Units=1/GPa)
#
#
# Indices 1 2 3 4 5 6 
#
# 1 0.008239 -0.002445 -0.002778 0.000000 0.000000 0.000000
# 2 -0.002445 0.012143 -0.004761 0.000000 0.000000 0.000000
# 3 -0.002778 -0.004761 0.015880 0.000000 0.000000 0.000000
# 4 0.000000 0.000000 0.000000 0.082737 0.000000 0.000000
# 5 0.000000 0.000000 0.000000 0.000000 0.035500 0.000000
# 6 0.000000 0.000000 0.000000 0.000000 0.000000 0.037732
#
#
# Mechanical properties :
#
#
# Convention : Reuss Voigt Hill
#
# Bulk Modulus (GPa) = 61.36855 65.21520 63.29187
# Shear Modulus (GPa) = 22.97466 27.50720 25.24093
#
# Velocity S-wave (km/s) = 3.26240 3.56973 3.41952
# Velocity P-wave (km/s) = 6.52845 6.87039 6.70160
#
# Compressibility (1/GPa) = 0.01629499
#
# Stress axis : x y z
#
# Youngs Moduli (GPa) = 121.36827 82.34904 62.97094
#
# Poissons Ratio (x) = 0.20135 0.17492
# Poissons Ratio (y) = 0.29676 0.29982
# Poissons Ratio (z) = 0.33713 0.39208
#
# Static dielectric constant tensor:
#      x y z
#    x 4.341020 0.000000 0.000000 
#    y 0.000000 4.095520 0.000000 
#    z 0.000000 0.000000 3.511060 
# 
# 
# High freq. dielectric constant tensor:
#      x y z
#    x 1.877430 0.000000 0.000000 
#    y 0.000000 1.858200 0.000000 
#    z 0.000000 0.000000 1.821590 
# 
# From -- ./inp_files/5243.got.cif
#   From: 2010.03.12/outbox.cif.g09.slc.cpg/sg39_3_cif.got.tgz:5243.got - 2010.04.14 02:53:20.
