data_PCOD8182114
_publ_section_title
;
Structure prediction by ZEFSAII (Michael W. Deem and Ramdas Pophale) SiO2 
 PCOD8182114
Probable space group: A B M 2
;
_chemical_formula_sum "Si O2"
_cell_formula_units_Z 56
_cell_length_a 5.452293
_cell_length_b 31.651676
_cell_length_c 14.176851
_cell_angle_alpha 90.000000
_cell_angle_beta 90.000000
_cell_angle_gamma 90.000000
_cell_volume 2446.558883
_symmetry_space_group_name_H-M "A B M 2"
_symmetry_group_IT_number 39
_symmetry_cell_setting 'orthorhombic'
loop_
_space_group_symop_operation_xyz
x,y,z
-x,-y,z
-x,1/2+y,z
x,1/2-y,z
x,1/2+y,1/2+z
-x,1/2-y,1/2+z
-x,y,1/2+z
x,-y,1/2+z
loop_
_atom_site_type_symbol
_atom_site_label
_atom_site_fract_x
_atom_site_fract_y
_atom_site_fract_z
Si Si1 0.102297 0.157262 0.933380
Si Si2 0.254903 0.570613 0.785274
Si Si3 0.897703 0.157262 0.742775
Si Si4 0.623757 0.797730 0.088078
Si Si5 0.745095 0.929387 0.890881
Si Si6 0.397182 0.546390 0.588078
Si Si7 0.749184 0.127001 0.088078
O O1 0.294923 0.121303 0.901190
O O2 0.000001 0.178878 0.838077
O O3 0.213996 0.194943 0.994762
O O4 0.906829 0.129588 0.992835
O O5 0.294921 0.621303 0.774965
O O6 0.499999 0.553051 0.838078
O O7 0.232073 0.550580 0.681269
O O8 0.999999 0.559080 0.838078
O O9 0.786002 0.194943 0.681394
O O10 0.093170 0.129589 0.683320
O O11 0.523365 0.750000 0.088077
O O12 0.407407 0.830494 0.088077
O O13 0.767925 0.949420 0.994886
O O14 0.500000 0.500000 0.588079
O O15 0.602109 0.583398 0.588078
#
# Coordination Sequence:
#
# PCOD8182114 Si02
#       7
#     8   8   8   8   8   8   8
#     4  10  22  41  71  93 133 185 225 285 356 422
#     4  11  24  45  74 105 141 186 238 298 353 418
#     4  10  22  41  71  93 133 185 225 285 356 422
#     4  11  24  40  66  99 134 172 231 295 352 424
#     4  11  24  45  74 105 141 186 238 298 353 418
#     4  12  24  45  73 106 143 197 237 292 361 434
#     4  11  22  45  64  95 142 174 231 292 355 417
#
# _framework density 22.889289999999999
#
# number of rings (size 3 to 8) (size 9 to 14) (size 15 to 20)
#    0.000    1.143    2.857    4.286    0.000    4.571 
#    0.000   18.571    0.000    0.000    0.000    0.000 
#    0.000    0.000    0.000    0.000    0.000    0.000 
#
# Total GULP energy -347066.845868 kJ/mol
# GULP energy per Si atom -12395.244495 kJ/mol
# Density = 2.283719 g / cm^3
# Si number density = 22.889290 Si / 1000 Ang^3
#
#
#
# Elastic Constant Matrix: (Units=GPa)
#
#
# Indices 1 2 3 4 5 6 
#
# 1 119.6397 36.1374 56.7685 0.0000 0.0000 0.0000
# 2 36.1374 119.6671 22.6058 0.0000 0.0000 0.0000
# 3 56.7685 22.6058 185.2893 0.0000 0.0000 0.0000
# 4 0.0000 0.0000 0.0000 12.6118 0.0000 0.0000
# 5 0.0000 0.0000 0.0000 0.0000 21.8614 0.0000
# 6 0.0000 0.0000 0.0000 0.0000 0.0000 13.4884
#
#
#
# Elastic Compliance Matrix: (Units=1/GPa)
#
#
# Indices 1 2 3 4 5 6 
#
# 1 0.010532 -0.002632 -0.002906 0.000000 0.000000 0.000000
# 2 -0.002632 0.009211 -0.000318 0.000000 0.000000 0.000000
# 3 -0.002906 -0.000318 0.006326 0.000000 0.000000 0.000000
# 4 0.000000 0.000000 0.000000 0.079291 0.000000 0.000000
# 5 0.000000 0.000000 0.000000 0.000000 0.045743 0.000000
# 6 0.000000 0.000000 0.000000 0.000000 0.000000 0.074138
#
#
# Mechanical properties :
#
#
# Convention : Reuss Voigt Hill
#
# Bulk Modulus (GPa) = 69.64024 72.84661 71.24342
# Shear Modulus (GPa) = 20.68369 30.19797 25.44083
#
# Velocity S-wave (km/s) = 3.00932 3.63617 3.33749
# Velocity P-wave (km/s) = 6.52423 7.03730 6.78562
#
# Compressibility (1/GPa) = 0.01435951
#
# Stress axis : x y z
#
# Youngs Moduli (GPa) = 94.94824 108.56355 158.07896
#
# Poissons Ratio (x) = 0.28569 0.45933
# Poissons Ratio (y) = 0.24986 0.05019
# Poissons Ratio (z) = 0.27589 0.03447
#
# Static dielectric constant tensor:
#      x y z
#    x 4.250380 0.000000 0.000000 
#    y 0.000000 3.640320 0.000000 
#    z 0.000000 0.000000 5.670640 
# 
# 
# High freq. dielectric constant tensor:
#      x y z
#    x 1.895990 0.000000 0.000000 
#    y 0.000000 1.871350 0.000000 
#    z 0.000000 0.000000 1.935820 
# 
# From -- ./inp_files/7680.got.cif
#   From: 2010.03.12/outbox.cif.g09.slc.cpg/sg39_4_cif.got.tgz:7680.got - 2010.04.14 02:53:20.
