data_PCOD8182166
_publ_section_title
;
Structure prediction by ZEFSAII (Michael W. Deem and Ramdas Pophale) SiO2 
 PCOD8182166
Probable space group: A B M 2
;
_chemical_formula_sum "Si O2"
_cell_formula_units_Z 64
_cell_length_a 21.271491
_cell_length_b 15.460722
_cell_length_c 9.283111
_cell_angle_alpha 90.000000
_cell_angle_beta 90.000000
_cell_angle_gamma 90.000000
_cell_volume 3052.960933
_symmetry_space_group_name_H-M "A B M 2"
_symmetry_group_IT_number 39
_symmetry_cell_setting 'orthorhombic'
loop_
_space_group_symop_operation_xyz
x,y,z
-x,-y,z
-x,1/2+y,z
x,1/2-y,z
x,1/2+y,1/2+z
-x,1/2-y,1/2+z
-x,y,1/2+z
x,-y,1/2+z
loop_
_atom_site_type_symbol
_atom_site_label
_atom_site_fract_x
_atom_site_fract_y
_atom_site_fract_z
Si Si1 0.461802 0.847402 0.614550
Si Si2 0.926452 0.848865 0.530462
Si Si3 0.640782 0.083208 0.806145
Si Si4 0.848954 0.489572 0.433992
Si Si5 0.762149 0.497592 0.677637
Si Si6 0.946940 0.151634 0.363137
Si Si7 0.321649 0.654430 0.110176
Si Si8 0.570883 0.595283 0.798812
O O1 0.486485 0.750000 0.632791
O O2 0.394428 0.855492 0.692909
O O3 0.513102 0.910512 0.686680
O O4 0.455089 0.867057 0.446851
O O5 0.901320 0.750000 0.513095
O O6 0.872760 0.917132 0.489205
O O7 0.949282 0.865471 0.692954
O O8 0.983841 0.865764 0.422729
O O9 0.709580 0.065544 0.741260
O O10 0.599321 0.998308 0.827791
O O11 0.646383 0.126690 0.960822
O O12 0.787395 0.461219 0.525637
O O13 0.824978 0.498600 0.272097
O O14 0.900833 0.414721 0.443731
O O15 0.735344 0.593379 0.654909
O O16 0.925331 0.250000 0.397719
O O17 0.293270 0.750000 0.095135
O O18 0.374787 0.655307 0.233056
#
# Coordination Sequence:
#
# PCOD8182166 Si02
#       8
#     8   8   8   8   8   8   8   8
#     4  12  24  40  63  93 123 156 204 257 313 374
#     4  10  23  42  66  97 131 169 214 266 325 385
#     4  11  24  44  64  89 123 164 208 260 316 377
#     4  12  23  43  67  93 130 175 216 266 317 385
#     4  11  25  42  63  92 127 168 220 257 311 385
#     4  10  23  42  66  97 132 169 215 268 326 385
#     4  11  23  43  68  92 125 167 212 269 324 376
#     4  11  24  42  64  91 125 162 206 257 319 385
#
# _framework density 20.963255
#
# number of rings (size 3 to 8) (size 9 to 14) (size 15 to 20)
#    0.000    1.000    2.500    4.500    3.500    3.000 
#    0.000    1.250    0.000    0.000    0.000    0.000 
#    0.000    0.000    0.000    0.000    0.000    0.000 
#
# Total GULP energy -396916.420923 kJ/mol
# GULP energy per Si atom -12403.638154 kJ/mol
# Density = 2.091554 g / cm^3
# Si number density = 20.963255 Si / 1000 Ang^3
#
#
#
# Elastic Constant Matrix: (Units=GPa)
#
#
# Indices 1 2 3 4 5 6 
#
# 1 83.0277 26.5289 40.6390 0.0000 0.0000 0.0000
# 2 26.5289 84.2014 40.8324 0.0000 0.0000 0.0000
# 3 40.6390 40.8324 115.1334 0.0000 0.0000 0.0000
# 4 0.0000 0.0000 0.0000 15.6018 0.0000 0.0000
# 5 0.0000 0.0000 0.0000 0.0000 45.1029 0.0000
# 6 0.0000 0.0000 0.0000 0.0000 0.0000 21.9812
#
#
#
# Elastic Compliance Matrix: (Units=1/GPa)
#
#
# Indices 1 2 3 4 5 6 
#
# 1 0.015020 -0.002610 -0.004376 0.000000 0.000000 0.000000
# 2 -0.002610 0.014797 -0.004326 0.000000 0.000000 0.000000
# 3 -0.004376 -0.004326 0.011765 0.000000 0.000000 0.000000
# 4 0.000000 0.000000 0.000000 0.064095 0.000000 0.000000
# 5 0.000000 0.000000 0.000000 0.000000 0.022172 0.000000
# 6 0.000000 0.000000 0.000000 0.000000 0.000000 0.045494
#
#
# Mechanical properties :
#
#
# Convention : Reuss Voigt Hill
#
# Bulk Modulus (GPa) = 52.75315 55.37365 54.06340
# Shear Modulus (GPa) = 24.71758 28.16132 26.43945
#
# Velocity S-wave (km/s) = 3.43751 3.66917 3.55523
# Velocity P-wave (km/s) = 6.40114 6.66501 6.53441
#
# Compressibility (1/GPa) = 0.01895622
#
# Stress axis : x y z
#
# Youngs Moduli (GPa) = 66.57770 67.58272 85.00134
#
# Poissons Ratio (x) = 0.17641 0.37196
# Poissons Ratio (y) = 0.17378 0.36775
# Poissons Ratio (z) = 0.29134 0.29239
#
# Static dielectric constant tensor:
#      x y z
#    x 3.786810 0.000000 0.000000 
#    y 0.000000 3.949840 0.000000 
#    z 0.000000 0.000000 3.910770 
# 
# 
# High freq. dielectric constant tensor:
#      x y z
#    x 1.822910 0.000000 0.000000 
#    y 0.000000 1.819410 0.000000 
#    z 0.000000 0.000000 1.836980 
# 
# From -- ./inp_files/4094.got.cif
#   From: 2010.03.12/outbox.cif.g09.slc.cpg/sg39_3_cif.got.tgz:4094.got - 2010.04.14 02:53:20.
