data_PCOD8182678
_publ_section_title
;
Structure prediction by ZEFSAII (Michael W. Deem and Ramdas Pophale) SiO2 
 PCOD8182678
Probable space group: A M A 2
;
_chemical_formula_sum "Si O2"
_cell_formula_units_Z 64
_cell_length_a 9.112057
_cell_length_b 29.904226
_cell_length_c 14.373992
_cell_angle_alpha 90.000000
_cell_angle_beta 90.000000
_cell_angle_gamma 90.000000
_cell_volume 3916.754876
_symmetry_space_group_name_H-M "A M A 2"
_symmetry_group_IT_number 40
_symmetry_cell_setting 'orthorhombic'
loop_
_space_group_symop_operation_xyz
x,y,z
-x,-y,z
1/2-x,y,z
1/2+x,-y,z
x,1/2+y,1/2+z
-x,1/2-y,1/2+z
1/2-x,1/2+y,1/2+z
1/2+x,1/2-y,1/2+z
loop_
_atom_site_type_symbol
_atom_site_label
_atom_site_fract_x
_atom_site_fract_y
_atom_site_fract_z
Si Si1 0.577911 0.544201 0.161930
Si Si2 0.575884 0.637581 0.075046
Si Si3 0.419457 0.361320 0.413146
Si Si4 0.076824 0.282794 0.545628
Si Si5 0.082767 0.957728 0.874238
Si Si6 0.917154 0.721803 0.754027
Si Si7 0.083794 0.175838 0.743790
Si Si8 0.075183 0.695643 0.933191
O O1 0.500000 0.500000 0.121177
O O2 0.750000 0.536849 0.154446
O O3 0.529786 0.586967 0.100915
O O4 0.528294 0.552298 0.268820
O O5 0.750000 0.642962 0.067211
O O6 0.515451 0.671417 0.152701
O O7 0.498331 0.651828 0.979020
O O8 0.250000 0.351364 0.386040
O O9 0.470089 0.329296 0.496806
O O10 0.439954 0.413730 0.438800
O O11 0.519984 0.354747 0.324193
O O12 0.250000 0.277393 0.552319
O O13 0.015188 0.284804 0.650546
O O14 0.018102 0.240176 0.487454
O O15 0.250000 0.972173 0.871052
O O16 0.000000 0.000000 0.918994
O O17 0.750000 0.703528 0.760497
O O18 0.921118 0.773754 0.779658
O O19 0.020408 0.696301 0.826879
O O20 0.250000 0.161148 0.720081
O O21 0.250000 0.691506 0.935237
#
# Coordination Sequence:
#
# PCOD8182678 Si02
#       8
#     8   8   8   8   8   8   8   8
#     4   9  18  31  47  69  97 128 162 199 242 294
#     4  11  21  34  50  71 100 135 168 201 244 294
#     4  10  18  32  50  69  95 133 170 201 241 293
#     4   9  18  32  50  69  95 127 166 205 240 287
#     4   9  17  29  45  68  96 126 162 197 241 295
#     4  10  20  35  48  68  99 131 165 205 244 284
#     4  11  20  29  46  72 101 131 167 207 241 284
#     4  11  21  34  51  74  98 129 167 204 244 288
#
# _framework density 16.340057999999999
#
# number of rings (size 3 to 8) (size 9 to 14) (size 15 to 20)
#    0.000    2.000    3.750    1.125    0.000    2.000 
#    0.000    0.625    0.000    0.000    0.000    0.875 
#    0.000    2.000    0.000    0.000    0.000    0.000 
#
# Total GULP energy -396730.095689 kJ/mol
# GULP energy per Si atom -12397.815490 kJ/mol
# Density = 1.630287 g / cm^3
# Si number density = 16.340058 Si / 1000 Ang^3
#
#
#
# Elastic Constant Matrix: (Units=GPa)
#
#
# Indices 1 2 3 4 5 6 
#
# 1 55.5909 31.0735 23.1998 0.0000 0.0000 0.0000
# 2 31.0735 91.4900 25.8727 0.0000 0.0000 0.0000
# 3 23.1998 25.8727 71.7670 0.0000 0.0000 0.0000
# 4 0.0000 0.0000 0.0000 23.2395 0.0000 0.0000
# 5 0.0000 0.0000 0.0000 0.0000 21.6941 0.0000
# 6 0.0000 0.0000 0.0000 0.0000 0.0000 25.3757
#
#
#
# Elastic Compliance Matrix: (Units=1/GPa)
#
#
# Indices 1 2 3 4 5 6 
#
# 1 0.023915 -0.006610 -0.005348 0.000000 0.000000 0.000000
# 2 -0.006610 0.013998 -0.002910 0.000000 0.000000 0.000000
# 3 -0.005348 -0.002910 0.016712 0.000000 0.000000 0.000000
# 4 0.000000 0.000000 0.000000 0.043030 0.000000 0.000000
# 5 0.000000 0.000000 0.000000 0.000000 0.046096 0.000000
# 6 0.000000 0.000000 0.000000 0.000000 0.000000 0.039408
#
#
# Mechanical properties :
#
#
# Convention : Reuss Voigt Hill
#
# Bulk Modulus (GPa) = 40.17740 42.12665 41.15203
# Shear Modulus (GPa) = 22.60494 23.30864 22.95679
#
# Velocity S-wave (km/s) = 3.72345 3.78096 3.75232
# Velocity P-wave (km/s) = 6.56712 6.70060 6.63420
#
# Compressibility (1/GPa) = 0.02488961
#
# Stress axis : x y z
#
# Youngs Moduli (GPa) = 41.81427 71.43855 59.83824
#
# Poissons Ratio (x) = 0.47222 0.32001
# Poissons Ratio (y) = 0.27640 0.17411
# Poissons Ratio (z) = 0.22362 0.20786
#
# Static dielectric constant tensor:
#      x y z
#    x 3.026940 0.000000 0.000000 
#    y 0.000000 3.097880 0.000000 
#    z 0.000000 0.000000 2.993890 
# 
# 
# High freq. dielectric constant tensor:
#      x y z
#    x 1.624580 0.000000 0.000000 
#    y 0.000000 1.620120 0.000000 
#    z 0.000000 0.000000 1.598930 
# 
# From -- ./inp_files/10630.got.cif
#   From: 2010.03.12/outbox.cif.g09.slc.cpg/sg40_6_cif.got.tgz:10630.got - 2010.04.14 01:38:03.
