data_PCOD8182787
_publ_section_title
;
Structure prediction by ZEFSAII (Michael W. Deem and Ramdas Pophale) SiO2 
 PCOD8182787
Probable space group: A M A 2
;
_chemical_formula_sum "Si O2"
_cell_formula_units_Z 64
_cell_length_a 17.816077
_cell_length_b 14.839121
_cell_length_c 12.592585
_cell_angle_alpha 90.000000
_cell_angle_beta 90.000000
_cell_angle_gamma 90.000000
_cell_volume 3329.163682
_symmetry_space_group_name_H-M "A M A 2"
_symmetry_group_IT_number 40
_symmetry_cell_setting 'orthorhombic'
loop_
_space_group_symop_operation_xyz
x,y,z
-x,-y,z
1/2-x,y,z
1/2+x,-y,z
x,1/2+y,1/2+z
-x,1/2-y,1/2+z
1/2-x,1/2+y,1/2+z
1/2+x,1/2-y,1/2+z
loop_
_atom_site_type_symbol
_atom_site_label
_atom_site_fract_x
_atom_site_fract_y
_atom_site_fract_z
Si Si1 0.056452 0.341614 0.834890
Si Si2 0.607816 0.671180 0.367124
Si Si3 0.936850 0.331479 0.451194
Si Si4 0.837006 0.118264 0.164437
Si Si5 0.163589 0.998891 0.963358
Si Si6 0.664649 0.296612 0.038484
Si Si7 0.524620 0.403906 0.042523
Si Si8 0.952079 0.251468 0.670821
O O1 0.095168 0.251075 0.881405
O O2 0.119703 0.400869 0.775067
O O3 0.994872 0.319737 0.747073
O O4 0.016840 0.396670 0.929058
O O5 0.524965 0.659936 0.421261
O O6 0.653026 0.578062 0.374740
O O7 0.653621 0.749665 0.425058
O O8 0.608478 0.699272 0.243401
O O9 0.890835 0.421183 0.426435
O O10 0.919736 0.310907 0.574916
O O11 0.750000 0.108736 0.188113
O O12 0.857265 0.219860 0.125532
O O13 0.860851 0.044269 0.076499
O O14 0.250000 0.031402 0.964975
O O15 0.750000 0.328226 0.053819
O O16 0.614483 0.388003 0.038157
O O17 0.500000 0.500000 0.090830
O O18 0.503542 0.325583 0.122562
#
# Coordination Sequence:
#
# PCOD8182787 Si02
#       8
#     8   8   8   8   8   8   8   8
#     4  10  19  35  57  81 111 147 191 220 279 340
#     4  10  18  35  60  84 106 149 191 230 275 335
#     4  10  20  33  56  83 115 142 182 234 287 332
#     4   9  18  34  59  81 108 148 193 234 275 330
#     4  10  21  36  54  85 115 143 188 243 281 326
#     4  10  18  36  61  85 109 142 186 235 281 330
#     4  11  22  36  56  88 115 145 185 237 273 326
#     4  10  18  35  58  80 113 143 193 221 275 339
#
# _framework density 19.224046999999999
#
# number of rings (size 3 to 8) (size 9 to 14) (size 15 to 20)
#    0.000    2.000    5.000    2.250    0.000    3.500 
#    0.000    1.875    0.000    3.000    0.000    0.000 
#    0.000    0.000    0.000    0.000    0.000    0.000 
#
# Total GULP energy -396548.259446 kJ/mol
# GULP energy per Si atom -12392.133108 kJ/mol
# Density = 1.918029 g / cm^3
# Si number density = 19.224047 Si / 1000 Ang^3
#
#
#
# Elastic Constant Matrix: (Units=GPa)
#
#
# Indices 1 2 3 4 5 6 
#
# 1 51.3652 16.4909 -1.0205 0.0000 0.0000 0.0000
# 2 16.4909 55.5097 -24.2210 0.0000 0.0000 0.0000
# 3 -1.0205 -24.2210 57.0337 0.0000 0.0000 0.0000
# 4 0.0000 0.0000 0.0000 6.2184 0.0000 0.0000
# 5 0.0000 0.0000 0.0000 0.0000 19.4067 0.0000
# 6 0.0000 0.0000 0.0000 0.0000 0.0000 21.6758
#
#
#
# Elastic Compliance Matrix: (Units=1/GPa)
#
#
# Indices 1 2 3 4 5 6 
#
# 1 0.021908 -0.007779 -0.002912 0.000000 0.000000 0.000000
# 2 -0.007779 0.024874 0.010424 0.000000 0.000000 0.000000
# 3 -0.002912 0.010424 0.021908 0.000000 0.000000 0.000000
# 4 0.000000 0.000000 0.000000 0.160813 0.000000 0.000000
# 5 0.000000 0.000000 0.000000 0.000000 0.051529 0.000000
# 6 0.000000 0.000000 0.000000 0.000000 0.000000 0.046134
#
#
# Mechanical properties :
#
#
# Convention : Reuss Voigt Hill
#
# Bulk Modulus (GPa) = 14.67160 16.26750 15.46955
# Shear Modulus (GPa) = 14.26867 20.97080 17.61973
#
# Velocity S-wave (km/s) = 2.72735 3.30640 3.03074
# Velocity P-wave (km/s) = 4.19122 4.80175 4.50684
#
# Compressibility (1/GPa) = 0.06815888
#
# Stress axis : x y z
#
# Youngs Moduli (GPa) = 45.64536 40.20200 45.64458
#
# Poissons Ratio (x) = 0.31273 0.13290
# Poissons Ratio (y) = 0.35507 -0.47582
# Poissons Ratio (z) = 0.13290 -0.41908
#
# Static dielectric constant tensor:
#      x y z
#    x 3.407750 0.000000 0.000000 
#    y 0.000000 3.390680 0.000000 
#    z 0.000000 0.000000 3.780340 
# 
# 
# High freq. dielectric constant tensor:
#      x y z
#    x 1.729840 0.000000 0.000000 
#    y 0.000000 1.731410 0.000000 
#    z 0.000000 0.000000 1.746400 
# 
# From -- ./inp_files/13132.got.cif
#   From: 2010.03.12/outbox.cif.g09.slc.cpg/sg40_7_cif.got.tgz:13132.got - 2010.04.14 01:38:03.
