data_PCOD8182091
_publ_section_title
;
Structure prediction by ZEFSAII (Michael W. Deem and Ramdas Pophale) SiO2 
 PCOD8182091
Probable space group: A B M 2
;
_chemical_formula_sum "Si O2"
_cell_formula_units_Z 64
_cell_length_a 12.701404
_cell_length_b 18.745924
_cell_length_c 12.477932
_cell_angle_alpha 90.000000
_cell_angle_beta 90.000000
_cell_angle_gamma 90.000000
_cell_volume 2970.990045
_symmetry_space_group_name_H-M "A B M 2"
_symmetry_group_IT_number 39
_symmetry_cell_setting 'orthorhombic'
loop_
_space_group_symop_operation_xyz
x,y,z
-x,-y,z
-x,1/2+y,z
x,1/2-y,z
x,1/2+y,1/2+z
-x,1/2-y,1/2+z
-x,y,1/2+z
x,-y,1/2+z
loop_
_atom_site_type_symbol
_atom_site_label
_atom_site_fract_x
_atom_site_fract_y
_atom_site_fract_z
Si Si1 0.189132 0.411970 0.153470
Si Si2 0.531274 0.672292 0.800374
Si Si3 0.756631 0.436623 0.068521
Si Si4 0.614088 0.827894 0.108524
Si Si5 0.912408 0.666488 0.955519
Si Si6 0.080507 0.566727 0.879479
Si Si7 0.235896 0.166892 0.754760
Si Si8 0.531532 0.420239 0.974365
O O1 0.239839 0.487545 0.125436
O O2 0.285409 0.357939 0.172161
O O3 0.119217 0.421502 0.258850
O O4 0.117820 0.380176 0.058682
O O5 0.534803 0.750000 0.857936
O O6 0.485440 0.681835 0.683420
O O7 0.648101 0.640722 0.787752
O O8 0.451732 0.618988 0.861283
O O9 0.803814 0.378106 0.151399
O O10 0.820943 0.443565 0.958355
O O11 0.635821 0.414581 0.045552
O O12 0.645448 0.750000 0.060289
O O13 0.574195 0.881167 0.017200
O O14 0.917151 0.750000 0.984864
O O15 0.833814 0.650314 0.858121
O O16 0.025768 0.639842 0.916575
O O17 0.000000 0.500000 0.886146
O O18 0.232694 0.250000 0.722572
O O19 0.500000 0.500000 0.951485
#
# Coordination Sequence:
#
# PCOD8182091 Si02
#       8
#     8   8   8   8   8   8   8   8
#     4  12  26  46  73 103 144 187 237 298 360 436
#     4  10  22  40  66  96 138 187 226 275 340 414
#     4  12  26  44  72 107 145 186 236 296 354 429
#     4  11  23  44  68  99 141 183 225 277 346 414
#     4  11  26  47  74 104 135 184 242 295 360 429
#     4  12  28  48  73 105 139 187 239 305 370 425
#     4  10  23  44  71 105 144 188 238 292 352 425
#     4  12  24  40  65 104 141 183 227 276 338 416
#
# _framework density 21.541640000000001
#
# number of rings (size 3 to 8) (size 9 to 14) (size 15 to 20)
#    0.000    0.750    3.750    3.000    3.500    4.500 
#    0.000    0.000    0.000    0.000    0.000    0.000 
#    0.000    0.000    0.000    0.000    0.000    0.000 
#
# Total GULP energy -396784.232204 kJ/mol
# GULP energy per Si atom -12399.507256 kJ/mol
# Density = 2.149261 g / cm^3
# Si number density = 21.541640 Si / 1000 Ang^3
#
#
#
# Elastic Constant Matrix: (Units=GPa)
#
#
# Indices 1 2 3 4 5 6 
#
# 1 90.2821 31.4086 28.5360 0.0000 0.0000 0.0000
# 2 31.4086 135.8051 53.1551 0.0000 0.0000 0.0000
# 3 28.5360 53.1551 115.5277 0.0000 0.0000 0.0000
# 4 0.0000 0.0000 0.0000 30.7573 0.0000 0.0000
# 5 0.0000 0.0000 0.0000 0.0000 39.7932 0.0000
# 6 0.0000 0.0000 0.0000 0.0000 0.0000 -18.3933
#
#
#
# Elastic Compliance Matrix: (Units=1/GPa)
#
#
# Indices 1 2 3 4 5 6 
#
# 1 0.012464 -0.002046 -0.002137 0.000000 0.000000 0.000000
# 2 -0.002046 0.009317 -0.003781 0.000000 0.000000 0.000000
# 3 -0.002137 -0.003781 0.010924 0.000000 0.000000 0.000000
# 4 0.000000 0.000000 0.000000 0.032513 0.000000 0.000000
# 5 0.000000 0.000000 0.000000 0.000000 0.025130 0.000000
# 6 0.000000 0.000000 0.000000 0.000000 0.000000 -0.054368
#
#
# Mechanical properties :
#
#
# Convention : Reuss Voigt Hill
#
# Bulk Modulus (GPa) = 59.61265 63.09046 61.35155
# Shear Modulus (GPa) = 86.95662 25.66577 56.31119
#
# Velocity S-wave (km/s) = 6.36038 3.45548 5.11834
# Velocity P-wave (km/s) = 9.03728 6.72843 7.96694
#
# Compressibility (1/GPa) = 0.01677496
#
# Stress axis : x y z
#
# Youngs Moduli (GPa) = 80.23281 107.33375 91.54456
#
# Poissons Ratio (x) = 0.21961 0.19565
# Poissons Ratio (y) = 0.16416 0.34616
# Poissons Ratio (z) = 0.17147 0.40586
#
# Static dielectric constant tensor:
#      x y z
#    x 3.846410 0.000000 0.000000 
#    y 0.000000 4.170880 0.000000 
#    z 0.000000 0.000000 3.849940 
# 
# 
# High freq. dielectric constant tensor:
#      x y z
#    x 1.845900 0.000000 0.000000 
#    y 0.000000 1.859450 0.000000 
#    z 0.000000 0.000000 1.850480 
# 
# From -- ./inp_files/6647.got.cif
#   From: 2010.03.12/outbox.cif.g09.slc.cpg/sg39_4_cif.got.tgz:6647.got - 2010.04.14 02:53:20.
