data_PCOD8182777
_publ_section_title
;
Structure prediction by ZEFSAII (Michael W. Deem and Ramdas Pophale) SiO2 
 PCOD8182777
Probable space group: A M A 2
;
_chemical_formula_sum "Si O2"
_cell_formula_units_Z 64
_cell_length_a 8.882633
_cell_length_b 15.497159
_cell_length_c 23.867111
_cell_angle_alpha 90.000000
_cell_angle_beta 90.000000
_cell_angle_gamma 90.000000
_cell_volume 3285.440911
_symmetry_space_group_name_H-M "A M A 2"
_symmetry_group_IT_number 40
_symmetry_cell_setting 'orthorhombic'
loop_
_space_group_symop_operation_xyz
x,y,z
-x,-y,z
1/2-x,y,z
1/2+x,-y,z
x,1/2+y,1/2+z
-x,1/2-y,1/2+z
1/2-x,1/2+y,1/2+z
1/2+x,1/2-y,1/2+z
loop_
_atom_site_type_symbol
_atom_site_label
_atom_site_fract_x
_atom_site_fract_y
_atom_site_fract_z
Si Si1 0.927757 0.148071 0.626570
Si Si2 0.572759 0.088739 0.749874
Si Si3 0.929050 0.411263 0.744910
Si Si4 0.572315 0.746647 0.445742
Si Si5 0.071855 0.747829 0.817653
Si Si6 0.572392 0.913464 0.515932
Si Si7 0.071495 0.589150 0.508660
Si Si8 0.428254 0.656677 0.627138
O O1 0.750000 0.143880 0.615005
O O2 0.971481 0.106533 0.685734
O O3 0.989334 0.245832 0.625754
O O4 0.014162 0.095438 0.579160
O O5 0.750000 0.081360 0.757122
O O6 0.507563 0.165597 0.788678
O O7 0.500000 0.000000 0.770706
O O8 0.750000 0.418060 0.746774
O O9 0.990253 0.335954 0.785339
O O10 0.989186 0.391951 0.682096
O O11 0.000000 0.500000 0.766474
O O12 0.750000 0.730550 0.451417
O O13 0.520920 0.757902 0.381777
O O14 0.520961 0.831836 0.479033
O O15 0.484315 0.664988 0.469018
O O16 0.250000 0.748875 0.811652
O O17 0.750000 0.923697 0.515836
O O18 0.500000 0.000000 0.489549
O O19 0.250000 0.583179 0.505127
O O20 0.015044 0.606823 0.572047
O O21 0.000000 0.500000 0.487501
O O22 0.250000 0.660934 0.629722
#
# Coordination Sequence:
#
# PCOD8182777 Si02
#       8
#     8   8   8   8   8   8   8   8
#     4  10  18  34  59  84 111 144 182 224 276 335
#     4  10  20  35  58  83 109 142 179 222 273 329
#     4  10  19  35  58  84 112 145 182 222 273 330
#     4  10  22  40  59  81 109 146 193 236 275 323
#     4   9  19  38  60  78 106 148 186 224 273 326
#     4  11  23  37  56  83 114 148 185 229 278 332
#     4  11  22  37  59  85 115 149 183 227 278 332
#     4   9  17  32  57  84 111 145 181 219 274 335
#
# _framework density 19.479880999999999
#
# number of rings (size 3 to 8) (size 9 to 14) (size 15 to 20)
#    0.000    2.000    2.500    1.500    0.000    3.000 
#    0.000    4.375    0.000    0.000    0.000    0.000 
#    0.000    0.000    0.000    0.000    0.000    0.000 
#
# Total GULP energy -396882.712357 kJ/mol
# GULP energy per Si atom -12402.584761 kJ/mol
# Density = 1.943554 g / cm^3
# Si number density = 19.479881 Si / 1000 Ang^3
#
#
#
# Elastic Constant Matrix: (Units=GPa)
#
#
# Indices 1 2 3 4 5 6 
#
# 1 35.6383 36.9332 28.8136 0.0000 0.0000 0.0000
# 2 36.9332 179.9762 66.2516 0.0000 0.0000 0.0000
# 3 28.8136 66.2516 129.4655 0.0000 0.0000 0.0000
# 4 0.0000 0.0000 0.0000 12.1762 0.0000 0.0000
# 5 0.0000 0.0000 0.0000 0.0000 20.8404 0.0000
# 6 0.0000 0.0000 0.0000 0.0000 0.0000 32.1746
#
#
#
# Elastic Compliance Matrix: (Units=1/GPa)
#
#
# Indices 1 2 3 4 5 6 
#
# 1 0.038677 -0.005875 -0.005601 0.000000 0.000000 0.000000
# 2 -0.005875 0.007738 -0.002652 0.000000 0.000000 0.000000
# 3 -0.005601 -0.002652 0.010328 0.000000 0.000000 0.000000
# 4 0.000000 0.000000 0.000000 0.082128 0.000000 0.000000
# 5 0.000000 0.000000 0.000000 0.000000 0.047984 0.000000
# 6 0.000000 0.000000 0.000000 0.000000 0.000000 0.031080
#
#
# Mechanical properties :
#
#
# Convention : Reuss Voigt Hill
#
# Bulk Modulus (GPa) = 35.10553 67.67521 51.39037
# Shear Modulus (GPa) = 19.55511 27.24368 23.39939
#
# Velocity S-wave (km/s) = 3.17181 3.74378 3.46960
# Velocity P-wave (km/s) = 5.61021 7.31467 6.51839
#
# Compressibility (1/GPa) = 0.02848554
#
# Stress axis : x y z
#
# Youngs Moduli (GPa) = 25.85524 129.22745 96.82385
#
# Poissons Ratio (x) = 0.75921 0.54235
# Poissons Ratio (y) = 0.15190 0.25682
# Poissons Ratio (z) = 0.14483 0.34276
#
# Static dielectric constant tensor:
#      x y z
#    x 3.172840 0.000000 0.000000 
#    y 0.000000 3.743150 0.000000 
#    z 0.000000 0.000000 3.668690 
# 
# 
# High freq. dielectric constant tensor:
#      x y z
#    x 1.726290 0.000000 0.000000 
#    y 0.000000 1.777270 0.000000 
#    z 0.000000 0.000000 1.757680 
# 
# From -- ./inp_files/24231.got.cif
#   From: 2010.03.12/outbox.cif.g09.slc.cpg/sg40_13_cif.got.tgz:24231.got - 2010.04.14 01:38:03.
