data_PCOD8182018
_publ_section_title
;
Structure prediction by ZEFSAII (Michael W. Deem and Ramdas Pophale) SiO2 
 PCOD8182018
Probable space group: A B M 2
;
_chemical_formula_sum "Si O2"
_cell_formula_units_Z 52
_cell_length_a 16.496841
_cell_length_b 17.661700
_cell_length_c 9.140657
_cell_angle_alpha 90.000000
_cell_angle_beta 90.000000
_cell_angle_gamma 90.000000
_cell_volume 2663.242451
_symmetry_space_group_name_H-M "A B M 2"
_symmetry_group_IT_number 39
_symmetry_cell_setting 'orthorhombic'
loop_
_space_group_symop_operation_xyz
x,y,z
-x,-y,z
-x,1/2+y,z
x,1/2-y,z
x,1/2+y,1/2+z
-x,1/2-y,1/2+z
-x,y,1/2+z
x,-y,1/2+z
loop_
_atom_site_type_symbol
_atom_site_label
_atom_site_fract_x
_atom_site_fract_y
_atom_site_fract_z
Si Si1 0.592716 0.384619 0.811180
Si Si2 0.342682 0.955952 0.259331
Si Si3 0.893735 0.056104 0.915349
Si Si4 0.239459 0.544743 0.535803
Si Si5 0.543638 0.836779 0.615570
Si Si6 0.227259 0.162629 0.279425
Si Si7 0.000000 0.500000 0.156787
O O1 0.596468 0.473525 0.777089
O O2 0.547230 0.343440 0.678157
O O3 0.681692 0.349673 0.837778
O O4 0.539042 0.370853 0.953919
O O5 0.306545 0.934557 0.416385
O O6 0.391166 0.882774 0.209269
O O7 0.272413 0.978989 0.144188
O O8 0.835978 0.129399 0.899383
O O9 0.936106 0.043621 0.758497
O O10 0.840103 0.982591 0.951429
O O11 0.957563 0.062799 0.049745
O O12 0.217525 0.620073 0.625167
O O13 0.571741 0.750000 0.613385
O O14 0.207188 0.250000 0.256681
#
# Coordination Sequence:
#
# PCOD8182018 Si02
#       7
#     8   8   8   8   8   8   4
#     4  11  25  42  61  84 122 171 217 259 318 377
#     4  11  22  39  63  88 115 167 210 266 301 379
#     4  11  19  40  64  96 122 162 202 247 297 377
#     4  11  20  39  66  91 120 160 214 248 304 373
#     4  12  25  40  58  87 123 160 211 274 327 365
#     4  11  23  40  65  94 129 163 206 265 319 364
#     4  10  22  34  70  98 120 160 208 242 294 378
#
# _framework density 19.525072000000002
#
# number of rings (size 3 to 8) (size 9 to 14) (size 15 to 20)
#    0.000    0.923    6.154    1.846    4.308    1.846 
#    0.000    0.769    0.000    2.769    0.000    0.000 
#    0.000    0.000    0.000    0.000    0.000    0.000 
#
# Total GULP energy -322434.712229 kJ/mol
# GULP energy per Si atom -12401.335086 kJ/mol
# Density = 1.948063 g / cm^3
# Si number density = 19.525072 Si / 1000 Ang^3
#
#
#
# Elastic Constant Matrix: (Units=GPa)
#
#
# Indices 1 2 3 4 5 6 
#
# 1 96.9148 26.6745 52.9988 0.0000 0.0000 0.0000
# 2 26.6745 87.1024 34.1228 0.0000 0.0000 0.0000
# 3 52.9988 34.1228 122.4756 0.0000 0.0000 0.0000
# 4 0.0000 0.0000 0.0000 20.2340 0.0000 0.0000
# 5 0.0000 0.0000 0.0000 0.0000 45.9146 0.0000
# 6 0.0000 0.0000 0.0000 0.0000 0.0000 18.6138
#
#
#
# Elastic Compliance Matrix: (Units=1/GPa)
#
#
# Indices 1 2 3 4 5 6 
#
# 1 0.013859 -0.002127 -0.005405 0.000000 0.000000 0.000000
# 2 -0.002127 0.013214 -0.002761 0.000000 0.000000 0.000000
# 3 -0.005405 -0.002761 0.011273 0.000000 0.000000 0.000000
# 4 0.000000 0.000000 0.000000 0.049422 0.000000 0.000000
# 5 0.000000 0.000000 0.000000 0.000000 0.021780 0.000000
# 6 0.000000 0.000000 0.000000 0.000000 0.000000 0.053724
#
#
# Mechanical properties :
#
#
# Convention : Reuss Voigt Hill
#
# Bulk Modulus (GPa) = 56.30477 59.34275 57.82376
# Shear Modulus (GPa) = 26.34670 29.79892 28.07281
#
# Velocity S-wave (km/s) = 3.67737 3.91088 3.79592
# Velocity P-wave (km/s) = 6.85059 7.13109 6.99224
#
# Compressibility (1/GPa) = 0.01776048
#
# Stress axis : x y z
#
# Youngs Moduli (GPa) = 72.15307 75.67854 88.70785
#
# Poissons Ratio (x) = 0.16097 0.47945
# Poissons Ratio (y) = 0.15347 0.24493
# Poissons Ratio (z) = 0.38997 0.20895
#
# Static dielectric constant tensor:
#      x y z
#    x 3.720090 0.000000 0.000000 
#    y 0.000000 3.336540 0.000000 
#    z 0.000000 0.000000 3.878340 
# 
# 
# High freq. dielectric constant tensor:
#      x y z
#    x 1.767640 0.000000 0.000000 
#    y 0.000000 1.730240 0.000000 
#    z 0.000000 0.000000 1.777900 
# 
# From -- ./inp_files/3777.got.cif
#   From: 2010.03.12/outbox.cif.g09.slc.cpg/sg39_2_cif.got.tgz:3777.got - 2010.04.14 02:53:20.
