data_PCOD8182601
_publ_section_title
;
Structure prediction by ZEFSAII (Michael W. Deem and Ramdas Pophale) SiO2 
 PCOD8182601
Probable space group: A M A 2
;
_chemical_formula_sum "Si O2"
_cell_formula_units_Z 64
_cell_length_a 9.303107
_cell_length_b 25.681298
_cell_length_c 13.933521
_cell_angle_alpha 90.000000
_cell_angle_beta 90.000000
_cell_angle_gamma 90.000000
_cell_volume 3328.939197
_symmetry_space_group_name_H-M "A M A 2"
_symmetry_group_IT_number 40
_symmetry_cell_setting 'orthorhombic'
loop_
_space_group_symop_operation_xyz
x,y,z
-x,-y,z
1/2-x,y,z
1/2+x,-y,z
x,1/2+y,1/2+z
-x,1/2-y,1/2+z
1/2-x,1/2+y,1/2+z
1/2+x,1/2-y,1/2+z
loop_
_atom_site_type_symbol
_atom_site_label
_atom_site_fract_x
_atom_site_fract_y
_atom_site_fract_z
Si Si1 0.586915 0.732026 0.289580
Si Si2 0.588206 0.949080 0.426657
Si Si3 0.405762 0.326899 0.776887
Si Si4 0.086343 0.086986 0.208067
Si Si5 0.593389 0.139258 0.480180
Si Si6 0.921884 0.550266 0.532395
Si Si7 0.084356 0.755200 0.568371
Si Si8 0.583795 0.164650 0.966677
O O1 0.750000 0.751160 0.308134
O O2 0.473945 0.775212 0.322418
O O3 0.559312 0.724829 0.176829
O O4 0.555656 0.680994 0.355107
O O5 0.750000 0.958232 0.460251
O O6 0.583204 0.935512 0.314492
O O7 0.523261 0.905500 0.499126
O O8 0.500000 0.000000 0.447817
O O9 0.250000 0.316455 0.726849
O O10 0.516802 0.354744 0.703959
O O11 0.379827 0.364542 0.866391
O O12 0.250000 0.090448 0.169505
O O13 0.987603 0.051662 0.139777
O O14 0.750000 0.129885 0.531142
O O15 0.529405 0.195347 0.508079
O O16 0.750000 0.541938 0.536058
O O17 0.965006 0.604282 0.478594
O O18 0.000000 0.500000 0.482197
O O19 0.250000 0.742650 0.546796
O O20 0.995869 0.703695 0.540333
O O21 0.750000 0.169060 0.993611
#
# Coordination Sequence:
#
# PCOD8182601 Si02
#       8
#     8   8   8   8   8   8   8   8
#     4  10  20  34  54  78 108 143 181 223 272 327
#     4  10  20  32  49  73 102 138 178 219 266 322
#     4  10  18  30  49  75 108 142 176 216 263 316
#     4  10  20  33  51  77 108 143 182 222 271 328
#     4   9  18  32  49  71 102 137 172 213 259 311
#     4  11  23  38  55  77 106 143 187 233 284 335
#     4  10  20  35  56  82 109 143 183 224 275 332
#     4  10  22  38  56  81 113 147 184 230 281 335
#
# _framework density 19.225344
#
# number of rings (size 3 to 8) (size 9 to 14) (size 15 to 20)
#    0.000    2.000    1.250    2.625    0.000    7.000 
#    0.000    0.000    0.000    0.750    0.000    1.750 
#    0.000    0.000    0.000    0.000    0.000    0.000 
#
# Total GULP energy -396484.513812 kJ/mol
# GULP energy per Si atom -12390.141057 kJ/mol
# Density = 1.918159 g / cm^3
# Si number density = 19.225344 Si / 1000 Ang^3
#
#
#
# Elastic Constant Matrix: (Units=GPa)
#
#
# Indices 1 2 3 4 5 6 
#
# 1 124.8745 79.7094 24.0273 0.0000 0.0000 0.0000
# 2 79.7094 154.3223 36.2721 0.0000 0.0000 0.0000
# 3 24.0273 36.2721 53.9463 0.0000 0.0000 0.0000
# 4 0.0000 0.0000 0.0000 25.9080 0.0000 0.0000
# 5 0.0000 0.0000 0.0000 0.0000 16.0444 0.0000
# 6 0.0000 0.0000 0.0000 0.0000 0.0000 36.0751
#
#
#
# Elastic Compliance Matrix: (Units=1/GPa)
#
#
# Indices 1 2 3 4 5 6 
#
# 1 0.012036 -0.005887 -0.001402 0.000000 0.000000 0.000000
# 2 -0.005887 0.010576 -0.004489 0.000000 0.000000 0.000000
# 3 -0.001402 -0.004489 0.022180 0.000000 0.000000 0.000000
# 4 0.000000 0.000000 0.000000 0.038598 0.000000 0.000000
# 5 0.000000 0.000000 0.000000 0.000000 0.062327 0.000000
# 6 0.000000 0.000000 0.000000 0.000000 0.000000 0.027720
#
#
# Mechanical properties :
#
#
# Convention : Reuss Voigt Hill
#
# Bulk Modulus (GPa) = 47.09255 68.12898 57.61077
# Shear Modulus (GPa) = 24.50132 28.48111 26.49122
#
# Velocity S-wave (km/s) = 3.57379 3.85312 3.71608
# Velocity P-wave (km/s) = 6.44806 7.43703 6.96013
#
# Compressibility (1/GPa) = 0.02123478
#
# Stress axis : x y z
#
# Youngs Moduli (GPa) = 83.08694 94.55663 45.08628
#
# Poissons Ratio (x) = 0.55665 0.06323
# Poissons Ratio (y) = 0.48913 0.20238
# Poissons Ratio (z) = 0.11652 0.42445
#
# Static dielectric constant tensor:
#      x y z
#    x 3.791090 0.000000 0.000000 
#    y 0.000000 3.629400 0.000000 
#    z 0.000000 0.000000 3.249110 
# 
# 
# High freq. dielectric constant tensor:
#      x y z
#    x 1.758750 0.000000 0.000000 
#    y 0.000000 1.743860 0.000000 
#    z 0.000000 0.000000 1.708580 
# 
# From -- ./inp_files/15552.got.cif
#   From: 2010.03.12/outbox.cif.g09.slc.cpg/sg40_8_cif.got.tgz:15552.got - 2010.04.14 01:38:03.
