data_PCOD8182560
_publ_section_title
;
Structure prediction by ZEFSAII (Michael W. Deem and Ramdas Pophale) SiO2 
 PCOD8182560
Probable space group: A M A 2
;
_chemical_formula_sum "Si O2"
_cell_formula_units_Z 64
_cell_length_a 8.858461
_cell_length_b 23.342286
_cell_length_c 19.142375
_cell_angle_alpha 90.000000
_cell_angle_beta 90.000000
_cell_angle_gamma 90.000000
_cell_volume 3958.197710
_symmetry_space_group_name_H-M "A M A 2"
_symmetry_group_IT_number 40
_symmetry_cell_setting 'orthorhombic'
loop_
_space_group_symop_operation_xyz
x,y,z
-x,-y,z
1/2-x,y,z
1/2+x,-y,z
x,1/2+y,1/2+z
-x,1/2-y,1/2+z
1/2-x,1/2+y,1/2+z
1/2+x,1/2-y,1/2+z
loop_
_atom_site_type_symbol
_atom_site_label
_atom_site_fract_x
_atom_site_fract_y
_atom_site_fract_z
Si Si1 0.428374 0.938087 0.547150
Si Si2 0.077243 0.762412 0.686909
Si Si3 0.575271 0.259801 0.534091
Si Si4 0.423129 0.228696 0.334882
Si Si5 0.073572 0.167529 0.908179
Si Si6 0.573043 0.382500 0.181855
Si Si7 0.426565 0.655209 0.960475
Si Si8 0.072451 0.560382 0.327132
O O1 0.250000 0.943803 0.547242
O O2 0.479903 0.907137 0.617514
O O3 0.481043 0.901504 0.480020
O O4 0.500000 0.000000 0.541342
O O5 0.250000 0.784760 0.687587
O O6 0.045009 0.727171 0.615659
O O7 0.049058 0.719044 0.752028
O O8 0.967858 0.816443 0.693566
O O9 0.750000 0.243113 0.520342
O O10 0.532138 0.316206 0.488503
O O11 0.471872 0.206652 0.512165
O O12 0.250000 0.242759 0.351710
O O13 0.516369 0.283848 0.356529
O O14 0.469330 0.172917 0.380550
O O15 0.250000 0.164871 0.895990
O O16 0.008401 0.105866 0.884594
O O17 0.750000 0.387708 0.165694
O O18 0.526591 0.418533 0.249995
O O19 0.250000 0.642554 0.969874
O O20 0.250000 0.553287 0.333074
O O21 0.000000 0.500000 0.344636
#
# Coordination Sequence:
#
# PCOD8182560 Si02
#       8
#     8   8   8   8   8   8   8   8
#     4  12  24  37  51  69  94 128 166 203 241 285
#     4  10  18  29  47  73  99 128 160 192 235 284
#     4   9  17  29  48  69  93 123 157 197 240 285
#     4   9  18  30  47  70  97 125 156 195 237 282
#     4   9  17  31  46  65  91 121 159 199 239 282
#     4  11  21  33  47  68  98 131 164 198 233 276
#     4  10  19  32  48  69  96 126 160 198 239 284
#     4  10  21  33  46  65  91 126 163 198 234 274
#
# _framework density 16.168975
#
# number of rings (size 3 to 8) (size 9 to 14) (size 15 to 20)
#    0.000    2.000    2.500    2.250    0.000    3.000 
#    0.000    0.000    0.000    0.000    0.000    0.875 
#    0.000    2.000    0.000    0.000    0.000    0.000 
#
# Total GULP energy -396685.263578 kJ/mol
# GULP energy per Si atom -12396.414487 kJ/mol
# Density = 1.613217 g / cm^3
# Si number density = 16.168975 Si / 1000 Ang^3
#
#
#
# Elastic Constant Matrix: (Units=GPa)
#
#
# Indices 1 2 3 4 5 6 
#
# 1 56.7614 31.9405 32.9920 0.0000 0.0000 0.0000
# 2 31.9405 71.1237 49.3083 0.0000 0.0000 0.0000
# 3 32.9920 49.3083 121.2239 0.0000 0.0000 0.0000
# 4 0.0000 0.0000 0.0000 24.6823 0.0000 0.0000
# 5 0.0000 0.0000 0.0000 0.0000 13.7360 0.0000
# 6 0.0000 0.0000 0.0000 0.0000 0.0000 24.4087
#
#
#
# Elastic Compliance Matrix: (Units=1/GPa)
#
#
# Indices 1 2 3 4 5 6 
#
# 1 0.024351 -0.008832 -0.003035 0.000000 0.000000 0.000000
# 2 -0.008832 0.022785 -0.006864 0.000000 0.000000 0.000000
# 3 -0.003035 -0.006864 0.011867 0.000000 0.000000 0.000000
# 4 0.000000 0.000000 0.000000 0.040515 0.000000 0.000000
# 5 0.000000 0.000000 0.000000 0.000000 0.072801 0.000000
# 6 0.000000 0.000000 0.000000 0.000000 0.000000 0.040969
#
#
# Mechanical properties :
#
#
# Convention : Reuss Voigt Hill
#
# Bulk Modulus (GPa) = 46.42175 53.06561 49.74368
# Shear Modulus (GPa) = 19.38500 21.55664 20.47082
#
# Velocity S-wave (km/s) = 3.46627 3.65528 3.56203
# Velocity P-wave (km/s) = 6.69274 7.12077 6.91007
#
# Compressibility (1/GPa) = 0.02154163
#
# Stress axis : x y z
#
# Youngs Moduli (GPa) = 41.06527 43.88852 84.26518
#
# Poissons Ratio (x) = 0.38761 0.25575
# Poissons Ratio (y) = 0.36268 0.57842
# Poissons Ratio (z) = 0.12464 0.30126
#
# Static dielectric constant tensor:
#      x y z
#    x 3.179470 0.000000 0.000000 
#    y 0.000000 3.090020 0.000000 
#    z 0.000000 0.000000 3.381210 
# 
# 
# High freq. dielectric constant tensor:
#      x y z
#    x 1.627610 0.000000 0.000000 
#    y 0.000000 1.591650 0.000000 
#    z 0.000000 0.000000 1.622890 
# 
# From -- ./inp_files/19718.got.cif
#   From: 2010.03.12/outbox.cif.g09.slc.cpg/sg40_10_cif.got.tgz:19718.got - 2010.04.14 01:38:03.
