data_PCOD8182099
_publ_section_title
;
Structure prediction by ZEFSAII (Michael W. Deem and Ramdas Pophale) SiO2 
 PCOD8182099
Probable space group: A B M 2
;
_chemical_formula_sum "Si O2"
_cell_formula_units_Z 64
_cell_length_a 23.754029
_cell_length_b 8.729539
_cell_length_c 15.305707
_cell_angle_alpha 90.000000
_cell_angle_beta 90.000000
_cell_angle_gamma 90.000000
_cell_volume 3173.817769
_symmetry_space_group_name_H-M "A B M 2"
_symmetry_group_IT_number 39
_symmetry_cell_setting 'orthorhombic'
loop_
_space_group_symop_operation_xyz
x,y,z
-x,-y,z
-x,1/2+y,z
x,1/2-y,z
x,1/2+y,1/2+z
-x,1/2-y,1/2+z
-x,y,1/2+z
x,-y,1/2+z
loop_
_atom_site_type_symbol
_atom_site_label
_atom_site_fract_x
_atom_site_fract_y
_atom_site_fract_z
Si Si1 0.245276 0.929258 0.597320
Si Si2 0.060491 0.570005 0.500573
Si Si3 0.870583 0.073413 0.151136
Si Si4 0.143251 0.572479 0.347213
Si Si5 0.560824 0.569229 0.500811
Si Si6 0.252007 0.573166 0.911633
Si Si7 0.627683 0.572173 0.332090
Si Si8 0.641667 0.929879 0.655611
O O1 0.234629 0.750000 0.609839
O O2 0.192580 0.019780 0.634947
O O3 0.252961 0.966155 0.495917
O O4 0.299953 0.979112 0.650973
O O5 0.054225 0.750000 0.500237
O O6 0.084969 0.519916 0.593806
O O7 0.101146 0.514578 0.422515
O O8 0.000000 0.500000 0.483544
O O9 0.875659 0.250000 0.124478
O O10 0.885654 0.047588 0.252999
O O11 0.159448 0.750000 0.361270
O O12 0.199424 0.470622 0.351050
O O13 0.500000 0.500000 0.515007
O O14 0.556042 0.750000 0.503265
O O15 0.587130 0.513694 0.409371
O O16 0.601116 0.512258 0.578523
O O17 0.248656 0.750000 0.941154
O O18 0.307911 0.541787 0.857140
O O19 0.616969 0.750000 0.311714
O O20 0.612411 0.471733 0.247381
O O21 0.653585 0.750000 0.647874
#
# Coordination Sequence:
#
# PCOD8182099 Si02
#       8
#     8   8   8   8   8   8   8   8
#     4  12  23  37  61  93 127 163 202 248 305 368
#     4  11  24  43  64  89 122 163 209 259 307 359
#     4  11  23  41  65  94 126 163 203 252 308 364
#     4  10  23  41  62  92 127 159 201 251 303 365
#     4  10  23  43  63  86 121 160 206 256 306 361
#     4  11  21  37  63  91 125 163 199 245 306 366
#     4  10  22  41  62  90 125 159 200 250 304 366
#     4  11  23  41  63  91 124 161 204 252 305 365
#
# _framework density 20.164988999999998
#
# number of rings (size 3 to 8) (size 9 to 14) (size 15 to 20)
#    0.000    1.250    2.500    3.375    0.000    7.000 
#    0.000    3.750    0.000    0.000    0.000    0.000 
#    0.000    0.000    0.000    0.000    0.000    0.000 
#
# Total GULP energy -396997.211674 kJ/mol
# GULP energy per Si atom -12406.162865 kJ/mol
# Density = 2.011909 g / cm^3
# Si number density = 20.164989 Si / 1000 Ang^3
#
#
#
# Elastic Constant Matrix: (Units=GPa)
#
#
# Indices 1 2 3 4 5 6 
#
# 1 89.7737 21.0488 15.5913 0.0000 0.0000 0.0000
# 2 21.0488 43.0306 21.6976 0.0000 0.0000 0.0000
# 3 15.5913 21.6976 108.0389 0.0000 0.0000 0.0000
# 4 0.0000 0.0000 0.0000 33.8628 0.0000 0.0000
# 5 0.0000 0.0000 0.0000 0.0000 11.2584 0.0000
# 6 0.0000 0.0000 0.0000 0.0000 0.0000 35.7034
#
#
#
# Elastic Compliance Matrix: (Units=1/GPa)
#
#
# Indices 1 2 3 4 5 6 
#
# 1 0.012623 -0.005848 -0.000647 0.000000 0.000000 0.000000
# 2 -0.005848 0.028567 -0.004893 0.000000 0.000000 0.000000
# 3 -0.000647 -0.004893 0.010332 0.000000 0.000000 0.000000
# 4 0.000000 0.000000 0.000000 0.029531 0.000000 0.000000
# 5 0.000000 0.000000 0.000000 0.000000 0.088823 0.000000
# 6 0.000000 0.000000 0.000000 0.000000 0.000000 0.028009
#
#
# Mechanical properties :
#
#
# Convention : Reuss Voigt Hill
#
# Bulk Modulus (GPa) = 34.78874 39.72429 37.25651
# Shear Modulus (GPa) = 21.71617 28.33193 25.02405
#
# Velocity S-wave (km/s) = 3.28521 3.75241 3.52656
# Velocity P-wave (km/s) = 5.62847 6.20616 5.92436
#
# Compressibility (1/GPa) = 0.02874493
#
# Stress axis : x y z
#
# Youngs Moduli (GPa) = 79.22223 35.00497 96.78637
#
# Poissons Ratio (x) = 0.20472 0.06263
# Poissons Ratio (y) = 0.46331 0.47360
# Poissons Ratio (z) = 0.05126 0.17129
#
# Static dielectric constant tensor:
#      x y z
#    x 4.000760 0.000000 0.000000 
#    y 0.000000 3.708060 0.000000 
#    z 0.000000 0.000000 3.884280 
# 
# 
# High freq. dielectric constant tensor:
#      x y z
#    x 1.782730 0.000000 0.000000 
#    y 0.000000 1.788310 0.000000 
#    z 0.000000 0.000000 1.802830 
# 
# From -- ./inp_files/10609.got.cif
#   From: 2010.03.12/outbox.cif.g09.slc.cpg/sg39_6_cif.got.tgz:10609.got - 2010.04.14 02:53:20.
