data_PCOD8182688
_publ_section_title
;
Structure prediction by ZEFSAII (Michael W. Deem and Ramdas Pophale) SiO2 
 PCOD8182688
Probable space group: A M A 2
;
_chemical_formula_sum "Si O2"
_cell_formula_units_Z 56
_cell_length_a 9.095958
_cell_length_b 19.187834
_cell_length_c 17.424348
_cell_angle_alpha 90.000000
_cell_angle_beta 90.000000
_cell_angle_gamma 90.000000
_cell_volume 3041.101638
_symmetry_space_group_name_H-M "A M A 2"
_symmetry_group_IT_number 40
_symmetry_cell_setting 'orthorhombic'
loop_
_space_group_symop_operation_xyz
x,y,z
-x,-y,z
1/2-x,y,z
1/2+x,-y,z
x,1/2+y,1/2+z
-x,1/2-y,1/2+z
1/2-x,1/2+y,1/2+z
1/2+x,1/2-y,1/2+z
loop_
_atom_site_type_symbol
_atom_site_label
_atom_site_fract_x
_atom_site_fract_y
_atom_site_fract_z
Si Si1 0.413870 0.935329 0.570930
Si Si2 0.419531 0.289832 0.613225
Si Si3 0.590120 0.562928 0.249876
Si Si4 0.579628 0.072913 0.195910
Si Si5 0.076271 0.832067 0.338146
Si Si6 0.420723 0.680466 0.994897
Si Si7 0.074451 0.283559 0.248415
O O1 0.250000 0.926340 0.534049
O O2 0.393481 0.950597 0.659956
O O3 0.516625 0.867635 0.562613
O O4 0.500000 0.000000 0.531450
O O5 0.250000 0.278502 0.639048
O O6 0.458198 0.371835 0.626913
O O7 0.441336 0.260998 0.525600
O O8 0.523112 0.243430 0.666173
O O9 0.500000 0.500000 0.288726
O O10 0.750000 0.561647 0.289021
O O11 0.516622 0.638167 0.263682
O O12 0.750000 0.055005 0.196517
O O13 0.532984 0.106615 0.278090
O O14 0.500000 0.000000 0.180985
O O15 0.250000 0.821214 0.339047
O O16 0.016203 0.845377 0.422845
O O17 0.996204 0.761099 0.315598
O O18 0.250000 0.665741 0.977976
O O19 0.250000 0.280048 0.250755
#
# Coordination Sequence:
#
# PCOD8182688 Si02
#       7
#     8   8   8   8   8   8   8
#     4  10  19  32  47  71 104 137 170 206 248 299
#     4   9  19  34  53  77 105 136 172 217 270 318
#     4   9  18  29  46  72 100 129 163 204 248 296
#     4   9  19  36  56  79 105 136 174 219 268 318
#     4  10  22  37  52  74 106 141 175 217 268 323
#     4  11  21  34  53  77 105 141 179 219 267 321
#     4  10  18  32  52  76 101 130 173 218 257 307
#
# _framework density 18.414380000000001
#
# number of rings (size 3 to 8) (size 9 to 14) (size 15 to 20)
#    0.000    2.286    1.429    2.571    0.000    5.714 
#    0.000    1.429    0.000    0.857    0.000    2.000 
#    0.000    0.000    0.000    0.000    0.000    0.000 
#
# Total GULP energy -346919.733043 kJ/mol
# GULP energy per Si atom -12389.990466 kJ/mol
# Density = 1.837247 g / cm^3
# Si number density = 18.414380 Si / 1000 Ang^3
#
#
#
# Elastic Constant Matrix: (Units=GPa)
#
#
# Indices 1 2 3 4 5 6 
#
# 1 78.3999 51.0570 11.0992 0.0000 0.0000 0.0000
# 2 51.0570 144.5006 14.8386 0.0000 0.0000 0.0000
# 3 11.0992 14.8386 32.4064 0.0000 0.0000 0.0000
# 4 0.0000 0.0000 0.0000 16.0256 0.0000 0.0000
# 5 0.0000 0.0000 0.0000 0.0000 22.3158 0.0000
# 6 0.0000 0.0000 0.0000 0.0000 0.0000 33.6632
#
#
#
# Elastic Compliance Matrix: (Units=1/GPa)
#
#
# Indices 1 2 3 4 5 6 
#
# 1 0.016878 -0.005635 -0.003201 0.000000 0.000000 0.000000
# 2 -0.005635 0.009143 -0.002257 0.000000 0.000000 0.000000
# 3 -0.003201 -0.002257 0.032988 0.000000 0.000000 0.000000
# 4 0.000000 0.000000 0.000000 0.062400 0.000000 0.000000
# 5 0.000000 0.000000 0.000000 0.000000 0.044811 0.000000
# 6 0.000000 0.000000 0.000000 0.000000 0.000000 0.029706
#
#
# Mechanical properties :
#
#
# Convention : Reuss Voigt Hill
#
# Bulk Modulus (GPa) = 27.15580 45.47741 36.31660
# Shear Modulus (GPa) = 21.70282 26.28839 23.99561
#
# Velocity S-wave (km/s) = 3.43677 3.78246 3.61375
# Velocity P-wave (km/s) = 5.52518 6.62014 6.09729
#
# Compressibility (1/GPa) = 0.03682455
#
# Stress axis : x y z
#
# Youngs Moduli (GPa) = 59.24924 109.37207 30.31443
#
# Poissons Ratio (x) = 0.61630 0.09702
# Poissons Ratio (y) = 0.33386 0.06841
# Poissons Ratio (z) = 0.18963 0.24681
#
# Static dielectric constant tensor:
#      x y z
#    x 3.591980 0.000000 0.000000 
#    y 0.000000 3.521850 0.000000 
#    z 0.000000 0.000000 3.094350 
# 
# 
# High freq. dielectric constant tensor:
#      x y z
#    x 1.723780 0.000000 0.000000 
#    y 0.000000 1.717430 0.000000 
#    z 0.000000 0.000000 1.671130 
# 
# From -- ./inp_files/22291.got.cif
#   From: 2010.03.12/outbox.cif.g09.slc.cpg/sg40_12_cif.got.tgz:22291.got - 2010.04.14 01:38:03.
