data_PCOD8182651
_publ_section_title
;
Structure prediction by ZEFSAII (Michael W. Deem and Ramdas Pophale) SiO2 
 PCOD8182651
Probable space group: A M A 2
;
_chemical_formula_sum "Si O2"
_cell_formula_units_Z 64
_cell_length_a 9.420597
_cell_length_b 32.861048
_cell_length_c 11.856682
_cell_angle_alpha 90.000000
_cell_angle_beta 90.000000
_cell_angle_gamma 90.000000
_cell_volume 3670.481230
_symmetry_space_group_name_H-M "A M A 2"
_symmetry_group_IT_number 40
_symmetry_cell_setting 'orthorhombic'
loop_
_space_group_symop_operation_xyz
x,y,z
-x,-y,z
1/2-x,y,z
1/2+x,-y,z
x,1/2+y,1/2+z
-x,1/2-y,1/2+z
1/2-x,1/2+y,1/2+z
1/2+x,1/2-y,1/2+z
loop_
_atom_site_type_symbol
_atom_site_label
_atom_site_fract_x
_atom_site_fract_y
_atom_site_fract_z
Si Si1 0.085364 0.326747 0.759570
Si Si2 0.080215 0.541156 0.260634
Si Si3 0.085882 0.880458 0.829158
Si Si4 0.415380 0.313751 0.506181
Si Si5 0.592885 0.964273 0.504147
Si Si6 0.587546 0.662168 0.098474
Si Si7 0.410702 0.620649 0.911388
Si Si8 0.411179 0.763277 0.454459
O O1 0.250000 0.338984 0.759892
O O2 0.031978 0.316380 0.634778
O O3 0.054190 0.289431 0.843033
O O4 0.995989 0.365480 0.801306
O O5 0.250000 0.538300 0.283314
O O6 0.042094 0.548570 0.129414
O O7 0.000000 0.500000 0.302281
O O8 0.015289 0.580145 0.325469
O O9 0.250000 0.894902 0.827154
O O10 0.057921 0.847968 0.728590
O O11 0.048715 0.855961 0.943099
O O12 0.250000 0.304227 0.498813
O O13 0.491555 0.276006 0.447813
O O14 0.750000 0.981926 0.515962
O O15 0.586083 0.927965 0.415028
O O16 0.500000 0.000000 0.451946
O O17 0.750000 0.651644 0.064103
O O18 0.481886 0.635068 0.026463
O O19 0.558956 0.709607 0.067109
O O20 0.250000 0.637285 0.906419
O O21 0.250000 0.748074 0.452879
#
# Coordination Sequence:
#
# PCOD8182651 Si02
#       8
#     8   8   8   8   8   8   8   8
#     4   9  20  38  53  71 101 138 174 211 260 314
#     4  10  19  33  52  78 111 143 174 215 268 322
#     4  10  20  34  53  78 107 142 180 220 265 317
#     4  10  22  37  54  76 103 138 180 220 261 312
#     4   9  18  29  45  74 107 133 162 201 250 308
#     4   9  18  32  50  73 104 138 170 208 260 316
#     4  10  18  31  51  76 101 130 170 214 252 301
#     4   9  19  34  52  74 102 136 174 217 264 310
#
# _framework density 17.436406999999999
#
# number of rings (size 3 to 8) (size 9 to 14) (size 15 to 20)
#    0.000    2.500    1.250    1.500    1.750    4.500 
#    0.000    0.000    0.000    0.750    0.000    1.750 
#    0.000    0.000    0.000    0.000    0.000    0.000 
#
# Total GULP energy -396733.029156 kJ/mol
# GULP energy per Si atom -12397.907161 kJ/mol
# Density = 1.739672 g / cm^3
# Si number density = 17.436407 Si / 1000 Ang^3
#
#
#
# Elastic Constant Matrix: (Units=GPa)
#
#
# Indices 1 2 3 4 5 6 
#
# 1 84.8623 61.3265 36.9115 0.0000 0.0000 0.0000
# 2 61.3265 108.8015 42.7977 0.0000 0.0000 0.0000
# 3 36.9115 42.7977 84.2732 0.0000 0.0000 0.0000
# 4 0.0000 0.0000 0.0000 18.9078 0.0000 0.0000
# 5 0.0000 0.0000 0.0000 0.0000 -2.0874 0.0000
# 6 0.0000 0.0000 0.0000 0.0000 0.0000 37.2774
#
#
#
# Elastic Compliance Matrix: (Units=1/GPa)
#
#
# Indices 1 2 3 4 5 6 
#
# 1 0.020890 -0.010216 -0.003961 0.000000 0.000000 0.000000
# 2 -0.010216 0.016482 -0.003895 0.000000 0.000000 0.000000
# 3 -0.003961 -0.003895 0.015580 0.000000 0.000000 0.000000
# 4 0.000000 0.000000 0.000000 0.052888 0.000000 0.000000
# 5 0.000000 0.000000 0.000000 0.000000 -0.479058 0.000000
# 6 0.000000 0.000000 0.000000 0.000000 0.000000 0.026826
#
#
# Mechanical properties :
#
#
# Convention : Reuss Voigt Hill
#
# Bulk Modulus (GPa) = 59.50698 62.22316 60.86507
# Shear Modulus (GPa) = -16.41259 19.94631 1.76686
#
# Velocity S-wave (km/s) = -3.07136 3.38590 1.00773
# Velocity P-wave (km/s) = 4.65021 7.14486 6.02799
#
# Compressibility (1/GPa) = 0.01680475
#
# Stress axis : x y z
#
# Youngs Moduli (GPa) = 47.87025 60.67265 64.18689
#
# Poissons Ratio (x) = 0.61986 0.25427
# Poissons Ratio (y) = 0.48906 0.25004
# Poissons Ratio (z) = 0.18963 0.23635
#
# Static dielectric constant tensor:
#      x y z
#    x 3.294470 0.000000 0.000000 
#    y 0.000000 3.127860 0.000000 
#    z 0.000000 0.000000 3.147760 
# 
# 
# High freq. dielectric constant tensor:
#      x y z
#    x 1.679700 0.000000 0.000000 
#    y 0.000000 1.667040 0.000000 
#    z 0.000000 0.000000 1.648620 
# 
# From -- ./inp_files/10655.got.cif
#   From: 2010.03.12/outbox.cif.g09.slc.cpg/sg40_6_cif.got.tgz:10655.got - 2010.04.14 01:38:03.
