data_PCOD8182380
_publ_section_title
;
Structure prediction by ZEFSAII (Michael W. Deem and Ramdas Pophale) SiO2 
 PCOD8182380
Probable space group: A M A 2
;
_chemical_formula_sum "Si O2"
_cell_formula_units_Z 56
_cell_length_a 8.673299
_cell_length_b 13.695833
_cell_length_c 29.293450
_cell_angle_alpha 90.000000
_cell_angle_beta 90.000000
_cell_angle_gamma 90.000000
_cell_volume 3479.711940
_symmetry_space_group_name_H-M "A M A 2"
_symmetry_group_IT_number 40
_symmetry_cell_setting 'orthorhombic'
loop_
_space_group_symop_operation_xyz
x,y,z
-x,-y,z
1/2-x,y,z
1/2+x,-y,z
x,1/2+y,1/2+z
-x,1/2-y,1/2+z
1/2-x,1/2+y,1/2+z
1/2+x,1/2-y,1/2+z
loop_
_atom_site_type_symbol
_atom_site_label
_atom_site_fract_x
_atom_site_fract_y
_atom_site_fract_z
Si Si1 0.067898 0.705718 0.250000
Si Si2 0.432380 0.897402 0.201411
Si Si3 0.570143 0.289776 0.618129
Si Si4 0.070137 0.605684 0.524800
Si Si5 0.932674 0.395954 0.159277
Si Si6 0.433656 0.607955 0.341322
Si Si7 0.432800 0.391694 0.433357
O O1 0.250000 0.700257 0.251073
O O2 0.015125 0.816106 0.238479
O O3 0.008546 0.633524 0.210010
O O4 0.002871 0.672144 0.298930
O O5 0.250000 0.904242 0.197751
O O6 0.495908 0.869303 0.151774
O O7 0.500000 0.000000 0.217992
O O8 0.750000 0.283146 0.629078
O O9 0.537246 0.323075 0.566757
O O10 0.493489 0.183887 0.623526
O O11 0.250000 0.591779 0.515132
O O12 0.000000 0.500000 0.535681
O O13 0.991362 0.657303 0.480419
O O14 0.750000 0.398778 0.156560
O O15 0.000000 0.500000 0.145368
O O16 0.500000 0.500000 0.335436
O O17 0.250000 0.603214 0.342993
O O18 0.497933 0.658634 0.387695
O O19 0.500000 0.500000 0.434637
O O20 0.250000 0.391254 0.430621
#
# Coordination Sequence:
#
# PCOD8182380 Si02
#       7
#     8   8   8   8   8   8   8
#     4   8  17  30  45  65  89 119 152 184 219 262
#     4  10  19  32  47  66  92 121 153 187 225 265
#     4  10  20  32  47  68  91 119 154 187 224 268
#     4  10  19  30  45  65  90 119 150 183 221 266
#     4  10  19  32  48  67  93 122 153 188 224 263
#     4  10  17  28  44  63  89 118 147 180 219 261
#     4  10  18  28  42  62  88 116 146 179 219 265
#
# _framework density 16.093287
#
# number of rings (size 3 to 8) (size 9 to 14) (size 15 to 20)
#    0.000    2.286    0.000    6.857    0.000    3.429 
#    0.000    7.857    0.000    0.000    0.000    1.000 
#    0.000    2.286    0.000    0.000    0.000    0.000 
#
# Total GULP energy -347120.826064 kJ/mol
# GULP energy per Si atom -12397.172359 kJ/mol
# Density = 1.605666 g / cm^3
# Si number density = 16.093287 Si / 1000 Ang^3
#
#
#
# Elastic Constant Matrix: (Units=GPa)
#
#
# Indices 1 2 3 4 5 6 
#
# 1 98.5672 37.7841 54.7987 0.0000 0.0000 0.0000
# 2 37.7841 96.5046 53.6375 0.0000 0.0000 0.0000
# 3 54.7987 53.6375 133.0624 0.0000 0.0000 0.0000
# 4 0.0000 0.0000 0.0000 19.2721 0.0000 0.0000
# 5 0.0000 0.0000 0.0000 0.0000 23.2571 0.0000
# 6 0.0000 0.0000 0.0000 0.0000 0.0000 24.0826
#
#
#
# Elastic Compliance Matrix: (Units=1/GPa)
#
#
# Indices 1 2 3 4 5 6 
#
# 1 0.013753 -0.002883 -0.004502 0.000000 0.000000 0.000000
# 2 -0.002883 0.013958 -0.004439 0.000000 0.000000 0.000000
# 3 -0.004502 -0.004439 0.011159 0.000000 0.000000 0.000000
# 4 0.000000 0.000000 0.000000 0.051889 0.000000 0.000000
# 5 0.000000 0.000000 0.000000 0.000000 0.042998 0.000000
# 6 0.000000 0.000000 0.000000 0.000000 0.000000 0.041524
#
#
# Mechanical properties :
#
#
# Convention : Reuss Voigt Hill
#
# Bulk Modulus (GPa) = 65.69289 68.95275 67.32282
# Shear Modulus (GPa) = 24.50951 25.44995 24.97973
#
# Velocity S-wave (km/s) = 3.90675 3.98100 3.94405
# Velocity P-wave (km/s) = 7.82681 8.00436 7.91608
#
# Compressibility (1/GPa) = 0.01522235
#
# Stress axis : x y z
#
# Youngs Moduli (GPa) = 72.71023 71.64223 89.61478
#
# Poissons Ratio (x) = 0.20651 0.40345
# Poissons Ratio (y) = 0.20959 0.39784
# Poissons Ratio (z) = 0.32734 0.31805
#
# Static dielectric constant tensor:
#      x y z
#    x 3.097640 0.000000 0.000000 
#    y 0.000000 2.886850 0.000000 
#    z 0.000000 0.000000 3.594180 
# 
# 
# High freq. dielectric constant tensor:
#      x y z
#    x 1.630260 0.000000 0.000000 
#    y 0.000000 1.584650 0.000000 
#    z 0.000000 0.000000 1.621200 
# 
# From -- ./inp_files/26403.got.cif
#   From: 2010.03.12/outbox.cif.g09.slc.cpg/sg40_14_cif.got.tgz:26403.got - 2010.04.14 01:38:03.
