data_PCOD8182462
_publ_section_title
;
Structure prediction by ZEFSAII (Michael W. Deem and Ramdas Pophale) SiO2 
 PCOD8182462
Probable space group: A M A 2
;
_chemical_formula_sum "Si O2"
_cell_formula_units_Z 56
_cell_length_a 8.641761
_cell_length_b 22.453495
_cell_length_c 17.771568
_cell_angle_alpha 90.000000
_cell_angle_beta 90.000000
_cell_angle_gamma 90.000000
_cell_volume 3448.354845
_symmetry_space_group_name_H-M "A M A 2"
_symmetry_group_IT_number 40
_symmetry_cell_setting 'orthorhombic'
loop_
_space_group_symop_operation_xyz
x,y,z
-x,-y,z
1/2-x,y,z
1/2+x,-y,z
x,1/2+y,1/2+z
-x,1/2-y,1/2+z
1/2-x,1/2+y,1/2+z
1/2+x,1/2-y,1/2+z
loop_
_atom_site_type_symbol
_atom_site_label
_atom_site_fract_x
_atom_site_fract_y
_atom_site_fract_z
Si Si1 0.573020 0.840603 0.016470
Si Si2 0.072088 0.195600 0.174203
Si Si3 0.929176 0.317710 0.133031
Si Si4 0.930547 0.282267 0.973217
Si Si5 0.568323 0.435173 0.395352
Si Si6 0.431196 0.846673 0.779278
Si Si7 0.431278 0.281096 0.818665
O O1 0.750000 0.822398 0.998533
O O2 0.552741 0.852579 0.106788
O O3 0.467054 0.786687 0.989137
O O4 0.526850 0.899987 0.972066
O O5 0.250000 0.217230 0.179324
O O6 0.959385 0.249702 0.154664
O O7 0.014288 0.175232 0.256953
O O8 0.750000 0.333000 0.144676
O O9 0.028483 0.358188 0.190724
O O10 0.976701 0.324045 0.044901
O O11 0.750000 0.287337 0.956255
O O12 0.023997 0.305503 0.900954
O O13 0.500000 0.500000 0.405437
O O14 0.750000 0.438591 0.381036
O O15 0.490218 0.403661 0.324308
O O16 0.250000 0.839056 0.790371
O O17 0.513865 0.787314 0.810176
O O18 0.250000 0.284757 0.807357
#
# Coordination Sequence:
#
# PCOD8182462 Si02
#       7
#     8   8   8   8   8   8   8
#     4   9  18  31  46  61  84 116 148 186 228 264
#     4   9  16  27  42  61  83 112 148 181 217 266
#     4   9  17  28  42  62  86 114 146 182 220 265
#     4  10  18  27  43  65  89 118 152 182 217 266
#     4  11  22  35  49  67  89 118 155 195 231 267
#     4  11  20  31  46  63  85 117 152 187 227 269
#     4  11  19  27  41  63  91 121 149 181 221 265
#
# _framework density 16.239629000000001
#
# number of rings (size 3 to 8) (size 9 to 14) (size 15 to 20)
#    0.000    2.000    1.429    6.000    0.000    2.857 
#    0.000    0.000    0.000    0.000    0.000    0.000 
#    0.000    1.143    0.000    7.714    0.000    5.571 
#
# Total GULP energy -346989.342235 kJ/mol
# GULP energy per Si atom -12392.476508 kJ/mol
# Density = 1.620267 g / cm^3
# Si number density = 16.239629 Si / 1000 Ang^3
#
#
#
# Elastic Constant Matrix: (Units=GPa)
#
#
# Indices 1 2 3 4 5 6 
#
# 1 73.1378 19.8275 44.6426 0.0000 0.0000 0.0000
# 2 19.8275 46.0845 40.0927 0.0000 0.0000 0.0000
# 3 44.6426 40.0927 154.1031 0.0000 0.0000 0.0000
# 4 0.0000 0.0000 0.0000 16.9516 0.0000 0.0000
# 5 0.0000 0.0000 0.0000 0.0000 26.0154 0.0000
# 6 0.0000 0.0000 0.0000 0.0000 0.0000 15.5187
#
#
#
# Elastic Compliance Matrix: (Units=1/GPa)
#
#
# Indices 1 2 3 4 5 6 
#
# 1 0.017149 -0.003950 -0.003940 0.000000 0.000000 0.000000
# 2 -0.003950 0.028958 -0.006389 0.000000 0.000000 0.000000
# 3 -0.003940 -0.006389 0.009293 0.000000 0.000000 0.000000
# 4 0.000000 0.000000 0.000000 0.058991 0.000000 0.000000
# 5 0.000000 0.000000 0.000000 0.000000 0.038439 0.000000
# 6 0.000000 0.000000 0.000000 0.000000 0.000000 0.064438
#
#
# Mechanical properties :
#
#
# Convention : Reuss Voigt Hill
#
# Bulk Modulus (GPa) = 37.25856 53.60569 45.43213
# Shear Modulus (GPa) = 19.62523 22.94798 21.28660
#
# Velocity S-wave (km/s) = 3.48009 3.76318 3.62440
# Velocity P-wave (km/s) = 6.25626 7.20853 6.74921
#
# Compressibility (1/GPa) = 0.02683947
#
# Stress axis : x y z
#
# Youngs Moduli (GPa) = 58.31332 34.53330 107.60876
#
# Poissons Ratio (x) = 0.13642 0.42399
# Poissons Ratio (y) = 0.23035 0.68756
# Poissons Ratio (z) = 0.22976 0.22065
#
# Static dielectric constant tensor:
#      x y z
#    x 3.166800 0.000000 0.000000 
#    y 0.000000 2.483540 0.000000 
#    z 0.000000 0.000000 3.917600 
# 
# 
# High freq. dielectric constant tensor:
#      x y z
#    x 1.643040 0.000000 0.000000 
#    y 0.000000 1.537380 0.000000 
#    z 0.000000 0.000000 1.651580 
# 
# From -- ./inp_files/19510.got.cif
#   From: 2010.03.12/outbox.cif.g09.slc.cpg/sg40_10_cif.got.tgz:19510.got - 2010.04.14 01:38:03.
