data_PCOD8182027
_publ_section_title
;
Structure prediction by ZEFSAII (Michael W. Deem and Ramdas Pophale) SiO2 
 PCOD8182027
Probable space group: A B M 2
;
_chemical_formula_sum "Si O2"
_cell_formula_units_Z 60
_cell_length_a 8.657334
_cell_length_b 23.807686
_cell_length_c 14.398747
_cell_angle_alpha 90.000000
_cell_angle_beta 90.000000
_cell_angle_gamma 90.000000
_cell_volume 2967.741431
_symmetry_space_group_name_H-M "A B M 2"
_symmetry_group_IT_number 39
_symmetry_cell_setting 'orthorhombic'
loop_
_space_group_symop_operation_xyz
x,y,z
-x,-y,z
-x,1/2+y,z
x,1/2-y,z
x,1/2+y,1/2+z
-x,1/2-y,1/2+z
-x,y,1/2+z
x,-y,1/2+z
loop_
_atom_site_type_symbol
_atom_site_label
_atom_site_fract_x
_atom_site_fract_y
_atom_site_fract_z
Si Si1 0.118751 0.605308 0.900140
Si Si2 0.220209 0.685147 0.733163
Si Si3 0.000000 0.500000 0.794988
Si Si4 0.229441 0.440163 0.667028
Si Si5 0.448833 0.063302 0.442230
Si Si6 0.664442 0.049311 0.603051
Si Si7 0.491131 0.613636 0.752409
Si Si8 0.948568 0.120588 0.576855
O O1 0.157969 0.649388 0.819841
O O2 0.024160 0.554277 0.857346
O O3 0.266304 0.577280 0.952520
O O4 0.006712 0.637871 0.973737
O O5 0.193547 0.750000 0.753987
O O6 0.405477 0.672513 0.725825
O O7 0.130308 0.670260 0.637058
O O8 0.153249 0.487038 0.734460
O O9 0.333588 0.480393 0.597235
O O10 0.337768 0.393025 0.712687
O O11 0.099601 0.402191 0.625258
O O12 0.539666 0.079116 0.535984
O O13 0.506854 0.104972 0.361861
O O14 0.500000 0.000000 0.413887
O O15 0.624713 0.066660 0.708709
O O16 0.831887 0.068826 0.570006
#
# Coordination Sequence:
#
# PCOD8182027 Si02
#       8
#     8   8   4   8   8   8   8   8
#     4  11  24  38  60  98 130 170 214 262 326 391
#     4  10  23  48  67  83 120 171 228 283 327 366
#     4  12  22  36  62  96 142 172 194 254 324 406
#     4  12  20  36  58  90 137 167 208 243 309 397
#     4  11  21  33  54  86 126 172 201 241 305 380
#     4  11  21  35  54  89 131 171 200 242 309 388
#     4  10  22  37  58  84 115 162 215 263 307 366
#     4  11  23  37  60  95 126 166 210 262 321 382
#
# _framework density 20.217396000000001
#
# number of rings (size 3 to 8) (size 9 to 14) (size 15 to 20)
#    0.000    1.067    2.667    6.000    5.600    0.533 
#    0.000    0.667    0.000   19.200    0.000    0.000 
#    0.000    0.000    0.000    0.000    0.000    0.000 
#
# Total GULP energy -371771.438660 kJ/mol
# GULP energy per Si atom -12392.381289 kJ/mol
# Density = 2.017138 g / cm^3
# Si number density = 20.217396 Si / 1000 Ang^3
#
#
#
# Elastic Constant Matrix: (Units=GPa)
#
#
# Indices 1 2 3 4 5 6 
#
# 1 96.2528 28.6275 47.4700 0.0000 0.0000 0.0000
# 2 28.6275 108.6045 38.8508 0.0000 0.0000 0.0000
# 3 47.4700 38.8508 95.8505 0.0000 0.0000 0.0000
# 4 0.0000 0.0000 0.0000 13.2989 0.0000 0.0000
# 5 0.0000 0.0000 0.0000 0.0000 35.5735 0.0000
# 6 0.0000 0.0000 0.0000 0.0000 0.0000 19.4951
#
#
#
# Elastic Compliance Matrix: (Units=1/GPa)
#
#
# Indices 1 2 3 4 5 6 
#
# 1 0.013929 -0.001408 -0.006327 0.000000 0.000000 0.000000
# 2 -0.001408 0.010912 -0.003725 0.000000 0.000000 0.000000
# 3 -0.006327 -0.003725 0.015077 0.000000 0.000000 0.000000
# 4 0.000000 0.000000 0.000000 0.075194 0.000000 0.000000
# 5 0.000000 0.000000 0.000000 0.000000 0.028111 0.000000
# 6 0.000000 0.000000 0.000000 0.000000 0.000000 0.051295
#
#
# Mechanical properties :
#
#
# Convention : Reuss Voigt Hill
#
# Bulk Modulus (GPa) = 58.84081 58.95606 58.89844
# Shear Modulus (GPa) = 22.41110 26.05746 24.23428
#
# Velocity S-wave (km/s) = 3.33303 3.59397 3.46596
# Velocity P-wave (km/s) = 6.63170 6.81517 6.72406
#
# Compressibility (1/GPa) = 0.01699501
#
# Stress axis : x y z
#
# Youngs Moduli (GPa) = 71.79434 91.64600 66.32787
#
# Poissons Ratio (x) = 0.12904 0.41969
# Poissons Ratio (y) = 0.10109 0.24710
# Poissons Ratio (z) = 0.45428 0.34142
#
# Static dielectric constant tensor:
#      x y z
#    x 4.181900 0.000000 0.000000 
#    y 0.000000 3.170210 0.000000 
#    z 0.000000 0.000000 4.016420 
# 
# 
# High freq. dielectric constant tensor:
#      x y z
#    x 1.813610 0.000000 0.000000 
#    y 0.000000 1.727980 0.000000 
#    z 0.000000 0.000000 1.806880 
# 
# From -- ./inp_files/8840.got.cif
#   From: 2010.03.12/outbox.cif.g09.slc.cpg/sg39_5_cif.got.tgz:8840.got - 2010.04.14 02:53:20.
