data_PCOD8182393
_publ_section_title
;
Structure prediction by ZEFSAII (Michael W. Deem and Ramdas Pophale) SiO2 
 PCOD8182393
Probable space group: A M A 2
;
_chemical_formula_sum "Si O2"
_cell_formula_units_Z 56
_cell_length_a 17.528086
_cell_length_b 9.424631
_cell_length_c 17.262645
_cell_angle_alpha 90.000000
_cell_angle_beta 90.000000
_cell_angle_gamma 90.000000
_cell_volume 2851.715462
_symmetry_space_group_name_H-M "A M A 2"
_symmetry_group_IT_number 40
_symmetry_cell_setting 'orthorhombic'
loop_
_space_group_symop_operation_xyz
x,y,z
-x,-y,z
1/2-x,y,z
1/2+x,-y,z
x,1/2+y,1/2+z
-x,1/2-y,1/2+z
1/2-x,1/2+y,1/2+z
1/2+x,1/2-y,1/2+z
loop_
_atom_site_type_symbol
_atom_site_label
_atom_site_fract_x
_atom_site_fract_y
_atom_site_fract_z
Si Si1 0.338933 0.209472 0.590760
Si Si2 0.159000 0.965554 0.381354
Si Si3 0.546057 0.646457 0.187930
Si Si4 0.839305 0.721952 0.425152
Si Si5 0.078825 0.440036 0.032356
Si Si6 0.340272 0.979502 0.795451
Si Si7 0.096149 0.275740 0.749666
O O1 0.250000 0.176215 0.590597
O O2 0.363056 0.299771 0.514689
O O3 0.380650 0.058616 0.586528
O O4 0.360744 0.295299 0.667736
O O5 0.250000 0.946026 0.372393
O O6 0.130682 0.127673 0.391709
O O7 0.131382 0.886437 0.460964
O O8 0.115694 0.906499 0.305744
O O9 0.500000 0.500000 0.192948
O O10 0.561163 0.683506 0.096466
O O11 0.626764 0.627245 0.230666
O O12 0.494433 0.766688 0.230353
O O13 0.750000 0.732245 0.415977
O O14 0.868203 0.586690 0.377237
O O15 0.000000 0.500000 0.996768
O O16 0.250000 0.985654 0.784608
O O17 0.374134 0.135978 0.793203
#
# Coordination Sequence:
#
# PCOD8182393 Si02
#       7
#     8   8   8   8   8   8   8
#     4  10  17  30  53  74  99 140 182 216 257 321
#     4  10  21  34  53  84 114 140 178 228 273 318
#     4   9  18  32  49  80 110 133 177 228 268 314
#     4   8  18  33  51  78 106 133 177 220 259 316
#     4  10  17  32  52  77 107 137 181 224 264 313
#     4  10  18  32  56  79 102 139 182 220 261 320
#     4  11  20  33  54  82 109 137 179 227 273 317
#
# _framework density 19.637301999999998
#
# number of rings (size 3 to 8) (size 9 to 14) (size 15 to 20)
#    0.000    2.286    4.286    2.571    0.000    2.857 
#    0.000    0.000    3.143    0.000    0.000    0.000 
#    0.000    0.000    0.000    0.000    0.000    0.000 
#
# Total GULP energy -346931.884921 kJ/mol
# GULP energy per Si atom -12390.424461 kJ/mol
# Density = 1.959261 g / cm^3
# Si number density = 19.637302 Si / 1000 Ang^3
#
#
#
# Elastic Constant Matrix: (Units=GPa)
#
#
# Indices 1 2 3 4 5 6 
#
# 1 45.7807 3.0350 10.7248 0.0000 0.0000 0.0000
# 2 3.0350 40.6474 43.0858 0.0000 0.0000 0.0000
# 3 10.7248 43.0858 147.5191 0.0000 0.0000 0.0000
# 4 0.0000 0.0000 0.0000 26.7579 0.0000 0.0000
# 5 0.0000 0.0000 0.0000 0.0000 36.7386 0.0000
# 6 0.0000 0.0000 0.0000 0.0000 0.0000 16.2691
#
#
#
# Elastic Compliance Matrix: (Units=1/GPa)
#
#
# Indices 1 2 3 4 5 6 
#
# 1 0.022222 0.000077 -0.001638 0.000000 0.000000 0.000000
# 2 0.000077 0.035634 -0.010413 0.000000 0.000000 0.000000
# 3 -0.001638 -0.010413 0.009939 0.000000 0.000000 0.000000
# 4 0.000000 0.000000 0.000000 0.037372 0.000000 0.000000
# 5 0.000000 0.000000 0.000000 0.000000 0.027219 0.000000
# 6 0.000000 0.000000 0.000000 0.000000 0.000000 0.061466
#
#
# Mechanical properties :
#
#
# Convention : Reuss Voigt Hill
#
# Bulk Modulus (GPa) = 22.80672 38.62648 30.71660
# Shear Modulus (GPa) = 21.51311 27.75991 24.63651
#
# Velocity S-wave (km/s) = 3.31346 3.76391 3.54584
# Velocity P-wave (km/s) = 5.12619 6.21305 5.69561
#
# Compressibility (1/GPa) = 0.04384672
#
# Stress axis : x y z
#
# Youngs Moduli (GPa) = 45.00069 28.06318 100.61137
#
# Poissons Ratio (x) = -0.00216 0.16481
# Poissons Ratio (y) = -0.00347 1.04768
# Poissons Ratio (z) = 0.07371 0.29223
#
# Static dielectric constant tensor:
#      x y z
#    x 3.802700 0.000000 0.000000 
#    y 0.000000 3.454660 0.000000 
#    z 0.000000 0.000000 4.011170 
# 
# 
# High freq. dielectric constant tensor:
#      x y z
#    x 1.772280 0.000000 0.000000 
#    y 0.000000 1.700490 0.000000 
#    z 0.000000 0.000000 1.782150 
# 
# From -- ./inp_files/21338.got.cif
#   From: 2010.03.12/outbox.cif.g09.slc.cpg/sg40_11_cif.got.tgz:21338.got - 2010.04.14 01:38:03.
