data_PCOD8182036
_publ_section_title
;
Structure prediction by ZEFSAII (Michael W. Deem and Ramdas Pophale) SiO2 
 PCOD8182036
Probable space group: A B M 2
;
_chemical_formula_sum "Si O2"
_cell_formula_units_Z 60
_cell_length_a 15.481439
_cell_length_b 9.535801
_cell_length_c 21.476695
_cell_angle_alpha 90.000000
_cell_angle_beta 90.000000
_cell_angle_gamma 90.000000
_cell_volume 3170.559843
_symmetry_space_group_name_H-M "A B M 2"
_symmetry_group_IT_number 39
_symmetry_cell_setting 'orthorhombic'
loop_
_space_group_symop_operation_xyz
x,y,z
-x,-y,z
-x,1/2+y,z
x,1/2-y,z
x,1/2+y,1/2+z
-x,1/2-y,1/2+z
-x,y,1/2+z
x,-y,1/2+z
loop_
_atom_site_type_symbol
_atom_site_label
_atom_site_fract_x
_atom_site_fract_y
_atom_site_fract_z
Si Si1 0.923434 0.592934 0.887210
Si Si2 0.500000 0.000000 0.008786
Si Si3 0.749711 0.906442 0.954071
Si Si4 0.267952 0.087233 0.692747
Si Si5 0.665543 0.094911 0.581054
Si Si6 0.390422 0.593263 0.900775
Si Si7 0.576645 0.084704 0.282140
Si Si8 0.915012 0.084853 0.245445
O O1 0.958360 0.750000 0.884565
O O2 0.848837 0.574914 0.937350
O O3 0.895122 0.548359 0.817491
O O4 0.000000 0.500000 0.913430
O O5 0.548975 0.106225 0.962022
O O6 0.430195 0.074824 0.052732
O O7 0.717369 0.750000 0.932536
O O8 0.701618 0.031531 0.919784
O O9 0.737872 0.920990 0.027875
O O10 0.265651 0.250000 0.676570
O O11 0.330267 0.059190 0.751467
O O12 0.170676 0.034693 0.707917
O O13 0.310542 0.014125 0.633861
O O14 0.668544 0.250000 0.610351
O O15 0.379229 0.750000 0.873095
O O16 0.425744 0.484070 0.850325
O O17 0.554355 0.250000 0.286541
O O18 0.500000 0.000000 0.244995
O O19 0.931488 0.250000 0.235277
O O20 0.000000 0.000000 0.222207
#
# Coordination Sequence:
#
# PCOD8182036 Si02
#       8
#     8   4   8   8   8   8   8   8
#     4   9  17  32  56  84 114 144 177 223 283 342
#     4  10  22  38  56  80 112 146 184 234 286 334
#     4   9  19  36  55  78 112 150 183 226 282 332
#     4  10  23  41  58  80 114 153 190 237 290 336
#     4  10  22  38  58  80 107 149 197 236 275 330
#     4  11  21  34  57  84 110 142 184 230 278 335
#     4  11  23  38  56  81 115 151 187 231 284 339
#     4   9  18  35  59  85 111 143 182 228 287 344
#
# _framework density 18.924102000000001
#
# number of rings (size 3 to 8) (size 9 to 14) (size 15 to 20)
#    0.000    2.133    0.667    2.000    0.933    8.000 
#    0.000    3.333    0.000    3.200    0.000    0.000 
#    0.000    0.000    0.000    0.000    0.000    0.000 
#
# Total GULP energy -371813.084920 kJ/mol
# GULP energy per Si atom -12393.769497 kJ/mol
# Density = 1.888103 g / cm^3
# Si number density = 18.924102 Si / 1000 Ang^3
#
#
#
# Elastic Constant Matrix: (Units=GPa)
#
#
# Indices 1 2 3 4 5 6 
#
# 1 131.3921 63.3200 54.3807 0.0000 0.0000 0.0000
# 2 63.3200 101.1628 40.8718 0.0000 0.0000 0.0000
# 3 54.3807 40.8718 74.9203 0.0000 0.0000 0.0000
# 4 0.0000 0.0000 0.0000 25.4639 0.0000 0.0000
# 5 0.0000 0.0000 0.0000 0.0000 24.6728 0.0000
# 6 0.0000 0.0000 0.0000 0.0000 0.0000 26.6610
#
#
#
# Elastic Compliance Matrix: (Units=1/GPa)
#
#
# Indices 1 2 3 4 5 6 
#
# 1 0.012893 -0.005502 -0.006357 0.000000 0.000000 0.000000
# 2 -0.005502 0.015027 -0.004205 0.000000 0.000000 0.000000
# 3 -0.006357 -0.004205 0.020256 0.000000 0.000000 0.000000
# 4 0.000000 0.000000 0.000000 0.039271 0.000000 0.000000
# 5 0.000000 0.000000 0.000000 0.000000 0.040530 0.000000
# 6 0.000000 0.000000 0.000000 0.000000 0.000000 0.037508
#
#
# Mechanical properties :
#
#
# Convention : Reuss Voigt Hill
#
# Bulk Modulus (GPa) = 62.30787 69.40225 65.85506
# Shear Modulus (GPa) = 24.63505 25.28640 24.96072
#
# Velocity S-wave (km/s) = 3.61194 3.65937 3.63573
# Velocity P-wave (km/s) = 7.09869 7.38974 7.24568
#
# Compressibility (1/GPa) = 0.01604934
#
# Stress axis : x y z
#
# Youngs Moduli (GPa) = 77.55965 66.54479 49.36905
#
# Poissons Ratio (x) = 0.36611 0.31385
# Poissons Ratio (y) = 0.42672 0.20758
# Poissons Ratio (z) = 0.49306 0.27979
#
# Static dielectric constant tensor:
#      x y z
#    x 3.623450 0.000000 0.000000 
#    y 0.000000 3.656690 0.000000 
#    z 0.000000 0.000000 3.273850 
# 
# 
# High freq. dielectric constant tensor:
#      x y z
#    x 1.739390 0.000000 0.000000 
#    y 0.000000 1.737160 0.000000 
#    z 0.000000 0.000000 1.715480 
# 
# From -- ./inp_files/16108.got.cif
#   From: 2010.03.12/outbox.cif.g09.slc.cpg/sg39_9_cif.got.tgz:16108.got - 2010.04.14 02:53:20.
