data_PCOD8182244
_publ_section_title
;
Structure prediction by ZEFSAII (Michael W. Deem and Ramdas Pophale) SiO2 
 PCOD8182244
Probable space group: A B M 2
;
_chemical_formula_sum "Si O2"
_cell_formula_units_Z 48
_cell_length_a 8.760469
_cell_length_b 13.844632
_cell_length_c 18.960639
_cell_angle_alpha 90.000000
_cell_angle_beta 90.000000
_cell_angle_gamma 90.000000
_cell_volume 2299.650002
_symmetry_space_group_name_H-M "A B M 2"
_symmetry_group_IT_number 39
_symmetry_cell_setting 'orthorhombic'
loop_
_space_group_symop_operation_xyz
x,y,z
-x,-y,z
-x,1/2+y,z
x,1/2-y,z
x,1/2+y,1/2+z
-x,1/2-y,1/2+z
-x,y,1/2+z
x,-y,1/2+z
loop_
_atom_site_type_symbol
_atom_site_label
_atom_site_fract_x
_atom_site_fract_y
_atom_site_fract_z
Si Si1 0.660598 0.960578 0.108610
Si Si2 0.846605 0.559948 0.491340
Si Si3 0.836325 0.458500 0.238954
Si Si4 0.288082 0.750000 0.609780
Si Si5 0.267472 0.250000 0.277479
Si Si6 0.027157 0.250000 0.562252
Si Si7 0.056786 0.250000 0.726930
Si Si8 0.345676 0.443903 0.353542
O O1 0.623151 0.848385 0.094600
O O2 0.500000 0.000000 0.133917
O O3 0.784359 0.984422 0.168723
O O4 0.722638 0.002618 0.036181
O O5 0.763409 0.582913 0.418451
O O6 0.000000 0.500000 0.477922
O O7 0.887508 0.657604 0.532066
O O8 0.836500 0.343444 0.233657
O O9 0.726488 0.476263 0.303722
O O10 0.000000 0.500000 0.258146
O O11 0.265661 0.750000 0.693645
O O12 0.153665 0.750000 0.549441
O O13 0.355387 0.343226 0.309583
O O14 0.080408 0.250000 0.286334
O O15 0.005928 0.250000 0.646300
O O16 0.500000 0.500000 0.377691
#
# Coordination Sequence:
#
# PCOD8182244 Si02
#       8
#     8   8   8   4   4   4   4   8
#     4  12  25  43  70 105 144 184 225 295 360 420
#     4  12  25  45  71  97 136 185 239 287 348 421
#     4  12  22  43  70 103 136 181 236 286 345 420
#     4  11  22  42  72 107 140 177 236 291 347 425
#     4  11  23  43  74  97 141 184 225 293 347 411
#     4  11  21  43  72 106 131 179 237 296 342 415
#     4  11  22  38  74 110 134 170 242 290 336 417
#     4  12  27  47  67 102 144 185 231 290 362 423
#
# _framework density 20.872741999999999
#
# number of rings (size 3 to 8) (size 9 to 14) (size 15 to 20)
#    0.000    0.333    6.667    3.500    0.000    2.000 
#    0.000    4.167    0.000    0.000    0.000    0.000 
#    0.000    0.000    0.000    0.000    0.000    0.000 
#
# Total GULP energy -297373.830547 kJ/mol
# GULP energy per Si atom -12390.576273 kJ/mol
# Density = 2.082523 g / cm^3
# Si number density = 20.872742 Si / 1000 Ang^3
#
#
#
# Elastic Constant Matrix: (Units=GPa)
#
#
# Indices 1 2 3 4 5 6 
#
# 1 78.2054 47.6772 13.6586 0.0000 0.0000 0.0000
# 2 47.6772 190.5589 29.1211 0.0000 0.0000 0.0000
# 3 13.6586 29.1211 80.6687 0.0000 0.0000 0.0000
# 4 0.0000 0.0000 0.0000 55.8268 0.0000 0.0000
# 5 0.0000 0.0000 0.0000 0.0000 40.4137 0.0000
# 6 0.0000 0.0000 0.0000 0.0000 0.0000 54.4096
#
#
#
# Elastic Compliance Matrix: (Units=1/GPa)
#
#
# Indices 1 2 3 4 5 6 
#
# 1 0.015211 -0.003611 -0.001272 0.000000 0.000000 0.000000
# 2 -0.003611 0.006412 -0.001703 0.000000 0.000000 0.000000
# 3 -0.001272 -0.001703 0.013227 0.000000 0.000000 0.000000
# 4 0.000000 0.000000 0.000000 0.017913 0.000000 0.000000
# 5 0.000000 0.000000 0.000000 0.000000 0.024744 0.000000
# 6 0.000000 0.000000 0.000000 0.000000 0.000000 0.018379
#
#
# Mechanical properties :
#
#
# Convention : Reuss Voigt Hill
#
# Bulk Modulus (GPa) = 46.13323 58.92743 52.53033
# Shear Modulus (GPa) = 42.99891 47.39507 45.19699
#
# Velocity S-wave (km/s) = 4.54370 4.77032 4.65839
# Velocity P-wave (km/s) = 7.04820 7.65731 7.35906
#
# Compressibility (1/GPa) = 0.02167635
#
# Stress axis : x y z
#
# Youngs Moduli (GPa) = 65.74392 155.96932 75.60566
#
# Poissons Ratio (x) = 0.56325 0.09615
# Poissons Ratio (y) = 0.23742 0.12876
# Poissons Ratio (z) = 0.08361 0.26563
#
# Static dielectric constant tensor:
#      x y z
#    x 3.284990 0.000000 0.000000 
#    y 0.000000 4.174370 0.000000 
#    z 0.000000 0.000000 3.767020 
# 
# 
# High freq. dielectric constant tensor:
#      x y z
#    x 1.809190 0.000000 0.000000 
#    y 0.000000 1.836840 0.000000 
#    z 0.000000 0.000000 1.813930 
# 
# From -- ./inp_files/11661.got.cif
#   From: 2010.03.12/outbox.cif.g09.slc.cpg/sg39_6_cif.got.tgz:11661.got - 2010.04.14 02:53:20.
