data_PCOD8182356
_publ_section_title
;
Structure prediction by ZEFSAII (Michael W. Deem and Ramdas Pophale) SiO2 
 PCOD8182356
Probable space group: A M A 2
;
_chemical_formula_sum "Si O2"
_cell_formula_units_Z 64
_cell_length_a 24.235285
_cell_length_b 30.574191
_cell_length_c 5.090966
_cell_angle_alpha 90.000000
_cell_angle_beta 90.000000
_cell_angle_gamma 90.000000
_cell_volume 3772.274625
_symmetry_space_group_name_H-M "A M A 2"
_symmetry_group_IT_number 40
_symmetry_cell_setting 'orthorhombic'
loop_
_space_group_symop_operation_xyz
x,y,z
-x,-y,z
1/2-x,y,z
1/2+x,-y,z
x,1/2+y,1/2+z
-x,1/2-y,1/2+z
1/2-x,1/2+y,1/2+z
1/2+x,1/2-y,1/2+z
loop_
_atom_site_type_symbol
_atom_site_label
_atom_site_fract_x
_atom_site_fract_y
_atom_site_fract_z
Si Si1 0.313923 0.680388 0.477400
Si Si2 0.064168 0.000307 0.030158
Si Si3 0.685234 0.374271 0.966354
Si Si4 0.314160 0.276309 0.035386
Si Si5 0.620683 0.462306 0.022766
Si Si6 0.189313 0.457997 0.957054
Si Si7 0.640166 0.577192 0.461120
Si Si8 0.315221 0.830890 0.045296
O O1 0.250000 0.686106 0.541860
O O2 0.336089 0.646477 0.694229
O O3 0.342224 0.728333 0.505754
O O4 0.324435 0.662015 0.188650
O O5 0.075139 0.025966 0.302132
O O6 0.084259 0.949218 0.041223
O O7 0.095778 0.027245 0.806474
O O8 0.000000 0.000000 0.968716
O O9 0.750000 0.389015 0.959921
O O10 0.642887 0.413302 0.020570
O O11 0.250000 0.271034 0.976271
O O12 0.325936 0.294946 0.322503
O O13 0.336025 0.310083 0.817294
O O14 0.674676 0.491137 0.966377
O O15 0.250000 0.450957 0.066062
O O16 0.150362 0.430913 0.153226
O O17 0.186528 0.441704 0.657535
O O18 0.642030 0.629269 0.499131
O O19 0.250000 0.845231 0.047067
#
# Coordination Sequence:
#
# PCOD8182356 Si02
#       8
#     8   8   8   8   8   8   8   8
#     4   9  17  28  42  62  93 131 158 179 215 260
#     4  10  21  37  52  66  91 120 152 199 241 274
#     4  10  18  29  46  69  99 126 153 188 221 266
#     4   9  17  27  40  60  90 128 158 180 212 256
#     4  10  20  32  49  71  90 118 155 187 227 276
#     4  10  18  29  43  63  95 124 147 176 219 272
#     4  10  20  30  45  67  89 121 158 189 226 271
#     4  10  17  26  41  62  91 120 151 186 215 257
#
# _framework density 16.965890999999999
#
# number of rings (size 3 to 8) (size 9 to 14) (size 15 to 20)
#    0.000    2.250    0.000    4.125    0.000    4.000 
#    0.000    3.750    0.000    0.000    0.000    0.000 
#    0.000   20.000    0.000    0.000    0.000    0.000 
#
# Total GULP energy -396595.243335 kJ/mol
# GULP energy per Si atom -12393.601354 kJ/mol
# Density = 1.692728 g / cm^3
# Si number density = 16.965891 Si / 1000 Ang^3
#
#
#
# Elastic Constant Matrix: (Units=GPa)
#
#
# Indices 1 2 3 4 5 6 
#
# 1 42.1643 22.0799 1.5598 0.0000 0.0000 0.0000
# 2 22.0799 95.6342 4.2633 0.0000 0.0000 0.0000
# 3 1.5598 4.2633 71.5008 0.0000 0.0000 0.0000
# 4 0.0000 0.0000 0.0000 24.5570 0.0000 0.0000
# 5 0.0000 0.0000 0.0000 0.0000 10.5242 0.0000
# 6 0.0000 0.0000 0.0000 0.0000 0.0000 10.9150
#
#
#
# Elastic Compliance Matrix: (Units=1/GPa)
#
#
# Indices 1 2 3 4 5 6 
#
# 1 0.026982 -0.006220 -0.000218 0.000000 0.000000 0.000000
# 2 -0.006220 0.011918 -0.000575 0.000000 0.000000 0.000000
# 3 -0.000218 -0.000575 0.014025 0.000000 0.000000 0.000000
# 4 0.000000 0.000000 0.000000 0.040722 0.000000 0.000000
# 5 0.000000 0.000000 0.000000 0.000000 0.095019 0.000000
# 6 0.000000 0.000000 0.000000 0.000000 0.000000 0.091617
#
#
# Mechanical properties :
#
#
# Convention : Reuss Voigt Hill
#
# Bulk Modulus (GPa) = 25.70702 29.45614 27.58158
# Shear Modulus (GPa) = 16.27213 21.29235 18.78224
#
# Velocity S-wave (km/s) = 3.10031 3.54645 3.33086
# Velocity P-wave (km/s) = 5.29159 5.84546 5.57541
#
# Compressibility (1/GPa) = 0.03889987
#
# Stress axis : x y z
#
# Youngs Moduli (GPa) = 37.06191 83.90555 71.30183
#
# Poissons Ratio (x) = 0.52188 0.01553
# Poissons Ratio (y) = 0.23052 0.04099
# Poissons Ratio (z) = 0.00807 0.04824
#
# Static dielectric constant tensor:
#      x y z
#    x 2.683880 0.000000 0.000000 
#    y 0.000000 3.282010 0.000000 
#    z 0.000000 0.000000 3.341000 
# 
# 
# High freq. dielectric constant tensor:
#      x y z
#    x 1.583420 0.000000 0.000000 
#    y 0.000000 1.659930 0.000000 
#    z 0.000000 0.000000 1.679660 
# 
# From -- ./inp_files/2866.got.cif
#   From: 2010.03.12/outbox.cif.g09.slc.cpg/sg40_2_cif.got.tgz:2866.got - 2010.04.14 01:38:03.
