data_PCOD8182200
_publ_section_title
;
Structure prediction by ZEFSAII (Michael W. Deem and Ramdas Pophale) SiO2 
 PCOD8182200
Probable space group: A B M 2
;
_chemical_formula_sum "Si O2"
_cell_formula_units_Z 52
_cell_length_a 18.287956
_cell_length_b 8.467704
_cell_length_c 15.340904
_cell_angle_alpha 90.000000
_cell_angle_beta 90.000000
_cell_angle_gamma 90.000000
_cell_volume 2375.646343
_symmetry_space_group_name_H-M "A B M 2"
_symmetry_group_IT_number 39
_symmetry_cell_setting 'orthorhombic'
loop_
_space_group_symop_operation_xyz
x,y,z
-x,-y,z
-x,1/2+y,z
x,1/2-y,z
x,1/2+y,1/2+z
-x,1/2-y,1/2+z
-x,y,1/2+z
x,-y,1/2+z
loop_
_atom_site_type_symbol
_atom_site_label
_atom_site_fract_x
_atom_site_fract_y
_atom_site_fract_z
Si Si1 0.047154 0.250000 0.285880
Si Si2 0.580707 0.564742 0.354551
Si Si3 0.168770 0.497150 0.248078
Si Si4 0.673524 0.074184 0.692938
Si Si5 0.318179 0.433506 0.510937
Si Si6 0.084774 0.750000 0.969086
Si Si7 0.087619 0.250000 0.659102
Si Si8 0.174852 0.573439 0.441001
O O1 0.096300 0.397333 0.263549
O O2 0.026472 0.250000 0.389702
O O3 0.971810 0.250000 0.235044
O O4 0.500000 0.500000 0.347812
O O5 0.578110 0.750000 0.345307
O O6 0.629880 0.498905 0.274589
O O7 0.615490 0.517166 0.447343
O O8 0.240762 0.407446 0.216951
O O9 0.143735 0.605988 0.168126
O O10 0.187206 0.586991 0.337381
O O11 0.645244 0.250000 0.670845
O O12 0.658283 0.961432 0.610754
O O13 0.296453 0.250000 0.496682
O O14 0.251403 0.548254 0.489034
O O15 0.047969 0.750000 0.064808
O O16 0.128048 0.583668 0.962576
O O17 0.144879 0.750000 0.470687
#
# Coordination Sequence:
#
# PCOD8182200 Si02
#       8
#     4   8   8   8   8   4   4   8
#     4  10  24  46  70  94 137 188 223 285 354 416
#     4  10  24  44  66  93 138 183 227 285 353 413
#     4  11  22  41  69  97 135 176 232 284 339 413
#     4  11  23  42  68 101 133 180 233 285 342 412
#     4  11  23  40  65  98 139 176 226 285 345 407
#     4  10  24  44  72  96 143 178 227 292 340 414
#     4  12  24  44  66 106 136 180 230 285 358 410
#     4  11  21  40  69 104 132 179 229 285 344 408
#
# _framework density 21.888780000000001
#
# number of rings (size 3 to 8) (size 9 to 14) (size 15 to 20)
#    0.000    1.231    3.846    1.846    1.077    2.462 
#    1.385   10.769    0.000    0.000    0.000    0.000 
#    0.000    0.000    0.000    0.000    0.000    0.000 
#
# Total GULP energy -322169.002916 kJ/mol
# GULP energy per Si atom -12391.115497 kJ/mol
# Density = 2.183896 g / cm^3
# Si number density = 21.888780 Si / 1000 Ang^3
#
#
#
# Elastic Constant Matrix: (Units=GPa)
#
#
# Indices 1 2 3 4 5 6 
#
# 1 89.8654 18.4319 47.4190 0.0000 0.0000 0.0000
# 2 18.4319 110.9904 31.8674 0.0000 0.0000 0.0000
# 3 47.4190 31.8674 168.8937 0.0000 0.0000 0.0000
# 4 0.0000 0.0000 0.0000 25.3941 0.0000 0.0000
# 5 0.0000 0.0000 0.0000 0.0000 26.4954 0.0000
# 6 0.0000 0.0000 0.0000 0.0000 0.0000 16.4171
#
#
#
# Elastic Compliance Matrix: (Units=1/GPa)
#
#
# Indices 1 2 3 4 5 6 
#
# 1 0.013211 -0.001194 -0.003484 0.000000 0.000000 0.000000
# 2 -0.001194 0.009634 -0.001483 0.000000 0.000000 0.000000
# 3 -0.003484 -0.001483 0.007179 0.000000 0.000000 0.000000
# 4 0.000000 0.000000 0.000000 0.039379 0.000000 0.000000
# 5 0.000000 0.000000 0.000000 0.000000 0.037742 0.000000
# 6 0.000000 0.000000 0.000000 0.000000 0.000000 0.060912
#
#
# Mechanical properties :
#
#
# Convention : Reuss Voigt Hill
#
# Bulk Modulus (GPa) = 56.48715 62.79848 59.64281
# Shear Modulus (GPa) = 26.84153 31.79673 29.31913
#
# Velocity S-wave (km/s) = 3.50561 3.81550 3.66383
# Velocity P-wave (km/s) = 6.49986 6.93994 6.72350
#
# Compressibility (1/GPa) = 0.01770314
#
# Stress axis : x y z
#
# Youngs Moduli (GPa) = 75.69500 103.80237 139.29951
#
# Poissons Ratio (x) = 0.12390 0.48531
# Poissons Ratio (y) = 0.09035 0.20653
# Poissons Ratio (z) = 0.26371 0.15390
#
# Static dielectric constant tensor:
#      x y z
#    x 3.495720 0.000000 0.000000 
#    y 0.000000 3.928300 0.000000 
#    z 0.000000 0.000000 4.226180 
# 
# 
# High freq. dielectric constant tensor:
#      x y z
#    x 1.836230 0.000000 0.000000 
#    y 0.000000 1.865940 0.000000 
#    z 0.000000 0.000000 1.874390 
# 
# From -- ./inp_files/10312.got.cif
#   From: 2010.03.12/outbox.cif.g09.slc.cpg/sg39_6_cif.got.tgz:10312.got - 2010.04.14 02:53:20.
