data_PCOD8182058
_publ_section_title
;
Structure prediction by ZEFSAII (Michael W. Deem and Ramdas Pophale) SiO2 
 PCOD8182058
Probable space group: A B M 2
;
_chemical_formula_sum "Si O2"
_cell_formula_units_Z 56
_cell_length_a 14.616193
_cell_length_b 20.831417
_cell_length_c 8.786602
_cell_angle_alpha 90.000000
_cell_angle_beta 90.000000
_cell_angle_gamma 90.000000
_cell_volume 2675.309530
_symmetry_space_group_name_H-M "A B M 2"
_symmetry_group_IT_number 39
_symmetry_cell_setting 'orthorhombic'
loop_
_space_group_symop_operation_xyz
x,y,z
-x,-y,z
-x,1/2+y,z
x,1/2-y,z
x,1/2+y,1/2+z
-x,1/2-y,1/2+z
-x,y,1/2+z
x,-y,1/2+z
loop_
_atom_site_type_symbol
_atom_site_label
_atom_site_fract_x
_atom_site_fract_y
_atom_site_fract_z
Si Si1 0.806930 0.090185 0.054320
Si Si2 0.306930 0.090185 0.054320
Si Si3 0.750000 0.500000 0.306948
Si Si4 0.872332 0.175930 0.517790
Si Si5 0.627669 0.824070 0.517790
Si Si6 0.049649 0.323558 0.688576
Si Si7 0.549649 0.823558 0.188575
O O1 0.810889 0.046943 0.205350
O O2 0.892267 0.137466 0.063729
O O3 0.713142 0.130079 0.043664
O O4 0.817589 0.043019 0.910689
O O5 0.392267 0.137466 0.063729
O O6 0.310889 0.046943 0.205350
O O7 0.317588 0.043019 0.910689
O O8 0.213142 0.130079 0.043664
O O9 0.839262 0.250000 0.516686
O O10 0.923514 0.158447 0.360429
O O11 0.942461 0.163222 0.656984
O O12 0.660738 0.750000 0.516686
O O13 0.576486 0.841553 0.360429
O O14 0.557539 0.836778 0.656984
O O15 0.072270 0.250000 0.653714
O O16 0.572270 0.750000 0.153714
#
# Coordination Sequence:
#
# PCOD8182058 Si02
#       7
#     8   8   8   8   8   8   8
#     4  11  21  44  60  86 119 163 198 252 290 351
#     4  11  21  44  60  86 119 163 198 252 290 351
#     4  10  24  38  64  82 120 160 212 240 286 350
#     4  10  22  39  63  93 121 153 196 247 305 360
#     4  10  22  39  63  93 121 153 196 247 305 360
#     4  10  22  39  63  93 121 153 196 247 305 360
#     4  10  22  39  63  93 121 153 196 247 305 360
#
# _framework density 20.932158999999999
#
# number of rings (size 3 to 8) (size 9 to 14) (size 15 to 20)
#    0.000    1.714    2.857    0.857    4.000    0.000 
#    0.000    8.571    0.000    0.000    0.000    0.000 
#    0.000    0.000    0.000    0.000    0.000    0.000 
#
# Total GULP energy -347184.241503 kJ/mol
# GULP energy per Si atom -12399.437197 kJ/mol
# Density = 2.088452 g / cm^3
# Si number density = 20.932159 Si / 1000 Ang^3
#
#
#
# Elastic Constant Matrix: (Units=GPa)
#
#
# Indices 1 2 3 4 5 6 
#
# 1 77.4604 47.6464 20.4281 0.0000 0.0000 0.0000
# 2 47.6464 98.8502 43.2308 0.0000 0.0000 0.0000
# 3 20.4281 43.2308 90.9191 0.0000 0.0000 0.0000
# 4 0.0000 0.0000 0.0000 12.0140 0.0000 0.0000
# 5 0.0000 0.0000 0.0000 0.0000 24.2416 0.0000
# 6 0.0000 0.0000 0.0000 0.0000 0.0000 15.9402
#
#
#
# Elastic Compliance Matrix: (Units=1/GPa)
#
#
# Indices 1 2 3 4 5 6 
#
# 1 0.018351 -0.008891 0.000104 0.000000 0.000000 0.000000
# 2 -0.008891 0.017080 -0.006124 0.000000 0.000000 0.000000
# 3 0.000104 -0.006124 0.013887 0.000000 0.000000 0.000000
# 4 0.000000 0.000000 0.000000 0.083236 0.000000 0.000000
# 5 0.000000 0.000000 0.000000 0.000000 0.041251 0.000000
# 6 0.000000 0.000000 0.000000 0.000000 0.000000 0.062735
#
#
# Mechanical properties :
#
#
# Convention : Reuss Voigt Hill
#
# Bulk Modulus (GPa) = 51.28836 54.42668 52.85752
# Shear Modulus (GPa) = 18.32439 20.83410 19.57925
#
# Velocity S-wave (km/s) = 2.96196 3.15828 3.06169
# Velocity P-wave (km/s) = 6.02104 6.27356 6.14860
#
# Compressibility (1/GPa) = 0.01949760
#
# Stress axis : x y z
#
# Youngs Moduli (GPa) = 54.49221 58.54830 72.00962
#
# Poissons Ratio (x) = 0.52055 -0.00751
# Poissons Ratio (y) = 0.48449 0.44096
# Poissons Ratio (z) = -0.00568 0.35853
#
# Static dielectric constant tensor:
#      x y z
#    x 3.468810 0.000000 0.000000 
#    y 0.000000 4.102470 0.000000 
#    z 0.000000 0.000000 3.994820 
# 
# 
# High freq. dielectric constant tensor:
#      x y z
#    x 1.791840 0.000000 0.000000 
#    y 0.000000 1.833780 0.000000 
#    z 0.000000 0.000000 1.831040 
# 
# From -- ./inp_files/3405.got.cif
#   From: 2010.03.12/outbox.cif.g09.slc.cpg/sg39_2_cif.got.tgz:3405.got - 2010.04.14 02:53:20.
