data_PCOD8182294
_publ_section_title
;
Structure prediction by ZEFSAII (Michael W. Deem and Ramdas Pophale) SiO2 
 PCOD8182294
Probable space group: A B M 2
;
_chemical_formula_sum "Si O2"
_cell_formula_units_Z 56
_cell_length_a 19.994714
_cell_length_b 9.245214
_cell_length_c 14.669993
_cell_angle_alpha 90.000000
_cell_angle_beta 90.000000
_cell_angle_gamma 90.000000
_cell_volume 2711.827568
_symmetry_space_group_name_H-M "A B M 2"
_symmetry_group_IT_number 39
_symmetry_cell_setting 'orthorhombic'
loop_
_space_group_symop_operation_xyz
x,y,z
-x,-y,z
-x,1/2+y,z
x,1/2-y,z
x,1/2+y,1/2+z
-x,1/2-y,1/2+z
-x,y,1/2+z
x,-y,1/2+z
loop_
_atom_site_type_symbol
_atom_site_label
_atom_site_fract_x
_atom_site_fract_y
_atom_site_fract_z
Si Si1 0.671254 0.915842 0.929960
Si Si2 0.430783 0.417694 0.775122
Si Si3 0.939277 0.909346 0.421801
Si Si4 0.338346 0.585550 0.640787
Si Si5 0.190012 0.417184 0.127212
Si Si6 0.935787 0.915151 0.639767
Si Si7 0.204443 0.079225 0.439204
O O1 0.695488 0.750000 0.921804
O O2 0.604809 0.943899 0.871887
O O3 0.729662 0.020011 0.887785
O O4 0.655245 0.955573 0.034297
O O5 0.500000 0.500000 0.777129
O O6 0.444424 0.250000 0.756624
O O7 0.384754 0.475249 0.693977
O O8 0.958410 0.750000 0.391749
O O9 0.935379 0.924381 0.530649
O O10 0.865020 0.949286 0.383361
O O11 0.000000 0.000000 0.379093
O O12 0.362800 0.750000 0.656564
O O13 0.261697 0.569888 0.677522
O O14 0.167654 0.250000 0.119011
O O15 0.131099 0.506025 0.177992
O O16 0.201738 0.482989 0.028671
O O17 0.937170 0.750000 0.673825
O O18 0.000000 0.000000 0.679011
O O19 0.210451 0.250000 0.461751
#
# Coordination Sequence:
#
# PCOD8182294 Si02
#       7
#     8   8   8   8   8   8   8
#     4   9  20  38  58  82 112 146 182 223 271 324
#     4  11  24  41  61  86 115 144 179 221 269 327
#     4   8  14  21  31  54  89 128 170 215 261 307
#     4   9  19  37  59  83 113 147 184 225 272 324
#     4   9  16  27  44  67  99 138 178 223 273 324
#     4   9  15  22  34  57  92 133 178 226 274 324
#     4   9  16  26  43  69  99 134 179 225 267 318
#
# _framework density 20.650279999999999
#
# number of rings (size 3 to 8) (size 9 to 14) (size 15 to 20)
#    0.000    2.857    0.000    3.429    0.000    8.571 
#    0.000    1.429    0.000    0.000    0.000    1.000 
#    0.000    4.571    0.000    0.857    0.000    0.000 
#
# Total GULP energy -346987.887549 kJ/mol
# GULP energy per Si atom -12392.424555 kJ/mol
# Density = 2.060328 g / cm^3
# Si number density = 20.650280 Si / 1000 Ang^3
#
#
#
# Elastic Constant Matrix: (Units=GPa)
#
#
# Indices 1 2 3 4 5 6 
#
# 1 178.6115 105.3524 36.3206 0.0000 0.0000 0.0000
# 2 105.3524 156.5630 34.0584 0.0000 0.0000 0.0000
# 3 36.3206 34.0584 45.7541 0.0000 0.0000 0.0000
# 4 0.0000 0.0000 0.0000 15.2416 0.0000 0.0000
# 5 0.0000 0.0000 0.0000 0.0000 -54.9505 0.0000
# 6 0.0000 0.0000 0.0000 0.0000 0.0000 47.0309
#
#
#
# Elastic Compliance Matrix: (Units=1/GPa)
#
#
# Indices 1 2 3 4 5 6 
#
# 1 0.009705 -0.005793 -0.003392 0.000000 0.000000 0.000000
# 2 -0.005793 0.011079 -0.003648 0.000000 0.000000 0.000000
# 3 -0.003392 -0.003648 0.027265 0.000000 0.000000 0.000000
# 4 0.000000 0.000000 0.000000 0.065610 0.000000 0.000000
# 5 0.000000 0.000000 0.000000 0.000000 -0.018198 0.000000
# 6 0.000000 0.000000 0.000000 0.000000 0.000000 0.021263
#
#
# Mechanical properties :
#
#
# Convention : Reuss Voigt Hill
#
# Bulk Modulus (GPa) = 44.67910 81.37686 63.02798
# Shear Modulus (GPa) = 33.36639 15.14419 24.25529
#
# Velocity S-wave (km/s) = 4.02404 2.71101 3.43092
# Velocity P-wave (km/s) = 6.57827 7.02083 6.80315
#
# Compressibility (1/GPa) = 0.02238183
#
# Stress axis : x y z
#
# Youngs Moduli (GPa) = 103.03467 90.26101 36.67760
#
# Poissons Ratio (x) = 0.52288 0.12442
# Poissons Ratio (y) = 0.59687 0.13381
# Poissons Ratio (z) = 0.34952 0.32931
#
# Static dielectric constant tensor:
#      x y z
#    x 4.353070 0.000000 0.000000 
#    y 0.000000 3.846320 0.000000 
#    z 0.000000 0.000000 3.236500 
# 
# 
# High freq. dielectric constant tensor:
#      x y z
#    x 1.819530 0.000000 0.000000 
#    y 0.000000 1.814400 0.000000 
#    z 0.000000 0.000000 1.765720 
# 
# From -- ./inp_files/10400.got.cif
#   From: 2010.03.12/outbox.cif.g09.slc.cpg/sg39_6_cif.got.tgz:10400.got - 2010.04.14 02:53:20.
