data_PCOD8182737
_publ_section_title
;
Structure prediction by ZEFSAII (Michael W. Deem and Ramdas Pophale) SiO2 
 PCOD8182737
Probable space group: A M A 2
;
_chemical_formula_sum "Si O2"
_cell_formula_units_Z 64
_cell_length_a 8.859083
_cell_length_b 20.803743
_cell_length_c 19.676350
_cell_angle_alpha 90.000000
_cell_angle_beta 90.000000
_cell_angle_gamma 90.000000
_cell_volume 3626.392349
_symmetry_space_group_name_H-M "A M A 2"
_symmetry_group_IT_number 40
_symmetry_cell_setting 'orthorhombic'
loop_
_space_group_symop_operation_xyz
x,y,z
-x,-y,z
1/2-x,y,z
1/2+x,-y,z
x,1/2+y,1/2+z
-x,1/2-y,1/2+z
1/2-x,1/2+y,1/2+z
1/2+x,1/2-y,1/2+z
loop_
_atom_site_type_symbol
_atom_site_label
_atom_site_fract_x
_atom_site_fract_y
_atom_site_fract_z
Si Si1 0.575349 0.691438 0.015820
Si Si2 0.925116 0.742493 0.873853
Si Si3 0.073992 0.376843 0.365101
Si Si4 0.070606 0.811771 0.086755
Si Si5 0.926015 0.565796 0.507518
Si Si6 0.572674 0.236137 0.225888
Si Si7 0.071524 0.434867 0.094289
Si Si8 0.071365 0.617736 0.226332
O O1 0.750000 0.703040 0.033582
O O2 0.480109 0.748336 0.047807
O O3 0.519753 0.623397 0.045336
O O4 0.548602 0.691431 0.934176
O O5 0.750000 0.764048 0.869511
O O6 0.973891 0.710786 0.801149
O O7 0.022572 0.805802 0.887352
O O8 0.250000 0.374798 0.346965
O O9 0.039597 0.423381 0.428182
O O10 0.981566 0.404664 0.301095
O O11 0.250000 0.813460 0.082916
O O12 0.003630 0.875650 0.051785
O O13 0.008607 0.808176 0.164855
O O14 0.750000 0.560994 0.521786
O O15 0.000000 0.500000 0.532505
O O16 0.750000 0.236986 0.217879
O O17 0.514838 0.309070 0.216405
O O18 0.250000 0.441673 0.096690
O O19 0.000000 0.500000 0.064001
O O20 0.009223 0.425400 0.170156
O O21 0.250000 0.609490 0.219801
#
# Coordination Sequence:
#
# PCOD8182737 Si02
#       8
#     8   8   8   8   8   8   8   8
#     4  10  20  33  53  79 105 133 171 220 265 306
#     4   9  17  31  51  78 105 133 169 210 262 313
#     4  10  19  32  49  74 106 139 174 215 254 304
#     4  10  18  33  54  77 101 131 173 214 259 313
#     4  10  22  35  50  72 102 139 175 212 257 304
#     4   8  15  28  51  77 101 128 163 205 253 310
#     4  11  23  37  52  75 105 141 179 218 266 316
#     4  10  19  33  53  76 103 140 174 211 259 311
#
# _framework density 17.648394
#
# number of rings (size 3 to 8) (size 9 to 14) (size 15 to 20)
#    0.000    2.250    2.500    1.875    0.000    2.500 
#    0.000    1.250    0.000    0.750    0.000    0.000 
#    0.000    0.000    0.000    0.000    0.000    0.000 
#
# Total GULP energy -396700.493694 kJ/mol
# GULP energy per Si atom -12396.890428 kJ/mol
# Density = 1.760822 g / cm^3
# Si number density = 17.648394 Si / 1000 Ang^3
#
#
#
# Elastic Constant Matrix: (Units=GPa)
#
#
# Indices 1 2 3 4 5 6 
#
# 1 41.5449 31.4554 28.0386 0.0000 0.0000 0.0000
# 2 31.4554 116.5327 64.3412 0.0000 0.0000 0.0000
# 3 28.0386 64.3412 114.1556 0.0000 0.0000 0.0000
# 4 0.0000 0.0000 0.0000 24.2378 0.0000 0.0000
# 5 0.0000 0.0000 0.0000 0.0000 19.6586 0.0000
# 6 0.0000 0.0000 0.0000 0.0000 0.0000 24.1045
#
#
#
# Elastic Compliance Matrix: (Units=1/GPa)
#
#
# Indices 1 2 3 4 5 6 
#
# 1 0.031640 -0.006170 -0.004294 0.000000 0.000000 0.000000
# 2 -0.006170 0.013661 -0.006185 0.000000 0.000000 0.000000
# 3 -0.004294 -0.006185 0.013300 0.000000 0.000000 0.000000
# 4 0.000000 0.000000 0.000000 0.041258 0.000000 0.000000
# 5 0.000000 0.000000 0.000000 0.000000 0.050868 0.000000
# 6 0.000000 0.000000 0.000000 0.000000 0.000000 0.041486
#
#
# Mechanical properties :
#
#
# Convention : Reuss Voigt Hill
#
# Bulk Modulus (GPa) = 39.51751 57.76706 48.64229
# Shear Modulus (GPa) = 21.37260 23.49339 22.43300
#
# Velocity S-wave (km/s) = 3.48375 3.65251 3.56913
# Velocity P-wave (km/s) = 6.21468 7.11274 6.67882
#
# Compressibility (1/GPa) = 0.02530524
#
# Stress axis : x y z
#
# Youngs Moduli (GPa) = 31.60605 73.19951 75.18584
#
# Poissons Ratio (x) = 0.45161 0.32284
# Poissons Ratio (y) = 0.19500 0.46499
# Poissons Ratio (z) = 0.13571 0.45270
#
# Static dielectric constant tensor:
#      x y z
#    x 3.147670 0.000000 0.000000 
#    y 0.000000 3.205660 0.000000 
#    z 0.000000 0.000000 3.715310 
# 
# 
# High freq. dielectric constant tensor:
#      x y z
#    x 1.672800 0.000000 0.000000 
#    y 0.000000 1.655170 0.000000 
#    z 0.000000 0.000000 1.690890 
# 
# From -- ./inp_files/22386.got.cif
#   From: 2010.03.12/outbox.cif.g09.slc.cpg/sg40_12_cif.got.tgz:22386.got - 2010.04.14 01:38:03.
