data_PCOD8182503
_publ_section_title
;
Structure prediction by ZEFSAII (Michael W. Deem and Ramdas Pophale) SiO2 
 PCOD8182503
Probable space group: A M A 2
;
_chemical_formula_sum "Si O2"
_cell_formula_units_Z 56
_cell_length_a 8.879044
_cell_length_b 13.625812
_cell_length_c 29.486849
_cell_angle_alpha 90.000000
_cell_angle_beta 90.000000
_cell_angle_gamma 90.000000
_cell_volume 3567.442373
_symmetry_space_group_name_H-M "A M A 2"
_symmetry_group_IT_number 40
_symmetry_cell_setting 'orthorhombic'
loop_
_space_group_symop_operation_xyz
x,y,z
-x,-y,z
1/2-x,y,z
1/2+x,-y,z
x,1/2+y,1/2+z
-x,1/2-y,1/2+z
1/2-x,1/2+y,1/2+z
1/2+x,1/2-y,1/2+z
loop_
_atom_site_type_symbol
_atom_site_label
_atom_site_fract_x
_atom_site_fract_y
_atom_site_fract_z
Si Si1 0.427577 0.893382 0.388740
Si Si2 0.074501 0.604545 0.701391
Si Si3 0.072820 0.606248 0.800306
Si Si4 0.924149 0.100568 0.565434
Si Si5 0.926861 0.797871 0.110393
Si Si6 0.071280 0.396532 0.525752
Si Si7 0.427023 0.781525 0.478974
O O1 0.250000 0.907009 0.384554
O O2 0.493203 0.840438 0.343100
O O3 0.471085 0.821847 0.429801
O O4 0.500000 0.000000 0.396783
O O5 0.250000 0.583844 0.698248
O O6 0.036999 0.653483 0.750769
O O7 0.022237 0.677970 0.661703
O O8 0.000000 0.500000 0.694126
O O9 0.250000 0.600010 0.809534
O O10 0.000000 0.500000 0.799086
O O11 0.750000 0.078085 0.565212
O O12 0.966908 0.184105 0.602021
O O13 0.976532 0.136730 0.515753
O O14 0.000000 0.000000 0.580052
O O15 0.750000 0.816871 0.102025
O O16 0.016811 0.866904 0.075932
O O17 0.250000 0.404217 0.525323
O O18 0.000000 0.500000 0.511952
O O19 0.017505 0.318163 0.488204
O O20 0.250000 0.758948 0.483851
#
# Coordination Sequence:
#
# PCOD8182503 Si02
#       7
#     8   8   8   8   8   8   8
#     4  10  18  28  44  65  91 120 147 179 218 259
#     4   9  17  28  43  62  86 116 146 178 216 258
#     4   9  16  26  40  60  86 114 145 178 215 261
#     4   9  17  29  44  61  85 113 141 177 214 251
#     4   9  18  32  46  63  88 117 149 182 218 257
#     4  11  21  32  47  66  89 116 145 179 217 258
#     4   9  19  33  46  63  87 116 148 179 213 254
#
# _framework density 15.697520000000001
#
# number of rings (size 3 to 8) (size 9 to 14) (size 15 to 20)
#    0.000    2.571    0.000    4.714    0.000    5.714 
#    0.000    0.000    0.000    0.000    0.000    1.000 
#    0.000    4.571    0.000    0.000    0.000    0.000 
#
# Total GULP energy -347037.398369 kJ/mol
# GULP energy per Si atom -12394.192799 kJ/mol
# Density = 1.566179 g / cm^3
# Si number density = 15.697520 Si / 1000 Ang^3
#
#
#
# Elastic Constant Matrix: (Units=GPa)
#
#
# Indices 1 2 3 4 5 6 
#
# 1 72.4140 43.0588 49.9259 0.0000 0.0000 0.0000
# 2 43.0588 96.3843 62.0948 0.0000 0.0000 0.0000
# 3 49.9259 62.0948 157.9545 0.0000 0.0000 0.0000
# 4 0.0000 0.0000 0.0000 21.2188 0.0000 0.0000
# 5 0.0000 0.0000 0.0000 0.0000 39.1580 0.0000
# 6 0.0000 0.0000 0.0000 0.0000 0.0000 22.3767
#
#
#
# Elastic Compliance Matrix: (Units=1/GPa)
#
#
# Indices 1 2 3 4 5 6 
#
# 1 0.020406 -0.006643 -0.003838 0.000000 0.000000 0.000000
# 2 -0.006643 0.016057 -0.004212 0.000000 0.000000 0.000000
# 3 -0.003838 -0.004212 0.009200 0.000000 0.000000 0.000000
# 4 0.000000 0.000000 0.000000 0.047128 0.000000 0.000000
# 5 0.000000 0.000000 0.000000 0.000000 0.025538 0.000000
# 6 0.000000 0.000000 0.000000 0.000000 0.000000 0.044689
#
#
# Mechanical properties :
#
#
# Convention : Reuss Voigt Hill
#
# Bulk Modulus (GPa) = 61.44462 70.76798 66.10630
# Shear Modulus (GPa) = 25.27410 27.99559 26.63484
#
# Velocity S-wave (km/s) = 4.01692 4.22766 4.12364
# Velocity P-wave (km/s) = 7.79372 8.30728 8.05460
#
# Compressibility (1/GPa) = 0.01627482
#
# Stress axis : x y z
#
# Youngs Moduli (GPa) = 49.00496 62.27877 108.69473
#
# Poissons Ratio (x) = 0.41375 0.41720
# Poissons Ratio (y) = 0.32556 0.45786
# Poissons Ratio (z) = 0.18809 0.26234
#
# Static dielectric constant tensor:
#      x y z
#    x 3.014760 0.000000 0.000000 
#    y 0.000000 2.806490 0.000000 
#    z 0.000000 0.000000 3.602200 
# 
# 
# High freq. dielectric constant tensor:
#      x y z
#    x 1.609660 0.000000 0.000000 
#    y 0.000000 1.567640 0.000000 
#    z 0.000000 0.000000 1.607380 
# 
# From -- ./inp_files/26420.got.cif
#   From: 2010.03.12/outbox.cif.g09.slc.cpg/sg40_14_cif.got.tgz:26420.got - 2010.04.14 01:38:03.
