data_PCOD8182873
_publ_section_title
;
Structure prediction by ZEFSAII (Michael W. Deem and Ramdas Pophale) SiO2 
 PCOD8182873
Probable space group: A M A 2
;
_chemical_formula_sum "Si O2"
_cell_formula_units_Z 64
_cell_length_a 8.853536
_cell_length_b 14.772705
_cell_length_c 27.727801
_cell_angle_alpha 90.000000
_cell_angle_beta 90.000000
_cell_angle_gamma 90.000000
_cell_volume 3626.537824
_symmetry_space_group_name_H-M "A M A 2"
_symmetry_group_IT_number 40
_symmetry_cell_setting 'orthorhombic'
loop_
_space_group_symop_operation_xyz
x,y,z
-x,-y,z
1/2-x,y,z
1/2+x,-y,z
x,1/2+y,1/2+z
-x,1/2-y,1/2+z
1/2-x,1/2+y,1/2+z
1/2+x,1/2-y,1/2+z
loop_
_atom_site_type_symbol
_atom_site_label
_atom_site_fract_x
_atom_site_fract_y
_atom_site_fract_z
Si Si1 0.570810 0.907514 0.605430
Si Si2 0.928449 0.092544 0.708495
Si Si3 0.926880 0.729561 0.292522
Si Si4 0.571949 0.093817 0.259478
Si Si5 0.428490 0.778989 0.066757
Si Si6 0.928627 0.594459 0.483094
Si Si7 0.427753 0.405941 0.374099
Si Si8 0.071611 0.907177 0.150028
O O1 0.750000 0.917871 0.610107
O O2 0.503947 0.883936 0.657598
O O3 0.524071 0.826466 0.569095
O O4 0.500000 0.000000 0.584628
O O5 0.750000 0.079344 0.702044
O O6 0.968143 0.172847 0.744933
O O7 0.000000 0.000000 0.729201
O O8 0.750000 0.749695 0.295278
O O9 0.983267 0.674378 0.339359
O O10 0.013949 0.824488 0.292623
O O11 0.750000 0.085523 0.264148
O O12 0.519327 0.113992 0.204583
O O13 0.500000 0.000000 0.277879
O O14 0.250000 0.787122 0.066782
O O15 0.490049 0.828880 0.114748
O O16 0.491301 0.826205 0.018164
O O17 0.750000 0.584426 0.487203
O O18 0.977856 0.618684 0.428582
O O19 0.000000 0.500000 0.499876
O O20 0.500000 0.500000 0.357128
O O21 0.250000 0.418635 0.369532
O O22 0.250000 0.917154 0.147376
O O23 0.000000 0.000000 0.131419
#
# Coordination Sequence:
#
# PCOD8182873 Si02
#       8
#     8   8   8   8   8   8   8   8
#     4  10  19  32  47  64  90 122 157 194 231 273
#     4  10  19  30  45  67  96 126 157 193 232 276
#     4  10  20  32  47  69  95 124 159 195 230 273
#     4  10  20  33  49  68  93 126 160 195 233 273
#     4   9  17  29  47  68  91 121 154 185 223 274
#     4   9  17  31  50  72  96 122 150 182 226 275
#     4   9  18  32  50  72  98 124 151 187 230 277
#     4   9  17  29  44  66  94 121 150 183 221 267
#
# _framework density 17.647684999999999
#
# number of rings (size 3 to 8) (size 9 to 14) (size 15 to 20)
#    0.000    2.500    0.000    3.375    0.000    3.000 
#    0.000    2.500    0.000    0.750    0.000    1.750 
#    0.000    0.000    0.000    0.000    0.000    0.000 
#
# Total GULP energy -396762.184519 kJ/mol
# GULP energy per Si atom -12398.818266 kJ/mol
# Density = 1.760752 g / cm^3
# Si number density = 17.647685 Si / 1000 Ang^3
#
#
#
# Elastic Constant Matrix: (Units=GPa)
#
#
# Indices 1 2 3 4 5 6 
#
# 1 49.1580 42.6969 26.6665 0.0000 0.0000 0.0000
# 2 42.6969 165.1954 79.5194 0.0000 0.0000 0.0000
# 3 26.6665 79.5194 87.5528 0.0000 0.0000 0.0000
# 4 0.0000 0.0000 0.0000 29.3754 0.0000 0.0000
# 5 0.0000 0.0000 0.0000 0.0000 15.0512 0.0000
# 6 0.0000 0.0000 0.0000 0.0000 0.0000 30.5379
#
#
#
# Elastic Compliance Matrix: (Units=1/GPa)
#
#
# Indices 1 2 3 4 5 6 
#
# 1 0.026764 -0.005319 -0.003321 0.000000 0.000000 0.000000
# 2 -0.005319 0.011813 -0.009109 0.000000 0.000000 0.000000
# 3 -0.003321 -0.009109 0.020706 0.000000 0.000000 0.000000
# 4 0.000000 0.000000 0.000000 0.034042 0.000000 0.000000
# 5 0.000000 0.000000 0.000000 0.000000 0.066440 0.000000
# 6 0.000000 0.000000 0.000000 0.000000 0.000000 0.032746
#
#
# Mechanical properties :
#
#
# Convention : Reuss Voigt Hill
#
# Bulk Modulus (GPa) = 42.04203 66.63020 54.33611
# Shear Modulus (GPa) = 21.19206 25.19445 23.19326
#
# Velocity S-wave (km/s) = 3.46907 3.78250 3.62917
# Velocity P-wave (km/s) = 6.31828 7.54415 6.95826
#
# Compressibility (1/GPa) = 0.02378572
#
# Stress axis : x y z
#
# Youngs Moduli (GPa) = 37.36384 84.65265 48.29452
#
# Poissons Ratio (x) = 0.45027 0.16037
# Poissons Ratio (y) = 0.19874 0.43992
# Poissons Ratio (z) = 0.12407 0.77110
#
# Static dielectric constant tensor:
#      x y z
#    x 3.133800 0.000000 0.000000 
#    y 0.000000 3.625640 0.000000 
#    z 0.000000 0.000000 3.341960 
# 
# 
# High freq. dielectric constant tensor:
#      x y z
#    x 1.673250 0.000000 0.000000 
#    y 0.000000 1.685160 0.000000 
#    z 0.000000 0.000000 1.662200 
# 
# From -- ./inp_files/26450.got.cif
#   From: 2010.03.12/outbox.cif.g09.slc.cpg/sg40_14_cif.got.tgz:26450.got - 2010.04.14 01:38:03.
