data_PCOD8182743
_publ_section_title
;
Structure prediction by ZEFSAII (Michael W. Deem and Ramdas Pophale) SiO2 
 PCOD8182743
Probable space group: A M A 2
;
_chemical_formula_sum "Si O2"
_cell_formula_units_Z 64
_cell_length_a 19.873177
_cell_length_b 19.880205
_cell_length_c 8.611293
_cell_angle_alpha 90.000000
_cell_angle_beta 90.000000
_cell_angle_gamma 90.000000
_cell_volume 3402.174032
_symmetry_space_group_name_H-M "A M A 2"
_symmetry_group_IT_number 40
_symmetry_cell_setting 'orthorhombic'
loop_
_space_group_symop_operation_xyz
x,y,z
-x,-y,z
1/2-x,y,z
1/2+x,-y,z
x,1/2+y,1/2+z
-x,1/2-y,1/2+z
1/2-x,1/2+y,1/2+z
1/2+x,1/2-y,1/2+z
loop_
_atom_site_type_symbol
_atom_site_label
_atom_site_fract_x
_atom_site_fract_y
_atom_site_fract_z
Si Si1 0.171273 0.606066 0.695170
Si Si2 0.910439 0.303527 0.886267
Si Si3 0.612002 0.180200 0.683576
Si Si4 0.675843 0.786106 0.974808
Si Si5 0.826785 0.111985 0.973784
Si Si6 0.453924 0.367281 0.891846
Si Si7 0.576377 0.018867 0.163899
Si Si8 0.627419 0.230087 0.180226
O O1 0.250000 0.584234 0.692227
O O2 0.159014 0.659200 0.837153
O O3 0.140738 0.646390 0.543592
O O4 0.123492 0.542323 0.712790
O O5 0.926824 0.237517 0.781586
O O6 0.966631 0.360645 0.868660
O O7 0.910414 0.279292 0.063043
O O8 0.659051 0.216074 0.557872
O O9 0.654958 0.132759 0.797937
O O10 0.562478 0.135246 0.576423
O O11 0.750000 0.803175 0.027625
O O12 0.671758 0.778630 0.789570
O O13 0.750000 0.082986 0.976925
O O14 0.883348 0.058747 0.028607
O O15 0.827376 0.176850 0.086304
O O16 0.428980 0.437199 0.820398
O O17 0.424885 0.304813 0.795058
O O18 0.500000 0.000000 0.107314
#
# Coordination Sequence:
#
# PCOD8182743 Si02
#       8
#     8   8   8   8   8   8   8   8
#     4  10  21  37  57  79 107 149 187 227 278 327
#     4  10  18  33  55  83 115 145 176 226 276 338
#     4   9  19  33  54  87 111 144 176 225 282 339
#     4   9  17  32  54  81 115 144 173 220 276 337
#     4  10  20  36  59  85 114 146 183 231 278 330
#     4  10  19  35  55  80 114 147 185 225 277 326
#     4  11  22  40  58  78 108 149 199 236 270 324
#     4   9  19  31  54  89 114 142 176 224 277 339
#
# _framework density 18.811502000000001
#
# number of rings (size 3 to 8) (size 9 to 14) (size 15 to 20)
#    0.000    2.250    1.250    1.875    0.000    3.500 
#    4.500    3.750    0.000    0.000    0.000    0.000 
#    0.000    0.000    0.000    0.000    0.000    0.000 
#
# Total GULP energy -396435.060286 kJ/mol
# GULP energy per Si atom -12388.595634 kJ/mol
# Density = 1.876869 g / cm^3
# Si number density = 18.811502 Si / 1000 Ang^3
#
#
#
# Elastic Constant Matrix: (Units=GPa)
#
#
# Indices 1 2 3 4 5 6 
#
# 1 111.1825 41.8671 38.9387 0.0000 0.0000 0.0000
# 2 41.8671 92.0479 44.0675 0.0000 0.0000 0.0000
# 3 38.9387 44.0675 128.3304 0.0000 0.0000 0.0000
# 4 0.0000 0.0000 0.0000 12.8670 0.0000 0.0000
# 5 0.0000 0.0000 0.0000 0.0000 21.0340 0.0000
# 6 0.0000 0.0000 0.0000 0.0000 0.0000 29.7738
#
#
#
# Elastic Compliance Matrix: (Units=1/GPa)
#
#
# Indices 1 2 3 4 5 6 
#
# 1 0.011260 -0.004172 -0.001984 0.000000 0.000000 0.000000
# 2 -0.004172 0.014547 -0.003729 0.000000 0.000000 0.000000
# 3 -0.001984 -0.003729 0.009675 0.000000 0.000000 0.000000
# 4 0.000000 0.000000 0.000000 0.077718 0.000000 0.000000
# 5 0.000000 0.000000 0.000000 0.000000 0.047542 0.000000
# 6 0.000000 0.000000 0.000000 0.000000 0.000000 0.033587
#
#
# Mechanical properties :
#
#
# Convention : Reuss Voigt Hill
#
# Bulk Modulus (GPa) = 63.64753 64.58970 64.11862
# Shear Modulus (GPa) = 22.79605 26.51413 24.65509
#
# Velocity S-wave (km/s) = 3.48489 3.75836 3.62420
# Velocity P-wave (km/s) = 7.07817 7.29681 7.18832
#
# Compressibility (1/GPa) = 0.01571153
#
# Stress axis : x y z
#
# Youngs Moduli (GPa) = 88.81027 68.74366 103.35853
#
# Poissons Ratio (x) = 0.28677 0.20507
# Poissons Ratio (y) = 0.37048 0.38547
# Poissons Ratio (z) = 0.17620 0.25638
#
# Static dielectric constant tensor:
#      x y z
#    x 3.426490 0.000000 0.000000 
#    y 0.000000 3.360580 0.000000 
#    z 0.000000 0.000000 3.534620 
# 
# 
# High freq. dielectric constant tensor:
#      x y z
#    x 1.726790 0.000000 0.000000 
#    y 0.000000 1.717370 0.000000 
#    z 0.000000 0.000000 1.727940 
# 
# From -- ./inp_files/8467.got.cif
#   From: 2010.03.12/outbox.cif.g09.slc.cpg/sg40_5_cif.got.tgz:8467.got - 2010.04.14 01:38:03.
