data_PCOD8182260
_publ_section_title
;
Structure prediction by ZEFSAII (Michael W. Deem and Ramdas Pophale) SiO2 
 PCOD8182260
Probable space group: A B M 2
;
_chemical_formula_sum "Si O2"
_cell_formula_units_Z 48
_cell_length_a 9.563724
_cell_length_b 26.919694
_cell_length_c 8.455795
_cell_angle_alpha 90.000000
_cell_angle_beta 90.000000
_cell_angle_gamma 90.000000
_cell_volume 2176.965762
_symmetry_space_group_name_H-M "A B M 2"
_symmetry_group_IT_number 39
_symmetry_cell_setting 'orthorhombic'
loop_
_space_group_symop_operation_xyz
x,y,z
-x,-y,z
-x,1/2+y,z
x,1/2-y,z
x,1/2+y,1/2+z
-x,1/2-y,1/2+z
-x,y,1/2+z
x,-y,1/2+z
loop_
_atom_site_type_symbol
_atom_site_label
_atom_site_fract_x
_atom_site_fract_y
_atom_site_fract_z
Si Si1 0.310362 0.658616 0.270210
Si Si2 0.642105 0.553674 0.865732
Si Si3 0.186371 0.851103 0.771535
Si Si4 0.332796 0.549837 0.738887
Si Si5 0.437925 0.807168 0.596031
Si Si6 0.057255 0.307611 0.588291
O O1 0.273452 0.601017 0.300760
O O2 0.380432 0.683101 0.422533
O O3 0.417468 0.663045 0.122673
O O4 0.167101 0.687105 0.231984
O O5 0.480258 0.560393 0.821538
O O6 0.715518 0.505175 0.790905
O O7 0.648739 0.551749 0.052780
O O8 0.215988 0.910029 0.790989
O O9 0.331047 0.824205 0.731457
O O10 0.080104 0.839774 0.627650
O O11 0.124782 0.829003 0.930838
O O12 0.472075 0.750000 0.620333
O O13 0.016090 0.250000 0.566762
#
# Coordination Sequence:
#
# PCOD8182260 Si02
#       6
#     8   8   8   8   8   8
#     4  12  24  42  68 100 140 179 230 292 352 417
#     4  11  22  42  70 108 137 179 226 289 355 410
#     4  12  26  46  70 100 137 184 236 289 351 420
#     4  11  24  42  75 105 140 181 229 291 355 424
#     4  12  23  40  66 102 138 176 233 289 347 416
#     4  12  27  46  69  97 140 191 232 286 354 423
#
# _framework density 22.049037999999999
#
# number of rings (size 3 to 8) (size 9 to 14) (size 15 to 20)
#    0.000    0.333    3.333    7.000    4.667    0.000 
#    0.000    0.833    0.000    0.000    0.000    0.000 
#    0.000    0.000    0.000    0.000    0.000    0.000 
#
# Total GULP energy -297731.815114 kJ/mol
# GULP energy per Si atom -12405.492296 kJ/mol
# Density = 2.199885 g / cm^3
# Si number density = 22.049038 Si / 1000 Ang^3
#
#
#
# Elastic Constant Matrix: (Units=GPa)
#
#
# Indices 1 2 3 4 5 6 
#
# 1 75.1632 46.9703 4.4680 0.0000 0.0000 0.0000
# 2 46.9703 162.2605 34.2817 0.0000 0.0000 0.0000
# 3 4.4680 34.2817 69.8859 0.0000 0.0000 0.0000
# 4 0.0000 0.0000 0.0000 42.5005 0.0000 0.0000
# 5 0.0000 0.0000 0.0000 0.0000 32.9411 0.0000
# 6 0.0000 0.0000 0.0000 0.0000 0.0000 41.0943
#
#
#
# Elastic Compliance Matrix: (Units=1/GPa)
#
#
# Indices 1 2 3 4 5 6 
#
# 1 0.016369 -0.005040 0.001426 0.000000 0.000000 0.000000
# 2 -0.005040 0.008427 -0.003812 0.000000 0.000000 0.000000
# 3 0.001426 -0.003812 0.016088 0.000000 0.000000 0.000000
# 4 0.000000 0.000000 0.000000 0.023529 0.000000 0.000000
# 5 0.000000 0.000000 0.000000 0.000000 0.030357 0.000000
# 6 0.000000 0.000000 0.000000 0.000000 0.000000 0.024334
#
#
# Mechanical properties :
#
#
# Convention : Reuss Voigt Hill
#
# Bulk Modulus (GPa) = 38.41360 53.19440 45.80400
# Shear Modulus (GPa) = 35.05501 38.07981 36.56741
#
# Velocity S-wave (km/s) = 3.99164 4.16029 4.07684
# Velocity P-wave (km/s) = 6.22125 6.87424 6.55588
#
# Compressibility (1/GPa) = 0.02603245
#
# Stress axis : x y z
#
# Youngs Moduli (GPa) = 61.09140 118.66535 62.15952
#
# Poissons Ratio (x) = 0.59802 -0.08861
# Poissons Ratio (y) = 0.30788 0.23693
# Poissons Ratio (z) = -0.08709 0.45231
#
# Static dielectric constant tensor:
#      x y z
#    x 3.844580 0.000000 0.000000 
#    y 0.000000 4.741360 0.000000 
#    z 0.000000 0.000000 4.066470 
# 
# 
# High freq. dielectric constant tensor:
#      x y z
#    x 1.848020 0.000000 0.000000 
#    y 0.000000 1.880590 0.000000 
#    z 0.000000 0.000000 1.886810 
# 
# From -- ./inp_files/2307.got.cif
#   From: 2010.03.12/outbox.cif.g09.slc.cpg/sg39_2_cif.got.tgz:2307.got - 2010.04.14 02:53:20.
