data_PCOD8182943
_publ_section_title
;
Structure prediction by ZEFSAII (Michael W. Deem and Ramdas Pophale) SiO2 
 PCOD8182943
Probable space group: A M A 2
;
_chemical_formula_sum "Si O2"
_cell_formula_units_Z 64
_cell_length_a 9.207592
_cell_length_b 15.801572
_cell_length_c 22.341034
_cell_angle_alpha 90.000000
_cell_angle_beta 90.000000
_cell_angle_gamma 90.000000
_cell_volume 3250.495961
_symmetry_space_group_name_H-M "A M A 2"
_symmetry_group_IT_number 40
_symmetry_cell_setting 'orthorhombic'
loop_
_space_group_symop_operation_xyz
x,y,z
-x,-y,z
1/2-x,y,z
1/2+x,-y,z
x,1/2+y,1/2+z
-x,1/2-y,1/2+z
1/2-x,1/2+y,1/2+z
1/2+x,1/2-y,1/2+z
loop_
_atom_site_type_symbol
_atom_site_label
_atom_site_fract_x
_atom_site_fract_y
_atom_site_fract_z
Si Si1 0.417710 0.576314 0.837790
Si Si2 0.910082 0.612581 0.725293
Si Si3 0.909904 0.803913 0.762951
Si Si4 0.418607 0.414317 0.039266
Si Si5 0.078634 0.914505 0.088925
Si Si6 0.584377 0.081273 0.680136
Si Si7 0.081497 0.256971 0.508123
Si Si8 0.415927 0.262277 0.373178
O O1 0.500000 0.500000 0.872519
O O2 0.250000 0.556222 0.840067
O O3 0.469969 0.572824 0.768677
O O4 0.457989 0.663219 0.870269
O O5 0.750000 0.570170 0.732911
O O6 0.893159 0.708726 0.743384
O O7 0.965885 0.601771 0.657573
O O8 0.750000 0.846980 0.764258
O O9 0.014203 0.839733 0.712514
O O10 0.981022 0.814920 0.828741
O O11 0.500000 0.500000 0.016968
O O12 0.250000 0.419431 0.019643
O O13 0.434419 0.406515 0.110032
O O14 0.490480 0.329341 0.013395
O O15 0.250000 0.926394 0.080322
O O16 0.025663 0.831953 0.051582
O O17 0.000000 0.000000 0.065698
O O18 0.750000 0.072332 0.699480
O O19 0.500000 0.000000 0.703989
O O20 0.250000 0.234850 0.521189
O O21 0.061588 0.293031 0.440910
O O22 0.250000 0.274599 0.351850
#
# Coordination Sequence:
#
# PCOD8182943 Si02
#       8
#     8   8   8   8   8   8   8   8
#     4  10  19  31  49  74 103 134 167 206 255 311
#     4   9  18  32  51  77 106 135 167 207 259 318
#     4  10  19  33  55  80 106 137 174 218 269 324
#     4  10  21  36  57  86 117 148 182 224 275 335
#     4  10  21  36  55  79 107 140 179 224 272 322
#     4  10  20  34  53  79 110 140 173 216 269 328
#     4  10  21  39  59  78 107 148 190 233 279 325
#     4   9  20  37  54  73 101 140 182 222 266 317
#
# _framework density 19.689302000000001
#
# number of rings (size 3 to 8) (size 9 to 14) (size 15 to 20)
#    0.000    2.250    0.000    2.625    0.000    6.500 
#    0.000    1.875    0.000    1.500    0.000    0.000 
#    0.000    0.000    0.000    0.000    0.000    0.000 
#
# Total GULP energy -396708.849381 kJ/mol
# GULP energy per Si atom -12397.151543 kJ/mol
# Density = 1.964449 g / cm^3
# Si number density = 19.689302 Si / 1000 Ang^3
#
#
#
# Elastic Constant Matrix: (Units=GPa)
#
#
# Indices 1 2 3 4 5 6 
#
# 1 100.1538 27.1750 25.4543 0.0000 0.0000 0.0000
# 2 27.1750 56.8741 19.7465 0.0000 0.0000 0.0000
# 3 25.4543 19.7465 53.2099 0.0000 0.0000 0.0000
# 4 0.0000 0.0000 0.0000 12.9288 0.0000 0.0000
# 5 0.0000 0.0000 0.0000 0.0000 12.2286 0.0000
# 6 0.0000 0.0000 0.0000 0.0000 0.0000 36.8243
#
#
#
# Elastic Compliance Matrix: (Units=1/GPa)
#
#
# Indices 1 2 3 4 5 6 
#
# 1 0.012250 -0.004383 -0.004233 0.000000 0.000000 0.000000
# 2 -0.004383 0.021752 -0.005975 0.000000 0.000000 0.000000
# 3 -0.004233 -0.005975 0.023036 0.000000 0.000000 0.000000
# 4 0.000000 0.000000 0.000000 0.077347 0.000000 0.000000
# 5 0.000000 0.000000 0.000000 0.000000 0.081775 0.000000
# 6 0.000000 0.000000 0.000000 0.000000 0.000000 0.027156
#
#
# Mechanical properties :
#
#
# Convention : Reuss Voigt Hill
#
# Bulk Modulus (GPa) = 35.90186 39.44326 37.67256
# Shear Modulus (GPa) = 17.74407 21.58715 19.66561
#
# Velocity S-wave (km/s) = 3.00526 3.31477 3.16380
# Velocity P-wave (km/s) = 5.50599 5.89293 5.70274
#
# Compressibility (1/GPa) = 0.02785371
#
# Stress axis : x y z
#
# Youngs Moduli (GPa) = 81.63338 45.97340 43.41012
#
# Poissons Ratio (x) = 0.20152 0.18377
# Poissons Ratio (y) = 0.35782 0.25939
# Poissons Ratio (z) = 0.34558 0.27471
#
# Static dielectric constant tensor:
#      x y z
#    x 3.817350 0.000000 0.000000 
#    y 0.000000 3.591440 0.000000 
#    z 0.000000 0.000000 3.497120 
# 
# 
# High freq. dielectric constant tensor:
#      x y z
#    x 1.772300 0.000000 0.000000 
#    y 0.000000 1.760040 0.000000 
#    z 0.000000 0.000000 1.758940 
# 
# From -- ./inp_files/24226.got.cif
#   From: 2010.03.12/outbox.cif.g09.slc.cpg/sg40_13_cif.got.tgz:24226.got - 2010.04.14 01:38:03.
