data_PCOD8182841
_publ_section_title
;
Structure prediction by ZEFSAII (Michael W. Deem and Ramdas Pophale) SiO2 
 PCOD8182841
Probable space group: A M A 2
;
_chemical_formula_sum "Si O2"
_cell_formula_units_Z 64
_cell_length_a 9.185762
_cell_length_b 20.161463
_cell_length_c 22.544155
_cell_angle_alpha 90.000000
_cell_angle_beta 90.000000
_cell_angle_gamma 90.000000
_cell_volume 4175.141451
_symmetry_space_group_name_H-M "A M A 2"
_symmetry_group_IT_number 40
_symmetry_cell_setting 'orthorhombic'
loop_
_space_group_symop_operation_xyz
x,y,z
-x,-y,z
1/2-x,y,z
1/2+x,-y,z
x,1/2+y,1/2+z
-x,1/2-y,1/2+z
1/2-x,1/2+y,1/2+z
1/2+x,1/2-y,1/2+z
loop_
_atom_site_type_symbol
_atom_site_label
_atom_site_fract_x
_atom_site_fract_y
_atom_site_fract_z
Si Si1 0.584543 0.760763 0.805690
Si Si2 0.419548 0.433747 0.486914
Si Si3 0.920408 0.431278 0.776634
Si Si4 0.079786 0.307758 0.565818
Si Si5 0.582673 0.676919 0.699570
Si Si6 0.413823 0.272215 0.974937
Si Si7 0.082357 0.159037 0.381431
Si Si8 0.910794 0.359036 0.395891
O O1 0.750000 0.740234 0.825880
O O2 0.569522 0.747321 0.735165
O O3 0.462779 0.716687 0.836597
O O4 0.558651 0.837648 0.826812
O O5 0.500000 0.500000 0.508037
O O6 0.250000 0.448233 0.483022
O O7 0.459121 0.377348 0.534439
O O8 0.474062 0.411634 0.421276
O O9 0.750000 0.438485 0.762642
O O10 0.944960 0.409257 0.845383
O O11 0.000000 0.500000 0.766220
O O12 0.986813 0.379071 0.730564
O O13 0.250000 0.292838 0.561087
O O14 0.024919 0.311486 0.633301
O O15 0.997191 0.246489 0.535268
O O16 0.750000 0.652410 0.698231
O O17 0.250000 0.292404 0.991258
O O18 0.489541 0.335238 0.942247
O O19 0.421143 0.209771 0.931342
O O20 0.250000 0.168311 0.398623
O O21 0.750000 0.390651 0.402811
#
# Coordination Sequence:
#
# PCOD8182841 Si02
#       8
#     8   8   8   8   8   8   8   8
#     4   8  14  25  42  61  80 103 130 163 206 250
#     4  10  19  29  40  55  77 107 140 172 203 234
#     4  10  20  31  43  60  83 113 146 179 212 247
#     4   9  18  30  43  60  83 112 143 173 204 239
#     4   9  17  30  45  61  84 113 143 173 205 244
#     4   9  16  26  42  61  80 104 133 168 210 250
#     4   9  16  26  41  60  80 102 132 171 213 253
#     4   8  14  25  40  58  77  98 127 163 203 245
#
# _framework density 15.328821
#
# number of rings (size 3 to 8) (size 9 to 14) (size 15 to 20)
#    0.000    3.000    0.000    2.250    0.000    6.000 
#    0.000    1.250    0.000    0.000    0.000    0.000 
#    0.000    1.000    0.000    6.250    0.000    4.375 
#
# Total GULP energy -396502.316717 kJ/mol
# GULP energy per Si atom -12390.697397 kJ/mol
# Density = 1.529393 g / cm^3
# Si number density = 15.328821 Si / 1000 Ang^3
#
#
#
# Elastic Constant Matrix: (Units=GPa)
#
#
# Indices 1 2 3 4 5 6 
#
# 1 78.1974 22.8771 50.3137 0.0000 0.0000 0.0000
# 2 22.8771 23.3487 48.1947 0.0000 0.0000 0.0000
# 3 50.3137 48.1947 109.9978 0.0000 0.0000 0.0000
# 4 0.0000 0.0000 0.0000 15.9043 0.0000 0.0000
# 5 0.0000 0.0000 0.0000 0.0000 20.6281 0.0000
# 6 0.0000 0.0000 0.0000 0.0000 0.0000 18.9571
#
#
#
# Elastic Compliance Matrix: (Units=1/GPa)
#
#
# Indices 1 2 3 4 5 6 
#
# 1 0.018224 -0.006796 -0.005358 0.000000 0.000000 0.000000
# 2 -0.006796 0.450448 -0.194252 0.000000 0.000000 0.000000
# 3 -0.005358 -0.194252 0.096652 0.000000 0.000000 0.000000
# 4 0.000000 0.000000 0.000000 0.062876 0.000000 0.000000
# 5 0.000000 0.000000 0.000000 0.000000 0.048478 0.000000
# 6 0.000000 0.000000 0.000000 0.000000 0.000000 0.052751
#
#
# Mechanical properties :
#
#
# Convention : Reuss Voigt Hill
#
# Bulk Modulus (GPa) = 6.55685 50.47943 28.51814
# Shear Modulus (GPa) = 4.19084 17.10846 10.64965
#
# Velocity S-wave (km/s) = 1.65526 3.34443 2.63867
# Velocity P-wave (km/s) = 2.81779 6.92215 5.28470
#
# Compressibility (1/GPa) = 0.15251234
#
# Stress axis : x y z
#
# Youngs Moduli (GPa) = 54.87309 2.22001 10.34640
#
# Poissons Ratio (x) = 0.01509 0.05544
# Poissons Ratio (y) = 0.37289 2.00981
# Poissons Ratio (z) = 0.29403 0.43124
#
# Static dielectric constant tensor:
#      x y z
#    x 3.046920 0.000000 0.000000 
#    y 0.000000 2.755280 0.000000 
#    z 0.000000 0.000000 3.079820 
# 
# 
# High freq. dielectric constant tensor:
#      x y z
#    x 1.600160 0.000000 0.000000 
#    y 0.000000 1.544650 0.000000 
#    z 0.000000 0.000000 1.572200 
# 
# From -- ./inp_files/19727.got.cif
#   From: 2010.03.12/outbox.cif.g09.slc.cpg/sg40_10_cif.got.tgz:19727.got - 2010.04.14 01:38:03.
