data_PCOD8182389
_publ_section_title
;
Structure prediction by ZEFSAII (Michael W. Deem and Ramdas Pophale) SiO2 
 PCOD8182389
Probable space group: A M A 2
;
_chemical_formula_sum "Si O2"
_cell_formula_units_Z 64
_cell_length_a 17.649481
_cell_length_b 18.006386
_cell_length_c 11.419736
_cell_angle_alpha 90.000000
_cell_angle_beta 90.000000
_cell_angle_gamma 90.000000
_cell_volume 3629.230558
_symmetry_space_group_name_H-M "A M A 2"
_symmetry_group_IT_number 40
_symmetry_cell_setting 'orthorhombic'
loop_
_space_group_symop_operation_xyz
x,y,z
-x,-y,z
1/2-x,y,z
1/2+x,-y,z
x,1/2+y,1/2+z
-x,1/2-y,1/2+z
1/2-x,1/2+y,1/2+z
1/2+x,1/2-y,1/2+z
loop_
_atom_site_type_symbol
_atom_site_label
_atom_site_fract_x
_atom_site_fract_y
_atom_site_fract_z
Si Si1 0.077724 0.041214 0.871740
Si Si2 0.333090 0.591872 0.176444
Si Si3 0.165491 0.243884 0.804234
Si Si4 0.090939 0.303890 0.574685
Si Si5 0.924080 0.312497 0.503659
Si Si6 0.339234 0.605740 0.704288
Si Si7 0.161713 0.463135 0.568529
Si Si8 0.839854 0.328324 0.947710
O O1 0.107908 0.035752 0.737639
O O2 0.056550 0.123761 0.910994
O O3 0.000000 0.000000 0.884484
O O4 0.145229 0.008254 0.950484
O O5 0.250000 0.555199 0.157104
O O6 0.323734 0.658757 0.268279
O O7 0.367674 0.618957 0.053469
O O8 0.250000 0.279653 0.817167
O O9 0.118041 0.285038 0.704700
O O10 0.120129 0.250801 0.928089
O O11 0.108798 0.391048 0.563574
O O12 0.131598 0.255536 0.472725
O O13 0.002172 0.285193 0.561798
O O14 0.870175 0.339067 0.607012
O O15 0.250000 0.614363 0.702960
O O16 0.360306 0.519143 0.676641
O O17 0.371917 0.634291 0.829075
O O18 0.250000 0.440484 0.574092
O O19 0.750000 0.323791 0.946809
#
# Coordination Sequence:
#
# PCOD8182389 Si02
#       8
#     8   8   8   8   8   8   8   8
#     4  10  17  30  46  72 105 134 165 214 257 303
#     4   8  15  29  51  71  92 128 174 212 243 300
#     4   9  18  33  51  73 102 138 178 217 260 320
#     4  11  20  31  53  79 108 136 171 226 274 314
#     4  10  20  31  51  75 105 134 175 218 266 310
#     4   9  19  34  55  76 102 138 177 214 259 325
#     4  10  19  32  52  78 104 136 172 212 269 325
#     4   9  18  34  54  75  99 131 174 217 258 313
#
# _framework density 17.634591
#
# number of rings (size 3 to 8) (size 9 to 14) (size 15 to 20)
#    0.000    2.500    1.250    2.625    1.750    3.000 
#    0.000    0.000    2.750    1.500    0.000    3.500 
#    0.000    0.000    0.000    0.000    0.000    0.000 
#
# Total GULP energy -396533.545139 kJ/mol
# GULP energy per Si atom -12391.673286 kJ/mol
# Density = 1.759445 g / cm^3
# Si number density = 17.634591 Si / 1000 Ang^3
#
#
#
# Elastic Constant Matrix: (Units=GPa)
#
#
# Indices 1 2 3 4 5 6 
#
# 1 71.5378 21.3280 41.2810 0.0000 0.0000 0.0000
# 2 21.3280 56.1067 43.6428 0.0000 0.0000 0.0000
# 3 41.2810 43.6428 115.8486 0.0000 0.0000 0.0000
# 4 0.0000 0.0000 0.0000 21.0811 0.0000 0.0000
# 5 0.0000 0.0000 0.0000 0.0000 25.0795 0.0000
# 6 0.0000 0.0000 0.0000 0.0000 0.0000 18.7080
#
#
#
# Elastic Compliance Matrix: (Units=1/GPa)
#
#
# Indices 1 2 3 4 5 6 
#
# 1 0.017861 -0.002601 -0.005385 0.000000 0.000000 0.000000
# 2 -0.002601 0.025590 -0.008713 0.000000 0.000000 0.000000
# 3 -0.005385 -0.008713 0.013833 0.000000 0.000000 0.000000
# 4 0.000000 0.000000 0.000000 0.047436 0.000000 0.000000
# 5 0.000000 0.000000 0.000000 0.000000 0.039873 0.000000
# 6 0.000000 0.000000 0.000000 0.000000 0.000000 0.053453
#
#
# Mechanical properties :
#
#
# Convention : Reuss Voigt Hill
#
# Bulk Modulus (GPa) = 41.86580 50.66632 46.26606
# Shear Modulus (GPa) = 20.88494 22.12313 21.50404
#
# Velocity S-wave (km/s) = 3.44512 3.54578 3.49581
# Velocity P-wave (km/s) = 6.29424 6.74959 6.52589
#
# Compressibility (1/GPa) = 0.02388584
#
# Stress axis : x y z
#
# Youngs Moduli (GPa) = 55.98667 39.07827 72.28966
#
# Poissons Ratio (x) = 0.10165 0.38926
# Poissons Ratio (y) = 0.14563 0.62988
# Poissons Ratio (z) = 0.30147 0.34050
#
# Static dielectric constant tensor:
#      x y z
#    x 3.350970 0.000000 0.000000 
#    y 0.000000 3.108580 0.000000 
#    z 0.000000 0.000000 3.470070 
# 
# 
# High freq. dielectric constant tensor:
#      x y z
#    x 1.685040 0.000000 0.000000 
#    y 0.000000 1.648520 0.000000 
#    z 0.000000 0.000000 1.678960 
# 
# From -- ./inp_files/13216.got.cif
#   From: 2010.03.12/outbox.cif.g09.slc.cpg/sg40_7_cif.got.tgz:13216.got - 2010.04.14 01:38:03.
