data_PCOD8182451
_publ_section_title
;
Structure prediction by ZEFSAII (Michael W. Deem and Ramdas Pophale) SiO2 
 PCOD8182451
Probable space group: A M A 2
;
_chemical_formula_sum "Si O2"
_cell_formula_units_Z 64
_cell_length_a 8.960440
_cell_length_b 18.493427
_cell_length_c 21.231615
_cell_angle_alpha 90.000000
_cell_angle_beta 90.000000
_cell_angle_gamma 90.000000
_cell_volume 3518.274850
_symmetry_space_group_name_H-M "A M A 2"
_symmetry_group_IT_number 40
_symmetry_cell_setting 'orthorhombic'
loop_
_space_group_symop_operation_xyz
x,y,z
-x,-y,z
1/2-x,y,z
1/2+x,-y,z
x,1/2+y,1/2+z
-x,1/2-y,1/2+z
1/2-x,1/2+y,1/2+z
1/2+x,1/2-y,1/2+z
loop_
_atom_site_type_symbol
_atom_site_label
_atom_site_fract_x
_atom_site_fract_y
_atom_site_fract_z
Si Si1 0.915373 0.313380 0.265450
Si Si2 0.424050 0.713590 0.855639
Si Si3 0.576546 0.632532 0.039569
Si Si4 0.084687 0.062848 0.863307
Si Si5 0.076052 0.930090 0.993641
Si Si6 0.572228 0.424929 0.161781
Si Si7 0.923720 0.574554 0.902115
Si Si8 0.423921 0.769738 0.992414
O O1 0.750000 0.282409 0.249325
O O2 0.900233 0.365897 0.324031
O O3 0.980763 0.357982 0.206042
O O4 0.023785 0.250263 0.289895
O O5 0.250000 0.698713 0.850510
O O6 0.507458 0.637397 0.859497
O O7 0.461888 0.761741 0.917760
O O8 0.750000 0.631625 0.058307
O O9 0.480242 0.591320 0.091403
O O10 0.544991 0.590358 0.975222
O O11 0.522774 0.715172 0.033371
O O12 0.250000 0.038332 0.885496
O O13 0.000000 0.000000 0.822840
O O14 0.976297 0.073480 0.922087
O O15 0.250000 0.942866 0.998468
O O16 0.035704 0.849825 0.019441
O O17 0.000000 0.000000 0.028388
O O18 0.500000 0.500000 0.184996
O O19 0.750000 0.433119 0.165283
O O20 0.750000 0.569727 0.887350
O O21 0.000000 0.500000 0.882600
O O22 0.250000 0.751970 0.003167
#
# Coordination Sequence:
#
# PCOD8182451 Si02
#       8
#     8   8   8   8   8   8   8   8
#     4  10  21  34  48  69  99 136 173 211 253 298
#     4  10  19  32  51  74 101 133 169 210 256 309
#     4  10  21  35  54  77 101 134 175 219 264 309
#     4  10  18  27  41  61  90 127 166 203 240 285
#     4  10  18  28  42  66  97 130 165 202 247 297
#     4  11  23  38  54  74 104 141 181 221 258 300
#     4  10  20  34  53  78 106 134 167 210 262 315
#     4   9  18  32  49  71 100 133 170 212 260 311
#
# _framework density 18.190733000000002
#
# number of rings (size 3 to 8) (size 9 to 14) (size 15 to 20)
#    0.000    2.000    1.250    3.750    0.000    5.500 
#    0.000    0.000    0.000    0.000    0.000    0.875 
#    0.000    4.000    0.000    0.000    0.000    0.125 
#
# Total GULP energy -396584.216532 kJ/mol
# GULP energy per Si atom -12393.256767 kJ/mol
# Density = 1.814933 g / cm^3
# Si number density = 18.190733 Si / 1000 Ang^3
#
#
#
# Elastic Constant Matrix: (Units=GPa)
#
#
# Indices 1 2 3 4 5 6 
#
# 1 87.9704 61.8831 25.8492 0.0000 0.0000 0.0000
# 2 61.8831 126.1045 27.9934 0.0000 0.0000 0.0000
# 3 25.8492 27.9934 49.7411 0.0000 0.0000 0.0000
# 4 0.0000 0.0000 0.0000 18.8873 0.0000 0.0000
# 5 0.0000 0.0000 0.0000 0.0000 17.8464 0.0000
# 6 0.0000 0.0000 0.0000 0.0000 0.0000 35.6817
#
#
#
# Elastic Compliance Matrix: (Units=1/GPa)
#
#
# Indices 1 2 3 4 5 6 
#
# 1 0.018439 -0.007910 -0.005131 0.000000 0.000000 0.000000
# 2 -0.007910 0.012455 -0.002899 0.000000 0.000000 0.000000
# 3 -0.005131 -0.002899 0.024402 0.000000 0.000000 0.000000
# 4 0.000000 0.000000 0.000000 0.052946 0.000000 0.000000
# 5 0.000000 0.000000 0.000000 0.000000 0.056034 0.000000
# 6 0.000000 0.000000 0.000000 0.000000 0.000000 0.028026
#
#
# Mechanical properties :
#
#
# Convention : Reuss Voigt Hill
#
# Bulk Modulus (GPa) = 42.70405 55.02970 48.86687
# Shear Modulus (GPa) = 21.55303 24.35578 22.95441
#
# Velocity S-wave (km/s) = 3.44588 3.66308 3.55614
# Velocity P-wave (km/s) = 6.27366 6.94320 6.61691
#
# Compressibility (1/GPa) = 0.02341698
#
# Stress axis : x y z
#
# Youngs Moduli (GPa) = 54.23228 80.28938 40.98014
#
# Poissons Ratio (x) = 0.63506 0.21027
# Poissons Ratio (y) = 0.42896 0.11880
# Poissons Ratio (z) = 0.27827 0.23276
#
# Static dielectric constant tensor:
#      x y z
#    x 3.597050 0.000000 0.000000 
#    y 0.000000 3.730340 0.000000 
#    z 0.000000 0.000000 2.962000 
# 
# 
# High freq. dielectric constant tensor:
#      x y z
#    x 1.717860 0.000000 0.000000 
#    y 0.000000 1.712720 0.000000 
#    z 0.000000 0.000000 1.650310 
# 
# From -- ./inp_files/22393.got.cif
#   From: 2010.03.12/outbox.cif.g09.slc.cpg/sg40_12_cif.got.tgz:22393.got - 2010.04.14 01:38:03.
