data_PCOD8182836
_publ_section_title
;
Structure prediction by ZEFSAII (Michael W. Deem and Ramdas Pophale) SiO2 
 PCOD8182836
Probable space group: A M A 2
;
_chemical_formula_sum "Si O2"
_cell_formula_units_Z 64
_cell_length_a 8.832643
_cell_length_b 18.226283
_cell_length_c 26.060244
_cell_angle_alpha 90.000000
_cell_angle_beta 90.000000
_cell_angle_gamma 90.000000
_cell_volume 4195.340981
_symmetry_space_group_name_H-M "A M A 2"
_symmetry_group_IT_number 40
_symmetry_cell_setting 'orthorhombic'
loop_
_space_group_symop_operation_xyz
x,y,z
-x,-y,z
1/2-x,y,z
1/2+x,-y,z
x,1/2+y,1/2+z
-x,1/2-y,1/2+z
1/2-x,1/2+y,1/2+z
1/2+x,1/2-y,1/2+z
loop_
_atom_site_type_symbol
_atom_site_label
_atom_site_fract_x
_atom_site_fract_y
_atom_site_fract_z
Si Si1 0.073682 0.578408 0.923160
Si Si2 0.073556 0.423150 0.621657
Si Si3 0.429617 0.660468 0.534017
Si Si4 0.417101 0.800962 0.479238
Si Si5 0.069846 0.421110 0.438695
Si Si6 0.073863 0.923255 0.240715
Si Si7 0.070845 0.671106 0.824826
Si Si8 0.419963 0.702233 0.378867
O O1 0.250000 0.566756 0.924137
O O2 0.020104 0.615516 0.870048
O O3 0.000000 0.500000 0.929556
O O4 0.028473 0.630352 0.971216
O O5 0.250000 0.425810 0.608051
O O6 0.045292 0.406467 0.681204
O O7 0.000000 0.500000 0.605465
O O8 0.990623 0.359024 0.590314
O O9 0.250000 0.648246 0.529355
O O10 0.470855 0.746529 0.524866
O O11 0.511281 0.608437 0.493096
O O12 0.250000 0.832607 0.490676
O O13 0.413436 0.751243 0.429146
O O14 0.250000 0.424845 0.439885
O O15 0.000000 0.500000 0.428285
O O16 0.016223 0.370257 0.391403
O O17 0.250000 0.927191 0.254492
O O18 0.995008 0.858016 0.271535
O O19 0.000000 0.000000 0.257173
O O20 0.250000 0.677881 0.821747
O O21 0.002035 0.751818 0.834039
O O22 0.250000 0.680809 0.361372
#
# Coordination Sequence:
#
# PCOD8182836 Si02
#       8
#     8   8   8   8   8   8   8   8
#     4  10  19  28  41  61  85 112 142 174 208 248
#     4  10  20  32  45  62  85 113 146 183 220 256
#     4  10  19  31  46  63  84 113 146 179 218 259
#     4   8  16  29  43  59  81 108 138 172 209 250
#     4  11  20  30  44  63  88 116 147 180 214 255
#     4  10  20  32  45  62  85 114 147 184 221 255
#     4  10  19  30  45  64  85 114 148 179 215 257
#     4   9  17  30  45  62  85 112 142 177 215 254
#
# _framework density 15.255018
#
# number of rings (size 3 to 8) (size 9 to 14) (size 15 to 20)
#    0.000    2.250    0.000    4.875    0.000    7.500 
#    0.000    0.000    0.000    0.000    0.000    0.000 
#    0.000    1.000    0.000    6.750    0.000    5.000 
#
# Total GULP energy -396797.317183 kJ/mol
# GULP energy per Si atom -12399.916162 kJ/mol
# Density = 1.522030 g / cm^3
# Si number density = 15.255018 Si / 1000 Ang^3
#
#
#
# Elastic Constant Matrix: (Units=GPa)
#
#
# Indices 1 2 3 4 5 6 
#
# 1 101.2899 52.5720 36.3674 0.0000 0.0000 0.0000
# 2 52.5720 96.8059 41.6055 0.0000 0.0000 0.0000
# 3 36.3674 41.6055 59.1259 0.0000 0.0000 0.0000
# 4 0.0000 0.0000 0.0000 18.8603 0.0000 0.0000
# 5 0.0000 0.0000 0.0000 0.0000 22.5742 0.0000
# 6 0.0000 0.0000 0.0000 0.0000 0.0000 29.1271
#
#
#
# Elastic Compliance Matrix: (Units=1/GPa)
#
#
# Indices 1 2 3 4 5 6 
#
# 1 0.014676 -0.005864 -0.004901 0.000000 0.000000 0.000000
# 2 -0.005864 0.017151 -0.008462 0.000000 0.000000 0.000000
# 3 -0.004901 -0.008462 0.025882 0.000000 0.000000 0.000000
# 4 0.000000 0.000000 0.000000 0.053021 0.000000 0.000000
# 5 0.000000 0.000000 0.000000 0.000000 0.044298 0.000000
# 6 0.000000 0.000000 0.000000 0.000000 0.000000 0.034332
#
#
# Mechanical properties :
#
#
# Convention : Reuss Voigt Hill
#
# Bulk Modulus (GPa) = 51.93243 57.59019 54.76131
# Shear Modulus (GPa) = 21.34630 22.55743 21.95186
#
# Velocity S-wave (km/s) = 3.74478 3.84954 3.79752
# Velocity P-wave (km/s) = 7.26736 7.58896 7.42990
#
# Compressibility (1/GPa) = 0.01925579
#
# Stress axis : x y z
#
# Youngs Moduli (GPa) = 68.14056 58.30483 38.63676
#
# Poissons Ratio (x) = 0.34188 0.18934
# Poissons Ratio (y) = 0.39955 0.32696
# Poissons Ratio (z) = 0.33393 0.49339
#
# Static dielectric constant tensor:
#      x y z
#    x 3.120840 0.000000 0.000000 
#    y 0.000000 2.987670 0.000000 
#    z 0.000000 0.000000 2.788950 
# 
# 
# High freq. dielectric constant tensor:
#      x y z
#    x 1.605090 0.000000 0.000000 
#    y 0.000000 1.573210 0.000000 
#    z 0.000000 0.000000 1.549140 
# 
# From -- ./inp_files/24380.got.cif
#   From: 2010.03.12/outbox.cif.g09.slc.cpg/sg40_13_cif.got.tgz:24380.got - 2010.04.14 01:38:03.
