data_PCOD8182295
_publ_section_title
;
Structure prediction by ZEFSAII (Michael W. Deem and Ramdas Pophale) SiO2 
 PCOD8182295
Probable space group: A B M 2
;
_chemical_formula_sum "Si O2"
_cell_formula_units_Z 48
_cell_length_a 26.067368
_cell_length_b 8.911823
_cell_length_c 9.890612
_cell_angle_alpha 90.000000
_cell_angle_beta 90.000000
_cell_angle_gamma 90.000000
_cell_volume 2297.666015
_symmetry_space_group_name_H-M "A B M 2"
_symmetry_group_IT_number 39
_symmetry_cell_setting 'orthorhombic'
loop_
_space_group_symop_operation_xyz
x,y,z
-x,-y,z
-x,1/2+y,z
x,1/2-y,z
x,1/2+y,1/2+z
-x,1/2-y,1/2+z
-x,y,1/2+z
x,-y,1/2+z
loop_
_atom_site_type_symbol
_atom_site_label
_atom_site_fract_x
_atom_site_fract_y
_atom_site_fract_z
Si Si1 0.780160 0.576688 0.880410
Si Si2 0.554347 0.923623 0.380120
Si Si3 0.054089 0.076509 0.144251
Si Si4 0.614859 0.576284 0.648039
Si Si5 0.113938 0.923812 0.912338
Si Si6 0.280581 0.423483 0.149127
O O1 0.787805 0.750000 0.842691
O O2 0.833281 0.491376 0.858143
O O3 0.737554 0.506420 0.783734
O O4 0.762136 0.556740 0.034150
O O5 0.549662 0.750000 0.340276
O O6 0.571657 0.945119 0.534270
O O7 0.500000 0.000000 0.358072
O O8 0.596282 0.000442 0.285521
O O9 0.048779 0.250000 0.107020
O O10 0.097048 0.006343 0.048155
O O11 0.070702 0.052241 0.298619
O O12 0.000000 0.000000 0.117946
O O13 0.626270 0.750000 0.675882
O O14 0.666732 0.497043 0.598362
O O15 0.122427 0.750000 0.944617
O O16 0.290231 0.250000 0.182856
#
# Coordination Sequence:
#
# PCOD8182295 Si02
#       6
#     8   8   8   8   8   8
#     4  11  24  41  63  91 123 160 202 249 301 358
#     4  11  24  41  63  91 123 160 202 249 301 358
#     4  11  24  41  62  90 122 158 202 249 300 358
#     4  11  24  41  63  91 122 159 202 248 301 358
#     4  11  24  41  63  91 123 160 202 249 301 358
#     4  11  24  41  62  90 123 159 202 250 300 358
#
# _framework density 20.890763
#
# number of rings (size 3 to 8) (size 9 to 14) (size 15 to 20)
#    0.000    1.000    0.000    6.000    0.000   17.333 
#    0.000    0.000    0.000    0.000    0.000    0.000 
#    0.000    0.000    0.000    0.000    0.000    0.000 
#
# Total GULP energy -297831.535818 kJ/mol
# GULP energy per Si atom -12409.647326 kJ/mol
# Density = 2.084321 g / cm^3
# Si number density = 20.890763 Si / 1000 Ang^3
#
#
#
# Elastic Constant Matrix: (Units=GPa)
#
#
# Indices 1 2 3 4 5 6 
#
# 1 102.0908 49.3389 9.1422 0.0000 0.0000 0.0000
# 2 49.3389 161.7499 55.7917 0.0000 0.0000 0.0000
# 3 9.1422 55.7917 74.2432 0.0000 0.0000 0.0000
# 4 0.0000 0.0000 0.0000 34.0690 0.0000 0.0000
# 5 0.0000 0.0000 0.0000 0.0000 35.5046 0.0000
# 6 0.0000 0.0000 0.0000 0.0000 0.0000 44.8638
#
#
#
# Elastic Compliance Matrix: (Units=1/GPa)
#
#
# Indices 1 2 3 4 5 6 
#
# 1 0.011640 -0.004125 0.001667 0.000000 0.000000 0.000000
# 2 -0.004125 0.009808 -0.006862 0.000000 0.000000 0.000000
# 3 0.001667 -0.006862 0.018421 0.000000 0.000000 0.000000
# 4 0.000000 0.000000 0.000000 0.029352 0.000000 0.000000
# 5 0.000000 0.000000 0.000000 0.000000 0.028165 0.000000
# 6 0.000000 0.000000 0.000000 0.000000 0.000000 0.022290
#
#
# Mechanical properties :
#
#
# Convention : Reuss Voigt Hill
#
# Bulk Modulus (GPa) = 47.11077 62.95884 55.03480
# Shear Modulus (GPa) = 34.38965 37.80822 36.09894
#
# Velocity S-wave (km/s) = 4.06170 4.25880 4.16141
# Velocity P-wave (km/s) = 6.67806 7.37467 7.03499
#
# Compressibility (1/GPa) = 0.02122657
#
# Stress axis : x y z
#
# Youngs Moduli (GPa) = 85.91295 101.96040 54.28651
#
# Poissons Ratio (x) = 0.42063 -0.09049
# Poissons Ratio (y) = 0.35443 0.37253
# Poissons Ratio (z) = -0.14320 0.69968
#
# Static dielectric constant tensor:
#      x y z
#    x 3.679810 0.000000 0.000000 
#    y 0.000000 3.978040 0.000000 
#    z 0.000000 0.000000 3.674340 
# 
# 
# High freq. dielectric constant tensor:
#      x y z
#    x 1.829710 0.000000 0.000000 
#    y 0.000000 1.836710 0.000000 
#    z 0.000000 0.000000 1.825490 
# 
# From -- ./inp_files/4141.got.cif
#   From: 2010.03.12/outbox.cif.g09.slc.cpg/sg39_3_cif.got.tgz:4141.got - 2010.04.14 02:53:20.
