data_PCOD8182884
_publ_section_title
;
Structure prediction by ZEFSAII (Michael W. Deem and Ramdas Pophale) SiO2 
 PCOD8182884
Probable space group: A M A 2
;
_chemical_formula_sum "Si O2"
_cell_formula_units_Z 40
_cell_length_a 13.223790
_cell_length_b 11.411924
_cell_length_c 16.657825
_cell_angle_alpha 90.000000
_cell_angle_beta 90.000000
_cell_angle_gamma 90.000000
_cell_volume 2513.813822
_symmetry_space_group_name_H-M "A M A 2"
_symmetry_group_IT_number 40
_symmetry_cell_setting 'orthorhombic'
loop_
_space_group_symop_operation_xyz
x,y,z
-x,-y,z
1/2-x,y,z
1/2+x,-y,z
x,1/2+y,1/2+z
-x,1/2-y,1/2+z
1/2-x,1/2+y,1/2+z
1/2+x,1/2-y,1/2+z
loop_
_atom_site_type_symbol
_atom_site_label
_atom_site_fract_x
_atom_site_fract_y
_atom_site_fract_z
Si Si1 0.000000 0.000000 0.153320
Si Si2 0.631058 0.192728 0.231831
Si Si3 0.365178 0.687646 0.394279
Si Si4 0.500000 0.000000 0.825467
Si Si5 0.366768 0.195033 0.074120
Si Si6 0.979527 0.624848 0.174345
O O1 0.934799 0.915983 0.096545
O O2 0.076654 0.928761 0.210225
O O3 0.750000 0.185607 0.211980
O O4 0.610182 0.215215 0.326600
O O5 0.582712 0.298070 0.178959
O O6 0.250000 0.650360 0.387699
O O7 0.422266 0.565487 0.382318
O O8 0.391048 0.735483 0.482948
O O9 0.556040 0.093985 0.765906
O O10 0.250000 0.160573 0.085389
O O11 0.390968 0.305660 0.130279
O O12 0.000000 0.500000 0.129117
#
# Coordination Sequence:
#
# PCOD8182884 Si02
#       6
#     4   8   8   4   8   8
#     4  10  19  32  47  70  90 120 152 186 223 264
#     4   9  17  31  49  67  90 120 153 184 221 269
#     4   9  17  29  46  68  90 118 149 182 225 265
#     4   8  15  30  47  64  88 120 152 184 213 264
#     4  10  19  30  47  70  94 117 148 188 226 264
#     4   8  17  30  46  69  90 117 152 182 224 260
#
# _framework density 15.912076000000001
#
# number of rings (size 3 to 8) (size 9 to 14) (size 15 to 20)
#    0.600    2.400    0.000    1.200    0.000    1.600 
#    1.800    0.000    0.000    0.000    0.000    0.000 
#    0.000    0.000    0.000    0.000    0.000    0.000 
#
# Total GULP energy -247800.451666 kJ/mol
# GULP energy per Si atom -12390.022583 kJ/mol
# Density = 1.587586 g / cm^3
# Si number density = 15.912076 Si / 1000 Ang^3
#
#
#
# Elastic Constant Matrix: (Units=GPa)
#
#
# Indices 1 2 3 4 5 6 
#
# 1 77.4159 37.4490 44.0375 0.0000 0.0000 0.0000
# 2 37.4490 86.7294 32.7337 0.0000 0.0000 0.0000
# 3 44.0375 32.7337 87.5946 0.0000 0.0000 0.0000
# 4 0.0000 0.0000 0.0000 23.1386 0.0000 0.0000
# 5 0.0000 0.0000 0.0000 0.0000 22.3829 0.0000
# 6 0.0000 0.0000 0.0000 0.0000 0.0000 23.3393
#
#
#
# Elastic Compliance Matrix: (Units=1/GPa)
#
#
# Indices 1 2 3 4 5 6 
#
# 1 0.020259 -0.005709 -0.008052 0.000000 0.000000 0.000000
# 2 -0.005709 0.015032 -0.002747 0.000000 0.000000 0.000000
# 3 -0.008052 -0.002747 0.016491 0.000000 0.000000 0.000000
# 4 0.000000 0.000000 0.000000 0.043218 0.000000 0.000000
# 5 0.000000 0.000000 0.000000 0.000000 0.044677 0.000000
# 6 0.000000 0.000000 0.000000 0.000000 0.000000 0.042846
#
#
# Mechanical properties :
#
#
# Convention : Reuss Voigt Hill
#
# Bulk Modulus (GPa) = 53.28736 53.35339 53.32038
# Shear Modulus (GPa) = 22.54346 22.94013 22.74180
#
# Velocity S-wave (km/s) = 3.76806 3.80107 3.78460
# Velocity P-wave (km/s) = 7.24516 7.27097 7.25808
#
# Compressibility (1/GPa) = 0.01876617
#
# Stress axis : x y z
#
# Youngs Moduli (GPa) = 49.36089 66.52461 60.63968
#
# Poissons Ratio (x) = 0.37977 0.48825
# Poissons Ratio (y) = 0.28179 0.16660
# Poissons Ratio (z) = 0.39744 0.18277
#
# Static dielectric constant tensor:
#      x y z
#    x 2.933520 0.000000 0.000000 
#    y 0.000000 3.000330 0.000000 
#    z 0.000000 0.000000 3.083180 
# 
# 
# High freq. dielectric constant tensor:
#      x y z
#    x 1.604800 0.000000 0.000000 
#    y 0.000000 1.605650 0.000000 
#    z 0.000000 0.000000 1.605320 
# 
# From -- ./inp_files/16873.got.cif
#   From: 2010.03.12/outbox.cif.g09.slc.cpg/sg40_9_cif.got.tgz:16873.got - 2010.04.14 01:38:03.
