data_PCOD8182526
_publ_section_title
;
Structure prediction by ZEFSAII (Michael W. Deem and Ramdas Pophale) SiO2 
 PCOD8182526
Probable space group: A M A 2
;
_chemical_formula_sum "Si O2"
_cell_formula_units_Z 64
_cell_length_a 8.718881
_cell_length_b 18.700423
_cell_length_c 21.365264
_cell_angle_alpha 90.000000
_cell_angle_beta 90.000000
_cell_angle_gamma 90.000000
_cell_volume 3483.537131
_symmetry_space_group_name_H-M "A M A 2"
_symmetry_group_IT_number 40
_symmetry_cell_setting 'orthorhombic'
loop_
_space_group_symop_operation_xyz
x,y,z
-x,-y,z
1/2-x,y,z
1/2+x,-y,z
x,1/2+y,1/2+z
-x,1/2-y,1/2+z
1/2-x,1/2+y,1/2+z
1/2+x,1/2-y,1/2+z
loop_
_atom_site_type_symbol
_atom_site_label
_atom_site_fract_x
_atom_site_fract_y
_atom_site_fract_z
Si Si1 0.075001 0.171223 0.925640
Si Si2 0.579742 0.068936 0.841363
Si Si3 0.917727 0.569913 0.194017
Si Si4 0.429895 0.286370 0.833299
Si Si5 0.067565 0.866394 0.161608
Si Si6 0.565688 0.726223 0.208286
Si Si7 0.067478 0.574696 0.787216
Si Si8 0.929652 0.075944 0.028410
O O1 0.250000 0.158099 0.944552
O O2 0.046289 0.253471 0.903552
O O3 0.031732 0.132702 0.860705
O O4 0.972897 0.141148 0.982011
O O5 0.750000 0.078609 0.870669
O O6 0.593072 0.060747 0.767924
O O7 0.500000 0.000000 0.871833
O O8 0.750000 0.569385 0.163465
O O9 0.993038 0.648371 0.182633
O O10 0.000000 0.500000 0.164610
O O11 0.250000 0.291486 0.816809
O O12 0.510548 0.239371 0.779130
O O13 0.505418 0.364703 0.834264
O O14 0.250000 0.866149 0.169390
O O15 0.012960 0.902737 0.097382
O O16 0.004613 0.785309 0.162028
O O17 0.991510 0.911191 0.217116
O O18 0.750000 0.728682 0.208437
O O19 0.250000 0.573487 0.787608
O O20 0.000000 0.500000 0.811436
O O21 0.750000 0.066803 0.027487
O O22 0.000000 0.000000 0.007831
#
# Coordination Sequence:
#
# PCOD8182526 Si02
#       8
#     8   8   8   8   8   8   8   8
#     4  11  22  34  50  71  99 135 173 211 254 298
#     4  10  18  29  43  62  93 129 168 205 241 290
#     4   9  18  28  42  66  96 130 166 202 245 297
#     4  10  20  33  50  74 102 133 169 209 254 310
#     4  10  21  36  54  77 102 135 176 218 262 309
#     4  10  18  31  50  74 101 133 170 212 261 311
#     4  11  21  34  55  80 107 137 167 209 260 311
#     4  11  24  39  55  74 102 138 180 220 257 302
#
# _framework density 18.372129999999999
#
# number of rings (size 3 to 8) (size 9 to 14) (size 15 to 20)
#    0.000    1.750    1.250    5.625    0.000    6.000 
#    0.000    0.000    0.000    0.000    0.000    0.875 
#    0.000    4.000    0.000    0.000    0.000    0.125 
#
# Total GULP energy -396550.858710 kJ/mol
# GULP energy per Si atom -12392.214335 kJ/mol
# Density = 1.833031 g / cm^3
# Si number density = 18.372130 Si / 1000 Ang^3
#
#
#
# Elastic Constant Matrix: (Units=GPa)
#
#
# Indices 1 2 3 4 5 6 
#
# 1 87.2900 43.2573 23.3161 0.0000 0.0000 0.0000
# 2 43.2573 134.8100 28.2507 0.0000 0.0000 0.0000
# 3 23.3161 28.2507 56.6772 0.0000 0.0000 0.0000
# 4 0.0000 0.0000 0.0000 20.6285 0.0000 0.0000
# 5 0.0000 0.0000 0.0000 0.0000 19.4078 0.0000
# 6 0.0000 0.0000 0.0000 0.0000 0.0000 28.4425
#
#
#
# Elastic Compliance Matrix: (Units=1/GPa)
#
#
# Indices 1 2 3 4 5 6 
#
# 1 0.014407 -0.003775 -0.004045 0.000000 0.000000 0.000000
# 2 -0.003775 0.009272 -0.003069 0.000000 0.000000 0.000000
# 3 -0.004045 -0.003069 0.020838 0.000000 0.000000 0.000000
# 4 0.000000 0.000000 0.000000 0.048477 0.000000 0.000000
# 5 0.000000 0.000000 0.000000 0.000000 0.051526 0.000000
# 6 0.000000 0.000000 0.000000 0.000000 0.000000 0.035159
#
#
# Mechanical properties :
#
#
# Convention : Reuss Voigt Hill
#
# Bulk Modulus (GPa) = 43.97750 52.04727 48.01238
# Shear Modulus (GPa) = 23.91929 25.95930 24.93930
#
# Velocity S-wave (km/s) = 3.61215 3.76303 3.68836
# Velocity P-wave (km/s) = 6.43318 6.87543 6.65798
#
# Compressibility (1/GPa) = 0.02273890
#
# Stress axis : x y z
#
# Youngs Moduli (GPa) = 69.40846 107.84791 47.99040
#
# Poissons Ratio (x) = 0.40716 0.19413
# Poissons Ratio (y) = 0.26204 0.14727
# Poissons Ratio (z) = 0.28077 0.33095
#
# Static dielectric constant tensor:
#      x y z
#    x 3.582770 0.000000 0.000000 
#    y 0.000000 3.754570 0.000000 
#    z 0.000000 0.000000 3.020170 
# 
# 
# High freq. dielectric constant tensor:
#      x y z
#    x 1.726750 0.000000 0.000000 
#    y 0.000000 1.722880 0.000000 
#    z 0.000000 0.000000 1.659310 
# 
# From -- ./inp_files/24393.got.cif
#   From: 2010.03.12/outbox.cif.g09.slc.cpg/sg40_13_cif.got.tgz:24393.got - 2010.04.14 01:38:03.
