data_PCOD8182762
_publ_section_title
;
Structure prediction by ZEFSAII (Michael W. Deem and Ramdas Pophale) SiO2 
 PCOD8182762
Probable space group: A M A 2
;
_chemical_formula_sum "Si O2"
_cell_formula_units_Z 48
_cell_length_a 13.689497
_cell_length_b 8.841201
_cell_length_c 21.951257
_cell_angle_alpha 90.000000
_cell_angle_beta 90.000000
_cell_angle_gamma 90.000000
_cell_volume 2656.795637
_symmetry_space_group_name_H-M "A M A 2"
_symmetry_group_IT_number 40
_symmetry_cell_setting 'orthorhombic'
loop_
_space_group_symop_operation_xyz
x,y,z
-x,-y,z
1/2-x,y,z
1/2+x,-y,z
x,1/2+y,1/2+z
-x,1/2-y,1/2+z
1/2-x,1/2+y,1/2+z
1/2+x,1/2-y,1/2+z
loop_
_atom_site_type_symbol
_atom_site_label
_atom_site_fract_x
_atom_site_fract_y
_atom_site_fract_z
Si Si1 0.026551 0.328416 0.814270
Si Si2 0.861414 0.869455 0.899430
Si Si3 0.138592 0.581772 0.539537
Si Si4 0.137221 0.182494 0.712576
Si Si5 0.967268 0.151514 0.111307
Si Si6 0.639030 0.599142 0.293889
O O1 0.066197 0.264357 0.878511
O O2 0.111015 0.306916 0.763759
O O3 0.000000 0.500000 0.825374
O O4 0.930987 0.242153 0.789177
O O5 0.750000 0.813925 0.890980
O O6 0.880787 0.015677 0.857617
O O7 0.883497 0.915620 0.968071
O O8 0.250000 0.626395 0.554428
O O9 0.114754 0.411055 0.563387
O O10 0.064826 0.701329 0.573143
O O11 0.250000 0.202530 0.695505
O O12 0.072873 0.212379 0.652072
O O13 0.114976 0.015369 0.738271
O O14 0.000000 0.000000 0.150693
O O15 0.750000 0.656853 0.289330
#
# Coordination Sequence:
#
# PCOD8182762 Si02
#       6
#     8   8   8   8   8   8
#     4  11  22  33  53  82 108 147 184 228 281 324
#     4   9  17  33  56  81 108 144 183 229 274 325
#     4   8  16  29  49  80 111 142 186 223 266 323
#     4  10  18  34  53  77 109 142 182 231 277 330
#     4   8  18  26  48  82 109 141 186 218 277 308
#     4   9  20  34  55  80 109 144 180 228 284 329
#
# _framework density 18.066876000000001
#
# number of rings (size 3 to 8) (size 9 to 14) (size 15 to 20)
#    1.000    1.667    0.000    4.500    4.667    1.333 
#    0.000    0.833    0.000    4.000    0.000    4.667 
#    0.000    0.000    0.000    0.000    0.000    0.000 
#
# Total GULP energy -297324.430575 kJ/mol
# GULP energy per Si atom -12388.517941 kJ/mol
# Density = 1.802576 g / cm^3
# Si number density = 18.066876 Si / 1000 Ang^3
#
#
#
# Elastic Constant Matrix: (Units=GPa)
#
#
# Indices 1 2 3 4 5 6 
#
# 1 121.8889 49.8496 59.1962 0.0000 0.0000 0.0000
# 2 49.8496 87.8654 38.2523 0.0000 0.0000 0.0000
# 3 59.1962 38.2523 111.4299 0.0000 0.0000 0.0000
# 4 0.0000 0.0000 0.0000 14.2865 0.0000 0.0000
# 5 0.0000 0.0000 0.0000 0.0000 36.1457 0.0000
# 6 0.0000 0.0000 0.0000 0.0000 0.0000 17.0520
#
#
#
# Elastic Compliance Matrix: (Units=1/GPa)
#
#
# Indices 1 2 3 4 5 6 
#
# 1 0.012694 -0.005016 -0.005022 0.000000 0.000000 0.000000
# 2 -0.005016 0.015363 -0.002609 0.000000 0.000000 0.000000
# 3 -0.005022 -0.002609 0.012538 0.000000 0.000000 0.000000
# 4 0.000000 0.000000 0.000000 0.069996 0.000000 0.000000
# 5 0.000000 0.000000 0.000000 0.000000 0.027666 0.000000
# 6 0.000000 0.000000 0.000000 0.000000 0.000000 0.058644
#
#
# Mechanical properties :
#
#
# Convention : Reuss Voigt Hill
#
# Bulk Modulus (GPa) = 65.35501 68.42002 66.88751
# Shear Modulus (GPa) = 21.99784 25.08926 23.54355
#
# Velocity S-wave (km/s) = 3.49317 3.73055 3.61381
# Velocity P-wave (km/s) = 7.24721 7.51723 7.38345
#
# Compressibility (1/GPa) = 0.01530105
#
# Stress axis : x y z
#
# Youngs Moduli (GPa) = 78.77435 65.09322 79.75852
#
# Poissons Ratio (x) = 0.32649 0.40055
# Poissons Ratio (y) = 0.39511 0.20810
# Poissons Ratio (z) = 0.39561 0.16984
#
# Static dielectric constant tensor:
#      x y z
#    x 3.565850 0.000000 0.000000 
#    y 0.000000 2.858500 0.000000 
#    z 0.000000 0.000000 3.227610 
# 
# 
# High freq. dielectric constant tensor:
#      x y z
#    x 1.721620 0.000000 0.000000 
#    y 0.000000 1.649400 0.000000 
#    z 0.000000 0.000000 1.691240 
# 
# From -- ./inp_files/24718.got.cif
#   From: 2010.03.12/outbox.cif.g09.slc.cpg/sg40_13_cif.got.tgz:24718.got - 2010.04.14 01:38:03.
