data_PCOD8182105
_publ_section_title
;
Structure prediction by ZEFSAII (Michael W. Deem and Ramdas Pophale) SiO2 
 PCOD8182105
Probable space group: A B M 2
;
_chemical_formula_sum "Si O2"
_cell_formula_units_Z 64
_cell_length_a 23.769528
_cell_length_b 8.710031
_cell_length_c 15.358010
_cell_angle_alpha 90.000000
_cell_angle_beta 90.000000
_cell_angle_gamma 90.000000
_cell_volume 3179.619887
_symmetry_space_group_name_H-M "A B M 2"
_symmetry_group_IT_number 39
_symmetry_cell_setting 'orthorhombic'
loop_
_space_group_symop_operation_xyz
x,y,z
-x,-y,z
-x,1/2+y,z
x,1/2-y,z
x,1/2+y,1/2+z
-x,1/2-y,1/2+z
-x,y,1/2+z
x,-y,1/2+z
loop_
_atom_site_type_symbol
_atom_site_label
_atom_site_fract_x
_atom_site_fract_y
_atom_site_fract_z
Si Si1 0.637417 0.569856 0.311340
Si Si2 0.366453 0.570841 0.488819
Si Si3 0.252261 0.929121 0.242369
Si Si4 0.130461 0.426142 0.500180
Si Si5 0.756219 0.427702 0.556031
Si Si6 0.561222 0.930635 0.152012
Si Si7 0.060889 0.570218 0.650363
Si Si8 0.142084 0.071764 0.304441
O O1 0.650700 0.750000 0.303445
O O2 0.613015 0.527140 0.405995
O O3 0.693779 0.471826 0.299226
O O4 0.591611 0.517013 0.240553
O O5 0.377623 0.750000 0.472237
O O6 0.300838 0.538256 0.504721
O O7 0.401915 0.509910 0.570918
O O8 0.252890 0.750000 0.218899
O O9 0.252421 0.030934 0.156215
O O10 0.197592 0.968231 0.299215
O O11 0.122799 0.250000 0.527306
O O12 0.195206 0.470815 0.513863
O O13 0.088925 0.525351 0.559045
O O14 0.114321 0.452971 0.399265
O O15 0.773570 0.250000 0.550381
O O16 0.555762 0.750000 0.148679
O O17 0.500000 0.000000 0.147381
O O18 0.053928 0.750000 0.652967
O O19 0.098920 0.513156 0.730904
O O20 0.000000 0.500000 0.660361
O O21 0.158068 0.250000 0.290004
#
# Coordination Sequence:
#
# PCOD8182105 Si02
#       8
#     8   8   8   8   8   8   8   8
#     4  11  23  41  63  90 125 162 201 250 307 364
#     4  10  22  41  63  90 124 160 202 249 303 366
#     4  12  23  36  62  95 125 161 204 248 301 366
#     4  11  23  40  63  95 126 159 204 251 301 366
#     4  11  21  38  62  89 127 165 197 246 309 365
#     4  10  23  43  63  86 120 161 205 255 307 359
#     4  11  24  43  65  88 121 165 207 258 309 357
#     4  10  23  42  64  91 127 164 200 248 308 364
#
# _framework density 20.128191999999999
#
# number of rings (size 3 to 8) (size 9 to 14) (size 15 to 20)
#    0.000    1.250    2.500    3.375    0.000    7.000 
#    0.000    3.750    0.000    0.000    0.000    0.000 
#    0.000    0.000    0.000    0.000    0.000    0.000 
#
# Total GULP energy -396993.727102 kJ/mol
# GULP energy per Si atom -12406.053972 kJ/mol
# Density = 2.008238 g / cm^3
# Si number density = 20.128192 Si / 1000 Ang^3
#
#
#
# Elastic Constant Matrix: (Units=GPa)
#
#
# Indices 1 2 3 4 5 6 
#
# 1 97.8006 35.0511 26.7789 0.0000 0.0000 0.0000
# 2 35.0511 42.0318 25.6342 0.0000 0.0000 0.0000
# 3 26.7789 25.6342 121.5893 0.0000 0.0000 0.0000
# 4 0.0000 0.0000 0.0000 33.4871 0.0000 0.0000
# 5 0.0000 0.0000 0.0000 0.0000 21.8633 0.0000
# 6 0.0000 0.0000 0.0000 0.0000 0.0000 35.8707
#
#
#
# Elastic Compliance Matrix: (Units=1/GPa)
#
#
# Indices 1 2 3 4 5 6 
#
# 1 0.014642 -0.011755 -0.000747 0.000000 0.000000 0.000000
# 2 -0.011755 0.036739 -0.005157 0.000000 0.000000 0.000000
# 3 -0.000747 -0.005157 0.009476 0.000000 0.000000 0.000000
# 4 0.000000 0.000000 0.000000 0.029862 0.000000 0.000000
# 5 0.000000 0.000000 0.000000 0.000000 0.045739 0.000000
# 6 0.000000 0.000000 0.000000 0.000000 0.000000 0.027878
#
#
# Mechanical properties :
#
#
# Convention : Reuss Voigt Hill
#
# Bulk Modulus (GPa) = 39.15296 48.48335 43.81815
# Shear Modulus (GPa) = 24.01923 29.84141 26.93032
#
# Velocity S-wave (km/s) = 3.45818 3.85459 3.66175
# Velocity P-wave (km/s) = 5.95310 6.62948 6.30038
#
# Compressibility (1/GPa) = 0.02554086
#
# Stress axis : x y z
#
# Youngs Moduli (GPa) = 68.29545 27.21886 105.53011
#
# Poissons Ratio (x) = 0.31996 0.07878
# Poissons Ratio (y) = 0.80282 0.54418
# Poissons Ratio (z) = 0.05098 0.14036
#
# Static dielectric constant tensor:
#      x y z
#    x 3.363740 0.000000 0.000000 
#    y 0.000000 3.626860 0.000000 
#    z 0.000000 0.000000 3.858880 
# 
# 
# High freq. dielectric constant tensor:
#      x y z
#    x 1.780010 0.000000 0.000000 
#    y 0.000000 1.786350 0.000000 
#    z 0.000000 0.000000 1.802320 
# 
# From -- ./inp_files/10629.got.cif
#   From: 2010.03.12/outbox.cif.g09.slc.cpg/sg39_6_cif.got.tgz:10629.got - 2010.04.14 02:53:20.
