data_PCOD8182067
_publ_section_title
;
Structure prediction by ZEFSAII (Michael W. Deem and Ramdas Pophale) SiO2 
 PCOD8182067
Probable space group: A B M 2
;
_chemical_formula_sum "Si O2"
_cell_formula_units_Z 64
_cell_length_a 19.142231
_cell_length_b 8.546121
_cell_length_c 20.607357
_cell_angle_alpha 90.000000
_cell_angle_beta 90.000000
_cell_angle_gamma 90.000000
_cell_volume 3371.195085
_symmetry_space_group_name_H-M "A B M 2"
_symmetry_group_IT_number 39
_symmetry_cell_setting 'orthorhombic'
loop_
_space_group_symop_operation_xyz
x,y,z
-x,-y,z
-x,1/2+y,z
x,1/2-y,z
x,1/2+y,1/2+z
-x,1/2-y,1/2+z
-x,y,1/2+z
x,-y,1/2+z
loop_
_atom_site_type_symbol
_atom_site_label
_atom_site_fract_x
_atom_site_fract_y
_atom_site_fract_z
Si Si1 0.426517 0.434738 0.159670
Si Si2 0.291394 0.434850 0.712892
Si Si3 0.790116 0.066995 0.340249
Si Si4 0.205077 0.932069 0.087969
Si Si5 0.926016 0.933569 0.392097
Si Si6 0.710904 0.932888 0.970880
Si Si7 0.072920 0.932820 0.532801
Si Si8 0.574807 0.564419 0.517979
O O1 0.500000 0.500000 0.186848
O O2 0.432145 0.250000 0.148570
O O3 0.365850 0.477265 0.210585
O O4 0.408082 0.517765 0.091833
O O5 0.305108 0.250000 0.712849
O O6 0.251439 0.490973 0.777148
O O7 0.245091 0.488739 0.651937
O O8 0.805608 0.250000 0.336640
O O9 0.743084 0.022856 0.401800
O O10 0.864748 0.980727 0.342630
O O11 0.187599 0.750000 0.091378
O O12 0.132346 0.025461 0.084621
O O13 0.251610 0.965834 0.025513
O O14 0.932986 0.750000 0.396698
O O15 0.906453 0.997884 0.463016
O O16 0.000000 0.000000 0.367134
O O17 0.719901 0.750000 0.986614
O O18 0.630023 0.982830 0.970002
O O19 0.065737 0.750000 0.524021
O O20 0.000000 0.000000 0.558799
O O21 0.500000 0.500000 0.496290
O O22 0.577914 0.750000 0.510918
#
# Coordination Sequence:
#
# PCOD8182067 Si02
#       8
#     8   8   8   8   8   8   8   8
#     4  11  21  35  58  85 115 149 192 238 287 345
#     4  10  22  40  60  84 117 155 194 236 285 342
#     4  10  22  40  60  84 117 155 194 236 285 342
#     4  11  21  35  58  86 116 149 188 235 288 341
#     4  11  21  35  58  85 115 149 192 238 287 345
#     4  11  21  35  58  86 116 149 188 235 288 341
#     4  11  21  35  56  84 117 150 191 240 291 344
#     4  11  21  35  56  84 117 150 191 240 291 344
#
# _framework density 18.984366999999999
#
# number of rings (size 3 to 8) (size 9 to 14) (size 15 to 20)
#    0.000    1.250    2.500    6.750    0.000    1.500 
#    0.000    1.250    0.000    0.000    0.000    0.000 
#    0.000    0.000    0.000    0.000    0.000    0.000 
#
# Total GULP energy -396963.721827 kJ/mol
# GULP energy per Si atom -12405.116307 kJ/mol
# Density = 1.894116 g / cm^3
# Si number density = 18.984367 Si / 1000 Ang^3
#
#
#
# Elastic Constant Matrix: (Units=GPa)
#
#
# Indices 1 2 3 4 5 6 
#
# 1 160.3611 42.9348 62.3776 0.0000 0.0000 0.0000
# 2 42.9348 95.5242 31.1214 0.0000 0.0000 0.0000
# 3 62.3776 31.1214 97.1318 0.0000 0.0000 0.0000
# 4 0.0000 0.0000 0.0000 20.1268 0.0000 0.0000
# 5 0.0000 0.0000 0.0000 0.0000 29.0755 0.0000
# 6 0.0000 0.0000 0.0000 0.0000 0.0000 37.5184
#
#
#
# Elastic Compliance Matrix: (Units=1/GPa)
#
#
# Indices 1 2 3 4 5 6 
#
# 1 0.008761 -0.002350 -0.004873 0.000000 0.000000 0.000000
# 2 -0.002350 0.012319 -0.002438 0.000000 0.000000 0.000000
# 3 -0.004873 -0.002438 0.014206 0.000000 0.000000 0.000000
# 4 0.000000 0.000000 0.000000 0.049685 0.000000 0.000000
# 5 0.000000 0.000000 0.000000 0.000000 0.034393 0.000000
# 6 0.000000 0.000000 0.000000 0.000000 0.000000 0.026654
#
#
# Mechanical properties :
#
#
# Convention : Reuss Voigt Hill
#
# Bulk Modulus (GPa) = 62.64257 69.54273 66.09265
# Shear Modulus (GPa) = 29.29793 31.78304 30.54048
#
# Velocity S-wave (km/s) = 3.93270 4.09610 4.01523
# Velocity P-wave (km/s) = 7.32735 7.68647 7.50906
#
# Compressibility (1/GPa) = 0.01596359
#
# Stress axis : x y z
#
# Youngs Moduli (GPa) = 114.14673 81.17513 70.39328
#
# Poissons Ratio (x) = 0.19076 0.34303
# Poissons Ratio (y) = 0.26824 0.17161
# Poissons Ratio (z) = 0.55625 0.19790
#
# Static dielectric constant tensor:
#      x y z
#    x 3.800440 0.000000 0.000000 
#    y 0.000000 3.486120 0.000000 
#    z 0.000000 0.000000 3.288130 
# 
# 
# High freq. dielectric constant tensor:
#      x y z
#    x 1.758580 0.000000 0.000000 
#    y 0.000000 1.749070 0.000000 
#    z 0.000000 0.000000 1.701550 
# 
# From -- ./inp_files/13138.got.cif
#   From: 2010.03.12/outbox.cif.g09.slc.cpg/sg39_7_cif.got.tgz:13138.got - 2010.04.14 02:53:20.
