data_PCOD8182824
_publ_section_title
;
Structure prediction by ZEFSAII (Michael W. Deem and Ramdas Pophale) SiO2 
 PCOD8182824
Probable space group: A M A 2
;
_chemical_formula_sum "Si O2"
_cell_formula_units_Z 48
_cell_length_a 26.955635
_cell_length_b 13.452740
_cell_length_c 5.758348
_cell_angle_alpha 90.000000
_cell_angle_beta 90.000000
_cell_angle_gamma 90.000000
_cell_volume 2088.133319
_symmetry_space_group_name_H-M "A M A 2"
_symmetry_group_IT_number 40
_symmetry_cell_setting 'orthorhombic'
loop_
_space_group_symop_operation_xyz
x,y,z
-x,-y,z
1/2-x,y,z
1/2+x,-y,z
x,1/2+y,1/2+z
-x,1/2-y,1/2+z
1/2-x,1/2+y,1/2+z
1/2+x,1/2-y,1/2+z
loop_
_atom_site_type_symbol
_atom_site_label
_atom_site_fract_x
_atom_site_fract_y
_atom_site_fract_z
Si Si1 0.528146 0.750000 0.363320
Si Si2 0.144541 0.750000 0.363320
Si Si3 0.897226 0.102312 0.003895
Si Si4 0.695733 0.355600 0.985036
Si Si5 0.195733 0.355600 0.241604
Si Si6 0.897226 0.397688 0.722746
O O1 0.500000 0.742753 0.613320
O O2 0.561099 0.648783 0.335151
O O3 0.561099 0.851217 0.391489
O O4 0.109493 0.808832 0.187891
O O5 0.179478 0.834220 0.478342
O O6 0.109493 0.691167 0.538748
O O7 0.179478 0.665779 0.248298
O O8 0.916798 0.000000 0.113321
O O9 0.845801 0.077114 0.867888
O O10 0.750000 0.408259 0.978125
O O11 0.698356 0.250000 0.863321
O O12 0.654199 0.422885 0.858752
O O13 0.250000 0.408259 0.248514
#
# Coordination Sequence:
#
# PCOD8182824 Si02
#       6
#     8   8   8   8   8   8
#     4  12  27  52  76 100 139 181 238 307 368 428
#     4  10  18  40  63  96 142 185 224 285 335 408
#     4  11  24  44  69 100 138 179 228 291 353 420
#     4   9  18  35  64  99 139 185 229 276 337 415
#     4   9  18  35  64  99 139 185 229 276 337 415
#     4  11  24  44  69 100 138 179 228 291 353 420
#
# _framework density 22.987038999999999
#
# number of rings (size 3 to 8) (size 9 to 14) (size 15 to 20)
#    0.000    1.667    5.000    1.500    0.000    4.000 
#    0.000    6.667    0.000    0.000    0.000    0.000 
#    0.000    0.000    0.000    0.000    0.000    0.000 
#
# Total GULP energy -297370.717486 kJ/mol
# GULP energy per Si atom -12390.446562 kJ/mol
# Density = 2.293472 g / cm^3
# Si number density = 22.987039 Si / 1000 Ang^3
#
#
#
# Elastic Constant Matrix: (Units=GPa)
#
#
# Indices 1 2 3 4 5 6 
#
# 1 128.4130 45.8859 37.6659 0.0000 0.0000 0.0000
# 2 45.8859 100.8321 20.4049 0.0000 0.0000 0.0000
# 3 37.6659 20.4049 106.3887 0.0000 0.0000 0.0000
# 4 0.0000 0.0000 0.0000 31.5994 0.0000 0.0000
# 5 0.0000 0.0000 0.0000 0.0000 53.1722 0.0000
# 6 0.0000 0.0000 0.0000 0.0000 0.0000 23.5231
#
#
#
# Elastic Compliance Matrix: (Units=1/GPa)
#
#
# Indices 1 2 3 4 5 6 
#
# 1 0.010035 -0.004003 -0.002785 0.000000 0.000000 0.000000
# 2 -0.004003 0.011915 -0.000868 0.000000 0.000000 0.000000
# 3 -0.002785 -0.000868 0.010552 0.000000 0.000000 0.000000
# 4 0.000000 0.000000 0.000000 0.031646 0.000000 0.000000
# 5 0.000000 0.000000 0.000000 0.000000 0.018807 0.000000
# 6 0.000000 0.000000 0.000000 0.000000 0.000000 0.042511
#
#
# Mechanical properties :
#
#
# Convention : Reuss Voigt Hill
#
# Bulk Modulus (GPa) = 58.17456 60.39413 59.28434
# Shear Modulus (GPa) = 34.12800 37.10407 35.61604
#
# Velocity S-wave (km/s) = 3.85731 4.02198 3.94051
# Velocity P-wave (km/s) = 6.72317 6.92088 6.82274
#
# Compressibility (1/GPa) = 0.01718964
#
# Stress axis : x y z
#
# Youngs Moduli (GPa) = 99.65528 83.92971 94.76927
#
# Poissons Ratio (x) = 0.33596 0.26392
# Poissons Ratio (y) = 0.39891 0.08226
# Poissons Ratio (z) = 0.27753 0.07285
#
# Static dielectric constant tensor:
#      x y z
#    x 4.571790 0.000000 0.000000 
#    y 0.000000 3.642650 0.000000 
#    z 0.000000 0.000000 4.565330 
# 
# 
# High freq. dielectric constant tensor:
#      x y z
#    x 1.911550 0.000000 0.000000 
#    y 0.000000 1.877400 0.000000 
#    z 0.000000 0.000000 1.913380 
# 
# From -- ./inp_files/3086.got.cif
#   From: 2010.03.12/outbox.cif.g09.slc.cpg/sg40_2_cif.got.tgz:3086.got - 2010.04.14 01:38:03.
