data_PCOD8182776
_publ_section_title
;
Structure prediction by ZEFSAII (Michael W. Deem and Ramdas Pophale) SiO2 
 PCOD8182776
Probable space group: A M A 2
;
_chemical_formula_sum "Si O2"
_cell_formula_units_Z 64
_cell_length_a 8.765447
_cell_length_b 20.684888
_cell_length_c 19.593273
_cell_angle_alpha 90.000000
_cell_angle_beta 90.000000
_cell_angle_gamma 90.000000
_cell_volume 3552.501186
_symmetry_space_group_name_H-M "A M A 2"
_symmetry_group_IT_number 40
_symmetry_cell_setting 'orthorhombic'
loop_
_space_group_symop_operation_xyz
x,y,z
-x,-y,z
1/2-x,y,z
1/2+x,-y,z
x,1/2+y,1/2+z
-x,1/2-y,1/2+z
1/2-x,1/2+y,1/2+z
1/2+x,1/2-y,1/2+z
loop_
_atom_site_type_symbol
_atom_site_label
_atom_site_fract_x
_atom_site_fract_y
_atom_site_fract_z
Si Si1 0.428649 0.318234 0.381770
Si Si2 0.070257 0.566307 0.883562
Si Si3 0.072772 0.262298 0.519345
Si Si4 0.569968 0.934051 0.801088
Si Si5 0.572095 0.241208 0.170227
Si Si6 0.069759 0.881064 0.667446
Si Si7 0.428125 0.688625 0.798294
Si Si8 0.569199 0.882356 0.527417
O O1 0.250000 0.336008 0.377841
O O2 0.491013 0.308587 0.459560
O O3 0.525693 0.375668 0.350524
O O4 0.463559 0.252484 0.341384
O O5 0.250000 0.562955 0.877256
O O6 0.009330 0.626468 0.839192
O O7 0.000000 0.500000 0.855101
O O8 0.021636 0.574867 0.962560
O O9 0.250000 0.255718 0.503021
O O10 0.040649 0.290081 0.595288
O O11 0.005764 0.189994 0.514215
O O12 0.750000 0.939587 0.797140
O O13 0.503566 0.924724 0.725657
O O14 0.500000 0.000000 0.831608
O O15 0.750000 0.257686 0.178644
O O16 0.479460 0.307188 0.178963
O O17 0.517508 0.190294 0.226600
O O18 0.250000 0.885789 0.673030
O O19 0.013345 0.909390 0.594915
O O20 0.250000 0.681995 0.782867
O O21 0.750000 0.881965 0.540287
#
# Coordination Sequence:
#
# PCOD8182776 Si02
#       8
#     8   8   8   8   8   8   8   8
#     4  10  18  34  59  82 106 140 181 224 273 325
#     4  10  21  36  54  78 110 150 187 226 273 325
#     4   8  15  30  54  80 106 139 176 217 268 324
#     4  12  25  40  56  79 109 144 183 225 272 324
#     4  10  19  32  54  83 111 141 180 225 272 320
#     4  11  21  34  52  78 111 147 183 220 265 318
#     4  10  19  33  56  81 109 145 184 224 275 324
#     4   9  17  33  53  75 106 146 188 224 263 316
#
# _framework density 18.015476
#
# number of rings (size 3 to 8) (size 9 to 14) (size 15 to 20)
#    0.000    2.000    2.500    3.375    0.000    1.500 
#    0.000    4.375    0.000    0.750    0.000    1.750 
#    0.000    0.000    0.000    0.000    0.000    0.000 
#
# Total GULP energy -396768.442861 kJ/mol
# GULP energy per Si atom -12399.013839 kJ/mol
# Density = 1.797447 g / cm^3
# Si number density = 18.015476 Si / 1000 Ang^3
#
#
#
# Elastic Constant Matrix: (Units=GPa)
#
#
# Indices 1 2 3 4 5 6 
#
# 1 85.3947 40.5729 44.4472 0.0000 0.0000 0.0000
# 2 40.5729 100.4839 50.4097 0.0000 0.0000 0.0000
# 3 44.4472 50.4097 112.8562 0.0000 0.0000 0.0000
# 4 0.0000 0.0000 0.0000 21.9505 0.0000 0.0000
# 5 0.0000 0.0000 0.0000 0.0000 25.6777 0.0000
# 6 0.0000 0.0000 0.0000 0.0000 0.0000 24.7929
#
#
#
# Elastic Compliance Matrix: (Units=1/GPa)
#
#
# Indices 1 2 3 4 5 6 
#
# 1 0.016030 -0.004260 -0.004410 0.000000 0.000000 0.000000
# 2 -0.004260 0.013958 -0.004557 0.000000 0.000000 0.000000
# 3 -0.004410 -0.004557 0.012633 0.000000 0.000000 0.000000
# 4 0.000000 0.000000 0.000000 0.045557 0.000000 0.000000
# 5 0.000000 0.000000 0.000000 0.000000 0.038944 0.000000
# 6 0.000000 0.000000 0.000000 0.000000 0.000000 0.040334
#
#
# Mechanical properties :
#
#
# Convention : Reuss Voigt Hill
#
# Bulk Modulus (GPa) = 61.85570 63.28825 62.57197
# Shear Modulus (GPa) = 25.08782 25.37122 25.22952
#
# Velocity S-wave (km/s) = 3.73576 3.75681 3.74630
# Velocity P-wave (km/s) = 7.28129 7.35012 7.31579
#
# Compressibility (1/GPa) = 0.01616666
#
# Stress axis : x y z
#
# Youngs Moduli (GPa) = 62.38346 71.64375 79.15602
#
# Poissons Ratio (x) = 0.30519 0.34911
# Poissons Ratio (y) = 0.26575 0.36071
# Poissons Ratio (z) = 0.27514 0.32647
#
# Static dielectric constant tensor:
#      x y z
#    x 3.150430 0.000000 0.000000 
#    y 0.000000 3.222650 0.000000 
#    z 0.000000 0.000000 3.616400 
# 
# 
# High freq. dielectric constant tensor:
#      x y z
#    x 1.685630 0.000000 0.000000 
#    y 0.000000 1.673540 0.000000 
#    z 0.000000 0.000000 1.704640 
# 
# From -- ./inp_files/22367.got.cif
#   From: 2010.03.12/outbox.cif.g09.slc.cpg/sg40_12_cif.got.tgz:22367.got - 2010.04.14 01:38:03.
