data_PCOD8182933
_publ_section_title
;
Structure prediction by ZEFSAII (Michael W. Deem and Ramdas Pophale) SiO2 
 PCOD8182933
Probable space group: A M A 2
;
_chemical_formula_sum "Si O2"
_cell_formula_units_Z 64
_cell_length_a 8.789445
_cell_length_b 14.771802
_cell_length_c 27.292862
_cell_angle_alpha 90.000000
_cell_angle_beta 90.000000
_cell_angle_gamma 90.000000
_cell_volume 3543.594427
_symmetry_space_group_name_H-M "A M A 2"
_symmetry_group_IT_number 40
_symmetry_cell_setting 'orthorhombic'
loop_
_space_group_symop_operation_xyz
x,y,z
-x,-y,z
1/2-x,y,z
1/2+x,-y,z
x,1/2+y,1/2+z
-x,1/2-y,1/2+z
1/2-x,1/2+y,1/2+z
1/2+x,1/2-y,1/2+z
loop_
_atom_site_type_symbol
_atom_site_label
_atom_site_fract_x
_atom_site_fract_y
_atom_site_fract_z
Si Si1 0.072812 0.716508 0.340920
Si Si2 0.430989 0.403731 0.146464
Si Si3 0.570011 0.405347 0.250231
Si Si4 0.572648 0.090907 0.029315
Si Si5 0.426330 0.909692 0.371151
Si Si6 0.070933 0.908018 0.918638
Si Si7 0.929362 0.785009 0.563403
Si Si8 0.069216 0.406129 0.983145
O O1 0.250000 0.702912 0.352523
O O2 0.027910 0.671221 0.289583
O O3 0.030485 0.822925 0.338097
O O4 0.980757 0.675436 0.385849
O O5 0.500000 0.500000 0.129965
O O6 0.250000 0.411460 0.147571
O O7 0.493403 0.375536 0.199533
O O8 0.481955 0.326693 0.109067
O O9 0.500000 0.500000 0.268690
O O10 0.750000 0.416419 0.242797
O O11 0.750000 0.073937 0.027043
O O12 0.533785 0.177768 0.062646
O O13 0.500000 0.000000 0.052364
O O14 0.511178 0.107320 0.974042
O O15 0.250000 0.928720 0.371012
O O16 0.480264 0.892338 0.426868
O O17 0.500000 0.000000 0.348490
O O18 0.250000 0.916294 0.916075
O O19 0.000000 0.000000 0.896763
O O20 0.750000 0.803545 0.568040
O O21 0.991367 0.825622 0.512892
O O22 0.250000 0.405156 0.991220
O O23 0.000000 0.500000 0.003250
#
# Coordination Sequence:
#
# PCOD8182933 Si02
#       8
#     8   8   8   8   8   8   8   8
#     4  10  20  33  51  75 102 133 169 208 250 296
#     4  11  22  37  56  78 103 130 162 201 249 302
#     4  10  20  35  54  76 103 131 160 199 249 301
#     4   9  20  35  51  72 101 136 171 209 248 289
#     4   9  19  34  50  71 101 136 172 210 250 290
#     4  10  19  31  48  73 104 137 171 205 245 292
#     4  11  21  34  52  75 102 132 168 207 250 297
#     4  10  19  31  48  72 103 137 171 207 247 293
#
# _framework density 18.060756999999999
#
# number of rings (size 3 to 8) (size 9 to 14) (size 15 to 20)
#    0.000    2.000    0.000    4.875    0.000    4.500 
#    0.000    0.000    0.000    0.750    0.000    1.750 
#    0.000    0.000    0.000    0.000    0.000    0.000 
#
# Total GULP energy -396850.247341 kJ/mol
# GULP energy per Si atom -12401.570229 kJ/mol
# Density = 1.801965 g / cm^3
# Si number density = 18.060757 Si / 1000 Ang^3
#
#
#
# Elastic Constant Matrix: (Units=GPa)
#
#
# Indices 1 2 3 4 5 6 
#
# 1 81.0471 51.8699 39.8053 0.0000 0.0000 0.0000
# 2 51.8699 142.7037 68.0452 0.0000 0.0000 0.0000
# 3 39.8053 68.0452 82.9037 0.0000 0.0000 0.0000
# 4 0.0000 0.0000 0.0000 29.8377 0.0000 0.0000
# 5 0.0000 0.0000 0.0000 0.0000 22.7458 0.0000
# 6 0.0000 0.0000 0.0000 0.0000 0.0000 31.3735
#
#
#
# Elastic Compliance Matrix: (Units=1/GPa)
#
#
# Indices 1 2 3 4 5 6 
#
# 1 0.017334 -0.003832 -0.005178 0.000000 0.000000 0.000000
# 2 -0.003832 0.012361 -0.008306 0.000000 0.000000 0.000000
# 3 -0.005178 -0.008306 0.021365 0.000000 0.000000 0.000000
# 4 0.000000 0.000000 0.000000 0.033515 0.000000 0.000000
# 5 0.000000 0.000000 0.000000 0.000000 0.043964 0.000000
# 6 0.000000 0.000000 0.000000 0.000000 0.000000 0.031874
#
#
# Mechanical properties :
#
#
# Convention : Reuss Voigt Hill
#
# Bulk Modulus (GPa) = 60.86514 69.56614 65.21564
# Shear Modulus (GPa) = 24.93537 26.58701 25.76119
#
# Velocity S-wave (km/s) = 3.71973 3.84094 3.78082
# Velocity P-wave (km/s) = 7.22647 7.63360 7.43282
#
# Compressibility (1/GPa) = 0.01642976
#
# Stress axis : x y z
#
# Youngs Moduli (GPa) = 57.69124 80.90265 46.80514
#
# Poissons Ratio (x) = 0.30998 0.24234
# Poissons Ratio (y) = 0.22105 0.38874
# Poissons Ratio (z) = 0.29871 0.67194
#
# Static dielectric constant tensor:
#      x y z
#    x 3.379630 0.000000 0.000000 
#    y 0.000000 3.458080 0.000000 
#    z 0.000000 0.000000 3.196200 
# 
# 
# High freq. dielectric constant tensor:
#      x y z
#    x 1.708610 0.000000 0.000000 
#    y 0.000000 1.701350 0.000000 
#    z 0.000000 0.000000 1.675270 
# 
# From -- ./inp_files/26380.got.cif
#   From: 2010.03.12/outbox.cif.g09.slc.cpg/sg40_14_cif.got.tgz:26380.got - 2010.04.14 01:38:03.
