data_PCOD8182083
_publ_section_title
;
Structure prediction by ZEFSAII (Michael W. Deem and Ramdas Pophale) SiO2 
 PCOD8182083
Probable space group: A B M 2
;
_chemical_formula_sum "Si O2"
_cell_formula_units_Z 64
_cell_length_a 15.395519
_cell_length_b 8.678770
_cell_length_c 23.592364
_cell_angle_alpha 90.000000
_cell_angle_beta 90.000000
_cell_angle_gamma 90.000000
_cell_volume 3152.274097
_symmetry_space_group_name_H-M "A B M 2"
_symmetry_group_IT_number 39
_symmetry_cell_setting 'orthorhombic'
loop_
_space_group_symop_operation_xyz
x,y,z
-x,-y,z
-x,1/2+y,z
x,1/2-y,z
x,1/2+y,1/2+z
-x,1/2-y,1/2+z
-x,y,1/2+z
x,-y,1/2+z
loop_
_atom_site_type_symbol
_atom_site_label
_atom_site_fract_x
_atom_site_fract_y
_atom_site_fract_z
Si Si1 0.910253 0.431073 0.660090
Si Si2 0.751080 0.570143 0.594299
Si Si3 0.337816 0.573506 0.780718
Si Si4 0.152792 0.931016 0.274508
Si Si5 0.749215 0.429747 0.473051
Si Si6 0.411407 0.569654 0.391759
Si Si7 0.909119 0.431901 0.396471
Si Si8 0.408988 0.572737 0.658514
O O1 0.916318 0.250000 0.658062
O O2 0.833339 0.482907 0.619509
O O3 0.896159 0.482029 0.724592
O O4 0.000000 0.500000 0.636584
O O5 0.765588 0.750000 0.603201
O O6 0.741542 0.531805 0.528581
O O7 0.665301 0.519799 0.626677
O O8 0.307706 0.750000 0.789019
O O9 0.254558 0.465819 0.773446
O O10 0.394176 0.517875 0.833312
O O11 0.397737 0.556551 0.725713
O O12 0.139464 0.750000 0.266369
O O13 0.112368 0.991603 0.333362
O O14 0.755829 0.250000 0.489000
O O15 0.665001 0.463849 0.435608
O O16 0.833618 0.486799 0.438721
O O17 0.500000 0.500000 0.417790
O O18 0.420920 0.750000 0.379408
O O19 0.914455 0.250000 0.396382
O O20 0.000000 0.500000 0.417953
O O21 0.500000 0.500000 0.640051
O O22 0.405453 0.750000 0.639024
#
# Coordination Sequence:
#
# PCOD8182083 Si02
#       8
#     8   8   8   8   8   8   8   8
#     4  12  25  43  66  96 130 169 212 261 317 377
#     4  12  26  44  67  94 124 166 214 267 320 376
#     4  11  22  37  63  96 130 168 208 254 314 378
#     4  11  21  38  64  95 131 169 207 254 315 379
#     4  10  23  45  65  86 124 169 211 264 319 372
#     4  11  23  41  65  93 128 167 209 260 316 374
#     4  10  22  40  63  93 126 166 205 251 310 367
#     4  11  24  42  65  95 129 168 210 259 315 377
#
# _framework density 20.302803999999998
#
# number of rings (size 3 to 8) (size 9 to 14) (size 15 to 20)
#    0.000    1.000    2.500    4.500    0.000    7.000 
#    0.000    2.500    0.000    0.000    0.000    0.000 
#    0.000    0.000    0.000    0.000    0.000    0.000 
#
# Total GULP energy -397023.029315 kJ/mol
# GULP energy per Si atom -12406.969666 kJ/mol
# Density = 2.025659 g / cm^3
# Si number density = 20.302804 Si / 1000 Ang^3
#
#
#
# Elastic Constant Matrix: (Units=GPa)
#
#
# Indices 1 2 3 4 5 6 
#
# 1 151.4052 43.4241 38.2129 0.0000 0.0000 0.0000
# 2 43.4241 111.8092 46.2649 0.0000 0.0000 0.0000
# 3 38.2129 46.2649 103.6257 0.0000 0.0000 0.0000
# 4 0.0000 0.0000 0.0000 50.2777 0.0000 0.0000
# 5 0.0000 0.0000 0.0000 0.0000 -55.0966 0.0000
# 6 0.0000 0.0000 0.0000 0.0000 0.0000 39.8756
#
#
#
# Elastic Compliance Matrix: (Units=1/GPa)
#
#
# Indices 1 2 3 4 5 6 
#
# 1 0.007711 -0.002230 -0.001848 0.000000 0.000000 0.000000
# 2 -0.002230 0.011615 -0.004363 0.000000 0.000000 0.000000
# 3 -0.001848 -0.004363 0.012280 0.000000 0.000000 0.000000
# 4 0.000000 0.000000 0.000000 0.019890 0.000000 0.000000
# 5 0.000000 0.000000 0.000000 0.000000 -0.018150 0.000000
# 6 0.000000 0.000000 0.000000 0.000000 0.000000 0.025078
#
#
# Mechanical properties :
#
#
# Convention : Reuss Voigt Hill
#
# Bulk Modulus (GPa) = 67.92025 69.18266 68.55145
# Shear Modulus (GPa) = 62.33335 22.94054 42.63694
#
# Velocity S-wave (km/s) = 5.54694 3.36507 4.58760
# Velocity P-wave (km/s) = 8.63429 7.01767 7.86761
#
# Compressibility (1/GPa) = 0.01472315
#
# Stress axis : x y z
#
# Youngs Moduli (GPa) = 129.68900 86.09204 81.43572
#
# Poissons Ratio (x) = 0.19199 0.15047
# Poissons Ratio (y) = 0.28922 0.35534
# Poissons Ratio (z) = 0.23963 0.37566
#
# Static dielectric constant tensor:
#      x y z
#    x 4.414230 0.000000 0.000000 
#    y 0.000000 3.715870 0.000000 
#    z 0.000000 0.000000 3.712000 
# 
# 
# High freq. dielectric constant tensor:
#      x y z
#    x 1.809370 0.000000 0.000000 
#    y 0.000000 1.801180 0.000000 
#    z 0.000000 0.000000 1.791480 
# 
# From -- ./inp_files/16237.got.cif
#   From: 2010.03.12/outbox.cif.g09.slc.cpg/sg39_9_cif.got.tgz:16237.got - 2010.04.14 02:53:20.
