data_PCOD8182374
_publ_section_title
;
Structure prediction by ZEFSAII (Michael W. Deem and Ramdas Pophale) SiO2 
 PCOD8182374
Probable space group: A M A 2
;
_chemical_formula_sum "Si O2"
_cell_formula_units_Z 48
_cell_length_a 8.670032
_cell_length_b 9.197039
_cell_length_c 31.430291
_cell_angle_alpha 90.000000
_cell_angle_beta 90.000000
_cell_angle_gamma 90.000000
_cell_volume 2506.208107
_symmetry_space_group_name_H-M "A M A 2"
_symmetry_group_IT_number 40
_symmetry_cell_setting 'orthorhombic'
loop_
_space_group_symop_operation_xyz
x,y,z
-x,-y,z
1/2-x,y,z
1/2+x,-y,z
x,1/2+y,1/2+z
-x,1/2-y,1/2+z
1/2-x,1/2+y,1/2+z
1/2+x,1/2-y,1/2+z
loop_
_atom_site_type_symbol
_atom_site_label
_atom_site_fract_x
_atom_site_fract_y
_atom_site_fract_z
Si Si1 0.930243 0.341357 0.694010
Si Si2 0.067679 0.658903 0.854397
Si Si3 0.568985 0.157392 0.772005
Si Si4 0.567254 0.839504 0.930890
Si Si5 0.069916 0.158756 0.100750
Si Si6 0.567472 0.161436 0.017453
O O1 0.750000 0.361825 0.701354
O O2 0.999621 0.232955 0.729463
O O3 0.962321 0.270123 0.647162
O O4 0.000000 0.500000 0.699688
O O5 0.250000 0.653812 0.862118
O O6 0.022444 0.746292 0.812273
O O7 0.000000 0.500000 0.848819
O O8 0.985645 0.734360 0.893840
O O9 0.750000 0.140026 0.767941
O O10 0.500000 0.000000 0.778329
O O11 0.750000 0.850845 0.932397
O O12 0.504799 0.768104 0.974980
O O13 0.500000 0.000000 0.923450
O O14 0.250000 0.149565 0.090437
O O15 0.000000 0.000000 0.104495
O O16 0.986607 0.243045 0.061206
O O17 0.750000 0.161277 0.013660
O O18 0.500000 0.000000 0.020573
#
# Coordination Sequence:
#
# PCOD8182374 Si02
#       6
#     8   8   8   8   8   8
#     4   9  18  32  51  77 107 139 176 218 262 311
#     4  11  23  39  58  81 108 139 177 219 267 321
#     4  10  22  38  56  79 107 139 176 217 262 314
#     4  11  21  35  55  80 110 143 180 222 269 317
#     4   9  15  25  43  69 102 136 172 214 261 308
#     4  10  17  27  45  72 105 138 176 218 262 311
#
# _framework density 19.152438
#
# number of rings (size 3 to 8) (size 9 to 14) (size 15 to 20)
#    0.000    2.000    0.000    7.000    0.000    4.000 
#    0.000    0.000    0.000    1.000    0.000    4.667 
#    0.000    0.000    0.000    0.000    0.000    0.000 
#
# Total GULP energy -297468.675702 kJ/mol
# GULP energy per Si atom -12394.528154 kJ/mol
# Density = 1.910885 g / cm^3
# Si number density = 19.152438 Si / 1000 Ang^3
#
#
#
# Elastic Constant Matrix: (Units=GPa)
#
#
# Indices 1 2 3 4 5 6 
#
# 1 120.1282 43.2465 78.8397 0.0000 0.0000 0.0000
# 2 43.2465 91.2305 67.3533 0.0000 0.0000 0.0000
# 3 78.8397 67.3533 195.8998 0.0000 0.0000 0.0000
# 4 0.0000 0.0000 0.0000 29.1534 0.0000 0.0000
# 5 0.0000 0.0000 0.0000 0.0000 28.9769 0.0000
# 6 0.0000 0.0000 0.0000 0.0000 0.0000 23.2809
#
#
#
# Elastic Compliance Matrix: (Units=1/GPa)
#
#
# Indices 1 2 3 4 5 6 
#
# 1 0.011824 -0.002804 -0.003795 0.000000 0.000000 0.000000
# 2 -0.002804 0.015355 -0.004151 0.000000 0.000000 0.000000
# 3 -0.003795 -0.004151 0.008059 0.000000 0.000000 0.000000
# 4 0.000000 0.000000 0.000000 0.034301 0.000000 0.000000
# 5 0.000000 0.000000 0.000000 0.000000 0.034510 0.000000
# 6 0.000000 0.000000 0.000000 0.000000 0.000000 0.042954
#
#
# Mechanical properties :
#
#
# Convention : Reuss Voigt Hill
#
# Bulk Modulus (GPa) = 72.78254 87.34861 80.06557
# Shear Modulus (GPa) = 28.88816 30.80352 29.84584
#
# Velocity S-wave (km/s) = 3.88793 4.01476 3.95185
# Velocity P-wave (km/s) = 7.63144 8.19738 7.91947
#
# Compressibility (1/GPa) = 0.01373956
#
# Stress axis : x y z
#
# Youngs Moduli (GPa) = 84.57241 65.12648 124.08506
#
# Poissons Ratio (x) = 0.18258 0.47087
# Poissons Ratio (y) = 0.23710 0.51507
# Poissons Ratio (z) = 0.32093 0.27033
#
# Static dielectric constant tensor:
#      x y z
#    x 3.567260 0.000000 0.000000 
#    y 0.000000 3.026900 0.000000 
#    z 0.000000 0.000000 4.777210 
# 
# 
# High freq. dielectric constant tensor:
#      x y z
#    x 1.754820 0.000000 0.000000 
#    y 0.000000 1.691960 0.000000 
#    z 0.000000 0.000000 1.780760 
# 
# From -- ./inp_files/26144.got.cif
#   From: 2010.03.12/outbox.cif.g09.slc.cpg/sg40_14_cif.got.tgz:26144.got - 2010.04.14 01:38:03.
