data_PCOD8182412
_publ_section_title
;
Structure prediction by ZEFSAII (Michael W. Deem and Ramdas Pophale) SiO2 
 PCOD8182412
Probable space group: A M A 2
;
_chemical_formula_sum "Si O2"
_cell_formula_units_Z 64
_cell_length_a 16.445553
_cell_length_b 9.917961
_cell_length_c 20.539552
_cell_angle_alpha 90.000000
_cell_angle_beta 90.000000
_cell_angle_gamma 90.000000
_cell_volume 3350.131425
_symmetry_space_group_name_H-M "A M A 2"
_symmetry_group_IT_number 40
_symmetry_cell_setting 'orthorhombic'
loop_
_space_group_symop_operation_xyz
x,y,z
-x,-y,z
1/2-x,y,z
1/2+x,-y,z
x,1/2+y,1/2+z
-x,1/2-y,1/2+z
1/2-x,1/2+y,1/2+z
1/2+x,1/2-y,1/2+z
loop_
_atom_site_type_symbol
_atom_site_label
_atom_site_fract_x
_atom_site_fract_y
_atom_site_fract_z
Si Si1 0.655510 0.713816 0.697880
Si Si2 0.567288 0.114366 0.959744
Si Si3 0.345475 0.286174 0.082598
Si Si4 0.904385 0.512651 0.591085
Si Si5 0.154564 0.483191 0.194035
Si Si6 0.156076 0.285199 0.845729
Si Si7 0.595475 0.012368 0.831136
Si Si8 0.546797 0.637163 0.961706
O O1 0.750000 0.714087 0.680895
O O2 0.612364 0.607895 0.651599
O O3 0.640124 0.665809 0.771880
O O4 0.619034 0.864469 0.686285
O O5 0.617259 0.112041 0.891658
O O6 0.525048 0.256514 0.967316
O O7 0.500000 0.000000 0.949786
O O8 0.624241 0.081274 0.022541
O O9 0.250000 0.306204 0.073527
O O10 0.380923 0.381612 0.139955
O O11 0.362593 0.131285 0.101053
O O12 0.387128 0.331265 0.016370
O O13 0.000000 0.500000 0.584279
O O14 0.250000 0.490394 0.186544
O O15 0.133318 0.425895 0.265409
O O16 0.250000 0.311217 0.865642
O O17 0.094624 0.364852 0.893071
O O18 0.137722 0.127576 0.849996
O O19 0.500000 0.000000 0.818105
O O20 0.500000 0.500000 0.973757
#
# Coordination Sequence:
#
# PCOD8182412 Si02
#       8
#     8   8   8   8   8   8   8   8
#     4   9  20  38  60  85 117 155 199 247 292 351
#     4  10  19  39  57  85 120 141 191 250 282 345
#     4  11  23  40  61  87 120 162 197 238 300 361
#     4  11  21  37  61  86 119 151 197 247 297 351
#     4   9  21  38  57  86 120 154 197 242 291 352
#     4  10  20  39  63  87 117 162 200 236 298 363
#     4  10  17  34  64  86 118 149 199 246 289 345
#     4  12  24  39  61  90 118 154 196 249 299 347
#
# _framework density 19.103729000000001
#
# number of rings (size 3 to 8) (size 9 to 14) (size 15 to 20)
#    0.000    1.750    5.000    1.875    1.750    3.000 
#    2.250    1.875    0.000    2.250    0.000    0.000 
#    0.000    0.000    0.000    0.000    0.000    0.000 
#
# Total GULP energy -396688.277154 kJ/mol
# GULP energy per Si atom -12396.508661 kJ/mol
# Density = 1.906025 g / cm^3
# Si number density = 19.103729 Si / 1000 Ang^3
#
#
#
# Elastic Constant Matrix: (Units=GPa)
#
#
# Indices 1 2 3 4 5 6 
#
# 1 31.7991 26.4921 28.3150 0.0000 0.0000 0.0000
# 2 26.4921 110.5501 61.8513 0.0000 0.0000 0.0000
# 3 28.3150 61.8513 144.9198 0.0000 0.0000 0.0000
# 4 0.0000 0.0000 0.0000 20.9752 0.0000 0.0000
# 5 0.0000 0.0000 0.0000 0.0000 -351.6446 0.0000
# 6 0.0000 0.0000 0.0000 0.0000 0.0000 24.3925
#
#
#
# Elastic Compliance Matrix: (Units=1/GPa)
#
#
# Indices 1 2 3 4 5 6 
#
# 1 0.042016 -0.007193 -0.005139 0.000000 0.000000 0.000000
# 2 -0.007193 0.013115 -0.004192 0.000000 0.000000 0.000000
# 3 -0.005139 -0.004192 0.009694 0.000000 0.000000 0.000000
# 4 0.000000 0.000000 0.000000 0.047675 0.000000 0.000000
# 5 0.000000 0.000000 0.000000 0.000000 -0.002844 0.000000
# 6 0.000000 0.000000 0.000000 0.000000 0.000000 0.040996
#
#
# Mechanical properties :
#
#
# Convention : Reuss Voigt Hill
#
# Bulk Modulus (GPa) = 31.47050 57.84285 44.65668
# Shear Modulus (GPa) = 25.73426 -49.88133 -12.07353
#
# Velocity S-wave (km/s) = 3.67424 -5.11541 -2.51669
# Velocity P-wave (km/s) = 5.87446 2.13212 3.87062
#
# Compressibility (1/GPa) = 0.03177579
#
# Stress axis : x y z
#
# Youngs Moduli (GPa) = 23.80019 76.24976 103.16132
#
# Poissons Ratio (x) = 0.54850 0.53017
# Poissons Ratio (y) = 0.17121 0.43244
# Poissons Ratio (z) = 0.12231 0.31963
#
# Static dielectric constant tensor:
#      x y z
#    x 3.508110 0.000000 0.000000 
#    y 0.000000 3.458760 0.000000 
#    z 0.000000 0.000000 4.096710 
# 
# 
# High freq. dielectric constant tensor:
#      x y z
#    x 1.727920 0.000000 0.000000 
#    y 0.000000 1.726750 0.000000 
#    z 0.000000 0.000000 1.765010 
# 
# From -- ./inp_files/23366.got.cif
#   From: 2010.03.12/outbox.cif.g09.slc.cpg/sg40_12_cif.got.tgz:23366.got - 2010.04.14 01:38:03.
