data_PCOD8182751
_publ_section_title
;
Structure prediction by ZEFSAII (Michael W. Deem and Ramdas Pophale) SiO2 
 PCOD8182751
Probable space group: A M A 2
;
_chemical_formula_sum "Si O2"
_cell_formula_units_Z 56
_cell_length_a 25.564138
_cell_length_b 11.022344
_cell_length_c 10.767983
_cell_angle_alpha 90.000000
_cell_angle_beta 90.000000
_cell_angle_gamma 90.000000
_cell_volume 3034.166964
_symmetry_space_group_name_H-M "A M A 2"
_symmetry_group_IT_number 40
_symmetry_cell_setting 'orthorhombic'
loop_
_space_group_symop_operation_xyz
x,y,z
-x,-y,z
1/2-x,y,z
1/2+x,-y,z
x,1/2+y,1/2+z
-x,1/2-y,1/2+z
1/2-x,1/2+y,1/2+z
1/2+x,1/2-y,1/2+z
loop_
_atom_site_type_symbol
_atom_site_label
_atom_site_fract_x
_atom_site_fract_y
_atom_site_fract_z
Si Si1 0.060212 0.971521 0.107700
Si Si2 0.118314 0.264578 0.481472
Si Si3 0.808484 0.543158 0.371732
Si Si4 0.690731 0.328843 0.198692
Si Si5 0.345666 0.622883 0.575182
Si Si6 0.810017 0.157450 0.432267
Si Si7 0.622835 0.955798 0.325616
O O1 0.094683 0.078149 0.041889
O O2 0.077377 0.967829 0.253955
O O3 0.071797 0.841721 0.043688
O O4 0.000000 0.000000 0.091052
O O5 0.151958 0.346232 0.386879
O O6 0.154610 0.207963 0.586318
O O7 0.095105 0.153659 0.401157
O O8 0.750000 0.592961 0.349557
O O9 0.826407 0.458654 0.256142
O O10 0.806242 0.460884 0.496522
O O11 0.750000 0.336444 0.150033
O O12 0.685923 0.225929 0.302415
O O13 0.335964 0.763195 0.542496
O O14 0.336913 0.599742 0.722246
O O15 0.750000 0.127156 0.466970
O O16 0.843707 0.035154 0.422073
#
# Coordination Sequence:
#
# PCOD8182751 Si02
#       7
#     8   8   8   8   8   8   8
#     4   9  20  43  59  77 106 144 190 241 293 327
#     4  11  20  35  56  79 110 140 182 234 273 328
#     4   9  17  31  53  78 111 153 183 217 267 322
#     4   9  17  31  52  78 110 151 186 215 268 327
#     4   8  18  35  54  79 111 143 188 233 269 335
#     4  10  18  33  57  84 119 158 182 221 280 335
#     4  10  22  36  54  84 111 145 183 232 275 337
#
# _framework density 18.456465999999999
#
# number of rings (size 3 to 8) (size 9 to 14) (size 15 to 20)
#    0.857    1.714    1.429    1.714    0.000    4.571 
#    2.571    1.429    0.000    0.000    0.000    1.000 
#    0.000    0.000    0.000    0.000    0.000    0.000 
#
# Total GULP energy -346973.127896 kJ/mol
# GULP energy per Si atom -12391.897425 kJ/mol
# Density = 1.841446 g / cm^3
# Si number density = 18.456466 Si / 1000 Ang^3
#
#
#
# Elastic Constant Matrix: (Units=GPa)
#
#
# Indices 1 2 3 4 5 6 
#
# 1 82.7530 32.7987 8.9116 0.0000 0.0000 0.0000
# 2 32.7987 95.8432 23.6690 0.0000 0.0000 0.0000
# 3 8.9116 23.6690 30.7420 0.0000 0.0000 0.0000
# 4 0.0000 0.0000 0.0000 32.2546 0.0000 0.0000
# 5 0.0000 0.0000 0.0000 0.0000 10.9568 0.0000
# 6 0.0000 0.0000 0.0000 0.0000 0.0000 12.1118
#
#
#
# Elastic Compliance Matrix: (Units=1/GPa)
#
#
# Indices 1 2 3 4 5 6 
#
# 1 0.013986 -0.004673 -0.000456 0.000000 0.000000 0.000000
# 2 -0.004673 0.014445 -0.009767 0.000000 0.000000 0.000000
# 3 -0.000456 -0.009767 0.040181 0.000000 0.000000 0.000000
# 4 0.000000 0.000000 0.000000 0.031003 0.000000 0.000000
# 5 0.000000 0.000000 0.000000 0.000000 0.091267 0.000000
# 6 0.000000 0.000000 0.000000 0.000000 0.000000 0.082564
#
#
# Mechanical properties :
#
#
# Convention : Reuss Voigt Hill
#
# Bulk Modulus (GPa) = 25.76074 37.78853 31.77463
# Shear Modulus (GPa) = 15.81391 20.66193 18.23792
#
# Velocity S-wave (km/s) = 2.93033 3.34952 3.14691
# Velocity P-wave (km/s) = 5.04351 5.95633 5.51882
#
# Compressibility (1/GPa) = 0.03881876
#
# Stress axis : x y z
#
# Youngs Moduli (GPa) = 71.50242 69.22836 24.88765
#
# Poissons Ratio (x) = 0.32353 0.01135
# Poissons Ratio (y) = 0.33416 0.24307
# Poissons Ratio (z) = 0.03261 0.67614
#
# Static dielectric constant tensor:
#      x y z
#    x 2.956800 0.000000 0.000000 
#    y 0.000000 3.493360 0.000000 
#    z 0.000000 0.000000 3.334060 
# 
# 
# High freq. dielectric constant tensor:
#      x y z
#    x 1.672820 0.000000 0.000000 
#    y 0.000000 1.717740 0.000000 
#    z 0.000000 0.000000 1.710740 
# 
# From -- ./inp_files/13995.got.cif
#   From: 2010.03.12/outbox.cif.g09.slc.cpg/sg40_7_cif.got.tgz:13995.got - 2010.04.14 01:38:03.
