data_PCOD8182478
_publ_section_title
;
Structure prediction by ZEFSAII (Michael W. Deem and Ramdas Pophale) SiO2 
 PCOD8182478
Probable space group: A M A 2
;
_chemical_formula_sum "Si O2"
_cell_formula_units_Z 64
_cell_length_a 8.881284
_cell_length_b 26.500541
_cell_length_c 18.323904
_cell_angle_alpha 90.000000
_cell_angle_beta 90.000000
_cell_angle_gamma 90.000000
_cell_volume 4312.692621
_symmetry_space_group_name_H-M "A M A 2"
_symmetry_group_IT_number 40
_symmetry_cell_setting 'orthorhombic'
loop_
_space_group_symop_operation_xyz
x,y,z
-x,-y,z
1/2-x,y,z
1/2+x,-y,z
x,1/2+y,1/2+z
-x,1/2-y,1/2+z
1/2-x,1/2+y,1/2+z
1/2+x,1/2-y,1/2+z
loop_
_atom_site_type_symbol
_atom_site_label
_atom_site_fract_x
_atom_site_fract_y
_atom_site_fract_z
Si Si1 0.926002 0.239193 0.894490
Si Si2 0.925394 0.797215 0.261378
Si Si3 0.074391 0.948391 0.051954
Si Si4 0.426095 0.802162 0.684842
Si Si5 0.571682 0.052694 0.884888
Si Si6 0.428207 0.147156 0.809203
Si Si7 0.922039 0.255087 0.545585
Si Si8 0.075752 0.641829 0.632845
O O1 0.750000 0.225892 0.889520
O O2 0.960175 0.291207 0.847893
O O3 0.014842 0.191665 0.862294
O O4 0.969486 0.250501 0.976989
O O5 0.750000 0.796677 0.243541
O O6 0.991192 0.746987 0.225265
O O7 0.982749 0.846550 0.216712
O O8 0.250000 0.955813 0.059634
O O9 0.024274 0.903051 0.103312
O O10 0.027952 0.936097 0.968925
O O11 0.000000 0.000000 0.079447
O O12 0.250000 0.811609 0.699557
O O13 0.519588 0.846765 0.724195
O O14 0.456582 0.792821 0.598812
O O15 0.750000 0.051181 0.873444
O O16 0.498545 0.095161 0.835469
O O17 0.500000 0.000000 0.859892
O O18 0.250000 0.144374 0.814069
O O19 0.750000 0.252612 0.518848
O O20 0.951991 0.307942 0.585530
O O21 0.250000 0.625338 0.629876
#
# Coordination Sequence:
#
# PCOD8182478 Si02
#       8
#     8   8   8   8   8   8   8   8
#     4  10  18  28  42  60  85 115 145 175 208 248
#     4   7  13  26  41  56  76 107 140 167 201 243
#     4  10  20  31  43  60  81 106 137 172 208 244
#     4   8  15  29  44  58  81 111 140 171 208 249
#     4  10  20  33  46  61  83 110 140 175 213 250
#     4  11  20  29  43  62  84 112 146 178 210 249
#     4   9  17  28  43  63  86 112 141 173 211 252
#     4   9  16  28  44  58  78 109 141 171 205 245
#
# _framework density 14.839916000000001
#
# number of rings (size 3 to 8) (size 9 to 14) (size 15 to 20)
#    0.000    2.750    0.000    5.250    0.000    4.500 
#    0.000    5.625    0.000    0.000    0.000    0.000 
#    0.000    1.000    0.000    7.750    0.000    4.750 
#
# Total GULP energy -396458.353808 kJ/mol
# GULP energy per Si atom -12389.323556 kJ/mol
# Density = 1.480614 g / cm^3
# Si number density = 14.839916 Si / 1000 Ang^3
#
#
#
# Elastic Constant Matrix: (Units=GPa)
#
#
# Indices 1 2 3 4 5 6 
#
# 1 65.7469 37.7205 33.6133 0.0000 0.0000 0.0000
# 2 37.7205 85.0542 47.8231 0.0000 0.0000 0.0000
# 3 33.6133 47.8231 78.6461 0.0000 0.0000 0.0000
# 4 0.0000 0.0000 0.0000 25.4803 0.0000 0.0000
# 5 0.0000 0.0000 0.0000 0.0000 7.7572 0.0000
# 6 0.0000 0.0000 0.0000 0.0000 0.0000 21.4542
#
#
#
# Elastic Compliance Matrix: (Units=1/GPa)
#
#
# Indices 1 2 3 4 5 6 
#
# 1 0.021718 -0.006705 -0.005205 0.000000 0.000000 0.000000
# 2 -0.006705 0.019935 -0.009257 0.000000 0.000000 0.000000
# 3 -0.005205 -0.009257 0.020569 0.000000 0.000000 0.000000
# 4 0.000000 0.000000 0.000000 0.039246 0.000000 0.000000
# 5 0.000000 0.000000 0.000000 0.000000 0.128913 0.000000
# 6 0.000000 0.000000 0.000000 0.000000 0.000000 0.046611
#
#
# Mechanical properties :
#
#
# Convention : Reuss Voigt Hill
#
# Bulk Modulus (GPa) = 50.28018 51.97345 51.12681
# Shear Modulus (GPa) = 15.33959 18.29102 16.81531
#
# Velocity S-wave (km/s) = 3.21856 3.51459 3.36983
# Velocity P-wave (km/s) = 6.91140 7.18112 7.04755
#
# Compressibility (1/GPa) = 0.01988855
#
# Stress axis : x y z
#
# Youngs Moduli (GPa) = 46.04542 50.16181 48.61784
#
# Poissons Ratio (x) = 0.33633 0.25305
# Poissons Ratio (y) = 0.30873 0.45004
# Poissons Ratio (z) = 0.23966 0.46433
#
# Static dielectric constant tensor:
#      x y z
#    x 2.831330 0.000000 0.000000 
#    y 0.000000 2.757440 0.000000 
#    z 0.000000 0.000000 3.028240 
# 
# 
# High freq. dielectric constant tensor:
#      x y z
#    x 1.568490 0.000000 0.000000 
#    y 0.000000 1.536700 0.000000 
#    z 0.000000 0.000000 1.559350 
# 
# From -- ./inp_files/19704.got.cif
#   From: 2010.03.12/outbox.cif.g09.slc.cpg/sg40_10_cif.got.tgz:19704.got - 2010.04.14 01:38:03.
