data_PCOD8182072
_publ_section_title
;
Structure prediction by ZEFSAII (Michael W. Deem and Ramdas Pophale) SiO2 
 PCOD8182072
Probable space group: A B M 2
;
_chemical_formula_sum "Si O2"
_cell_formula_units_Z 48
_cell_length_a 26.077913
_cell_length_b 9.036626
_cell_length_c 9.828166
_cell_angle_alpha 90.000000
_cell_angle_beta 90.000000
_cell_angle_gamma 90.000000
_cell_volume 2316.069694
_symmetry_space_group_name_H-M "A B M 2"
_symmetry_group_IT_number 39
_symmetry_cell_setting 'orthorhombic'
loop_
_space_group_symop_operation_xyz
x,y,z
-x,-y,z
-x,1/2+y,z
x,1/2-y,z
x,1/2+y,1/2+z
-x,1/2-y,1/2+z
-x,y,1/2+z
x,-y,1/2+z
loop_
_atom_site_type_symbol
_atom_site_label
_atom_site_fract_x
_atom_site_fract_y
_atom_site_fract_z
Si Si1 0.782723 0.420603 0.725210
Si Si2 0.886769 0.078993 0.256077
Si Si3 0.612166 0.421043 0.900715
Si Si4 0.446657 0.078850 0.672377
Si Si5 0.946472 0.579081 0.485272
Si Si6 0.723115 0.579623 0.498508
O O1 0.794156 0.250000 0.692062
O O2 0.833664 0.515096 0.700222
O O3 0.738769 0.478660 0.625004
O O4 0.764330 0.440871 0.879264
O O5 0.879109 0.250000 0.293646
O O6 0.903263 0.990958 0.389751
O O7 0.929860 0.058807 0.140929
O O8 0.614774 0.250000 0.857658
O O9 0.597202 0.515910 0.770109
O O10 0.667638 0.476013 0.949892
O O11 0.570313 0.447751 0.017850
O O12 0.453953 0.250000 0.705889
O O13 0.500000 0.000000 0.701325
O O14 0.952594 0.750000 0.445822
O O15 0.000000 0.500000 0.459808
O O16 0.720269 0.750000 0.546043
#
# Coordination Sequence:
#
# PCOD8182072 Si02
#       6
#     8   8   8   8   8   8
#     4  11  23  38  60  89 119 155 198 242 291 348
#     4  11  24  41  62  88 120 158 198 243 293 346
#     4  10  22  40  61  86 117 153 194 241 291 346
#     4  11  23  38  59  86 115 151 193 237 289 347
#     4  11  24  41  62  89 119 153 195 241 291 348
#     4  10  22  40  60  86 120 154 193 242 293 347
#
# _framework density 20.724764
#
# number of rings (size 3 to 8) (size 9 to 14) (size 15 to 20)
#    0.000    1.333    0.000    5.000    0.000   12.667 
#    0.000    0.000    0.000    0.000    0.000    0.000 
#    0.000    0.000    0.000    0.000    0.000    0.000 
#
# Total GULP energy -297811.775121 kJ/mol
# GULP energy per Si atom -12408.823963 kJ/mol
# Density = 2.067759 g / cm^3
# Si number density = 20.724764 Si / 1000 Ang^3
#
#
#
# Elastic Constant Matrix: (Units=GPa)
#
#
# Indices 1 2 3 4 5 6 
#
# 1 91.2716 33.4062 -4.1441 0.0000 0.0000 0.0000
# 2 33.4062 120.9471 37.8691 0.0000 0.0000 0.0000
# 3 -4.1441 37.8691 52.0274 0.0000 0.0000 0.0000
# 4 0.0000 0.0000 0.0000 32.8114 0.0000 0.0000
# 5 0.0000 0.0000 0.0000 0.0000 34.3199 0.0000
# 6 0.0000 0.0000 0.0000 0.0000 0.0000 37.7249
#
#
#
# Elastic Compliance Matrix: (Units=1/GPa)
#
#
# Indices 1 2 3 4 5 6 
#
# 1 0.013032 -0.005083 0.004738 0.000000 0.000000 0.000000
# 2 -0.005083 0.012691 -0.009642 0.000000 0.000000 0.000000
# 3 0.004738 -0.009642 0.026616 0.000000 0.000000 0.000000
# 4 0.000000 0.000000 0.000000 0.030477 0.000000 0.000000
# 5 0.000000 0.000000 0.000000 0.000000 0.029138 0.000000
# 6 0.000000 0.000000 0.000000 0.000000 0.000000 0.026508
#
#
# Mechanical properties :
#
#
# Convention : Reuss Voigt Hill
#
# Bulk Modulus (GPa) = 30.89829 44.27871 37.58850
# Shear Modulus (GPa) = 29.54654 34.11224 31.82939
#
# Velocity S-wave (km/s) = 3.77989 4.06145 3.92320
# Velocity P-wave (km/s) = 5.83021 6.58827 6.22080
#
# Compressibility (1/GPa) = 0.03236425
#
# Stress axis : x y z
#
# Youngs Moduli (GPa) = 76.73550 78.79588 37.57094
#
# Poissons Ratio (x) = 0.40051 -0.17800
# Poissons Ratio (y) = 0.39003 0.36227
# Poissons Ratio (z) = -0.36355 0.75977
#
# Static dielectric constant tensor:
#      x y z
#    x 3.745240 0.000000 0.000000 
#    y 0.000000 3.790110 0.000000 
#    z 0.000000 0.000000 3.673870 
# 
# 
# High freq. dielectric constant tensor:
#      x y z
#    x 1.824410 0.000000 0.000000 
#    y 0.000000 1.817380 0.000000 
#    z 0.000000 0.000000 1.816790 
# 
# From -- ./inp_files/4139.got.cif
#   From: 2010.03.12/outbox.cif.g09.slc.cpg/sg39_3_cif.got.tgz:4139.got - 2010.04.14 02:53:20.
