data_PCOD8182048
_publ_section_title
;
Structure prediction by ZEFSAII (Michael W. Deem and Ramdas Pophale) SiO2 
 PCOD8182048
Probable space group: A B M 2
;
_chemical_formula_sum "Si O2"
_cell_formula_units_Z 64
_cell_length_a 17.332623
_cell_length_b 14.526042
_cell_length_c 12.131287
_cell_angle_alpha 90.000000
_cell_angle_beta 90.000000
_cell_angle_gamma 90.000000
_cell_volume 3054.347623
_symmetry_space_group_name_H-M "A B M 2"
_symmetry_group_IT_number 39
_symmetry_cell_setting 'orthorhombic'
loop_
_space_group_symop_operation_xyz
x,y,z
-x,-y,z
-x,1/2+y,z
x,1/2-y,z
x,1/2+y,1/2+z
-x,1/2-y,1/2+z
-x,y,1/2+z
x,-y,1/2+z
loop_
_atom_site_type_symbol
_atom_site_label
_atom_site_fract_x
_atom_site_fract_y
_atom_site_fract_z
Si Si1 0.189955 0.148112 0.792640
Si Si2 0.665835 0.858031 0.668049
Si Si3 0.661405 0.849941 0.416333
Si Si4 0.911813 0.974084 0.932402
Si Si5 0.588187 0.974084 0.851304
Si Si6 0.165835 0.858031 0.615657
Si Si7 0.310045 0.648112 0.491066
Si Si8 0.161405 0.849941 0.867372
O O1 0.154823 0.250000 0.770422
O O2 0.243760 0.114391 0.690490
O O3 0.120553 0.078440 0.822846
O O4 0.250000 0.151283 0.891853
O O5 0.655864 0.750000 0.696117
O O6 0.646370 0.880082 0.542304
O O7 0.604755 0.913917 0.742816
O O8 0.621971 0.750000 0.393889
O O9 0.750000 0.839457 0.391853
O O10 0.628774 0.927291 0.335787
O O11 0.871226 0.072709 0.947919
O O12 0.895245 0.913917 0.040889
O O13 0.000000 0.000000 0.915197
O O14 0.500000 0.000000 0.868509
O O15 0.620553 0.921560 0.960860
O O16 0.155864 0.750000 0.587589
O O17 0.256240 0.885609 0.593216
O O18 0.146370 0.880082 0.741402
O O19 0.345177 0.750000 0.513284
O O20 0.121971 0.750000 0.889817
#
# Coordination Sequence:
#
# PCOD8182048 Si02
#       8
#     8   8   8   8   8   8   8   8
#     4   8  15  31  56  81 103 138 192 239 268 311
#     4   9  19  39  63  81 104 146 195 236 276 327
#     4  10  22  39  58  83 114 146 185 236 285 325
#     4  11  22  33  54  86 119 149 182 224 279 341
#     4  11  22  33  54  86 119 149 182 224 279 341
#     4   9  19  39  63  81 104 146 195 236 276 327
#     4   8  15  31  56  81 103 138 192 239 268 311
#     4  10  22  39  58  83 114 146 185 236 285 325
#
# _framework density 20.953738999999999
#
# number of rings (size 3 to 8) (size 9 to 14) (size 15 to 20)
#    0.000    2.500    0.000    4.500    0.000    7.000 
#    0.000    0.000    0.000    7.500    0.000    0.000 
#    0.000    0.000    0.000    0.000    0.000    0.000 
#
# Total GULP energy -396534.960080 kJ/mol
# GULP energy per Si atom -12391.717502 kJ/mol
# Density = 2.090605 g / cm^3
# Si number density = 20.953739 Si / 1000 Ang^3
#
#
#
# Elastic Constant Matrix: (Units=GPa)
#
#
# Indices 1 2 3 4 5 6 
#
# 1 98.9311 49.9951 8.1422 0.0000 0.0000 0.0000
# 2 49.9951 126.6163 33.5857 0.0000 0.0000 0.0000
# 3 8.1422 33.5857 34.5255 0.0000 0.0000 0.0000
# 4 0.0000 0.0000 0.0000 -38.0689 0.0000 0.0000
# 5 0.0000 0.0000 0.0000 0.0000 15.4140 0.0000
# 6 0.0000 0.0000 0.0000 0.0000 0.0000 10.2974
#
#
#
# Elastic Compliance Matrix: (Units=1/GPa)
#
#
# Indices 1 2 3 4 5 6 
#
# 1 0.012793 -0.005730 0.002557 0.000000 0.000000 0.000000
# 2 -0.005730 0.013211 -0.011500 0.000000 0.000000 0.000000
# 3 0.002557 -0.011500 0.039548 0.000000 0.000000 0.000000
# 4 0.000000 0.000000 0.000000 -0.026268 0.000000 0.000000
# 5 0.000000 0.000000 0.000000 0.000000 0.064876 0.000000
# 6 0.000000 0.000000 0.000000 0.000000 0.000000 0.097112
#
#
# Mechanical properties :
#
#
# Convention : Reuss Voigt Hill
#
# Bulk Modulus (GPa) = 27.61962 49.27989 38.44975
# Shear Modulus (GPa) = 20.60279 8.75182 14.67731
#
# Velocity S-wave (km/s) = 3.13909 2.04592 2.64950
# Velocity P-wave (km/s) = 5.13306 5.39912 5.26777
#
# Compressibility (1/GPa) = 0.03620615
#
# Stress axis : x y z
#
# Youngs Moduli (GPa) = 78.16716 75.69659 25.28570
#
# Poissons Ratio (x) = 0.43371 -0.06465
# Poissons Ratio (y) = 0.44787 0.29078
# Poissons Ratio (z) = -0.19984 0.87050
#
# Static dielectric constant tensor:
#      x y z
#    x 3.408930 0.000000 0.000000 
#    y 0.000000 4.858260 0.000000 
#    z 0.000000 0.000000 4.010740 
# 
# 
# High freq. dielectric constant tensor:
#      x y z
#    x 1.777540 0.000000 0.000000 
#    y 0.000000 1.844200 0.000000 
#    z 0.000000 0.000000 1.805500 
# 
# From -- ./inp_files/6912.got.cif
#   From: 2010.03.12/outbox.cif.g09.slc.cpg/sg39_4_cif.got.tgz:6912.got - 2010.04.14 02:53:20.
