data_PCOD8182950
_publ_section_title
;
Structure prediction by ZEFSAII (Michael W. Deem and Ramdas Pophale) SiO2 
 PCOD8182950
Probable space group: A M A 2
;
_chemical_formula_sum "Si O2"
_cell_formula_units_Z 48
_cell_length_a 9.215264
_cell_length_b 30.974425
_cell_length_c 9.130698
_cell_angle_alpha 90.000000
_cell_angle_beta 90.000000
_cell_angle_gamma 90.000000
_cell_volume 2606.243643
_symmetry_space_group_name_H-M "A M A 2"
_symmetry_group_IT_number 40
_symmetry_cell_setting 'orthorhombic'
loop_
_space_group_symop_operation_xyz
x,y,z
-x,-y,z
1/2-x,y,z
1/2+x,-y,z
x,1/2+y,1/2+z
-x,1/2-y,1/2+z
1/2-x,1/2+y,1/2+z
1/2+x,1/2-y,1/2+z
loop_
_atom_site_type_symbol
_atom_site_label
_atom_site_fract_x
_atom_site_fract_y
_atom_site_fract_z
Si Si1 0.578182 0.633543 0.309780
Si Si2 0.916839 0.790979 0.319010
Si Si3 0.579722 0.712213 0.515759
Si Si4 0.908970 0.539288 0.337673
Si Si5 0.918864 0.373875 0.012331
Si Si6 0.913480 0.040773 0.490096
O O1 0.750000 0.632881 0.272909
O O2 0.535593 0.669595 0.426339
O O3 0.529503 0.586951 0.376436
O O4 0.491252 0.643125 0.161518
O O5 0.750000 0.781724 0.281376
O O6 0.975648 0.754050 0.427919
O O7 0.938677 0.837363 0.391227
O O8 0.005054 0.789097 0.171072
O O9 0.750000 0.714507 0.542920
O O10 0.750000 0.534040 0.405721
O O11 0.904708 0.535520 0.163486
O O12 0.000000 0.500000 0.407097
O O13 0.750000 0.384423 0.041765
O O14 0.999221 0.416004 0.949332
O O15 0.750000 0.042807 0.424747
O O16 0.000000 0.000000 0.422240
#
# Coordination Sequence:
#
# PCOD8182950 Si02
#       6
#     8   8   8   8   8   8
#     4   9  18  32  50  74 102 132 171 214 254 303
#     4  10  22  37  53  77 105 131 167 214 259 308
#     4  10  21  37  56  76 100 133 171 212 260 312
#     4   8  14  24  40  65  96 126 158 199 242 286
#     4  10  19  31  49  75 106 137 170 210 256 305
#     4   9  16  27  45  71 102 135 171 211 253 296
#
# _framework density 18.417311000000002
#
# number of rings (size 3 to 8) (size 9 to 14) (size 15 to 20)
#    0.000    2.667    0.000    3.000    0.000    6.667 
#    0.000    0.000    0.000    1.000    0.000    4.667 
#    0.000    0.000    0.000    0.000    0.000    0.000 
#
# Total GULP energy -297555.775636 kJ/mol
# GULP energy per Si atom -12398.157318 kJ/mol
# Density = 1.837539 g / cm^3
# Si number density = 18.417311 Si / 1000 Ang^3
#
#
#
# Elastic Constant Matrix: (Units=GPa)
#
#
# Indices 1 2 3 4 5 6 
#
# 1 93.4758 61.8906 49.0446 0.0000 0.0000 0.0000
# 2 61.8906 141.4540 52.6303 0.0000 0.0000 0.0000
# 3 49.0446 52.6303 82.3897 0.0000 0.0000 0.0000
# 4 0.0000 0.0000 0.0000 19.1074 0.0000 0.0000
# 5 0.0000 0.0000 0.0000 0.0000 24.3734 0.0000
# 6 0.0000 0.0000 0.0000 0.0000 0.0000 31.9265
#
#
#
# Elastic Compliance Matrix: (Units=1/GPa)
#
#
# Indices 1 2 3 4 5 6 
#
# 1 0.017979 -0.005095 -0.007448 0.000000 0.000000 0.000000
# 2 -0.005095 0.010718 -0.003813 0.000000 0.000000 0.000000
# 3 -0.007448 -0.003813 0.019007 0.000000 0.000000 0.000000
# 4 0.000000 0.000000 0.000000 0.052336 0.000000 0.000000
# 5 0.000000 0.000000 0.000000 0.000000 0.041028 0.000000
# 6 0.000000 0.000000 0.000000 0.000000 0.000000 0.031322
#
#
# Mechanical properties :
#
#
# Convention : Reuss Voigt Hill
#
# Bulk Modulus (GPa) = 66.70674 71.60562 69.15618
# Shear Modulus (GPa) = 23.79827 25.33173 24.56500
#
# Velocity S-wave (km/s) = 3.59857 3.71270 3.65608
# Velocity P-wave (km/s) = 7.31878 7.57250 7.44672
#
# Compressibility (1/GPa) = 0.01499099
#
# Stress axis : x y z
#
# Youngs Moduli (GPa) = 55.61945 93.30421 52.61300
#
# Poissons Ratio (x) = 0.47543 0.39184
# Poissons Ratio (y) = 0.28341 0.20062
# Poissons Ratio (z) = 0.41424 0.35578
#
# Static dielectric constant tensor:
#      x y z
#    x 3.528320 0.000000 0.000000 
#    y 0.000000 3.748140 0.000000 
#    z 0.000000 0.000000 2.897720 
# 
# 
# High freq. dielectric constant tensor:
#      x y z
#    x 1.716430 0.000000 0.000000 
#    y 0.000000 1.737290 0.000000 
#    z 0.000000 0.000000 1.667140 
# 
# From -- ./inp_files/4624.got.cif
#   From: 2010.03.12/outbox.cif.g09.slc.cpg/sg40_3_cif.got.tgz:4624.got - 2010.04.14 01:38:03.
