data_PCOD8182511
_publ_section_title
;
Structure prediction by ZEFSAII (Michael W. Deem and Ramdas Pophale) SiO2 
 PCOD8182511
Probable space group: A M A 2
;
_chemical_formula_sum "Si O2"
_cell_formula_units_Z 64
_cell_length_a 9.068061
_cell_length_b 14.527585
_cell_length_c 27.663723
_cell_angle_alpha 90.000000
_cell_angle_beta 90.000000
_cell_angle_gamma 90.000000
_cell_volume 3644.336623
_symmetry_space_group_name_H-M "A M A 2"
_symmetry_group_IT_number 40
_symmetry_cell_setting 'orthorhombic'
loop_
_space_group_symop_operation_xyz
x,y,z
-x,-y,z
1/2-x,y,z
1/2+x,-y,z
x,1/2+y,1/2+z
-x,1/2-y,1/2+z
1/2-x,1/2+y,1/2+z
1/2+x,1/2-y,1/2+z
loop_
_atom_site_type_symbol
_atom_site_label
_atom_site_fract_x
_atom_site_fract_y
_atom_site_fract_z
Si Si1 0.423266 0.405661 0.948470
Si Si2 0.076386 0.155647 0.738862
Si Si3 0.417443 0.214214 0.374041
Si Si4 0.923686 0.210095 0.647180
Si Si5 0.923586 0.587988 0.330324
Si Si6 0.915524 0.328523 0.770690
Si Si7 0.584751 0.412005 0.674039
Si Si8 0.421246 0.407990 0.057886
O O1 0.500000 0.500000 0.931452
O O2 0.250000 0.418381 0.942368
O O3 0.475866 0.320442 0.916032
O O4 0.469315 0.381733 0.003483
O O5 0.250000 0.135371 0.738459
O O6 0.008863 0.143962 0.685034
O O7 0.994391 0.089576 0.776716
O O8 0.043913 0.259523 0.755322
O O9 0.250000 0.210070 0.393035
O O10 0.460626 0.318723 0.359681
O O11 0.437815 0.146740 0.327150
O O12 0.750000 0.204081 0.658499
O O13 0.978419 0.315943 0.652734
O O14 0.962618 0.176217 0.593256
O O15 0.750000 0.572482 0.326475
O O16 0.000000 0.500000 0.356822
O O17 0.750000 0.282580 0.766007
O O18 0.924122 0.413198 0.733120
O O19 0.500000 0.500000 0.653179
O O20 0.750000 0.424082 0.655663
O O21 0.500000 0.500000 0.076035
O O22 0.250000 0.430024 0.059881
#
# Coordination Sequence:
#
# PCOD8182511 Si02
#       8
#     8   8   8   8   8   8   8   8
#     4  10  20  34  53  76  99 124 158 201 250 303
#     4  10  18  28  45  70  97 126 162 200 238 281
#     4   9  18  33  52  73  99 130 163 201 245 291
#     4   9  18  34  51  67  95 133 166 200 247 295
#     4  10  20  34  51  72 101 136 171 205 242 285
#     4   8  16  31  46  63  92 129 163 195 234 277
#     4   9  17  29  46  67  94 128 162 197 235 277
#     4   9  19  35  54  74  95 122 157 199 248 299
#
# _framework density 17.561496000000002
#
# number of rings (size 3 to 8) (size 9 to 14) (size 15 to 20)
#    0.000    2.750    0.000    3.375    0.000    6.500 
#    0.000    2.500    0.000    0.750    0.000    3.500 
#    0.000    0.000    0.000    0.000    0.000    0.000 
#
# Total GULP energy -396552.474930 kJ/mol
# GULP energy per Si atom -12392.264842 kJ/mol
# Density = 1.752153 g / cm^3
# Si number density = 17.561496 Si / 1000 Ang^3
#
#
#
# Elastic Constant Matrix: (Units=GPa)
#
#
# Indices 1 2 3 4 5 6 
#
# 1 78.1875 44.2298 39.2696 0.0000 0.0000 0.0000
# 2 44.2298 98.4259 53.8121 0.0000 0.0000 0.0000
# 3 39.2696 53.8121 95.4995 0.0000 0.0000 0.0000
# 4 0.0000 0.0000 0.0000 22.4558 0.0000 0.0000
# 5 0.0000 0.0000 0.0000 0.0000 20.7868 0.0000
# 6 0.0000 0.0000 0.0000 0.0000 0.0000 30.3083
#
#
#
# Elastic Compliance Matrix: (Units=1/GPa)
#
#
# Indices 1 2 3 4 5 6 
#
# 1 0.018226 -0.005915 -0.004162 0.000000 0.000000 0.000000
# 2 -0.005915 0.016603 -0.006923 0.000000 0.000000 0.000000
# 3 -0.004162 -0.006923 0.016084 0.000000 0.000000 0.000000
# 4 0.000000 0.000000 0.000000 0.044532 0.000000 0.000000
# 5 0.000000 0.000000 0.000000 0.000000 0.048108 0.000000
# 6 0.000000 0.000000 0.000000 0.000000 0.000000 0.032994
#
#
# Mechanical properties :
#
#
# Convention : Reuss Voigt Hill
#
# Bulk Modulus (GPa) = 59.12598 60.74843 59.93721
# Shear Modulus (GPa) = 23.12846 23.69692 23.41269
#
# Velocity S-wave (km/s) = 3.63298 3.67736 3.65524
# Velocity P-wave (km/s) = 7.16513 7.25931 7.21238
#
# Compressibility (1/GPa) = 0.01691304
#
# Stress axis : x y z
#
# Youngs Moduli (GPa) = 54.86679 60.22971 62.17497
#
# Poissons Ratio (x) = 0.35626 0.25875
# Poissons Ratio (y) = 0.32454 0.43045
# Poissons Ratio (z) = 0.22833 0.41699
#
# Static dielectric constant tensor:
#      x y z
#    x 3.205570 0.000000 0.000000 
#    y 0.000000 3.142930 0.000000 
#    z 0.000000 0.000000 3.263690 
# 
# 
# High freq. dielectric constant tensor:
#      x y z
#    x 1.679210 0.000000 0.000000 
#    y 0.000000 1.661550 0.000000 
#    z 0.000000 0.000000 1.659160 
# 
# From -- ./inp_files/26460.got.cif
#   From: 2010.03.12/outbox.cif.g09.slc.cpg/sg40_14_cif.got.tgz:26460.got - 2010.04.14 01:38:03.
