data_PCOD8182555
_publ_section_title
;
Structure prediction by ZEFSAII (Michael W. Deem and Ramdas Pophale) SiO2 
 PCOD8182555
Probable space group: A M A 2
;
_chemical_formula_sum "Si O2"
_cell_formula_units_Z 64
_cell_length_a 8.750917
_cell_length_b 27.596859
_cell_length_c 14.503918
_cell_angle_alpha 90.000000
_cell_angle_beta 90.000000
_cell_angle_gamma 90.000000
_cell_volume 3502.664616
_symmetry_space_group_name_H-M "A M A 2"
_symmetry_group_IT_number 40
_symmetry_cell_setting 'orthorhombic'
loop_
_space_group_symop_operation_xyz
x,y,z
-x,-y,z
1/2-x,y,z
1/2+x,-y,z
x,1/2+y,1/2+z
-x,1/2-y,1/2+z
1/2-x,1/2+y,1/2+z
1/2+x,1/2-y,1/2+z
loop_
_atom_site_type_symbol
_atom_site_label
_atom_site_fract_x
_atom_site_fract_y
_atom_site_fract_z
Si Si1 0.422403 0.667535 0.191730
Si Si2 0.070071 0.136202 0.896205
Si Si3 0.078373 0.264140 0.776515
Si Si4 0.568721 0.051851 0.006645
Si Si5 0.424285 0.368460 0.817242
Si Si6 0.073808 0.268970 0.451880
Si Si7 0.570026 0.448665 0.700670
Si Si8 0.927808 0.675270 0.012512
O O1 0.250000 0.650993 0.172708
O O2 0.477342 0.646248 0.289864
O O3 0.435892 0.726689 0.192183
O O4 0.523628 0.647382 0.106646
O O5 0.250000 0.128680 0.906909
O O6 0.017805 0.180560 0.961753
O O7 0.981423 0.088375 0.926832
O O8 0.250000 0.257594 0.821231
O O9 0.058657 0.320844 0.750902
O O10 0.947724 0.250764 0.848751
O O11 0.750000 0.048446 0.012414
O O12 0.504036 0.069471 0.105165
O O13 0.500000 0.000000 0.980423
O O14 0.250000 0.387352 0.815544
O O15 0.534946 0.410076 0.780551
O O16 0.475219 0.355263 0.921862
O O17 0.250000 0.278897 0.473872
O O18 0.010446 0.227348 0.518753
O O19 0.500000 0.500000 0.730772
O O20 0.750000 0.454253 0.687427
O O21 0.750000 0.684723 0.011056
#
# Coordination Sequence:
#
# PCOD8182555 Si02
#       8
#     8   8   8   8   8   8   8   8
#     4   9  18  32  51  75 106 142 179 217 255 300
#     4  10  20  36  55  77 107 140 175 216 262 310
#     4   8  16  31  48  68  99 136 170 209 254 297
#     4  11  22  38  59  82 107 134 167 209 259 314
#     4   9  18  34  53  74 103 139 177 217 262 309
#     4  10  18  29  47  71 100 134 174 215 253 297
#     4  11  22  37  57  80 105 133 167 211 263 317
#     4  10  20  33  50  73 107 146 180 216 257 306
#
# _framework density 18.271802999999998
#
# number of rings (size 3 to 8) (size 9 to 14) (size 15 to 20)
#    0.000    2.250    0.000    6.375    0.000    6.000 
#    0.000    3.750    0.000    0.750    0.000    5.250 
#    0.000    0.000    0.000    0.000    0.000    0.000 
#
# Total GULP energy -396618.654555 kJ/mol
# GULP energy per Si atom -12394.332955 kJ/mol
# Density = 1.823022 g / cm^3
# Si number density = 18.271803 Si / 1000 Ang^3
#
#
#
# Elastic Constant Matrix: (Units=GPa)
#
#
# Indices 1 2 3 4 5 6 
#
# 1 113.6625 44.8107 45.3271 0.0000 0.0000 0.0000
# 2 44.8107 96.3903 52.9329 0.0000 0.0000 0.0000
# 3 45.3271 52.9329 95.9797 0.0000 0.0000 0.0000
# 4 0.0000 0.0000 0.0000 17.4651 0.0000 0.0000
# 5 0.0000 0.0000 0.0000 0.0000 29.5039 0.0000
# 6 0.0000 0.0000 0.0000 0.0000 0.0000 29.0898
#
#
#
# Elastic Compliance Matrix: (Units=1/GPa)
#
#
# Indices 1 2 3 4 5 6 
#
# 1 0.011572 -0.003412 -0.003583 0.000000 0.000000 0.000000
# 2 -0.003412 0.015887 -0.007151 0.000000 0.000000 0.000000
# 3 -0.003583 -0.007151 0.016055 0.000000 0.000000 0.000000
# 4 0.000000 0.000000 0.000000 0.057257 0.000000 0.000000
# 5 0.000000 0.000000 0.000000 0.000000 0.033894 0.000000
# 6 0.000000 0.000000 0.000000 0.000000 0.000000 0.034376
#
#
# Mechanical properties :
#
#
# Convention : Reuss Voigt Hill
#
# Bulk Modulus (GPa) = 65.69240 65.79710 65.74475
# Shear Modulus (GPa) = 24.70267 26.07588 25.38927
#
# Velocity S-wave (km/s) = 3.68088 3.78181 3.73169
# Velocity P-wave (km/s) = 7.35501 7.42683 7.39101
#
# Compressibility (1/GPa) = 0.01522246
#
# Stress axis : x y z
#
# Youngs Moduli (GPa) = 86.41477 62.94288 62.28705
#
# Poissons Ratio (x) = 0.21476 0.22319
# Poissons Ratio (y) = 0.29484 0.44539
# Poissons Ratio (z) = 0.30965 0.45008
#
# Static dielectric constant tensor:
#      x y z
#    x 3.334280 0.000000 0.000000 
#    y 0.000000 3.290750 0.000000 
#    z 0.000000 0.000000 3.253540 
# 
# 
# High freq. dielectric constant tensor:
#      x y z
#    x 1.714560 0.000000 0.000000 
#    y 0.000000 1.688020 0.000000 
#    z 0.000000 0.000000 1.694120 
# 
# From -- ./inp_files/15917.got.cif
#   From: 2010.03.12/outbox.cif.g09.slc.cpg/sg40_8_cif.got.tgz:15917.got - 2010.04.14 01:38:03.
