data_PCOD8182916
_publ_section_title
;
Structure prediction by ZEFSAII (Michael W. Deem and Ramdas Pophale) SiO2 
 PCOD8182916
Probable space group: A M A 2
;
_chemical_formula_sum "Si O2"
_cell_formula_units_Z 56
_cell_length_a 8.781124
_cell_length_b 13.690561
_cell_length_c 29.217637
_cell_angle_alpha 90.000000
_cell_angle_beta 90.000000
_cell_angle_gamma 90.000000
_cell_volume 3512.500896
_symmetry_space_group_name_H-M "A M A 2"
_symmetry_group_IT_number 40
_symmetry_cell_setting 'orthorhombic'
loop_
_space_group_symop_operation_xyz
x,y,z
-x,-y,z
1/2-x,y,z
1/2+x,-y,z
x,1/2+y,1/2+z
-x,1/2-y,1/2+z
1/2-x,1/2+y,1/2+z
1/2+x,1/2-y,1/2+z
loop_
_atom_site_type_symbol
_atom_site_label
_atom_site_fract_x
_atom_site_fract_y
_atom_site_fract_z
Si Si1 0.930093 0.216045 0.073910
Si Si2 0.428184 0.394398 0.748989
Si Si3 0.928857 0.605680 0.026536
Si Si4 0.927817 0.721153 0.935807
Si Si5 0.072667 0.394582 0.849197
Si Si6 0.571783 0.604188 0.483016
Si Si7 0.569603 0.892127 0.158386
O O1 0.750000 0.218957 0.081484
O O2 0.991063 0.324050 0.063360
O O3 0.012954 0.178561 0.118892
O O4 0.977106 0.143698 0.032783
O O5 0.500000 0.500000 0.753134
O O6 0.250000 0.401234 0.737515
O O7 0.457116 0.345612 0.798933
O O8 0.513632 0.342647 0.706417
O O9 0.750000 0.602493 0.036496
O O10 0.000000 0.500000 0.032732
O O11 0.964676 0.643226 0.975488
O O12 0.750000 0.745141 0.933766
O O13 0.990905 0.677985 0.888008
O O14 0.014992 0.822028 0.944067
O O15 0.250000 0.411315 0.857265
O O16 0.000000 0.500000 0.854643
O O17 0.500000 0.500000 0.474035
O O18 0.750000 0.593805 0.479031
O O19 0.750000 0.900331 0.157221
O O20 0.500000 0.000000 0.152223
#
# Coordination Sequence:
#
# PCOD8182916 Si02
#       7
#     8   8   8   8   8   8   8
#     4  10  20  33  48  67  90 118 153 188 225 268
#     4   9  16  27  42  62  89 119 150 182 221 265
#     4  10  19  31  47  67  93 123 153 187 224 262
#     4   9  18  31  46  66  92 121 153 186 221 262
#     4   9  17  28  44  66  92 122 152 184 221 262
#     4  10  20  32  47  66  89 118 150 186 225 265
#     4  11  20  30  45  66  92 121 152 185 225 270
#
# _framework density 15.943058000000001
#
# number of rings (size 3 to 8) (size 9 to 14) (size 15 to 20)
#    0.000    2.286    0.000    4.714    0.000    4.571 
#    0.000    0.000    0.000    0.000    0.000    1.000 
#    0.000    2.286    0.000    0.000    0.000    0.000 
#
# Total GULP energy -347123.539387 kJ/mol
# GULP energy per Si atom -12397.269264 kJ/mol
# Density = 1.590677 g / cm^3
# Si number density = 15.943058 Si / 1000 Ang^3
#
#
#
# Elastic Constant Matrix: (Units=GPa)
#
#
# Indices 1 2 3 4 5 6 
#
# 1 81.9028 41.8055 52.3183 0.0000 0.0000 0.0000
# 2 41.8055 103.1257 61.0885 0.0000 0.0000 0.0000
# 3 52.3183 61.0885 138.7265 0.0000 0.0000 0.0000
# 4 0.0000 0.0000 0.0000 -44.5326 0.0000 0.0000
# 5 0.0000 0.0000 0.0000 0.0000 29.3257 0.0000
# 6 0.0000 0.0000 0.0000 0.0000 0.0000 26.3867
#
#
#
# Elastic Compliance Matrix: (Units=1/GPa)
#
#
# Indices 1 2 3 4 5 6 
#
# 1 0.017376 -0.004278 -0.004669 0.000000 0.000000 0.000000
# 2 -0.004278 0.014172 -0.004627 0.000000 0.000000 0.000000
# 3 -0.004669 -0.004627 0.011007 0.000000 0.000000 0.000000
# 4 0.000000 0.000000 0.000000 -0.022455 0.000000 0.000000
# 5 0.000000 0.000000 0.000000 0.000000 0.034100 0.000000
# 6 0.000000 0.000000 0.000000 0.000000 0.000000 0.037898
#
#
# Mechanical properties :
#
#
# Convention : Reuss Voigt Hill
#
# Bulk Modulus (GPa) = 64.91006 70.46443 67.68724
# Shear Modulus (GPa) = 40.19882 13.47214 26.83548
#
# Velocity S-wave (km/s) = 5.02680 2.91007 4.10714
# Velocity P-wave (km/s) = 8.63097 7.45552 8.06469
#
# Compressibility (1/GPa) = 0.01540593
#
# Stress axis : x y z
#
# Youngs Moduli (GPa) = 57.55131 70.56030 90.85118
#
# Poissons Ratio (x) = 0.30186 0.42420
# Poissons Ratio (y) = 0.24620 0.42041
# Poissons Ratio (z) = 0.26872 0.32651
#
# Static dielectric constant tensor:
#      x y z
#    x 2.712760 0.000000 0.000000 
#    y 0.000000 3.136730 0.000000 
#    z 0.000000 0.000000 3.541560 
# 
# 
# High freq. dielectric constant tensor:
#      x y z
#    x 1.628110 0.000000 0.000000 
#    y 0.000000 1.579240 0.000000 
#    z 0.000000 0.000000 1.615640 
# 
# From -- ./inp_files/26397.got.cif
#   From: 2010.03.12/outbox.cif.g09.slc.cpg/sg40_14_cif.got.tgz:26397.got - 2010.04.14 01:38:03.
