data_PCOD8182470
_publ_section_title
;
Structure prediction by ZEFSAII (Michael W. Deem and Ramdas Pophale) SiO2 
 PCOD8182470
Probable space group: A M A 2
;
_chemical_formula_sum "Si O2"
_cell_formula_units_Z 64
_cell_length_a 8.705712
_cell_length_b 26.724724
_cell_length_c 18.222939
_cell_angle_alpha 90.000000
_cell_angle_beta 90.000000
_cell_angle_gamma 90.000000
_cell_volume 4239.707994
_symmetry_space_group_name_H-M "A M A 2"
_symmetry_group_IT_number 40
_symmetry_cell_setting 'orthorhombic'
loop_
_space_group_symop_operation_xyz
x,y,z
-x,-y,z
1/2-x,y,z
1/2+x,-y,z
x,1/2+y,1/2+z
-x,1/2-y,1/2+z
1/2-x,1/2+y,1/2+z
1/2+x,1/2-y,1/2+z
loop_
_atom_site_type_symbol
_atom_site_label
_atom_site_fract_x
_atom_site_fract_y
_atom_site_fract_z
Si Si1 0.431409 0.948598 0.135110
Si Si2 0.068115 0.448549 0.801498
Si Si3 0.072462 0.706624 0.434164
Si Si4 0.932139 0.650161 0.553310
Si Si5 0.071029 0.201473 0.513643
Si Si6 0.929325 0.256741 0.636759
Si Si7 0.925481 0.744089 0.790091
Si Si8 0.930485 0.648166 0.886574
O O1 0.250000 0.952378 0.133433
O O2 0.490384 0.940134 0.218302
O O3 0.489400 0.902477 0.086016
O O4 0.500000 0.000000 0.102763
O O5 0.250000 0.450987 0.804076
O O6 0.006981 0.402961 0.851028
O O7 0.000000 0.500000 0.833616
O O8 0.250000 0.717479 0.454967
O O9 0.053916 0.708582 0.345921
O O10 0.013731 0.655629 0.472962
O O11 0.963471 0.748710 0.468045
O O12 0.750000 0.651541 0.544226
O O13 0.982209 0.694043 0.608706
O O14 0.250000 0.194971 0.528441
O O15 0.985337 0.207488 0.591985
O O16 0.010086 0.154559 0.466090
O O17 0.750000 0.264943 0.625020
O O18 0.963584 0.247383 0.721941
O O19 0.750000 0.740403 0.762423
O O20 0.972948 0.693354 0.831880
O O21 0.750000 0.646848 0.900120
#
# Coordination Sequence:
#
# PCOD8182470 Si02
#       8
#     8   8   8   8   8   8   8   8
#     4   9  18  30  43  60  82 110 141 174 209 241
#     4   9  17  29  43  59  82 110 140 174 209 242
#     4   9  17  29  43  59  81 108 137 169 206 246
#     4  10  18  29  44  60  82 111 142 173 208 246
#     4  10  18  28  42  59  81 107 137 172 206 243
#     4  11  20  28  41  61  84 110 141 172 204 245
#     4   9  17  29  43  59  82 110 139 171 207 245
#     4   9  17  30  45  59  81 112 141 171 209 248
#
# _framework density 15.095378999999999
#
# number of rings (size 3 to 8) (size 9 to 14) (size 15 to 20)
#    0.000    2.500    0.000    6.000    0.000    6.000 
#    0.000    2.500    0.000    0.000    0.000    0.000 
#    0.000    1.000    0.000    5.000    0.000    4.875 
#
# Total GULP energy -396652.933317 kJ/mol
# GULP energy per Si atom -12395.404166 kJ/mol
# Density = 1.506102 g / cm^3
# Si number density = 15.095379 Si / 1000 Ang^3
#
#
#
# Elastic Constant Matrix: (Units=GPa)
#
#
# Indices 1 2 3 4 5 6 
#
# 1 46.5174 22.4338 30.1627 0.0000 0.0000 0.0000
# 2 22.4338 93.7506 53.6666 0.0000 0.0000 0.0000
# 3 30.1627 53.6666 92.2603 0.0000 0.0000 0.0000
# 4 0.0000 0.0000 0.0000 27.0572 0.0000 0.0000
# 5 0.0000 0.0000 0.0000 0.0000 24.9382 0.0000
# 6 0.0000 0.0000 0.0000 0.0000 0.0000 21.5672
#
#
#
# Elastic Compliance Matrix: (Units=1/GPa)
#
#
# Indices 1 2 3 4 5 6 
#
# 1 0.027568 -0.002155 -0.007759 0.000000 0.000000 0.000000
# 2 -0.002155 0.016160 -0.008695 0.000000 0.000000 0.000000
# 3 -0.007759 -0.008695 0.018434 0.000000 0.000000 0.000000
# 4 0.000000 0.000000 0.000000 0.036959 0.000000 0.000000
# 5 0.000000 0.000000 0.000000 0.000000 0.040099 0.000000
# 6 0.000000 0.000000 0.000000 0.000000 0.000000 0.046367
#
#
# Mechanical properties :
#
#
# Convention : Reuss Voigt Hill
#
# Bulk Modulus (GPa) = 40.09306 49.45049 44.77178
# Shear Modulus (GPa) = 21.63383 23.13020 22.38201
#
# Velocity S-wave (km/s) = 3.78979 3.91867 3.85477
# Velocity P-wave (km/s) = 6.76517 7.30099 7.03818
#
# Compressibility (1/GPa) = 0.02494197
#
# Stress axis : x y z
#
# Youngs Moduli (GPa) = 36.27406 61.88148 54.24860
#
# Poissons Ratio (x) = 0.13336 0.42093
# Poissons Ratio (y) = 0.07817 0.47172
# Poissons Ratio (z) = 0.28146 0.53809
#
# Static dielectric constant tensor:
#      x y z
#    x 2.869860 0.000000 0.000000 
#    y 0.000000 2.889240 0.000000 
#    z 0.000000 0.000000 3.108940 
# 
# 
# High freq. dielectric constant tensor:
#      x y z
#    x 1.584980 0.000000 0.000000 
#    y 0.000000 1.543240 0.000000 
#    z 0.000000 0.000000 1.567530 
# 
# From -- ./inp_files/19775.got.cif
#   From: 2010.03.12/outbox.cif.g09.slc.cpg/sg40_10_cif.got.tgz:19775.got - 2010.04.14 01:38:03.
