data_PCOD8182566
_publ_section_title
;
Structure prediction by ZEFSAII (Michael W. Deem and Ramdas Pophale) SiO2 
 PCOD8182566
Probable space group: A M A 2
;
_chemical_formula_sum "Si O2"
_cell_formula_units_Z 56
_cell_length_a 9.127507
_cell_length_b 20.757750
_cell_length_c 14.258232
_cell_angle_alpha 90.000000
_cell_angle_beta 90.000000
_cell_angle_gamma 90.000000
_cell_volume 2701.457433
_symmetry_space_group_name_H-M "A M A 2"
_symmetry_group_IT_number 40
_symmetry_cell_setting 'orthorhombic'
loop_
_space_group_symop_operation_xyz
x,y,z
-x,-y,z
1/2-x,y,z
1/2+x,-y,z
x,1/2+y,1/2+z
-x,1/2-y,1/2+z
1/2-x,1/2+y,1/2+z
1/2+x,1/2-y,1/2+z
loop_
_atom_site_type_symbol
_atom_site_label
_atom_site_fract_x
_atom_site_fract_y
_atom_site_fract_z
Si Si1 0.919067 0.434299 0.234950
Si Si2 0.073703 0.434058 0.610445
Si Si3 0.583131 0.372188 0.046647
Si Si4 0.406555 0.446213 0.908138
Si Si5 0.410778 0.833559 0.265436
Si Si6 0.075041 0.622394 0.432830
Si Si7 0.577544 0.256269 0.912328
O O1 0.750000 0.452443 0.240604
O O2 0.945833 0.376990 0.158362
O O3 0.973933 0.406592 0.333490
O O4 0.000000 0.500000 0.208090
O O5 0.250000 0.441846 0.607628
O O6 0.029673 0.371840 0.674270
O O7 0.000000 0.500000 0.649480
O O8 0.005599 0.421865 0.508744
O O9 0.750000 0.386896 0.021453
O O10 0.488085 0.429388 0.003888
O O11 0.541761 0.303861 0.999568
O O12 0.500000 0.500000 0.852884
O O13 0.250000 0.475889 0.934705
O O14 0.385241 0.385139 0.845014
O O15 0.250000 0.801488 0.244026
O O16 0.524688 0.782280 0.309512
O O17 0.250000 0.622071 0.447930
O O18 0.014616 0.694256 0.439806
O O19 0.750000 0.241162 0.904964
#
# Coordination Sequence:
#
# PCOD8182566 Si02
#       7
#     8   8   8   8   8   8   8
#     4  10  22  39  59  83 112 148 188 233 285 338
#     4  11  23  40  62  88 118 154 198 247 300 354
#     4   9  19  36  56  80 111 146 184 229 282 339
#     4  10  18  29  48  77 111 146 183 225 278 338
#     4   9  20  37  57  82 115 153 190 234 289 348
#     4  11  24  41  60  83 116 157 199 245 294 345
#     4  10  21  38  61  89 119 152 193 237 286 348
#
# _framework density 20.729552000000002
#
# number of rings (size 3 to 8) (size 9 to 14) (size 15 to 20)
#    0.000    2.000    0.000    3.000    0.000    7.429 
#    0.000    2.857    0.000    0.000    0.000    0.000 
#    0.000    0.000    0.000    0.000    0.000    0.000 
#
# Total GULP energy -347007.396673 kJ/mol
# GULP energy per Si atom -12393.121310 kJ/mol
# Density = 2.068237 g / cm^3
# Si number density = 20.729552 Si / 1000 Ang^3
#
#
#
# Elastic Constant Matrix: (Units=GPa)
#
#
# Indices 1 2 3 4 5 6 
#
# 1 96.0137 33.4827 26.9285 0.0000 0.0000 0.0000
# 2 33.4827 73.3682 18.9825 0.0000 0.0000 0.0000
# 3 26.9285 18.9825 108.7041 0.0000 0.0000 0.0000
# 4 0.0000 0.0000 0.0000 13.3981 0.0000 0.0000
# 5 0.0000 0.0000 0.0000 0.0000 29.4492 0.0000
# 6 0.0000 0.0000 0.0000 0.0000 0.0000 36.7634
#
#
#
# Elastic Compliance Matrix: (Units=1/GPa)
#
#
# Indices 1 2 3 4 5 6 
#
# 1 0.012900 -0.005300 -0.002270 0.000000 0.000000 0.000000
# 2 -0.005300 0.016452 -0.001560 0.000000 0.000000 0.000000
# 3 -0.002270 -0.001560 0.010034 0.000000 0.000000 0.000000
# 4 0.000000 0.000000 0.000000 0.074637 0.000000 0.000000
# 5 0.000000 0.000000 0.000000 0.000000 0.033957 0.000000
# 6 0.000000 0.000000 0.000000 0.000000 0.000000 0.027201
#
#
# Mechanical properties :
#
#
# Convention : Reuss Voigt Hill
#
# Bulk Modulus (GPa) = 47.33450 48.54149 47.93799
# Shear Modulus (GPa) = 24.93971 29.16831 27.05401
#
# Velocity S-wave (km/s) = 3.47234 3.75519 3.61653
# Velocity P-wave (km/s) = 6.24180 6.50148 6.37296
#
# Compressibility (1/GPa) = 0.02112624
#
# Stress axis : x y z
#
# Youngs Moduli (GPa) = 77.51900 60.78235 99.66025
#
# Poissons Ratio (x) = 0.32213 0.22625
# Poissons Ratio (y) = 0.41083 0.15548
# Poissons Ratio (z) = 0.17598 0.09483
#
# Static dielectric constant tensor:
#      x y z
#    x 4.096770 0.000000 0.000000 
#    y 0.000000 3.847150 0.000000 
#    z 0.000000 0.000000 3.906780 
# 
# 
# High freq. dielectric constant tensor:
#      x y z
#    x 1.816380 0.000000 0.000000 
#    y 0.000000 1.805390 0.000000 
#    z 0.000000 0.000000 1.811080 
# 
# From -- ./inp_files/15283.got.cif
#   From: 2010.03.12/outbox.cif.g09.slc.cpg/sg40_8_cif.got.tgz:15283.got - 2010.04.14 01:38:03.
