data_PCOD8182199
_publ_section_title
;
Structure prediction by ZEFSAII (Michael W. Deem and Ramdas Pophale) SiO2 
 PCOD8182199
Probable space group: A B M 2
;
_chemical_formula_sum "Si O2"
_cell_formula_units_Z 56
_cell_length_a 19.543676
_cell_length_b 15.395150
_cell_length_c 9.322999
_cell_angle_alpha 90.000000
_cell_angle_beta 90.000000
_cell_angle_gamma 90.000000
_cell_volume 2805.083648
_symmetry_space_group_name_H-M "A B M 2"
_symmetry_group_IT_number 39
_symmetry_cell_setting 'orthorhombic'
loop_
_space_group_symop_operation_xyz
x,y,z
-x,-y,z
-x,1/2+y,z
x,1/2-y,z
x,1/2+y,1/2+z
-x,1/2-y,1/2+z
-x,y,1/2+z
x,-y,1/2+z
loop_
_atom_site_type_symbol
_atom_site_label
_atom_site_fract_x
_atom_site_fract_y
_atom_site_fract_z
Si Si1 0.213682 0.851643 0.962860
Si Si2 0.061704 0.146700 0.788281
Si Si3 0.340754 0.916559 0.799782
Si Si4 0.061704 0.646700 0.971561
Si Si5 0.429698 0.250000 0.962945
Si Si6 0.340754 0.416559 0.960059
Si Si7 0.213682 0.148358 0.796980
Si Si8 0.570302 0.750000 0.296896
O O1 0.225594 0.750000 0.938374
O O2 0.264598 0.903951 0.860911
O O3 0.137002 0.878615 0.913190
O O4 0.225906 0.875202 0.129920
O O5 0.055942 0.250000 0.785077
O O6 0.052870 0.108609 0.629921
O O7 0.137003 0.121387 0.846651
O O8 0.000000 0.105384 0.879922
O O9 0.337393 0.931863 0.629920
O O10 0.386930 0.834529 0.841069
O O11 0.373344 1.000000 0.879920
O O12 0.055943 0.750000 0.974764
O O13 0.386930 0.334529 0.918771
O O14 0.500000 0.250000 0.879921
O O15 0.446597 0.250000 0.129921
O O16 0.264598 0.403951 0.898928
O O17 0.225596 0.250000 0.821465
#
# Coordination Sequence:
#
# PCOD8182199 Si02
#       8
#     8   8   8   8   4   8   8   4
#     4   9  17  31  53  80 112 153 197 242 293 347
#     4   8  14  24  40  68 105 144 190 238 287 343
#     4  11  23  40  61  90 122 155 197 241 287 344
#     4   8  14  24  40  68 105 144 190 238 287 343
#     4  10  24  44  66  92 123 154 191 234 283 344
#     4  11  23  40  61  90 122 155 197 241 287 344
#     4   9  17  31  53  80 112 153 197 242 293 347
#     4  10  24  44  66  92 123 154 191 234 283 344
#
# _framework density 19.963754999999999
#
# number of rings (size 3 to 8) (size 9 to 14) (size 15 to 20)
#    0.000    2.571    1.429    2.571    0.000    4.000 
#    0.000    5.714    0.000    0.857    0.000    6.000 
#    0.000    0.000    0.000    0.000    0.000    0.000 
#
# Total GULP energy -347119.811099 kJ/mol
# GULP energy per Si atom -12397.136111 kJ/mol
# Density = 1.991832 g / cm^3
# Si number density = 19.963755 Si / 1000 Ang^3
#
#
#
# Elastic Constant Matrix: (Units=GPa)
#
#
# Indices 1 2 3 4 5 6 
#
# 1 147.8685 56.3715 69.2391 0.0000 0.0000 0.0000
# 2 56.3715 101.4070 54.0335 0.0000 0.0000 0.0000
# 3 69.2391 54.0335 93.3527 0.0000 0.0000 0.0000
# 4 0.0000 0.0000 0.0000 27.8341 0.0000 0.0000
# 5 0.0000 0.0000 0.0000 0.0000 42.8156 0.0000
# 6 0.0000 0.0000 0.0000 0.0000 0.0000 3.0745
#
#
#
# Elastic Compliance Matrix: (Units=1/GPa)
#
#
# Indices 1 2 3 4 5 6 
#
# 1 0.010784 -0.002506 -0.006548 0.000000 0.000000 0.000000
# 2 -0.002506 0.014841 -0.006732 0.000000 0.000000 0.000000
# 3 -0.006548 -0.006732 0.019465 0.000000 0.000000 0.000000
# 4 0.000000 0.000000 0.000000 0.035927 0.000000 0.000000
# 5 0.000000 0.000000 0.000000 0.000000 0.023356 0.000000
# 6 0.000000 0.000000 0.000000 0.000000 0.000000 0.325251
#
#
# Mechanical properties :
#
#
# Convention : Reuss Voigt Hill
#
# Bulk Modulus (GPa) = 73.96888 77.99072 75.97980
# Shear Modulus (GPa) = 10.73647 25.61045 18.17346
#
# Velocity S-wave (km/s) = 2.32156 3.58557 3.02043
# Velocity P-wave (km/s) = 6.65719 7.50285 7.09264
#
# Compressibility (1/GPa) = 0.01351920
#
# Stress axis : x y z
#
# Youngs Moduli (GPa) = 92.72801 67.38057 51.37359
#
# Poissons Ratio (x) = 0.16884 0.33641
# Poissons Ratio (y) = 0.23235 0.34583
# Poissons Ratio (z) = 0.60721 0.45359
#
# Static dielectric constant tensor:
#      x y z
#    x 3.685170 0.000000 0.000000 
#    y 0.000000 3.518240 0.000000 
#    z 0.000000 0.000000 3.668150 
# 
# 
# High freq. dielectric constant tensor:
#      x y z
#    x 1.780350 0.000000 0.000000 
#    y 0.000000 1.763740 0.000000 
#    z 0.000000 0.000000 1.773260 
# 
# From -- ./inp_files/3982.got.cif
#   From: 2010.03.12/outbox.cif.g09.slc.cpg/sg39_2_cif.got.tgz:3982.got - 2010.04.14 02:53:20.
