data_PCOD8182800
_publ_section_title
;
Structure prediction by ZEFSAII (Michael W. Deem and Ramdas Pophale) SiO2 
 PCOD8182800
Probable space group: A M A 2
;
_chemical_formula_sum "Si O2"
_cell_formula_units_Z 48
_cell_length_a 10.108096
_cell_length_b 8.695179
_cell_length_c 27.783424
_cell_angle_alpha 90.000000
_cell_angle_beta 90.000000
_cell_angle_gamma 90.000000
_cell_volume 2441.932480
_symmetry_space_group_name_H-M "A M A 2"
_symmetry_group_IT_number 40
_symmetry_cell_setting 'orthorhombic'
loop_
_space_group_symop_operation_xyz
x,y,z
-x,-y,z
1/2-x,y,z
1/2+x,-y,z
x,1/2+y,1/2+z
-x,1/2-y,1/2+z
1/2-x,1/2+y,1/2+z
1/2+x,1/2-y,1/2+z
loop_
_atom_site_type_symbol
_atom_site_label
_atom_site_fract_x
_atom_site_fract_y
_atom_site_fract_z
Si Si1 0.599541 0.138763 0.114400
Si Si2 0.250000 0.848281 0.946838
Si Si3 0.484641 0.818901 0.013954
Si Si4 0.250000 0.193523 0.343674
Si Si5 0.750000 0.165963 0.363669
Si Si6 0.100904 0.633937 0.202082
Si Si7 0.483337 0.180019 0.807026
Si Si8 0.250000 0.710533 0.466305
O O1 0.750000 0.077170 0.108137
O O2 0.561249 0.238911 0.066781
O O3 0.586515 0.240476 0.161335
O O4 0.500000 0.000000 0.122038
O O5 0.250000 0.792334 0.892359
O O6 0.250000 0.033525 0.948722
O O7 0.378179 0.778409 0.973062
O O8 0.500000 0.000000 0.019055
O O9 0.623776 0.745671 0.998770
O O10 0.377060 0.236165 0.312297
O O11 0.250000 0.012618 0.351696
O O12 0.619492 0.248907 0.344316
O O13 0.750000 0.178099 0.420939
O O14 0.250000 0.567099 0.203827
O O15 0.000000 0.500000 0.189652
O O16 0.067572 0.710759 0.253222
O O17 0.500000 0.000000 0.818166
#
# Coordination Sequence:
#
# PCOD8182800 Si02
#       8
#     8   4   8   4   4   8   8   4
#     4  10  21  38  61  93 127 160 200 253 308 362
#     4  10  18  36  57  84 113 163 210 245 299 364
#     4   9  18  33  57  86 115 155 207 255 290 351
#     4  12  26  38  63  94 129 163 200 265 327 362
#     4  12  24  42  59  94 133 157 204 269 319 370
#     4  10  23  43  65  91 121 157 205 255 302 365
#     4  11  23  43  66  89 119 170 215 252 301 377
#     4  10  20  34  59  82 117 161 212 255 295 368
#
# _framework density 19.656562999999998
#
# number of rings (size 3 to 8) (size 9 to 14) (size 15 to 20)
#    0.000    1.667    1.667    3.000    7.000    3.333 
#    0.000    1.667    0.000    0.000    0.000    0.000 
#    0.000    0.000    0.000    0.000    0.000    0.000 
#
# Total GULP energy -297642.812276 kJ/mol
# GULP energy per Si atom -12401.783845 kJ/mol
# Density = 1.961182 g / cm^3
# Si number density = 19.656563 Si / 1000 Ang^3
#
#
#
# Elastic Constant Matrix: (Units=GPa)
#
#
# Indices 1 2 3 4 5 6 
#
# 1 194.0892 48.8317 69.1751 0.0000 0.0000 0.0000
# 2 48.8317 74.7555 39.3592 0.0000 0.0000 0.0000
# 3 69.1751 39.3592 116.3570 0.0000 0.0000 0.0000
# 4 0.0000 0.0000 0.0000 21.1230 0.0000 0.0000
# 5 0.0000 0.0000 0.0000 0.0000 44.7454 0.0000
# 6 0.0000 0.0000 0.0000 0.0000 0.0000 19.8997
#
#
#
# Elastic Compliance Matrix: (Units=1/GPa)
#
#
# Indices 1 2 3 4 5 6 
#
# 1 0.007021 -0.002906 -0.003191 0.000000 0.000000 0.000000
# 2 -0.002906 0.017478 -0.004185 0.000000 0.000000 0.000000
# 3 -0.003191 -0.004185 0.011907 0.000000 0.000000 0.000000
# 4 0.000000 0.000000 0.000000 0.047342 0.000000 0.000000
# 5 0.000000 0.000000 0.000000 0.000000 0.022349 0.000000
# 6 0.000000 0.000000 0.000000 0.000000 0.000000 0.050252
#
#
# Mechanical properties :
#
#
# Convention : Reuss Voigt Hill
#
# Bulk Modulus (GPa) = 63.12009 77.77043 70.44526
# Shear Modulus (GPa) = 27.44355 32.34266 29.89311
#
# Velocity S-wave (km/s) = 3.74057 4.06074 3.90394
# Velocity P-wave (km/s) = 7.13000 7.85090 7.49912
#
# Compressibility (1/GPa) = 0.01584282
#
# Stress axis : x y z
#
# Youngs Moduli (GPa) = 142.43697 57.21323 83.98620
#
# Poissons Ratio (x) = 0.16626 0.26799
# Poissons Ratio (y) = 0.41393 0.35145
# Poissons Ratio (z) = 0.45449 0.23942
#
# Static dielectric constant tensor:
#      x y z
#    x 4.020570 0.000000 0.000000 
#    y 0.000000 3.227490 0.000000 
#    z 0.000000 0.000000 3.830140 
# 
# 
# High freq. dielectric constant tensor:
#      x y z
#    x 1.791920 0.000000 0.000000 
#    y 0.000000 1.729710 0.000000 
#    z 0.000000 0.000000 1.783430 
# 
# From -- ./inp_files/26209.got.cif
#   From: 2010.03.12/outbox.cif.g09.slc.cpg/sg40_14_cif.got.tgz:26209.got - 2010.04.14 01:38:03.
