data_PCOD8182772
_publ_section_title
;
Structure prediction by ZEFSAII (Michael W. Deem and Ramdas Pophale) SiO2 
 PCOD8182772
Probable space group: A M A 2
;
_chemical_formula_sum "Si O2"
_cell_formula_units_Z 64
_cell_length_a 9.005569
_cell_length_b 19.670275
_cell_length_c 20.528359
_cell_angle_alpha 90.000000
_cell_angle_beta 90.000000
_cell_angle_gamma 90.000000
_cell_volume 3636.434955
_symmetry_space_group_name_H-M "A M A 2"
_symmetry_group_IT_number 40
_symmetry_cell_setting 'orthorhombic'
loop_
_space_group_symop_operation_xyz
x,y,z
-x,-y,z
1/2-x,y,z
1/2+x,-y,z
x,1/2+y,1/2+z
-x,1/2-y,1/2+z
1/2-x,1/2+y,1/2+z
1/2+x,1/2-y,1/2+z
loop_
_atom_site_type_symbol
_atom_site_label
_atom_site_fract_x
_atom_site_fract_y
_atom_site_fract_z
Si Si1 0.576437 0.569564 0.535470
Si Si2 0.574119 0.212332 0.616954
Si Si3 0.573916 0.299107 0.739470
Si Si4 0.075370 0.201623 0.994792
Si Si5 0.923704 0.566923 0.928619
Si Si6 0.923972 0.208890 0.370174
Si Si7 0.075601 0.932756 0.578577
Si Si8 0.075779 0.930209 0.186584
O O1 0.500000 0.500000 0.512792
O O2 0.750000 0.563429 0.521888
O O3 0.508375 0.629942 0.492736
O O4 0.541457 0.584329 0.611043
O O5 0.750000 0.211105 0.610775
O O6 0.520577 0.247298 0.683386
O O7 0.512242 0.253909 0.554946
O O8 0.516237 0.134464 0.615842
O O9 0.750000 0.308618 0.738629
O O10 0.518579 0.268027 0.807650
O O11 0.495715 0.371250 0.729483
O O12 0.250000 0.188479 0.002890
O O13 0.037876 0.239759 0.928104
O O14 0.750000 0.556875 0.922243
O O15 0.976144 0.633253 0.889755
O O16 0.000000 0.500000 0.898273
O O17 0.970999 0.576322 0.003506
O O18 0.750000 0.210489 0.353727
O O19 0.250000 0.941510 0.586711
O O20 0.000000 0.000000 0.608787
O O21 0.250000 0.934440 0.201005
O O22 0.000000 0.000000 0.208859
#
# Coordination Sequence:
#
# PCOD8182772 Si02
#       8
#     8   8   8   8   8   8   8   8
#     4  10  20  33  53  82 111 137 170 219 269 319
#     4   9  17  32  55  77 100 135 177 215 261 314
#     4  11  22  35  53  76 105 141 179 223 268 316
#     4  10  18  34  58  78 101 139 181 221 265 315
#     4   9  17  30  49  72 100 135 170 205 246 298
#     4  10  21  36  53  74 105 144 180 216 263 320
#     4   9  16  30  51  77 103 129 166 209 255 305
#     4  10  20  34  52  76 107 142 178 216 261 317
#
# _framework density 17.599656
#
# number of rings (size 3 to 8) (size 9 to 14) (size 15 to 20)
#    0.000    2.250    2.500    1.125    0.000    2.500 
#    0.000    3.125    0.000    0.750    0.000    3.500 
#    0.000    0.000    0.000    0.000    0.000    0.000 
#
# Total GULP energy -396849.865999 kJ/mol
# GULP energy per Si atom -12401.558312 kJ/mol
# Density = 1.755960 g / cm^3
# Si number density = 17.599656 Si / 1000 Ang^3
#
#
#
# Elastic Constant Matrix: (Units=GPa)
#
#
# Indices 1 2 3 4 5 6 
#
# 1 56.4831 46.0564 40.9370 0.0000 0.0000 0.0000
# 2 46.0564 142.5051 64.9742 0.0000 0.0000 0.0000
# 3 40.9370 64.9742 97.8067 0.0000 0.0000 0.0000
# 4 0.0000 0.0000 0.0000 22.7387 0.0000 0.0000
# 5 0.0000 0.0000 0.0000 0.0000 18.3281 0.0000
# 6 0.0000 0.0000 0.0000 0.0000 0.0000 31.3358
#
#
#
# Elastic Compliance Matrix: (Units=1/GPa)
#
#
# Indices 1 2 3 4 5 6 
#
# 1 0.027958 -0.005308 -0.008176 0.000000 0.000000 0.000000
# 2 -0.005308 0.011074 -0.005135 0.000000 0.000000 0.000000
# 3 -0.008176 -0.005135 0.017057 0.000000 0.000000 0.000000
# 4 0.000000 0.000000 0.000000 0.043978 0.000000 0.000000
# 5 0.000000 0.000000 0.000000 0.000000 0.054561 0.000000
# 6 0.000000 0.000000 0.000000 0.000000 0.000000 0.031912
#
#
# Mechanical properties :
#
#
# Convention : Reuss Voigt Hill
#
# Bulk Modulus (GPa) = 53.04435 66.74780 59.89607
# Shear Modulus (GPa) = 21.73328 24.13569 22.93448
#
# Velocity S-wave (km/s) = 3.51788 3.70722 3.61379
# Velocity P-wave (km/s) = 6.83414 7.50551 7.17768
#
# Compressibility (1/GPa) = 0.01885215
#
# Stress axis : x y z
#
# Youngs Moduli (GPa) = 35.76786 90.30089 58.62598
#
# Poissons Ratio (x) = 0.47934 0.47930
# Poissons Ratio (y) = 0.18986 0.30104
# Poissons Ratio (z) = 0.29242 0.46369
#
# Static dielectric constant tensor:
#      x y z
#    x 3.109300 0.000000 0.000000 
#    y 0.000000 3.416760 0.000000 
#    z 0.000000 0.000000 3.123590 
# 
# 
# High freq. dielectric constant tensor:
#      x y z
#    x 1.669450 0.000000 0.000000 
#    y 0.000000 1.686890 0.000000 
#    z 0.000000 0.000000 1.657090 
# 
# From -- ./inp_files/19615.got.cif
#   From: 2010.03.12/outbox.cif.g09.slc.cpg/sg40_10_cif.got.tgz:19615.got - 2010.04.14 01:38:03.
