data_PCOD8182669
_publ_section_title
;
Structure prediction by ZEFSAII (Michael W. Deem and Ramdas Pophale) SiO2 
 PCOD8182669
Probable space group: A M A 2
;
_chemical_formula_sum "Si O2"
_cell_formula_units_Z 64
_cell_length_a 8.710795
_cell_length_b 25.019585
_cell_length_c 15.345018
_cell_angle_alpha 90.000000
_cell_angle_beta 90.000000
_cell_angle_gamma 90.000000
_cell_volume 3344.300526
_symmetry_space_group_name_H-M "A M A 2"
_symmetry_group_IT_number 40
_symmetry_cell_setting 'orthorhombic'
loop_
_space_group_symop_operation_xyz
x,y,z
-x,-y,z
1/2-x,y,z
1/2+x,-y,z
x,1/2+y,1/2+z
-x,1/2-y,1/2+z
1/2-x,1/2+y,1/2+z
1/2+x,1/2-y,1/2+z
loop_
_atom_site_type_symbol
_atom_site_label
_atom_site_fract_x
_atom_site_fract_y
_atom_site_fract_z
Si Si1 0.431510 0.856090 0.369080
Si Si2 0.931535 0.942700 0.493782
Si Si3 0.932752 0.641483 0.492150
Si Si4 0.928263 0.246141 0.897520
Si Si5 0.071931 0.835974 0.177040
Si Si6 0.927772 0.897149 0.677028
Si Si7 0.925077 0.279763 0.223158
Si Si8 0.431738 0.942306 0.851274
O O1 0.250000 0.864032 0.372847
O O2 0.513557 0.903702 0.418259
O O3 0.473712 0.799630 0.413522
O O4 0.497237 0.855953 0.269266
O O5 0.750000 0.945300 0.492663
O O6 0.990835 0.922864 0.588007
O O7 0.000000 0.000000 0.472735
O O8 0.750000 0.638060 0.489347
O O9 0.983524 0.700983 0.464785
O O10 0.995993 0.633606 0.591592
O O11 0.999621 0.596928 0.426367
O O12 0.750000 0.260478 0.908557
O O13 0.956884 0.220897 0.802688
O O14 0.250000 0.848925 0.181221
O O15 0.044767 0.772287 0.163673
O O16 0.750000 0.911340 0.692280
O O17 0.953004 0.833430 0.667907
O O18 0.022429 0.921283 0.756516
O O19 0.750000 0.277937 0.259469
O O20 0.250000 0.945543 0.855652
O O21 0.500000 0.000000 0.870103
#
# Coordination Sequence:
#
# PCOD8182669 Si02
#       8
#     8   8   8   8   8   8   8   8
#     4  10  21  38  59  83 113 150 190 238 287 336
#     4  11  24  41  61  84 111 148 193 241 290 344
#     4   9  18  32  54  82 112 146 188 232 279 333
#     4  10  18  31  54  83 115 149 186 228 276 334
#     4   8  16  32  55  80 111 149 185 224 275 336
#     4  10  21  36  57  85 115 150 186 229 283 341
#     4   9  17  31  53  80 113 148 185 223 273 334
#     4  11  22  37  56  81 112 151 191 234 282 333
#
# _framework density 19.137035999999998
#
# number of rings (size 3 to 8) (size 9 to 14) (size 15 to 20)
#    0.000    2.250    1.250    2.625    1.750    2.000 
#    0.000    0.625    0.000   11.250    0.000    0.000 
#    0.000    0.000    0.000    0.000    0.000    0.000 
#
# Total GULP energy -396682.882202 kJ/mol
# GULP energy per Si atom -12396.340069 kJ/mol
# Density = 1.909348 g / cm^3
# Si number density = 19.137036 Si / 1000 Ang^3
#
#
#
# Elastic Constant Matrix: (Units=GPa)
#
#
# Indices 1 2 3 4 5 6 
#
# 1 42.4535 27.1493 28.4313 0.0000 0.0000 0.0000
# 2 27.1493 134.5690 85.7247 0.0000 0.0000 0.0000
# 3 28.4313 85.7247 142.1191 0.0000 0.0000 0.0000
# 4 0.0000 0.0000 0.0000 35.7726 0.0000 0.0000
# 5 0.0000 0.0000 0.0000 0.0000 21.8430 0.0000
# 6 0.0000 0.0000 0.0000 0.0000 0.0000 28.1229
#
#
#
# Elastic Compliance Matrix: (Units=1/GPa)
#
#
# Indices 1 2 3 4 5 6 
#
# 1 0.028122 -0.003394 -0.003579 0.000000 0.000000 0.000000
# 2 -0.003394 0.012478 -0.006848 0.000000 0.000000 0.000000
# 3 -0.003579 -0.006848 0.011883 0.000000 0.000000 0.000000
# 4 0.000000 0.000000 0.000000 0.027954 0.000000 0.000000
# 5 0.000000 0.000000 0.000000 0.000000 0.045781 0.000000
# 6 0.000000 0.000000 0.000000 0.000000 0.000000 0.035558
#
#
# Mechanical properties :
#
#
# Convention : Reuss Voigt Hill
#
# Bulk Modulus (GPa) = 40.25375 66.86135 53.55755
# Shear Modulus (GPa) = 25.29106 29.00345 27.14725
#
# Velocity S-wave (km/s) = 3.63929 3.89725 3.77048
# Velocity P-wave (km/s) = 6.22410 7.43407 6.85583
#
# Compressibility (1/GPa) = 0.02484241
#
# Stress axis : x y z
#
# Youngs Moduli (GPa) = 35.55897 80.14100 84.15577
#
# Poissons Ratio (x) = 0.27199 0.30118
# Poissons Ratio (y) = 0.12068 0.57627
# Poissons Ratio (z) = 0.12726 0.54878
#
# Static dielectric constant tensor:
#      x y z
#    x 3.283920 0.000000 0.000000 
#    y 0.000000 3.611860 0.000000 
#    z 0.000000 0.000000 3.761090 
# 
# 
# High freq. dielectric constant tensor:
#      x y z
#    x 1.721820 0.000000 0.000000 
#    y 0.000000 1.742860 0.000000 
#    z 0.000000 0.000000 1.745090 
# 
# From -- ./inp_files/15651.got.cif
#   From: 2010.03.12/outbox.cif.g09.slc.cpg/sg40_8_cif.got.tgz:15651.got - 2010.04.14 01:38:03.
