data_PCOD8182789
_publ_section_title
;
Structure prediction by ZEFSAII (Michael W. Deem and Ramdas Pophale) SiO2 
 PCOD8182789
Probable space group: A M A 2
;
_chemical_formula_sum "Si O2"
_cell_formula_units_Z 48
_cell_length_a 17.201944
_cell_length_b 16.011440
_cell_length_c 8.923968
_cell_angle_alpha 90.000000
_cell_angle_beta 90.000000
_cell_angle_gamma 90.000000
_cell_volume 2457.909714
_symmetry_space_group_name_H-M "A M A 2"
_symmetry_group_IT_number 40
_symmetry_cell_setting 'orthorhombic'
loop_
_space_group_symop_operation_xyz
x,y,z
-x,-y,z
1/2-x,y,z
1/2+x,-y,z
x,1/2+y,1/2+z
-x,1/2-y,1/2+z
1/2-x,1/2+y,1/2+z
1/2+x,1/2-y,1/2+z
loop_
_atom_site_type_symbol
_atom_site_label
_atom_site_fract_x
_atom_site_fract_y
_atom_site_fract_z
Si Si1 0.417937 0.806405 0.175600
Si Si2 0.410448 0.729140 0.743279
Si Si3 0.898522 0.427335 0.279934
Si Si4 0.573670 0.601371 0.386130
Si Si5 0.663327 0.267237 0.429420
Si Si6 0.657590 0.346749 0.009646
O O1 0.498275 0.786075 0.258409
O O2 0.358484 0.809647 0.316642
O O3 0.424532 0.888216 0.068713
O O4 0.389626 0.732829 0.068873
O O5 0.385964 0.819853 0.806996
O O6 0.393247 0.727518 0.568760
O O7 0.363699 0.655258 0.832107
O O8 0.877379 0.518396 0.345459
O O9 0.842184 0.356059 0.345022
O O10 0.987062 0.406495 0.320784
O O11 0.879714 0.425898 0.099851
O O12 0.750000 0.252040 0.486776
O O13 0.750000 0.341126 0.033171
#
# Coordination Sequence:
#
# PCOD8182789 Si02
#       6
#     8   8   8   8   8   8
#     4  10  18  35  58  84 112 148 197 243 282 338
#     4  11  19  36  60  89 111 150 197 247 283 350
#     4  10  19  36  56  83 113 146 191 241 297 351
#     4  10  20  34  60  86 109 141 198 250 286 335
#     4  11  21  36  58  84 119 156 187 234 298 355
#     4  10  20  35  56  84 118 157 192 235 300 359
#
# _framework density 19.528787999999999
#
# number of rings (size 3 to 8) (size 9 to 14) (size 15 to 20)
#    0.000    1.667    5.000    3.500    0.000    0.000 
#    0.000   11.667    0.000    0.000    0.000    0.000 
#    0.000    0.000    0.000    0.000    0.000    0.000 
#
# Total GULP energy -297349.030141 kJ/mol
# GULP energy per Si atom -12389.542923 kJ/mol
# Density = 1.948434 g / cm^3
# Si number density = 19.528788 Si / 1000 Ang^3
#
#
#
# Elastic Constant Matrix: (Units=GPa)
#
#
# Indices 1 2 3 4 5 6 
#
# 1 83.6003 20.1749 15.5191 0.0000 0.0000 0.0000
# 2 20.1749 90.0344 49.6733 0.0000 0.0000 0.0000
# 3 15.5191 49.6733 121.1582 0.0000 0.0000 0.0000
# 4 0.0000 0.0000 0.0000 32.6251 0.0000 0.0000
# 5 0.0000 0.0000 0.0000 0.0000 26.4466 0.0000
# 6 0.0000 0.0000 0.0000 0.0000 0.0000 12.9353
#
#
#
# Elastic Compliance Matrix: (Units=1/GPa)
#
#
# Indices 1 2 3 4 5 6 
#
# 1 0.012678 -0.002514 -0.000593 0.000000 0.000000 0.000000
# 2 -0.002514 0.014852 -0.005767 0.000000 0.000000 0.000000
# 3 -0.000593 -0.005767 0.010694 0.000000 0.000000 0.000000
# 4 0.000000 0.000000 0.000000 0.030651 0.000000 0.000000
# 5 0.000000 0.000000 0.000000 0.000000 0.037812 0.000000
# 6 0.000000 0.000000 0.000000 0.000000 0.000000 0.077308
#
#
# Mechanical properties :
#
#
# Convention : Reuss Voigt Hill
#
# Bulk Modulus (GPa) = 48.83719 51.72526 50.28123
# Shear Modulus (GPa) = 23.97282 28.36310 26.16796
#
# Velocity S-wave (km/s) = 3.50746 3.81514 3.66453
# Velocity P-wave (km/s) = 6.43934 6.77873 6.61121
#
# Compressibility (1/GPa) = 0.02047620
#
# Stress axis : x y z
#
# Youngs Moduli (GPa) = 78.87408 67.33129 93.50912
#
# Poissons Ratio (x) = 0.16924 0.05549
# Poissons Ratio (y) = 0.19826 0.53928
# Poissons Ratio (z) = 0.04681 0.38831
#
# Static dielectric constant tensor:
#      x y z
#    x 3.339610 0.000000 0.000000 
#    y 0.000000 3.576420 0.000000 
#    z 0.000000 0.000000 4.033670 
# 
# 
# High freq. dielectric constant tensor:
#      x y z
#    x 1.754050 0.000000 0.000000 
#    y 0.000000 1.719130 0.000000 
#    z 0.000000 0.000000 1.775700 
# 
# From -- ./inp_files/6440.got.cif
#   From: 2010.03.12/outbox.cif.g09.slc.cpg/sg40_4_cif.got.tgz:6440.got - 2010.04.14 01:38:03.
