data_PCOD8182238
_publ_section_title
;
Structure prediction by ZEFSAII (Michael W. Deem and Ramdas Pophale) SiO2 
 PCOD8182238
Probable space group: A B M 2
;
_chemical_formula_sum "Si O2"
_cell_formula_units_Z 48
_cell_length_a 16.345143
_cell_length_b 29.708199
_cell_length_c 4.856667
_cell_angle_alpha 90.000000
_cell_angle_beta 90.000000
_cell_angle_gamma 90.000000
_cell_volume 2358.323484
_symmetry_space_group_name_H-M "A B M 2"
_symmetry_group_IT_number 39
_symmetry_cell_setting 'orthorhombic'
loop_
_space_group_symop_operation_xyz
x,y,z
-x,-y,z
-x,1/2+y,z
x,1/2-y,z
x,1/2+y,1/2+z
-x,1/2-y,1/2+z
-x,y,1/2+z
x,-y,1/2+z
loop_
_atom_site_type_symbol
_atom_site_label
_atom_site_fract_x
_atom_site_fract_y
_atom_site_fract_z
Si Si1 0.554439 0.342543 0.204060
Si Si2 0.801355 0.529846 0.910790
Si Si3 0.803336 0.654565 0.137697
Si Si4 0.718509 0.384374 0.164676
Si Si5 0.944413 0.905254 0.914527
Si Si6 0.243441 0.250000 0.258471
Si Si7 0.644397 0.750000 0.751431
O O1 0.525101 0.349859 0.515235
O O2 0.621913 0.379740 0.110444
O O3 0.589791 0.292679 0.170862
O O4 0.785887 0.486164 0.721857
O O5 0.739440 0.568398 0.810565
O O6 0.894335 0.548084 0.918036
O O7 0.773128 0.623243 0.391583
O O8 0.886904 0.635982 0.006154
O O9 0.814168 0.706340 0.222176
O O10 0.736550 0.654150 0.892850
O O11 0.025184 0.902603 0.101032
O O12 0.273755 0.250000 0.570027
O O13 0.324531 0.250000 0.066737
#
# Coordination Sequence:
#
# PCOD8182238 Si02
#       7
#     8   8   8   8   8   4   4
#     4  12  23  37  58  89 128 163 199 256 320 368
#     4  11  23  40  65  92 115 153 199 248 304 371
#     4  11  21  39  61  85 119 170 212 246 296 362
#     4  11  22  41  61  85 123 162 208 251 304 376
#     4  11  23  39  60  90 126 154 187 247 311 365
#     4  12  20  37  62  85 118 166 220 256 284 353
#     4  12  22  37  56  91 126 158 206 268 304 359
#
# _framework density 20.353442000000001
#
# number of rings (size 3 to 8) (size 9 to 14) (size 15 to 20)
#    0.000    0.667    3.333    7.500    0.000    2.000 
#    0.000    0.833    0.000    3.000    0.000    0.000 
#    0.000    0.000    0.000    0.000    0.000    0.000 
#
# Total GULP energy -297578.214142 kJ/mol
# GULP energy per Si atom -12399.092256 kJ/mol
# Density = 2.030712 g / cm^3
# Si number density = 20.353442 Si / 1000 Ang^3
#
#
#
# Elastic Constant Matrix: (Units=GPa)
#
#
# Indices 1 2 3 4 5 6 
#
# 1 84.4086 38.6965 13.7376 0.0000 0.0000 0.0000
# 2 38.6965 90.2505 12.8552 0.0000 0.0000 0.0000
# 3 13.7376 12.8552 80.4349 0.0000 0.0000 0.0000
# 4 0.0000 0.0000 0.0000 29.7103 0.0000 0.0000
# 5 0.0000 0.0000 0.0000 0.0000 43.2789 0.0000
# 6 0.0000 0.0000 0.0000 0.0000 0.0000 17.7260
#
#
#
# Elastic Compliance Matrix: (Units=1/GPa)
#
#
# Indices 1 2 3 4 5 6 
#
# 1 0.014935 -0.006181 -0.001563 0.000000 0.000000 0.000000
# 2 -0.006181 0.013897 -0.001165 0.000000 0.000000 0.000000
# 3 -0.001563 -0.001165 0.012886 0.000000 0.000000 0.000000
# 4 0.000000 0.000000 0.000000 0.033658 0.000000 0.000000
# 5 0.000000 0.000000 0.000000 0.000000 0.023106 0.000000
# 6 0.000000 0.000000 0.000000 0.000000 0.000000 0.056414
#
#
# Mechanical properties :
#
#
# Convention : Reuss Voigt Hill
#
# Bulk Modulus (GPa) = 41.84338 42.85253 42.34795
# Shear Modulus (GPa) = 27.67312 30.79668 29.23490
#
# Velocity S-wave (km/s) = 3.69131 3.89407 3.79405
# Velocity P-wave (km/s) = 6.22662 6.42793 6.32807
#
# Compressibility (1/GPa) = 0.02389865
#
# Stress axis : x y z
#
# Youngs Moduli (GPa) = 66.95593 71.96047 77.60611
#
# Poissons Ratio (x) = 0.44480 0.12129
# Poissons Ratio (y) = 0.41386 0.09043
# Poissons Ratio (z) = 0.10465 0.08385
#
# Static dielectric constant tensor:
#      x y z
#    x 3.488310 0.000000 0.000000 
#    y 0.000000 3.577700 0.000000 
#    z 0.000000 0.000000 3.901610 
# 
# 
# High freq. dielectric constant tensor:
#      x y z
#    x 1.776200 0.000000 0.000000 
#    y 0.000000 1.784550 0.000000 
#    z 0.000000 0.000000 1.820590 
# 
# From -- ./inp_files/609.got.cif
#   From: 2010.03.12/outbox.cif.g09.slc.cpg/sg39_1_cif.got.tgz:609.got - 2010.04.14 02:53:20.
