data_PCOD8182231
_publ_section_title
;
Structure prediction by ZEFSAII (Michael W. Deem and Ramdas Pophale) SiO2 
 PCOD8182231
Probable space group: A B M 2
;
_chemical_formula_sum "Si O2"
_cell_formula_units_Z 64
_cell_length_a 17.427374
_cell_length_b 9.156489
_cell_length_c 23.216244
_cell_angle_alpha 90.000000
_cell_angle_beta 90.000000
_cell_angle_gamma 90.000000
_cell_volume 3704.698666
_symmetry_space_group_name_H-M "A B M 2"
_symmetry_group_IT_number 39
_symmetry_cell_setting 'orthorhombic'
loop_
_space_group_symop_operation_xyz
x,y,z
-x,-y,z
-x,1/2+y,z
x,1/2-y,z
x,1/2+y,1/2+z
-x,1/2-y,1/2+z
-x,y,1/2+z
x,-y,1/2+z
loop_
_atom_site_type_symbol
_atom_site_label
_atom_site_fract_x
_atom_site_fract_y
_atom_site_fract_z
Si Si1 0.576582 0.576284 0.958120
Si Si2 0.763537 0.421493 0.775527
Si Si3 0.367532 0.911970 0.062206
Si Si4 0.293040 0.578843 0.173702
Si Si5 0.154834 0.083569 0.114367
Si Si6 0.925321 0.584670 0.226658
Si Si7 0.196311 0.089084 0.513862
Si Si8 0.279654 0.578388 0.904373
O O1 0.500000 0.500000 0.933612
O O2 0.571225 0.750000 0.953138
O O3 0.646466 0.517533 0.919836
O O4 0.585592 0.530613 0.025518
O O5 0.756127 0.250000 0.763997
O O6 0.698907 0.501012 0.735912
O O7 0.848810 0.476502 0.758116
O O8 0.747713 0.464428 0.841040
O O9 0.403488 0.750000 0.052384
O O10 0.365909 0.950485 0.130888
O O11 0.280247 0.909813 0.041499
O O12 0.281115 0.750000 0.183054
O O13 0.218650 0.513358 0.144030
O O14 0.183197 0.250000 0.108625
O O15 0.081468 0.073423 0.156704
O O16 0.140440 0.019836 0.049808
O O17 0.937388 0.750000 0.246197
O O18 0.000000 0.500000 0.248227
O O19 0.159010 0.250000 0.516771
O O20 0.208613 0.040217 0.447368
O O21 0.300836 0.750000 0.910059
#
# Coordination Sequence:
#
# PCOD8182231 Si02
#       8
#     8   8   8   8   8   8   8   8
#     4  11  21  32  49  72  97 125 158 197 241 288
#     4   9  18  32  49  69  95 127 163 201 240 283
#     4   8  15  28  44  65  93 120 146 180 226 276
#     4   9  16  26  43  67  93 118 146 184 227 271
#     4   9  16  26  41  63  90 116 145 183 229 277
#     4   9  18  30  45  67  92 121 156 196 243 291
#     4   8  14  25  43  66  89 115 146 181 225 273
#     4   9  18  33  50  69  96 128 162 200 240 285
#
# _framework density 17.275359000000002
#
# number of rings (size 3 to 8) (size 9 to 14) (size 15 to 20)
#    0.000    3.000    0.000    4.125    0.000    8.000 
#    0.000    0.000    0.000    1.500    0.000    8.750 
#    0.000    0.000    0.000    0.000    0.000    0.000 
#
# Total GULP energy -396448.133497 kJ/mol
# GULP energy per Si atom -12389.004172 kJ/mol
# Density = 1.723604 g / cm^3
# Si number density = 17.275359 Si / 1000 Ang^3
#
#
#
# Elastic Constant Matrix: (Units=GPa)
#
#
# Indices 1 2 3 4 5 6 
#
# 1 49.6969 34.3945 32.8443 0.0000 0.0000 0.0000
# 2 34.3945 87.0288 51.6481 0.0000 0.0000 0.0000
# 3 32.8443 51.6481 137.6203 0.0000 0.0000 0.0000
# 4 0.0000 0.0000 0.0000 24.4191 0.0000 0.0000
# 5 0.0000 0.0000 0.0000 0.0000 13.9554 0.0000
# 6 0.0000 0.0000 0.0000 0.0000 0.0000 22.2871
#
#
#
# Elastic Compliance Matrix: (Units=1/GPa)
#
#
# Indices 1 2 3 4 5 6 
#
# 1 0.028853 -0.009413 -0.003353 0.000000 0.000000 0.000000
# 2 -0.009413 0.017854 -0.004454 0.000000 0.000000 0.000000
# 3 -0.003353 -0.004454 0.009738 0.000000 0.000000 0.000000
# 4 0.000000 0.000000 0.000000 0.040952 0.000000 0.000000
# 5 0.000000 0.000000 0.000000 0.000000 0.071657 0.000000
# 6 0.000000 0.000000 0.000000 0.000000 0.000000 0.044869
#
#
# Mechanical properties :
#
#
# Convention : Reuss Voigt Hill
#
# Bulk Modulus (GPa) = 45.44545 56.90220 51.17383
# Shear Modulus (GPa) = 19.55442 22.49626 21.02534
#
# Velocity S-wave (km/s) = 3.36806 3.61254 3.49244
# Velocity P-wave (km/s) = 6.44117 7.10003 6.77861
#
# Compressibility (1/GPa) = 0.02200440
#
# Stress axis : x y z
#
# Youngs Moduli (GPa) = 34.65894 56.01084 102.68801
#
# Poissons Ratio (x) = 0.52721 0.34435
# Poissons Ratio (y) = 0.32623 0.45737
# Poissons Ratio (z) = 0.11623 0.24947
#
# Static dielectric constant tensor:
#      x y z
#    x 2.894180 0.000000 0.000000 
#    y 0.000000 3.334690 0.000000 
#    z 0.000000 0.000000 3.865140 
# 
# 
# High freq. dielectric constant tensor:
#      x y z
#    x 1.616090 0.000000 0.000000 
#    y 0.000000 1.669730 0.000000 
#    z 0.000000 0.000000 1.665320 
# 
# From -- ./inp_files/16346.got.cif
#   From: 2010.03.12/outbox.cif.g09.slc.cpg/sg39_9_cif.got.tgz:16346.got - 2010.04.14 02:53:20.
