data_PCOD8182542
_publ_section_title
;
Structure prediction by ZEFSAII (Michael W. Deem and Ramdas Pophale) SiO2 
 PCOD8182542
Probable space group: A M A 2
;
_chemical_formula_sum "Si O2"
_cell_formula_units_Z 56
_cell_length_a 8.523535
_cell_length_b 18.407286
_cell_length_c 21.150289
_cell_angle_alpha 90.000000
_cell_angle_beta 90.000000
_cell_angle_gamma 90.000000
_cell_volume 3318.377691
_symmetry_space_group_name_H-M "A M A 2"
_symmetry_group_IT_number 40
_symmetry_cell_setting 'orthorhombic'
loop_
_space_group_symop_operation_xyz
x,y,z
-x,-y,z
1/2-x,y,z
1/2+x,-y,z
x,1/2+y,1/2+z
-x,1/2-y,1/2+z
1/2-x,1/2+y,1/2+z
1/2+x,1/2-y,1/2+z
loop_
_atom_site_type_symbol
_atom_site_label
_atom_site_fract_x
_atom_site_fract_y
_atom_site_fract_z
Si Si1 0.933843 0.714633 0.996560
Si Si2 0.934787 0.420287 0.048529
Si Si3 0.436457 0.839990 0.928986
Si Si4 0.434527 0.921503 0.053917
Si Si5 0.933211 0.649562 0.173727
Si Si6 0.564637 0.580299 0.303885
Si Si7 0.568794 0.217666 0.119700
O O1 0.750000 0.722433 0.011712
O O2 0.981404 0.760348 0.934158
O O3 0.982243 0.629784 0.994502
O O4 0.042731 0.747214 0.051386
O O5 0.750000 0.419615 0.038717
O O6 0.000000 0.500000 0.038303
O O7 0.974635 0.392586 0.118993
O O8 0.250000 0.830299 0.929561
O O9 0.498077 0.875230 0.864177
O O10 0.496774 0.891438 0.986487
O O11 0.250000 0.926752 0.049309
O O12 0.482769 0.866902 0.111631
O O13 0.500000 0.000000 0.070059
O O14 0.750000 0.634937 0.164331
O O15 0.994784 0.620217 0.240674
O O16 0.967708 0.736624 0.170687
O O17 0.500000 0.500000 0.306260
O O18 0.750000 0.576690 0.305434
O O19 0.750000 0.224016 0.138813
#
# Coordination Sequence:
#
# PCOD8182542 Si02
#       7
#     8   8   8   8   8   8   8
#     4  10  18  29  46  68  89 115 151 189 227 272
#     4  11  20  31  47  68  94 123 151 188 232 275
#     4   9  18  33  46  62  91 125 154 184 222 268
#     4   9  17  27  43  65  89 115 146 181 224 269
#     4  10  19  31  46  67  92 123 159 193 227 270
#     4  10  21  33  47  67  94 125 159 192 225 264
#     4   9  17  30  45  63  88 120 151 185 229 276
#
# _framework density 16.875716000000001
#
# number of rings (size 3 to 8) (size 9 to 14) (size 15 to 20)
#    0.000    2.286    0.000    6.857    0.000    5.714 
#    0.000    0.000    0.000    0.000    0.000    1.000 
#    0.000    2.286    0.000    0.000    0.000    0.000 
#
# Total GULP energy -347040.252565 kJ/mol
# GULP energy per Si atom -12394.294734 kJ/mol
# Density = 1.683731 g / cm^3
# Si number density = 16.875716 Si / 1000 Ang^3
#
#
#
# Elastic Constant Matrix: (Units=GPa)
#
#
# Indices 1 2 3 4 5 6 
#
# 1 44.6365 32.0831 20.1521 0.0000 0.0000 0.0000
# 2 32.0831 159.1181 65.8664 0.0000 0.0000 0.0000
# 3 20.1521 65.8664 79.6336 0.0000 0.0000 0.0000
# 4 0.0000 0.0000 0.0000 29.2869 0.0000 0.0000
# 5 0.0000 0.0000 0.0000 0.0000 17.4060 0.0000
# 6 0.0000 0.0000 0.0000 0.0000 0.0000 32.0863
#
#
#
# Elastic Compliance Matrix: (Units=1/GPa)
#
#
# Indices 1 2 3 4 5 6 
#
# 1 0.026834 -0.003953 -0.003521 0.000000 0.000000 0.000000
# 2 -0.003953 0.010139 -0.007386 0.000000 0.000000 0.000000
# 3 -0.003521 -0.007386 0.019557 0.000000 0.000000 0.000000
# 4 0.000000 0.000000 0.000000 0.034145 0.000000 0.000000
# 5 0.000000 0.000000 0.000000 0.000000 0.057451 0.000000
# 6 0.000000 0.000000 0.000000 0.000000 0.000000 0.031166
#
#
# Mechanical properties :
#
#
# Convention : Reuss Voigt Hill
#
# Bulk Modulus (GPa) = 37.29825 57.73239 47.51532
# Shear Modulus (GPa) = 22.94108 26.77496 24.85802
#
# Velocity S-wave (km/s) = 3.69102 3.98753 3.84214
# Velocity P-wave (km/s) = 6.34938 7.44884 6.92097
#
# Compressibility (1/GPa) = 0.02681091
#
# Stress axis : x y z
#
# Youngs Moduli (GPa) = 37.26593 98.62868 51.13139
#
# Poissons Ratio (x) = 0.38989 0.18003
# Poissons Ratio (y) = 0.14732 0.37765
# Poissons Ratio (z) = 0.13121 0.72845
#
# Static dielectric constant tensor:
#      x y z
#    x 3.338090 0.000000 0.000000 
#    y 0.000000 4.268450 0.000000 
#    z 0.000000 0.000000 3.114660 
# 
# 
# High freq. dielectric constant tensor:
#      x y z
#    x 1.655750 0.000000 0.000000 
#    y 0.000000 1.659580 0.000000 
#    z 0.000000 0.000000 1.605660 
# 
# From -- ./inp_files/22313.got.cif
#   From: 2010.03.12/outbox.cif.g09.slc.cpg/sg40_12_cif.got.tgz:22313.got - 2010.04.14 01:38:03.
