data_PCOD8182008
_publ_section_title
;
Structure prediction by ZEFSAII (Michael W. Deem and Ramdas Pophale) SiO2 
 PCOD8182008
Probable space group: A B M 2
;
_chemical_formula_sum "Si O2"
_cell_formula_units_Z 60
_cell_length_a 11.005328
_cell_length_b 21.498924
_cell_length_c 11.558173
_cell_angle_alpha 90.000000
_cell_angle_beta 90.000000
_cell_angle_gamma 90.000000
_cell_volume 2734.695058
_symmetry_space_group_name_H-M "A B M 2"
_symmetry_group_IT_number 39
_symmetry_cell_setting 'orthorhombic'
loop_
_space_group_symop_operation_xyz
x,y,z
-x,-y,z
-x,1/2+y,z
x,1/2-y,z
x,1/2+y,1/2+z
-x,1/2-y,1/2+z
-x,y,1/2+z
x,-y,1/2+z
loop_
_atom_site_type_symbol
_atom_site_label
_atom_site_fract_x
_atom_site_fract_y
_atom_site_fract_z
Si Si1 0.110357 0.820028 0.416260
Si Si2 0.000000 0.500000 0.991981
Si Si3 0.536193 0.434555 0.459256
Si Si4 0.513269 0.319125 0.123897
Si Si5 0.780586 0.924598 0.056858
Si Si6 0.645980 0.390046 0.781347
Si Si7 0.128803 0.878083 0.943508
Si Si8 0.211282 0.321105 0.673542
O O1 0.151805 0.750000 0.438644
O O2 0.158453 0.858359 0.527167
O O3 0.165054 0.845470 0.296732
O O4 0.964319 0.824420 0.404850
O O5 0.887304 0.524863 0.067497
O O6 0.941007 0.443585 0.917853
O O7 0.500000 0.500000 0.520352
O O8 0.499729 0.372518 0.528410
O O9 0.683512 0.437767 0.452797
O O10 0.462942 0.431302 0.337610
O O11 0.493054 0.250000 0.069924
O O12 0.414966 0.328683 0.226182
O O13 0.644422 0.324150 0.180342
O O14 0.710826 0.927959 0.178570
O O15 0.745887 0.370751 0.875053
O O16 0.158727 0.868510 0.078530
O O17 0.167545 0.250000 0.648805
#
# Coordination Sequence:
#
# PCOD8182008 Si02
#       8
#     8   4   8   8   8   8   8   8
#     4  10  23  42  65  95 134 175 228 281 337 415
#     4  10  24  46  66  96 142 174 238 282 346 414
#     4  11  23  44  67 100 138 181 233 285 350 429
#     4  10  23  42  67 100 137 180 232 291 354 423
#     4  10  24  43  67 100 132 181 223 285 352 405
#     4  11  24  41  68 101 137 177 229 287 356 422
#     4  11  23  42  65 100 131 181 227 285 342 418
#     4  10  21  42  69  94 130 181 223 280 350 411
#
# _framework density 21.940289
#
# number of rings (size 3 to 8) (size 9 to 14) (size 15 to 20)
#    0.000    1.600    1.333    2.000    3.733    6.400 
#    4.800    0.000    0.000    0.000    0.000    0.000 
#    0.000    0.000    0.000    0.000    0.000    0.000 
#
# Total GULP energy -371792.823530 kJ/mol
# GULP energy per Si atom -12393.094118 kJ/mol
# Density = 2.189035 g / cm^3
# Si number density = 21.940289 Si / 1000 Ang^3
#
#
#
# Elastic Constant Matrix: (Units=GPa)
#
#
# Indices 1 2 3 4 5 6 
#
# 1 152.7053 47.1753 52.2199 0.0000 0.0000 0.0000
# 2 47.1753 117.7704 42.4423 0.0000 0.0000 0.0000
# 3 52.2199 42.4423 102.4646 0.0000 0.0000 0.0000
# 4 0.0000 0.0000 0.0000 19.4180 0.0000 0.0000
# 5 0.0000 0.0000 0.0000 0.0000 31.9119 0.0000
# 6 0.0000 0.0000 0.0000 0.0000 0.0000 35.8481
#
#
#
# Elastic Compliance Matrix: (Units=1/GPa)
#
#
# Indices 1 2 3 4 5 6 
#
# 1 0.008363 -0.002132 -0.003379 0.000000 0.000000 0.000000
# 2 -0.002132 0.010525 -0.003273 0.000000 0.000000 0.000000
# 3 -0.003379 -0.003273 0.012837 0.000000 0.000000 0.000000
# 4 0.000000 0.000000 0.000000 0.051499 0.000000 0.000000
# 5 0.000000 0.000000 0.000000 0.000000 0.031336 0.000000
# 6 0.000000 0.000000 0.000000 0.000000 0.000000 0.027896
#
#
# Mechanical properties :
#
#
# Convention : Reuss Voigt Hill
#
# Bulk Modulus (GPa) = 70.63715 72.95727 71.79721
# Shear Modulus (GPa) = 30.35060 32.84243 31.59652
#
# Velocity S-wave (km/s) = 3.72335 3.87318 3.79900
# Velocity P-wave (km/s) = 7.12387 7.30252 7.21375
#
# Compressibility (1/GPa) = 0.01415686
#
# Stress axis : x y z
#
# Youngs Moduli (GPa) = 119.57884 95.01500 77.89943
#
# Poissons Ratio (x) = 0.20259 0.26320
# Poissons Ratio (y) = 0.25497 0.25495
# Poissons Ratio (z) = 0.40403 0.31097
#
# Static dielectric constant tensor:
#      x y z
#    x 4.376460 0.000000 0.000000 
#    y 0.000000 3.998860 0.000000 
#    z 0.000000 0.000000 3.710910 
# 
# 
# High freq. dielectric constant tensor:
#      x y z
#    x 1.889660 0.000000 0.000000 
#    y 0.000000 1.859920 0.000000 
#    z 0.000000 0.000000 1.835980 
# 
# From -- ./inp_files/6019.got.cif
#   From: 2010.03.12/outbox.cif.g09.slc.cpg/sg39_4_cif.got.tgz:6019.got - 2010.04.14 02:53:20.
