data_PCOD8182053
_publ_section_title
;
Structure prediction by ZEFSAII (Michael W. Deem and Ramdas Pophale) SiO2 
 PCOD8182053
Probable space group: A B M 2
;
_chemical_formula_sum "Si O2"
_cell_formula_units_Z 64
_cell_length_a 11.419414
_cell_length_b 19.560599
_cell_length_c 13.897241
_cell_angle_alpha 90.000000
_cell_angle_beta 90.000000
_cell_angle_gamma 90.000000
_cell_volume 3104.234756
_symmetry_space_group_name_H-M "A B M 2"
_symmetry_group_IT_number 39
_symmetry_cell_setting 'orthorhombic'
loop_
_space_group_symop_operation_xyz
x,y,z
-x,-y,z
-x,1/2+y,z
x,1/2-y,z
x,1/2+y,1/2+z
-x,1/2-y,1/2+z
-x,y,1/2+z
x,-y,1/2+z
loop_
_atom_site_type_symbol
_atom_site_label
_atom_site_fract_x
_atom_site_fract_y
_atom_site_fract_z
Si Si1 0.264150 0.565860 0.939070
Si Si2 0.418800 0.171465 0.742617
Si Si3 0.277283 0.621285 0.578778
Si Si4 0.878144 0.037465 0.322284
Si Si5 0.468062 0.926248 0.079396
Si Si6 0.866945 0.984719 0.601817
Si Si7 0.794239 0.674065 0.883417
Si Si8 0.684373 0.327858 0.784971
O O1 0.228667 0.497299 0.880315
O O2 0.251096 0.629305 0.867528
O O3 0.395592 0.560975 0.981223
O O4 0.175511 0.575272 0.029679
O O5 0.414606 0.250000 0.705004
O O6 0.392850 0.119310 0.654744
O O7 0.325926 0.158832 0.826669
O O8 0.546990 0.154413 0.784384
O O9 0.414080 0.614040 0.554826
O O10 0.213742 0.548806 0.575633
O O11 0.226342 0.671130 0.497703
O O12 0.256813 0.655196 0.682577
O O13 0.889119 0.116877 0.353044
O O14 0.847481 0.036921 0.210478
O O15 0.000000 0.000000 0.345239
O O16 0.500000 0.000000 0.126113
O O17 0.000000 0.000000 0.577564
O O18 0.841806 0.750000 0.858336
O O19 0.707710 0.250000 0.811351
#
# Coordination Sequence:
#
# PCOD8182053 Si02
#       8
#     8   8   8   8   8   8   8   8
#     4  12  22  38  63  93 123 159 213 265 312 382
#     4   9  21  38  58  89 130 173 207 248 316 390
#     4  11  21  39  60  92 129 167 207 265 317 380
#     4  11  24  43  67  91 124 170 214 265 322 379
#     4  11  21  35  59  94 129 162 209 267 321 371
#     4  11  23  41  66  89 122 166 215 258 325 377
#     4  11  22  38  64  94 127 163 211 259 310 378
#     4  10  22  39  61  89 128 172 210 256 319 384
#
# _framework density 20.616997999999999
#
# number of rings (size 3 to 8) (size 9 to 14) (size 15 to 20)
#    0.000    1.250    3.750    2.250    0.000    1.000 
#    0.000    1.875    0.000    0.000    0.000    0.000 
#    0.000    0.000    0.000    0.000    0.000    0.000 
#
# Total GULP energy -396806.010636 kJ/mol
# GULP energy per Si atom -12400.187832 kJ/mol
# Density = 2.057007 g / cm^3
# Si number density = 20.616998 Si / 1000 Ang^3
#
#
#
# Elastic Constant Matrix: (Units=GPa)
#
#
# Indices 1 2 3 4 5 6 
#
# 1 79.5819 34.9731 50.7878 0.0000 0.0000 0.0000
# 2 34.9731 136.4351 70.6379 0.0000 0.0000 0.0000
# 3 50.7878 70.6379 145.5923 0.0000 0.0000 0.0000
# 4 0.0000 0.0000 0.0000 3406.9782 0.0000 0.0000
# 5 0.0000 0.0000 0.0000 0.0000 27.7620 0.0000
# 6 0.0000 0.0000 0.0000 0.0000 0.0000 25.3451
#
#
#
# Elastic Compliance Matrix: (Units=1/GPa)
#
#
# Indices 1 2 3 4 5 6 
#
# 1 0.016442 -0.001663 -0.004929 0.000000 0.000000 0.000000
# 2 -0.001663 0.009956 -0.004251 0.000000 0.000000 0.000000
# 3 -0.004929 -0.004251 0.010650 0.000000 0.000000 0.000000
# 4 0.000000 0.000000 0.000000 0.000294 0.000000 0.000000
# 5 0.000000 0.000000 0.000000 0.000000 0.036020 0.000000
# 6 0.000000 0.000000 0.000000 0.000000 0.000000 0.039455
#
#
# Mechanical properties :
#
#
# Convention : Reuss Voigt Hill
#
# Bulk Modulus (GPa) = 65.08678 74.93410 70.01044
# Shear Modulus (GPa) = 35.81065 705.69777 370.75421
#
# Velocity S-wave (km/s) = 4.17219 18.52113 13.42460
# Velocity P-wave (km/s) = 7.40592 22.22164 16.56274
#
# Compressibility (1/GPa) = 0.01536410
#
# Stress axis : x y z
#
# Youngs Moduli (GPa) = 60.82042 100.43766 93.89596
#
# Poissons Ratio (x) = 0.16701 0.46279
# Poissons Ratio (y) = 0.10113 0.39911
# Poissons Ratio (z) = 0.29977 0.42692
#
# Static dielectric constant tensor:
#      x y z
#    x 3.612640 0.000000 0.000000 
#    y 0.000000 3.536680 0.000000 
#    z 0.000000 0.000000 3.914720 
# 
# 
# High freq. dielectric constant tensor:
#      x y z
#    x 1.789340 0.000000 0.000000 
#    y 0.000000 1.800260 0.000000 
#    z 0.000000 0.000000 1.819920 
# 
# From -- ./inp_files/9444.got.cif
#   From: 2010.03.12/outbox.cif.g09.slc.cpg/sg39_5_cif.got.tgz:9444.got - 2010.04.14 02:53:20.
