data_PCOD8182431
_publ_section_title
;
Structure prediction by ZEFSAII (Michael W. Deem and Ramdas Pophale) SiO2 
 PCOD8182431
Probable space group: A M A 2
;
_chemical_formula_sum "Si O2"
_cell_formula_units_Z 48
_cell_length_a 13.778996
_cell_length_b 17.238045
_cell_length_c 9.230127
_cell_angle_alpha 90.000000
_cell_angle_beta 90.000000
_cell_angle_gamma 90.000000
_cell_volume 2192.367023
_symmetry_space_group_name_H-M "A M A 2"
_symmetry_group_IT_number 40
_symmetry_cell_setting 'orthorhombic'
loop_
_space_group_symop_operation_xyz
x,y,z
-x,-y,z
1/2-x,y,z
1/2+x,-y,z
x,1/2+y,1/2+z
-x,1/2-y,1/2+z
1/2-x,1/2+y,1/2+z
1/2+x,1/2-y,1/2+z
loop_
_atom_site_type_symbol
_atom_site_label
_atom_site_fract_x
_atom_site_fract_y
_atom_site_fract_z
Si Si1 0.356642 0.801965 0.872560
Si Si2 0.863410 0.350420 0.019498
Si Si3 0.856642 0.801965 0.088067
Si Si4 0.520233 0.411634 0.752866
Si Si5 0.020233 0.911634 0.707762
Si Si6 0.636590 0.149580 0.441129
O O1 0.250000 0.838562 0.902625
O O2 0.351090 0.750000 0.730314
O O3 0.435111 0.870387 0.850956
O O4 0.385091 0.741569 0.999384
O O5 0.750000 0.368345 0.032727
O O6 0.916892 0.372927 0.168197
O O7 0.905597 0.402516 0.887757
O O8 0.750000 0.838562 0.058002
O O9 0.935111 0.870387 0.109671
O O10 0.885091 0.741569 0.961243
O O11 0.500000 0.500000 0.713508
O O12 0.416892 0.372927 0.792430
O O13 0.094403 0.902516 0.572870
O O14 0.000000 0.000000 0.747119
O O15 0.750000 0.131655 0.427900
#
# Coordination Sequence:
#
# PCOD8182431 Si02
#       6
#     8   8   8   8   8   8
#     4   8  15  29  46  64  91 128 159 181 220 283
#     4   9  17  29  45  66  94 127 156 183 225 282
#     4   8  15  29  46  64  91 128 159 181 220 283
#     4  10  18  26  44  74  98 114 148 199 238 260
#     4  10  18  26  44  74  98 114 148 199 238 260
#     4   9  17  29  45  66  94 127 156 183 225 282
#
# _framework density 21.894143
#
# number of rings (size 3 to 8) (size 9 to 14) (size 15 to 20)
#    0.000    3.000    0.000    5.000    0.000    4.000 
#    0.000    0.000    0.000   27.000    0.000   44.333 
#    0.000  202.667    0.000    0.000    0.000    0.000 
#
# Total GULP energy -297453.129618 kJ/mol
# GULP energy per Si atom -12393.880401 kJ/mol
# Density = 2.184431 g / cm^3
# Si number density = 21.894143 Si / 1000 Ang^3
#
#
#
# Elastic Constant Matrix: (Units=GPa)
#
#
# Indices 1 2 3 4 5 6 
#
# 1 164.0299 84.2922 23.3662 0.0000 0.0000 0.0000
# 2 84.2922 173.4049 37.3579 0.0000 0.0000 0.0000
# 3 23.3662 37.3579 14.2168 0.0000 0.0000 0.0000
# 4 0.0000 0.0000 0.0000 3.3732 0.0000 0.0000
# 5 0.0000 0.0000 0.0000 0.0000 1.6266 0.0000
# 6 0.0000 0.0000 0.0000 0.0000 0.0000 16.6270
#
#
#
# Elastic Compliance Matrix: (Units=1/GPa)
#
#
# Indices 1 2 3 4 5 6 
#
# 1 0.008427 -0.002564 -0.007113 0.000000 0.000000 0.000000
# 2 -0.002564 0.014071 -0.032761 0.000000 0.000000 0.000000
# 3 -0.007113 -0.032761 0.168117 0.000000 0.000000 0.000000
# 4 0.000000 0.000000 0.000000 0.296458 0.000000 0.000000
# 5 0.000000 0.000000 0.000000 0.000000 0.614778 0.000000
# 6 0.000000 0.000000 0.000000 0.000000 0.000000 0.060143
#
#
# Mechanical properties :
#
#
# Convention : Reuss Voigt Hill
#
# Bulk Modulus (GPa) = 9.45722 71.29824 40.37773
# Shear Modulus (GPa) = 3.89980 18.10105 11.00043
#
# Velocity S-wave (km/s) = 1.33607 2.87845 2.24394
# Velocity P-wave (km/s) = 2.59017 6.60931 5.01956
#
# Compressibility (1/GPa) = 0.10573937
#
# Stress axis : x y z
#
# Youngs Moduli (GPa) = 118.66088 71.06707 5.94822
#
# Poissons Ratio (x) = 0.18222 0.04231
# Poissons Ratio (y) = 0.30426 0.19487
# Poissons Ratio (z) = 0.84405 2.32823
#
# Static dielectric constant tensor:
#      x y z
#    x 4.192880 0.000000 0.000000 
#    y 0.000000 3.899880 0.000000 
#    z 0.000000 0.000000 3.587710 
# 
# 
# High freq. dielectric constant tensor:
#      x y z
#    x 1.876210 0.000000 0.000000 
#    y 0.000000 1.839240 0.000000 
#    z 0.000000 0.000000 1.808680 
# 
# From -- ./inp_files/12156.got.cif
#   From: 2010.03.12/outbox.cif.g09.slc.cpg/sg40_7_cif.got.tgz:12156.got - 2010.04.14 01:38:03.
