data_PCOD8182192
_publ_section_title
;
Structure prediction by ZEFSAII (Michael W. Deem and Ramdas Pophale) SiO2 
 PCOD8182192
Probable space group: A B M 2
;
_chemical_formula_sum "Si O2"
_cell_formula_units_Z 40
_cell_length_a 8.545748
_cell_length_b 18.291716
_cell_length_c 11.741976
_cell_angle_alpha 90.000000
_cell_angle_beta 90.000000
_cell_angle_gamma 90.000000
_cell_volume 1835.463363
_symmetry_space_group_name_H-M "A B M 2"
_symmetry_group_IT_number 39
_symmetry_cell_setting 'orthorhombic'
loop_
_space_group_symop_operation_xyz
x,y,z
-x,-y,z
-x,1/2+y,z
x,1/2-y,z
x,1/2+y,1/2+z
-x,1/2-y,1/2+z
-x,y,1/2+z
x,-y,1/2+z
loop_
_atom_site_type_symbol
_atom_site_label
_atom_site_fract_x
_atom_site_fract_y
_atom_site_fract_z
Si Si1 0.254193 0.620035 0.635250
Si Si2 0.560968 0.581427 0.740975
Si Si3 0.673985 0.975334 0.518188
Si Si4 0.787168 0.830844 0.904308
Si Si5 0.075785 0.077852 0.343128
O O1 0.411514 0.630083 0.709046
O O2 0.235239 0.546677 0.559494
O O3 0.249741 0.682195 0.538582
O O4 0.113392 0.619064 0.724987
O O5 0.500000 0.500000 0.773360
O O6 0.667383 0.578365 0.627459
O O7 0.658686 0.617083 0.843518
O O8 0.766448 0.934487 0.417331
O O9 0.500000 0.000000 0.477815
O O10 0.787427 0.750000 0.847585
O O11 0.957069 0.867784 0.903970
O O12 0.000000 0.000000 0.315176
#
# Coordination Sequence:
#
# PCOD8182192 Si02
#       5
#     8   8   8   8   8
#     4  10  24  40  68  96 135 176 233 290 343 410
#     4   9  22  43  74 101 131 176 241 297 339 414
#     4   9  21  39  70 106 132 169 238 299 337 403
#     4  12  28  45  66 104 149 184 229 291 361 428
#     4  12  24  39  71  99 138 183 234 290 349 411
#
# _framework density 21.792860999999998
#
# number of rings (size 3 to 8) (size 9 to 14) (size 15 to 20)
#    0.000    2.000    2.000    2.400   11.200    3.200 
#    0.000    0.000    0.000    0.000    0.000    0.000 
#    0.000    0.000    0.000    0.000    0.000    0.000 
#
# Total GULP energy -247838.938556 kJ/mol
# GULP energy per Si atom -12391.946928 kJ/mol
# Density = 2.174326 g / cm^3
# Si number density = 21.792861 Si / 1000 Ang^3
#
#
#
# Elastic Constant Matrix: (Units=GPa)
#
#
# Indices 1 2 3 4 5 6 
#
# 1 120.7179 50.2926 67.7030 0.0000 0.0000 0.0000
# 2 50.2926 84.7554 27.9956 0.0000 0.0000 0.0000
# 3 67.7030 27.9956 147.3237 0.0000 0.0000 0.0000
# 4 0.0000 0.0000 0.0000 9.8812 0.0000 0.0000
# 5 0.0000 0.0000 0.0000 0.0000 27.2900 0.0000
# 6 0.0000 0.0000 0.0000 0.0000 0.0000 15.7466
#
#
#
# Elastic Compliance Matrix: (Units=1/GPa)
#
#
# Indices 1 2 3 4 5 6 
#
# 1 0.013895 -0.006547 -0.005141 0.000000 0.000000 0.000000
# 2 -0.006547 0.015673 0.000030 0.000000 0.000000 0.000000
# 3 -0.005141 0.000030 0.009145 0.000000 0.000000 0.000000
# 4 0.000000 0.000000 0.000000 0.101202 0.000000 0.000000
# 5 0.000000 0.000000 0.000000 0.000000 0.036643 0.000000
# 6 0.000000 0.000000 0.000000 0.000000 0.000000 0.063506
#
#
# Mechanical properties :
#
#
# Convention : Reuss Voigt Hill
#
# Bulk Modulus (GPa) = 64.94687 71.64216 68.29451
# Shear Modulus (GPa) = 18.62117 24.37062 21.49589
#
# Velocity S-wave (km/s) = 2.92629 3.34770 3.14407
# Velocity P-wave (km/s) = 6.42527 6.92014 6.67729
#
# Compressibility (1/GPa) = 0.01539720
#
# Stress axis : x y z
#
# Youngs Moduli (GPa) = 71.97047 63.80246 109.35267
#
# Poissons Ratio (x) = 0.41769 0.56221
# Poissons Ratio (y) = 0.47116 -0.00330
# Poissons Ratio (z) = 0.37002 -0.00192
#
# Static dielectric constant tensor:
#      x y z
#    x 3.948720 0.000000 0.000000 
#    y 0.000000 3.681130 0.000000 
#    z 0.000000 0.000000 4.238120 
# 
# 
# High freq. dielectric constant tensor:
#      x y z
#    x 1.858260 0.000000 0.000000 
#    y 0.000000 1.809040 0.000000 
#    z 0.000000 0.000000 1.880740 
# 
# From -- ./inp_files/5042.got.cif
#   From: 2010.03.12/outbox.cif.g09.slc.cpg/sg39_3_cif.got.tgz:5042.got - 2010.04.14 02:53:20.
