data_PCOD8182381
_publ_section_title
;
Structure prediction by ZEFSAII (Michael W. Deem and Ramdas Pophale) SiO2 
 PCOD8182381
Probable space group: A M A 2
;
_chemical_formula_sum "Si O2"
_cell_formula_units_Z 64
_cell_length_a 8.701778
_cell_length_b 30.488900
_cell_length_c 14.711930
_cell_angle_alpha 90.000000
_cell_angle_beta 90.000000
_cell_angle_gamma 90.000000
_cell_volume 3903.187417
_symmetry_space_group_name_H-M "A M A 2"
_symmetry_group_IT_number 40
_symmetry_cell_setting 'orthorhombic'
loop_
_space_group_symop_operation_xyz
x,y,z
-x,-y,z
1/2-x,y,z
1/2+x,-y,z
x,1/2+y,1/2+z
-x,1/2-y,1/2+z
1/2-x,1/2+y,1/2+z
1/2+x,1/2-y,1/2+z
loop_
_atom_site_type_symbol
_atom_site_label
_atom_site_fract_x
_atom_site_fract_y
_atom_site_fract_z
Si Si1 0.071043 0.293362 0.038710
Si Si2 0.572596 0.231969 0.342138
Si Si3 0.932491 0.545893 0.252946
Si Si4 0.929659 0.676623 0.347586
Si Si5 0.567679 0.628890 0.524432
Si Si6 0.930096 0.709582 0.640904
Si Si7 0.567777 0.133609 0.668673
Si Si8 0.067700 0.046426 0.950226
O O1 0.250000 0.289132 0.059880
O O2 0.005550 0.339168 0.081449
O O3 0.000185 0.250287 0.085577
O O4 0.040407 0.298110 0.930645
O O5 0.750000 0.246773 0.338758
O O6 0.464116 0.272776 0.357542
O O7 0.525552 0.208925 0.247646
O O8 0.750000 0.542411 0.263503
O O9 0.981022 0.582436 0.177221
O O10 0.000000 0.500000 0.217851
O O11 0.999370 0.559041 0.351338
O O12 0.750000 0.668938 0.345815
O O13 0.996884 0.651036 0.433019
O O14 0.004252 0.658304 0.255618
O O15 0.750000 0.621449 0.526163
O O16 0.514430 0.661987 0.604520
O O17 0.483598 0.581733 0.527024
O O18 0.750000 0.713996 0.625056
O O19 0.750000 0.135905 0.670009
O O20 0.250000 0.043474 0.943461
O O21 0.000000 0.000000 0.982236
#
# Coordination Sequence:
#
# PCOD8182381 Si02
#       8
#     8   8   8   8   8   8   8   8
#     4  10  19  31  47  67  92 125 163 198 231 278
#     4  10  20  31  44  68  97 121 158 207 238 266
#     4  10  18  31  47  67  94 123 156 190 232 282
#     4  10  17  28  46  65  90 127 162 190 229 278
#     4  10  19  32  47  64  92 128 161 190 229 280
#     4  10  20  32  46  67  95 126 157 196 240 278
#     4   9  17  29  45  64  89 124 159 188 225 277
#     4  11  21  32  48  70  96 122 152 189 233 279
#
# _framework density 16.396856
#
# number of rings (size 3 to 8) (size 9 to 14) (size 15 to 20)
#    0.000    2.000    3.750    2.250    0.000    1.000 
#    0.000    1.250    0.000    0.000    0.000    0.875 
#    0.000    2.000    0.000    0.000    0.000    0.500 
#
# Total GULP energy -396514.812282 kJ/mol
# GULP energy per Si atom -12391.087884 kJ/mol
# Density = 1.635954 g / cm^3
# Si number density = 16.396856 Si / 1000 Ang^3
#
#
#
# Elastic Constant Matrix: (Units=GPa)
#
#
# Indices 1 2 3 4 5 6 
#
# 1 45.9907 31.5297 21.2076 0.0000 0.0000 0.0000
# 2 31.5297 136.3777 57.1377 0.0000 0.0000 0.0000
# 3 21.2076 57.1377 101.6969 0.0000 0.0000 0.0000
# 4 0.0000 0.0000 0.0000 17.5977 0.0000 0.0000
# 5 0.0000 0.0000 0.0000 0.0000 11.0059 0.0000
# 6 0.0000 0.0000 0.0000 0.0000 0.0000 25.2112
#
#
#
# Elastic Compliance Matrix: (Units=1/GPa)
#
#
# Indices 1 2 3 4 5 6 
#
# 1 0.026400 -0.004966 -0.002715 0.000000 0.000000 0.000000
# 2 -0.004966 0.010524 -0.004877 0.000000 0.000000 0.000000
# 3 -0.002715 -0.004877 0.013140 0.000000 0.000000 0.000000
# 4 0.000000 0.000000 0.000000 0.056826 0.000000 0.000000
# 5 0.000000 0.000000 0.000000 0.000000 0.090860 0.000000
# 6 0.000000 0.000000 0.000000 0.000000 0.000000 0.039665
#
#
# Mechanical properties :
#
#
# Convention : Reuss Voigt Hill
#
# Bulk Modulus (GPa) = 40.08537 55.97947 48.03242
# Shear Modulus (GPa) = 18.46059 22.37565 20.41812
#
# Velocity S-wave (km/s) = 3.35903 3.69810 3.53263
# Velocity P-wave (km/s) = 6.28841 7.24217 6.78208
#
# Compressibility (1/GPa) = 0.02494676
#
# Stress axis : x y z
#
# Youngs Moduli (GPa) = 37.87861 95.02001 76.10545
#
# Poissons Ratio (x) = 0.47186 0.20665
# Poissons Ratio (y) = 0.18810 0.37119
# Poissons Ratio (z) = 0.10285 0.46344
#
# Static dielectric constant tensor:
#      x y z
#    x 2.911700 0.000000 0.000000 
#    y 0.000000 3.438590 0.000000 
#    z 0.000000 0.000000 3.282400 
# 
# 
# High freq. dielectric constant tensor:
#      x y z
#    x 1.619990 0.000000 0.000000 
#    y 0.000000 1.628280 0.000000 
#    z 0.000000 0.000000 1.606990 
# 
# From -- ./inp_files/15894.got.cif
#   From: 2010.03.12/outbox.cif.g09.slc.cpg/sg40_8_cif.got.tgz:15894.got - 2010.04.14 01:38:03.
