data_PCOD8182892
_publ_section_title
;
Structure prediction by ZEFSAII (Michael W. Deem and Ramdas Pophale) SiO2 
 PCOD8182892
Probable space group: A M A 2
;
_chemical_formula_sum "Si O2"
_cell_formula_units_Z 64
_cell_length_a 9.024064
_cell_length_b 27.912772
_cell_length_c 14.356596
_cell_angle_alpha 90.000000
_cell_angle_beta 90.000000
_cell_angle_gamma 90.000000
_cell_volume 3616.234742
_symmetry_space_group_name_H-M "A M A 2"
_symmetry_group_IT_number 40
_symmetry_cell_setting 'orthorhombic'
loop_
_space_group_symop_operation_xyz
x,y,z
-x,-y,z
1/2-x,y,z
1/2+x,-y,z
x,1/2+y,1/2+z
-x,1/2-y,1/2+z
1/2-x,1/2+y,1/2+z
1/2+x,1/2-y,1/2+z
loop_
_atom_site_type_symbol
_atom_site_label
_atom_site_fract_x
_atom_site_fract_y
_atom_site_fract_z
Si Si1 0.580412 0.680917 0.339890
Si Si2 0.576197 0.951327 0.127787
Si Si3 0.075773 0.548734 0.840375
Si Si4 0.080238 0.273541 0.634671
Si Si5 0.074453 0.138916 0.459487
Si Si6 0.919414 0.632192 0.524533
Si Si7 0.420574 0.777844 0.348766
Si Si8 0.922812 0.675467 0.130161
O O1 0.750000 0.699694 0.340958
O O2 0.559594 0.637633 0.413103
O O3 0.474761 0.724258 0.369660
O O4 0.539324 0.661722 0.236962
O O5 0.750000 0.958039 0.118076
O O6 0.529586 0.939484 0.234010
O O7 0.525775 0.909072 0.060380
O O8 0.500000 0.000000 0.093660
O O9 0.250000 0.541675 0.849032
O O10 0.018422 0.591827 0.905115
O O11 0.000000 0.500000 0.875175
O O12 0.250000 0.257806 0.617059
O O13 0.033637 0.317730 0.570644
O O14 0.056281 0.289968 0.740567
O O15 0.975685 0.229361 0.608016
O O16 0.250000 0.140375 0.464218
O O17 0.018207 0.185812 0.407278
O O18 0.008228 0.138040 0.563838
O O19 0.750000 0.619481 0.550437
O O20 0.250000 0.782568 0.379001
O O21 0.750000 0.672045 0.108521
#
# Coordination Sequence:
#
# PCOD8182892 Si02
#       8
#     8   8   8   8   8   8   8   8
#     4   9  19  34  50  70 101 137 169 206 250 290
#     4  10  20  35  54  77 103 128 156 194 242 295
#     4   9  20  36  54  76 101 128 157 194 244 299
#     4   9  18  31  48  73 105 136 164 200 247 296
#     4  11  21  33  50  72  99 132 168 206 251 296
#     4  10  19  32  51  73  98 131 167 201 243 293
#     4  10  19  30  47  74 104 134 169 204 241 292
#     4  10  20  33  49  71  99 134 174 211 246 287
#
# _framework density 17.697966999999998
#
# number of rings (size 3 to 8) (size 9 to 14) (size 15 to 20)
#    0.000    2.250    0.000    3.000    0.000    4.500 
#    0.000    0.000    0.000    0.750    0.000    1.750 
#    0.000    0.000    0.000    0.000    0.000    0.000 
#
# Total GULP energy -396893.317749 kJ/mol
# GULP energy per Si atom -12402.916180 kJ/mol
# Density = 1.765769 g / cm^3
# Si number density = 17.697967 Si / 1000 Ang^3
#
#
#
# Elastic Constant Matrix: (Units=GPa)
#
#
# Indices 1 2 3 4 5 6 
#
# 1 70.9311 42.7779 40.9182 0.0000 0.0000 0.0000
# 2 42.7779 81.7469 65.1168 0.0000 0.0000 0.0000
# 3 40.9182 65.1168 103.6674 0.0000 0.0000 0.0000
# 4 0.0000 0.0000 0.0000 27.3205 0.0000 0.0000
# 5 0.0000 0.0000 0.0000 0.0000 28.1606 0.0000
# 6 0.0000 0.0000 0.0000 0.0000 0.0000 31.4965
#
#
#
# Elastic Compliance Matrix: (Units=1/GPa)
#
#
# Indices 1 2 3 4 5 6 
#
# 1 0.020990 -0.008775 -0.002773 0.000000 0.000000 0.000000
# 2 -0.008775 0.028151 -0.014219 0.000000 0.000000 0.000000
# 3 -0.002773 -0.014219 0.019672 0.000000 0.000000 0.000000
# 4 0.000000 0.000000 0.000000 0.036603 0.000000 0.000000
# 5 0.000000 0.000000 0.000000 0.000000 0.035511 0.000000
# 6 0.000000 0.000000 0.000000 0.000000 0.000000 0.031750
#
#
# Mechanical properties :
#
#
# Convention : Reuss Voigt Hill
#
# Bulk Modulus (GPa) = 57.87335 61.55234 59.71285
# Shear Modulus (GPa) = 21.74190 24.56436 23.15313
#
# Velocity S-wave (km/s) = 3.50879 3.72960 3.62088
# Velocity P-wave (km/s) = 7.01335 7.30762 7.16200
#
# Compressibility (1/GPa) = 0.01727911
#
# Stress axis : x y z
#
# Youngs Moduli (GPa) = 47.64160 35.52217 50.83311
#
# Poissons Ratio (x) = 0.31172 0.14096
# Poissons Ratio (y) = 0.41807 0.72280
# Poissons Ratio (z) = 0.13211 0.50510
#
# Static dielectric constant tensor:
#      x y z
#    x 3.306280 0.000000 0.000000 
#    y 0.000000 3.114240 0.000000 
#    z 0.000000 0.000000 3.512270 
# 
# 
# High freq. dielectric constant tensor:
#      x y z
#    x 1.690620 0.000000 0.000000 
#    y 0.000000 1.657620 0.000000 
#    z 0.000000 0.000000 1.689990 
# 
# From -- ./inp_files/15565.got.cif
#   From: 2010.03.12/outbox.cif.g09.slc.cpg/sg40_8_cif.got.tgz:15565.got - 2010.04.14 01:38:03.
