data_PCOD8182246
_publ_section_title
;
Structure prediction by ZEFSAII (Michael W. Deem and Ramdas Pophale) SiO2 
 PCOD8182246
Probable space group: A B M 2
;
_chemical_formula_sum "Si O2"
_cell_formula_units_Z 64
_cell_length_a 17.818997
_cell_length_b 14.128281
_cell_length_c 13.810181
_cell_angle_alpha 90.000000
_cell_angle_beta 90.000000
_cell_angle_gamma 90.000000
_cell_volume 3476.737880
_symmetry_space_group_name_H-M "A B M 2"
_symmetry_group_IT_number 39
_symmetry_cell_setting 'orthorhombic'
loop_
_space_group_symop_operation_xyz
x,y,z
-x,-y,z
-x,1/2+y,z
x,1/2-y,z
x,1/2+y,1/2+z
-x,1/2-y,1/2+z
-x,y,1/2+z
x,-y,1/2+z
loop_
_atom_site_type_symbol
_atom_site_label
_atom_site_fract_x
_atom_site_fract_y
_atom_site_fract_z
Si Si1 0.163558 0.498902 0.035450
Si Si2 0.401296 0.858027 0.172139
Si Si3 0.424681 0.641667 0.656235
Si Si4 0.901296 0.141973 0.892165
Si Si5 0.075319 0.858333 0.408069
Si Si6 0.914425 0.005441 0.234222
Si Si7 0.414425 0.994559 0.830082
Si Si8 0.663558 0.501098 0.028854
O O1 0.140597 0.521027 0.145071
O O2 0.250000 0.470371 0.032152
O O3 0.150629 0.592973 0.972284
O O4 0.116041 0.410237 0.996494
O O5 0.375827 0.750000 0.183981
O O6 0.486880 0.867610 0.136651
O O7 0.391739 0.908540 0.275718
O O8 0.349371 0.907027 0.092021
O O9 0.398384 0.750000 0.660013
O O10 0.402984 0.593474 0.757668
O O11 0.383959 0.589763 0.567810
O O12 0.875827 0.250000 0.880324
O O13 0.986880 0.132390 0.927653
O O14 0.891739 0.091460 0.788586
O O15 0.101616 0.750000 0.404291
O O16 0.097016 0.906526 0.306637
O O17 0.000000 0.000000 0.197359
O O18 0.500000 0.000000 0.866945
O O19 0.359403 0.978973 0.919234
#
# Coordination Sequence:
#
# PCOD8182246 Si02
#       8
#     8   8   8   8   8   8   8   8
#     4  11  22  34  51  79 113 143 169 205 260 320
#     4   9  19  36  56  77 101 133 178 225 260 298
#     4   9  19  36  56  77 101 133 178 225 260 298
#     4   9  19  36  56  77 101 133 178 225 260 298
#     4   9  19  36  56  77 101 133 178 225 260 298
#     4   9  18  35  56  75  98 133 176 218 260 305
#     4   9  18  35  56  75  98 133 176 218 260 305
#     4  11  22  34  51  79 113 143 169 205 260 320
#
# _framework density 18.408059999999999
#
# number of rings (size 3 to 8) (size 9 to 14) (size 15 to 20)
#    0.000    2.500    0.000    3.750    0.000    7.000 
#    0.000    7.500    0.000    0.000    0.000    0.000 
#    0.000    0.000    0.000    0.000    0.000    0.000 
#
# Total GULP energy -396910.738856 kJ/mol
# GULP energy per Si atom -12403.460589 kJ/mol
# Density = 1.836616 g / cm^3
# Si number density = 18.408060 Si / 1000 Ang^3
#
#
#
# Elastic Constant Matrix: (Units=GPa)
#
#
# Indices 1 2 3 4 5 6 
#
# 1 47.9905 3.2686 24.8040 0.0000 0.0000 0.0000
# 2 3.2686 114.9365 18.6118 0.0000 0.0000 0.0000
# 3 24.8040 18.6118 85.0180 0.0000 0.0000 0.0000
# 4 0.0000 0.0000 0.0000 12.2482 0.0000 0.0000
# 5 0.0000 0.0000 0.0000 0.0000 9.4382 0.0000
# 6 0.0000 0.0000 0.0000 0.0000 0.0000 17.7725
#
#
#
# Elastic Compliance Matrix: (Units=1/GPa)
#
#
# Indices 1 2 3 4 5 6 
#
# 1 0.024563 0.000479 -0.007271 0.000000 0.000000 0.000000
# 2 0.000479 0.009030 -0.002116 0.000000 0.000000 0.000000
# 3 -0.007271 -0.002116 0.014347 0.000000 0.000000 0.000000
# 4 0.000000 0.000000 0.000000 0.081645 0.000000 0.000000
# 5 0.000000 0.000000 0.000000 0.000000 0.105952 0.000000
# 6 0.000000 0.000000 0.000000 0.000000 0.000000 0.056267
#
#
# Mechanical properties :
#
#
# Convention : Reuss Voigt Hill
#
# Bulk Modulus (GPa) = 33.19821 37.92376 35.56099
# Shear Modulus (GPa) = 15.64159 21.30916 18.47537
#
# Velocity S-wave (km/s) = 2.91815 3.40604 3.17149
# Velocity P-wave (km/s) = 5.42475 6.00954 5.72462
#
# Compressibility (1/GPa) = 0.03012211
#
# Stress axis : x y z
#
# Youngs Moduli (GPa) = 40.71175 110.74745 69.70161
#
# Poissons Ratio (x) = -0.05303 0.50681
# Poissons Ratio (y) = -0.01950 0.14752
# Poissons Ratio (z) = 0.29602 0.23439
#
# Static dielectric constant tensor:
#      x y z
#    x 3.224920 0.000000 0.000000 
#    y 0.000000 3.568720 0.000000 
#    z 0.000000 0.000000 3.232450 
# 
# 
# High freq. dielectric constant tensor:
#      x y z
#    x 1.698900 0.000000 0.000000 
#    y 0.000000 1.717210 0.000000 
#    z 0.000000 0.000000 1.712460 
# 
# From -- ./inp_files/10211.got.cif
#   From: 2010.03.12/outbox.cif.g09.slc.cpg/sg39_6_cif.got.tgz:10211.got - 2010.04.14 02:53:20.
