data_PCOD8182210
_publ_section_title
;
Structure prediction by ZEFSAII (Michael W. Deem and Ramdas Pophale) SiO2 
 PCOD8182210
Probable space group: A B M 2
;
_chemical_formula_sum "Si O2"
_cell_formula_units_Z 36
_cell_length_a 17.951981
_cell_length_b 9.913406
_cell_length_c 9.237719
_cell_angle_alpha 90.000000
_cell_angle_beta 90.000000
_cell_angle_gamma 90.000000
_cell_volume 1643.993213
_symmetry_space_group_name_H-M "A B M 2"
_symmetry_group_IT_number 39
_symmetry_cell_setting 'orthorhombic'
loop_
_space_group_symop_operation_xyz
x,y,z
-x,-y,z
-x,1/2+y,z
x,1/2-y,z
x,1/2+y,1/2+z
-x,1/2-y,1/2+z
-x,y,1/2+z
x,-y,1/2+z
loop_
_atom_site_type_symbol
_atom_site_label
_atom_site_fract_x
_atom_site_fract_y
_atom_site_fract_z
Si Si1 0.735078 0.093843 0.142290
Si Si2 0.168582 0.506453 0.894729
Si Si3 0.086610 0.750000 0.499215
Si Si4 0.500000 0.000000 0.925718
Si Si5 0.400896 0.601799 0.675587
Si Si6 0.062395 0.750000 0.827039
O O1 0.717575 0.250000 0.171019
O O2 0.803777 0.043911 0.239519
O O3 0.660485 0.013925 0.177587
O O4 0.760286 0.069400 0.977458
O O5 0.137567 0.380874 0.983837
O O6 0.104609 0.617286 0.880364
O O7 0.051049 0.750000 0.656561
O O8 0.021131 0.750000 0.383627
O O9 0.550508 0.092302 0.821658
O O10 0.450289 0.092916 0.030503
O O11 0.363165 0.750000 0.674918
#
# Coordination Sequence:
#
# PCOD8182210 Si02
#       6
#     8   8   4   4   8   4
#     4  12  27  45  69 103 139 186 234 285 343 410
#     4  12  26  46  70 100 144 180 232 290 346 408
#     4  12  28  46  74 104 138 181 232 288 350 413
#     4  10  24  46  68 106 146 178 226 288 346 408
#     4  11  25  43  74 103 141 184 233 282 346 408
#     4  12  28  46  74 104 138 181 232 288 350 413
#
# _framework density 21.897901999999998
#
# number of rings (size 3 to 8) (size 9 to 14) (size 15 to 20)
#    0.000    0.444    4.444    2.667    6.222   10.667 
#    0.000    0.000    0.000    0.000    0.000    0.000 
#    0.000    0.000    0.000    0.000    0.000    0.000 
#
# Total GULP energy -223313.917816 kJ/mol
# GULP energy per Si atom -12406.328768 kJ/mol
# Density = 2.184806 g / cm^3
# Si number density = 21.897902 Si / 1000 Ang^3
#
#
#
# Elastic Constant Matrix: (Units=GPa)
#
#
# Indices 1 2 3 4 5 6 
#
# 1 95.3293 44.3108 22.4120 0.0000 0.0000 0.0000
# 2 44.3108 157.0587 24.4847 0.0000 0.0000 0.0000
# 3 22.4120 24.4847 115.6353 0.0000 0.0000 0.0000
# 4 0.0000 0.0000 0.0000 19.8234 0.0000 0.0000
# 5 0.0000 0.0000 0.0000 0.0000 26.9573 0.0000
# 6 0.0000 0.0000 0.0000 0.0000 0.0000 25.1524
#
#
#
# Elastic Compliance Matrix: (Units=1/GPa)
#
#
# Indices 1 2 3 4 5 6 
#
# 1 0.012395 -0.003229 -0.001719 0.000000 0.000000 0.000000
# 2 -0.003229 0.007426 -0.000946 0.000000 0.000000 0.000000
# 3 -0.001719 -0.000946 0.009181 0.000000 0.000000 0.000000
# 4 0.000000 0.000000 0.000000 0.050445 0.000000 0.000000
# 5 0.000000 0.000000 0.000000 0.000000 0.037096 0.000000
# 6 0.000000 0.000000 0.000000 0.000000 0.000000 0.039758
#
#
# Mechanical properties :
#
#
# Convention : Reuss Voigt Hill
#
# Bulk Modulus (GPa) = 58.09339 61.15981 59.62660
# Shear Modulus (GPa) = 28.76429 32.84102 30.80265
#
# Velocity S-wave (km/s) = 3.62824 3.87684 3.75460
# Velocity P-wave (km/s) = 6.64372 6.93037 6.78856
#
# Compressibility (1/GPa) = 0.01721366
#
# Stress axis : x y z
#
# Youngs Moduli (GPa) = 80.67821 134.66916 108.91609
#
# Poissons Ratio (x) = 0.43485 0.18718
# Poissons Ratio (y) = 0.26051 0.10308
# Poissons Ratio (z) = 0.13865 0.12746
#
# Static dielectric constant tensor:
#      x y z
#    x 3.788340 0.000000 0.000000 
#    y 0.000000 3.965880 0.000000 
#    z 0.000000 0.000000 4.147040 
# 
# 
# High freq. dielectric constant tensor:
#      x y z
#    x 1.860140 0.000000 0.000000 
#    y 0.000000 1.873570 0.000000 
#    z 0.000000 0.000000 1.879410 
# 
# From -- ./inp_files/3911.got.cif
#   From: 2010.03.12/outbox.cif.g09.slc.cpg/sg39_2_cif.got.tgz:3911.got - 2010.04.14 02:53:20.
