data_PCOD8182480
_publ_section_title
;
Structure prediction by ZEFSAII (Michael W. Deem and Ramdas Pophale) SiO2 
 PCOD8182480
Probable space group: A M A 2
;
_chemical_formula_sum "Si O2"
_cell_formula_units_Z 64
_cell_length_a 8.780952
_cell_length_b 18.631793
_cell_length_c 26.251357
_cell_angle_alpha 90.000000
_cell_angle_beta 90.000000
_cell_angle_gamma 90.000000
_cell_volume 4294.850112
_symmetry_space_group_name_H-M "A M A 2"
_symmetry_group_IT_number 40
_symmetry_cell_setting 'orthorhombic'
loop_
_space_group_symop_operation_xyz
x,y,z
-x,-y,z
1/2-x,y,z
1/2+x,-y,z
x,1/2+y,1/2+z
-x,1/2-y,1/2+z
1/2-x,1/2+y,1/2+z
1/2+x,1/2-y,1/2+z
loop_
_atom_site_type_symbol
_atom_site_label
_atom_site_fract_x
_atom_site_fract_y
_atom_site_fract_z
Si Si1 0.569510 0.923544 0.436620
Si Si2 0.925347 0.841999 0.837346
Si Si3 0.068205 0.423219 0.428593
Si Si4 0.067359 0.655711 0.037975
Si Si5 0.072301 0.074846 0.736744
Si Si6 0.917379 0.288088 0.879609
Si Si7 0.083675 0.792217 0.985861
Si Si8 0.930638 0.076781 0.630582
O O1 0.750000 0.928288 0.435526
O O2 0.516037 0.898074 0.492777
O O3 0.515123 0.867208 0.392656
O O4 0.500000 0.000000 0.423184
O O5 0.750000 0.849831 0.852681
O O6 0.954460 0.864876 0.779269
O O7 0.019723 0.895778 0.873023
O O8 0.974368 0.758593 0.842770
O O9 0.250000 0.426076 0.429674
O O10 0.002959 0.368386 0.472541
O O11 0.000000 0.500000 0.441090
O O12 0.250000 0.655512 0.043588
O O13 0.986133 0.634568 0.089855
O O14 0.004566 0.736750 0.025181
O O15 0.250000 0.062202 0.725404
O O16 0.990036 0.102021 0.685617
O O17 0.000000 0.000000 0.755428
O O18 0.750000 0.294209 0.853920
O O19 0.898625 0.248632 0.932888
O O20 0.250000 0.809857 0.008136
O O21 0.750000 0.071450 0.630555
O O22 0.000000 0.000000 0.615778
#
# Coordination Sequence:
#
# PCOD8182480 Si02
#       8
#     8   8   8   8   8   8   8   8
#     4   9  17  27  41  61  84 112 142 170 202 241
#     4  10  19  29  43  62  81 106 140 173 206 243
#     4  10  18  28  42  61  85 112 140 168 201 240
#     4   9  16  29  45  59  79 108 140 170 202 239
#     4  10  20  32  44  59  80 106 137 171 205 240
#     4   8  15  28  42  57  80 109 138 167 202 242
#     4   7  13  26  42  57  77 107 137 164 196 237
#     4  11  21  31  43  60  81 106 137 171 206 240
#
# _framework density 14.901567999999999
#
# number of rings (size 3 to 8) (size 9 to 14) (size 15 to 20)
#    0.000    2.750    0.000    6.000    0.000    5.000 
#    0.000    5.625    0.000    0.000    0.000    0.000 
#    0.000    1.000    0.000    9.000    0.000    5.375 
#
# Total GULP energy -396494.804367 kJ/mol
# GULP energy per Si atom -12390.462636 kJ/mol
# Density = 1.486765 g / cm^3
# Si number density = 14.901568 Si / 1000 Ang^3
#
#
#
# Elastic Constant Matrix: (Units=GPa)
#
#
# Indices 1 2 3 4 5 6 
#
# 1 70.2684 40.7156 36.7895 0.0000 0.0000 0.0000
# 2 40.7156 127.8072 57.5826 0.0000 0.0000 0.0000
# 3 36.7895 57.5826 75.4420 0.0000 0.0000 0.0000
# 4 0.0000 0.0000 0.0000 25.9388 0.0000 0.0000
# 5 0.0000 0.0000 0.0000 0.0000 17.7093 0.0000
# 6 0.0000 0.0000 0.0000 0.0000 0.0000 19.9808
#
#
#
# Elastic Compliance Matrix: (Units=1/GPa)
#
#
# Indices 1 2 3 4 5 6 
#
# 1 0.019832 -0.002988 -0.007390 0.000000 0.000000 0.000000
# 2 -0.002988 0.012375 -0.007989 0.000000 0.000000 0.000000
# 3 -0.007390 -0.007989 0.022957 0.000000 0.000000 0.000000
# 4 0.000000 0.000000 0.000000 0.038552 0.000000 0.000000
# 5 0.000000 0.000000 0.000000 0.000000 0.056467 0.000000
# 6 0.000000 0.000000 0.000000 0.000000 0.000000 0.050048
#
#
# Mechanical properties :
#
#
# Convention : Reuss Voigt Hill
#
# Bulk Modulus (GPa) = 54.26014 60.41031 57.33523
# Shear Modulus (GPa) = 20.56693 21.95445 21.26069
#
# Velocity S-wave (km/s) = 3.71912 3.84252 3.78132
# Velocity P-wave (km/s) = 7.41174 7.76622 7.59105
#
# Compressibility (1/GPa) = 0.01842973
#
# Stress axis : x y z
#
# Youngs Moduli (GPa) = 50.42404 80.80521 43.56060
#
# Poissons Ratio (x) = 0.24146 0.32192
# Poissons Ratio (y) = 0.15068 0.34799
# Poissons Ratio (z) = 0.37264 0.64552
#
# Static dielectric constant tensor:
#      x y z
#    x 2.871570 0.000000 0.000000 
#    y 0.000000 3.298150 0.000000 
#    z 0.000000 0.000000 2.725790 
# 
# 
# High freq. dielectric constant tensor:
#      x y z
#    x 1.568730 0.000000 0.000000 
#    y 0.000000 1.565600 0.000000 
#    z 0.000000 0.000000 1.535530 
# 
# From -- ./inp_files/25538.got.cif
#   From: 2010.03.12/outbox.cif.g09.slc.cpg/sg40_13_cif.got.tgz:25538.got - 2010.04.14 01:38:03.
