data_PCOD8182573
_publ_section_title
;
Structure prediction by ZEFSAII (Michael W. Deem and Ramdas Pophale) SiO2 
 PCOD8182573
Probable space group: A M A 2
;
_chemical_formula_sum "Si O2"
_cell_formula_units_Z 64
_cell_length_a 9.072488
_cell_length_b 20.750952
_cell_length_c 19.615166
_cell_angle_alpha 90.000000
_cell_angle_beta 90.000000
_cell_angle_gamma 90.000000
_cell_volume 3692.805348
_symmetry_space_group_name_H-M "A M A 2"
_symmetry_group_IT_number 40
_symmetry_cell_setting 'orthorhombic'
loop_
_space_group_symop_operation_xyz
x,y,z
-x,-y,z
1/2-x,y,z
1/2+x,-y,z
x,1/2+y,1/2+z
-x,1/2-y,1/2+z
1/2-x,1/2+y,1/2+z
1/2+x,1/2-y,1/2+z
loop_
_atom_site_type_symbol
_atom_site_label
_atom_site_fract_x
_atom_site_fract_y
_atom_site_fract_z
Si Si1 0.921563 0.768221 0.939570
Si Si2 0.077232 0.682836 0.585968
Si Si3 0.078418 0.376037 0.946609
Si Si4 0.922214 0.689870 0.160827
Si Si5 0.576872 0.066137 0.158317
Si Si6 0.922383 0.735740 0.305983
Si Si7 0.574738 0.564933 0.083045
Si Si8 0.079186 0.869742 0.297077
O O1 0.750000 0.764883 0.921424
O O2 0.985178 0.696440 0.953285
O O3 0.003909 0.796159 0.872829
O O4 0.951264 0.812384 0.004982
O O5 0.250000 0.672904 0.602259
O O6 0.013415 0.746724 0.623133
O O7 0.985773 0.622045 0.610939
O O8 0.250000 0.371026 0.961889
O O9 0.044305 0.403016 0.870559
O O10 0.014792 0.422043 0.005720
O O11 0.750000 0.691496 0.145576
O O12 0.958064 0.690482 0.241214
O O13 0.985230 0.623864 0.129360
O O14 0.750000 0.059973 0.145713
O O15 0.539568 0.080458 0.237508
O O16 0.500000 0.000000 0.137102
O O17 0.750000 0.741939 0.318738
O O18 0.983014 0.806177 0.288112
O O19 0.500000 0.500000 0.110276
O O20 0.750000 0.557050 0.087751
O O21 0.250000 0.848852 0.293901
#
# Coordination Sequence:
#
# PCOD8182573 Si02
#       8
#     8   8   8   8   8   8   8   8
#     4   9  17  31  53  77 101 133 170 209 257 315
#     4  10  18  34  58  78  98 134 178 217 260 315
#     4   8  14  28  49  69  96 134 170 200 239 297
#     4   9  17  31  53  76  99 134 173 208 256 309
#     4  11  23  36  51  75 108 142 175 218 262 313
#     4  10  18  29  50  78 105 131 166 216 261 304
#     4  10  19  33  50  71 100 135 173 209 248 298
#     4   9  18  32  49  72 102 139 175 207 249 301
#
# _framework density 17.330995999999999
#
# number of rings (size 3 to 8) (size 9 to 14) (size 15 to 20)
#    0.000    2.500    2.500    1.500    0.000    1.500 
#    0.000    4.375    0.000    0.750    0.000    3.500 
#    0.000    0.000    0.000    0.000    0.000    0.000 
#
# Total GULP energy -396668.858626 kJ/mol
# GULP energy per Si atom -12395.901832 kJ/mol
# Density = 1.729155 g / cm^3
# Si number density = 17.330996 Si / 1000 Ang^3
#
#
#
# Elastic Constant Matrix: (Units=GPa)
#
#
# Indices 1 2 3 4 5 6 
#
# 1 56.6577 40.0926 45.6469 0.0000 0.0000 0.0000
# 2 40.0926 118.0865 63.8439 0.0000 0.0000 0.0000
# 3 45.6469 63.8439 109.1871 0.0000 0.0000 0.0000
# 4 0.0000 0.0000 0.0000 22.4547 0.0000 0.0000
# 5 0.0000 0.0000 0.0000 0.0000 24.7761 0.0000
# 6 0.0000 0.0000 0.0000 0.0000 0.0000 24.1587
#
#
#
# Elastic Compliance Matrix: (Units=1/GPa)
#
#
# Indices 1 2 3 4 5 6 
#
# 1 0.028288 -0.004695 -0.009081 0.000000 0.000000 0.000000
# 2 -0.004695 0.013162 -0.005734 0.000000 0.000000 0.000000
# 3 -0.009081 -0.005734 0.016308 0.000000 0.000000 0.000000
# 4 0.000000 0.000000 0.000000 0.044534 0.000000 0.000000
# 5 0.000000 0.000000 0.000000 0.000000 0.040362 0.000000
# 6 0.000000 0.000000 0.000000 0.000000 0.000000 0.041393
#
#
# Mechanical properties :
#
#
# Convention : Reuss Voigt Hill
#
# Bulk Modulus (GPa) = 53.36375 64.78868 59.07621
# Shear Modulus (GPa) = 21.80440 23.23443 22.51942
#
# Velocity S-wave (km/s) = 3.55084 3.66543 3.60859
# Velocity P-wave (km/s) = 6.90428 7.44165 7.17799
#
# Compressibility (1/GPa) = 0.01873931
#
# Stress axis : x y z
#
# Youngs Moduli (GPa) = 35.35037 75.97546 61.32119
#
# Poissons Ratio (x) = 0.35668 0.55687
# Poissons Ratio (y) = 0.16596 0.35159
# Poissons Ratio (z) = 0.32102 0.43561
#
# Static dielectric constant tensor:
#      x y z
#    x 2.997200 0.000000 0.000000 
#    y 0.000000 3.023370 0.000000 
#    z 0.000000 0.000000 3.474940 
# 
# 
# High freq. dielectric constant tensor:
#      x y z
#    x 1.646790 0.000000 0.000000 
#    y 0.000000 1.641630 0.000000 
#    z 0.000000 0.000000 1.679190 
# 
# From -- ./inp_files/22366.got.cif
#   From: 2010.03.12/outbox.cif.g09.slc.cpg/sg40_12_cif.got.tgz:22366.got - 2010.04.14 01:38:03.
