data_PCOD8182320
_publ_section_title
;
Structure prediction by ZEFSAII (Michael W. Deem and Ramdas Pophale) SiO2 
 PCOD8182320
Probable space group: A B M 2
;
_chemical_formula_sum "Si O2"
_cell_formula_units_Z 24
_cell_length_a 7.828368
_cell_length_b 17.187736
_cell_length_c 7.321439
_cell_angle_alpha 90.000000
_cell_angle_beta 90.000000
_cell_angle_gamma 90.000000
_cell_volume 985.113693
_symmetry_space_group_name_H-M "A B M 2"
_symmetry_group_IT_number 39
_symmetry_cell_setting 'orthorhombic'
loop_
_space_group_symop_operation_xyz
x,y,z
-x,-y,z
-x,1/2+y,z
x,1/2-y,z
x,1/2+y,1/2+z
-x,1/2-y,1/2+z
-x,y,1/2+z
x,-y,1/2+z
loop_
_atom_site_type_symbol
_atom_site_label
_atom_site_fract_x
_atom_site_fract_y
_atom_site_fract_z
Si Si1 0.335578 0.093030 0.834070
Si Si2 0.829661 0.550427 0.194328
Si Si3 0.307208 0.339299 0.462582
O O1 0.274885 0.154609 0.679558
O O2 0.518347 0.117332 0.909750
O O3 0.329354 0.007481 0.739794
O O4 0.203016 0.093184 0.002411
O O5 0.842787 0.616303 0.351818
O O6 0.000000 0.500000 0.185524
O O7 0.313152 0.250000 0.401449
#
# Coordination Sequence:
#
# PCOD8182320 Si02
#       3
#     8   8   8
#     4  12  25  44  79 112 149 204 263 316 376 462
#     4  12  27  47  79 113 154 208 262 315 383 468
#     4  12  27  47  77 117 157 200 258 328 388 452
#
# _framework density 24.362673000000001
#
# number of rings (size 3 to 8) (size 9 to 14) (size 15 to 20)
#    0.000    0.000    6.667    3.000    0.000    2.667 
#    0.000    3.333    0.000    0.000    0.000    0.000 
#    0.000    0.000    0.000    0.000    0.000    0.000 
#
# Total GULP energy -148774.142887 kJ/mol
# GULP energy per Si atom -12397.845241 kJ/mol
# Density = 2.430722 g / cm^3
# Si number density = 24.362673 Si / 1000 Ang^3
#
#
#
# Elastic Constant Matrix: (Units=GPa)
#
#
# Indices 1 2 3 4 5 6 
#
# 1 100.0177 68.3855 57.3427 0.0000 0.0000 0.0000
# 2 68.3855 158.7408 47.7194 0.0000 0.0000 0.0000
# 3 57.3427 47.7194 188.8245 0.0000 0.0000 0.0000
# 4 0.0000 0.0000 0.0000 42.5583 0.0000 0.0000
# 5 0.0000 0.0000 0.0000 0.0000 26.9404 0.0000
# 6 0.0000 0.0000 0.0000 0.0000 0.0000 21.8053
#
#
#
# Elastic Compliance Matrix: (Units=1/GPa)
#
#
# Indices 1 2 3 4 5 6 
#
# 1 0.015923 -0.005850 -0.003357 0.000000 0.000000 0.000000
# 2 -0.005850 0.008967 -0.000489 0.000000 0.000000 0.000000
# 3 -0.003357 -0.000489 0.006439 0.000000 0.000000 0.000000
# 4 0.000000 0.000000 0.000000 0.023497 0.000000 0.000000
# 5 0.000000 0.000000 0.000000 0.000000 0.037119 0.000000
# 6 0.000000 0.000000 0.000000 0.000000 0.000000 0.045860
#
#
# Mechanical properties :
#
#
# Convention : Reuss Voigt Hill
#
# Bulk Modulus (GPa) = 83.78505 88.27536 86.03021
# Shear Modulus (GPa) = 31.02156 36.53649 33.77902
#
# Velocity S-wave (km/s) = 3.57224 3.87679 3.72762
# Velocity P-wave (km/s) = 7.17495 7.50678 7.34274
#
# Compressibility (1/GPa) = 0.01193530
#
# Stress axis : x y z
#
# Youngs Moduli (GPa) = 62.80196 111.51876 155.30140
#
# Poissons Ratio (x) = 0.65244 0.52135
# Poissons Ratio (y) = 0.36742 0.07601
# Poissons Ratio (z) = 0.21083 0.05458
#
# Static dielectric constant tensor:
#      x y z
#    x 4.182250 0.000000 0.000000 
#    y 0.000000 4.318540 0.000000 
#    z 0.000000 0.000000 5.178170 
# 
# 
# High freq. dielectric constant tensor:
#      x y z
#    x 1.951900 0.000000 0.000000 
#    y 0.000000 1.949590 0.000000 
#    z 0.000000 0.000000 1.996060 
# 
# From -- ./inp_files/1875.got.cif
#   From: 2010.03.12/outbox.cif.g09.slc.cpg/sg39_1_cif.got.tgz:1875.got - 2010.04.14 02:53:20.
