data_PCOD8182335
_publ_section_title
;
Structure prediction by ZEFSAII (Michael W. Deem and Ramdas Pophale) SiO2 
 PCOD8182335
Probable space group: A M A 2
;
_chemical_formula_sum "Si O2"
_cell_formula_units_Z 64
_cell_length_a 9.089713
_cell_length_b 23.348961
_cell_length_c 19.204684
_cell_angle_alpha 90.000000
_cell_angle_beta 90.000000
_cell_angle_gamma 90.000000
_cell_volume 4075.912914
_symmetry_space_group_name_H-M "A M A 2"
_symmetry_group_IT_number 40
_symmetry_cell_setting 'orthorhombic'
loop_
_space_group_symop_operation_xyz
x,y,z
-x,-y,z
1/2-x,y,z
1/2+x,-y,z
x,1/2+y,1/2+z
-x,1/2-y,1/2+z
1/2-x,1/2+y,1/2+z
1/2+x,1/2-y,1/2+z
loop_
_atom_site_type_symbol
_atom_site_label
_atom_site_fract_x
_atom_site_fract_y
_atom_site_fract_z
Si Si1 0.575618 0.164974 0.010110
Si Si2 0.575208 0.560203 0.137978
Si Si3 0.075796 0.753758 0.778632
Si Si4 0.924514 0.559394 0.423081
Si Si5 0.424272 0.383445 0.281235
Si Si6 0.578826 0.843207 0.557160
Si Si7 0.924102 0.772622 0.428894
Si Si8 0.920321 0.228582 0.142550
O O1 0.750000 0.169230 0.004926
O O2 0.527710 0.178223 0.089611
O O3 0.523504 0.102840 0.984021
O O4 0.508206 0.213669 0.959433
O O5 0.500000 0.500000 0.122856
O O6 0.750000 0.553810 0.134751
O O7 0.520533 0.583087 0.212967
O O8 0.522628 0.603929 0.078659
O O9 0.250000 0.753953 0.771331
O O10 0.013819 0.818763 0.780495
O O11 0.023844 0.720589 0.848873
O O12 0.010291 0.720197 0.713200
O O13 0.750000 0.551424 0.421849
O O14 0.982840 0.583110 0.349006
O O15 0.000000 0.500000 0.440715
O O16 0.250000 0.380575 0.283592
O O17 0.750000 0.860866 0.560690
O O18 0.531101 0.826029 0.478131
O O19 0.547023 0.789952 0.607948
O O20 0.750000 0.766454 0.431294
O O21 0.750000 0.222443 0.160790
#
# Coordination Sequence:
#
# PCOD8182335 Si02
#       8
#     8   8   8   8   8   8   8   8
#     4   8  14  27  45  62  84 118 152 180 216 265
#     4  11  21  32  45  64  90 124 157 187 220 259
#     4  10  16  27  47  69  90 118 150 180 218 266
#     4  10  18  30  46  63  86 120 157 188 215 252
#     4   9  17  28  43  63  90 121 153 181 211 254
#     4   9  17  30  46  66  88 114 149 190 227 264
#     4   8  14  26  47  67  85 113 151 185 218 266
#     4   9  17  28  44  66  90 115 146 184 226 268
#
# _framework density 15.702004000000001
#
# number of rings (size 3 to 8) (size 9 to 14) (size 15 to 20)
#    0.000    2.750    2.500    2.250    0.000    0.000 
#    0.000    2.500    0.000    1.500    0.000    0.875 
#    0.000    4.000    0.000    0.000    0.000    0.000 
#
# Total GULP energy -396630.652755 kJ/mol
# GULP energy per Si atom -12394.707899 kJ/mol
# Density = 1.566627 g / cm^3
# Si number density = 15.702004 Si / 1000 Ang^3
#
#
#
# Elastic Constant Matrix: (Units=GPa)
#
#
# Indices 1 2 3 4 5 6 
#
# 1 33.0876 29.8102 35.6149 0.0000 0.0000 0.0000
# 2 29.8102 98.6010 73.5674 0.0000 0.0000 0.0000
# 3 35.6149 73.5674 142.4002 0.0000 0.0000 0.0000
# 4 0.0000 0.0000 0.0000 25.1592 0.0000 0.0000
# 5 0.0000 0.0000 0.0000 0.0000 21.5552 0.0000
# 6 0.0000 0.0000 0.0000 0.0000 0.0000 19.2954
#
#
#
# Elastic Compliance Matrix: (Units=1/GPa)
#
#
# Indices 1 2 3 4 5 6 
#
# 1 0.045390 -0.008547 -0.006936 0.000000 0.000000 0.000000
# 2 -0.008547 0.018113 -0.007220 0.000000 0.000000 0.000000
# 3 -0.006936 -0.007220 0.012487 0.000000 0.000000 0.000000
# 4 0.000000 0.000000 0.000000 0.039747 0.000000 0.000000
# 5 0.000000 0.000000 0.000000 0.000000 0.046393 0.000000
# 6 0.000000 0.000000 0.000000 0.000000 0.000000 0.051826
#
#
# Mechanical properties :
#
#
# Convention : Reuss Voigt Hill
#
# Bulk Modulus (GPa) = 32.69830 61.34152 47.01991
# Shear Modulus (GPa) = 18.54900 22.20839 20.37870
#
# Velocity S-wave (km/s) = 3.44075 3.76489 3.60646
# Velocity P-wave (km/s) = 6.05430 7.61906 6.88130
#
# Compressibility (1/GPa) = 0.03058263
#
# Stress axis : x y z
#
# Youngs Moduli (GPa) = 22.03140 55.20952 80.08217
#
# Poissons Ratio (x) = 0.47190 0.55548
# Poissons Ratio (y) = 0.18831 0.57818
# Poissons Ratio (z) = 0.15282 0.39860
#
# Static dielectric constant tensor:
#      x y z
#    x 2.637160 0.000000 0.000000 
#    y 0.000000 2.915680 0.000000 
#    z 0.000000 0.000000 3.237500 
# 
# 
# High freq. dielectric constant tensor:
#      x y z
#    x 1.570480 0.000000 0.000000 
#    y 0.000000 1.579790 0.000000 
#    z 0.000000 0.000000 1.604250 
# 
# From -- ./inp_files/20204.got.cif
#   From: 2010.03.12/outbox.cif.g09.slc.cpg/sg40_11_cif.got.tgz:20204.got - 2010.04.14 01:38:03.
