data_PCOD8182733
_publ_section_title
;
Structure prediction by ZEFSAII (Michael W. Deem and Ramdas Pophale) SiO2 
 PCOD8182733
Probable space group: A M A 2
;
_chemical_formula_sum "Si O2"
_cell_formula_units_Z 64
_cell_length_a 8.883502
_cell_length_b 29.981687
_cell_length_c 14.334897
_cell_angle_alpha 90.000000
_cell_angle_beta 90.000000
_cell_angle_gamma 90.000000
_cell_volume 3817.990533
_symmetry_space_group_name_H-M "A M A 2"
_symmetry_group_IT_number 40
_symmetry_cell_setting 'orthorhombic'
loop_
_space_group_symop_operation_xyz
x,y,z
-x,-y,z
1/2-x,y,z
1/2+x,-y,z
x,1/2+y,1/2+z
-x,1/2-y,1/2+z
1/2-x,1/2+y,1/2+z
1/2+x,1/2-y,1/2+z
loop_
_atom_site_type_symbol
_atom_site_label
_atom_site_fract_x
_atom_site_fract_y
_atom_site_fract_z
Si Si1 0.578742 0.369043 0.602150
Si Si2 0.074055 0.726395 0.925385
Si Si3 0.073751 0.454112 0.544220
Si Si4 0.918561 0.815433 0.920963
Si Si5 0.928546 0.196096 0.605777
Si Si6 0.074303 0.629887 0.239283
Si Si7 0.572402 0.546181 0.329529
Si Si8 0.928696 0.284250 0.713865
O O1 0.750000 0.379177 0.631896
O O2 0.483734 0.414382 0.611317
O O3 0.568725 0.354918 0.494701
O O4 0.509469 0.329516 0.666064
O O5 0.250000 0.717045 0.937800
O O6 0.017577 0.715294 0.820904
O O7 0.040346 0.778104 0.945584
O O8 0.981063 0.696820 0.998363
O O9 0.250000 0.458887 0.556079
O O10 0.027932 0.444272 0.437001
O O11 0.000000 0.500000 0.578776
O O12 0.750000 0.794572 0.924470
O O13 0.956634 0.834937 0.820780
O O14 0.750000 0.192485 0.612180
O O15 0.989474 0.240376 0.659802
O O16 0.001794 0.151505 0.647649
O O17 0.250000 0.620671 0.224099
O O18 0.992993 0.583811 0.262149
O O19 0.500000 0.500000 0.296269
O O20 0.750000 0.543747 0.316817
O O21 0.750000 0.283475 0.705706
#
# Coordination Sequence:
#
# PCOD8182733 Si02
#       8
#     8   8   8   8   8   8   8   8
#     4  10  18  33  51  70  98 137 173 207 252 301
#     4  11  21  34  50  72 100 134 175 216 253 297
#     4  10  20  32  48  73 102 133 168 207 252 302
#     4  10  19  30  48  72 102 136 171 208 252 297
#     4  11  21  36  52  72 101 137 174 211 256 304
#     4  11  21  33  50  76 104 136 175 213 253 303
#     4  10  20  33  50  73 103 137 170 209 256 305
#     4   9  19  33  50  70  98 134 171 207 252 302
#
# _framework density 16.762744999999999
#
# number of rings (size 3 to 8) (size 9 to 14) (size 15 to 20)
#    0.000    1.750    3.750    1.875    0.000    2.000 
#    0.000    1.250    0.000    0.000    0.000    0.875 
#    0.000    2.000    0.000    0.000    0.000    0.000 
#
# Total GULP energy -396838.426714 kJ/mol
# GULP energy per Si atom -12401.200835 kJ/mol
# Density = 1.672459 g / cm^3
# Si number density = 16.762745 Si / 1000 Ang^3
#
#
#
# Elastic Constant Matrix: (Units=GPa)
#
#
# Indices 1 2 3 4 5 6 
#
# 1 63.4437 41.2640 22.7434 0.0000 0.0000 0.0000
# 2 41.2640 110.8251 29.0239 0.0000 0.0000 0.0000
# 3 22.7434 29.0239 69.3735 0.0000 0.0000 0.0000
# 4 0.0000 0.0000 0.0000 21.3455 0.0000 0.0000
# 5 0.0000 0.0000 0.0000 0.0000 21.9127 0.0000
# 6 0.0000 0.0000 0.0000 0.0000 0.0000 31.4503
#
#
#
# Elastic Compliance Matrix: (Units=1/GPa)
#
#
# Indices 1 2 3 4 5 6 
#
# 1 0.021847 -0.007029 -0.004222 0.000000 0.000000 0.000000
# 2 -0.007029 0.012395 -0.002881 0.000000 0.000000 0.000000
# 3 -0.004222 -0.002881 0.017004 0.000000 0.000000 0.000000
# 4 0.000000 0.000000 0.000000 0.046848 0.000000 0.000000
# 5 0.000000 0.000000 0.000000 0.000000 0.045636 0.000000
# 6 0.000000 0.000000 0.000000 0.000000 0.000000 0.031796
#
#
# Mechanical properties :
#
#
# Convention : Reuss Voigt Hill
#
# Bulk Modulus (GPa) = 43.51139 47.74498 45.62819
# Shear Modulus (GPa) = 23.64619 24.98243 24.31431
#
# Velocity S-wave (km/s) = 3.75992 3.86470 3.81267
# Velocity P-wave (km/s) = 6.69798 6.96126 6.83089
#
# Compressibility (1/GPa) = 0.02298249
#
# Stress axis : x y z
#
# Youngs Moduli (GPa) = 45.77302 80.67849 58.80892
#
# Poissons Ratio (x) = 0.56707 0.24827
# Poissons Ratio (y) = 0.32173 0.16945
# Poissons Ratio (z) = 0.19324 0.23246
#
# Static dielectric constant tensor:
#      x y z
#    x 3.097480 0.000000 0.000000 
#    y 0.000000 3.135850 0.000000 
#    z 0.000000 0.000000 3.063210 
# 
# 
# High freq. dielectric constant tensor:
#      x y z
#    x 1.646200 0.000000 0.000000 
#    y 0.000000 1.636990 0.000000 
#    z 0.000000 0.000000 1.619840 
# 
# From -- ./inp_files/10588.got.cif
#   From: 2010.03.12/outbox.cif.g09.slc.cpg/sg40_6_cif.got.tgz:10588.got - 2010.04.14 01:38:03.
