data_PCOD8182842
_publ_section_title
;
Structure prediction by ZEFSAII (Michael W. Deem and Ramdas Pophale) SiO2 
 PCOD8182842
Probable space group: A M A 2
;
_chemical_formula_sum "Si O2"
_cell_formula_units_Z 64
_cell_length_a 8.872201
_cell_length_b 18.456595
_cell_length_c 26.625029
_cell_angle_alpha 90.000000
_cell_angle_beta 90.000000
_cell_angle_gamma 90.000000
_cell_volume 4359.865023
_symmetry_space_group_name_H-M "A M A 2"
_symmetry_group_IT_number 40
_symmetry_cell_setting 'orthorhombic'
loop_
_space_group_symop_operation_xyz
x,y,z
-x,-y,z
1/2-x,y,z
1/2+x,-y,z
x,1/2+y,1/2+z
-x,1/2-y,1/2+z
1/2-x,1/2+y,1/2+z
1/2+x,1/2-y,1/2+z
loop_
_atom_site_type_symbol
_atom_site_label
_atom_site_fract_x
_atom_site_fract_y
_atom_site_fract_z
Si Si1 0.573961 0.925960 0.302480
Si Si2 0.930158 0.343849 0.705851
Si Si3 0.085591 0.793330 0.656843
Si Si4 0.569963 0.577441 0.097516
Si Si5 0.427891 0.076150 0.415603
Si Si6 0.415871 0.699008 0.557620
Si Si7 0.428426 0.923439 0.113344
Si Si8 0.071893 0.335979 0.000200
O O1 0.750000 0.939463 0.301131
O O2 0.526394 0.864080 0.262816
O O3 0.522203 0.904531 0.358573
O O4 0.500000 0.000000 0.284304
O O5 0.750000 0.346322 0.696432
O O6 0.994472 0.261569 0.696412
O O7 0.006277 0.399155 0.667110
O O8 0.250000 0.812332 0.678741
O O9 0.005408 0.869353 0.642154
O O10 0.102729 0.749358 0.605626
O O11 0.500000 0.500000 0.107152
O O12 0.750000 0.574300 0.100331
O O13 0.518756 0.608451 0.043697
O O14 0.250000 0.068981 0.421218
O O15 0.487456 0.141621 0.449484
O O16 0.500000 0.000000 0.432598
O O17 0.250000 0.667341 0.543970
O O18 0.529969 0.633317 0.568913
O O19 0.474466 0.752710 0.513274
O O20 0.250000 0.930249 0.117208
O O21 0.500000 0.000000 0.098508
O O22 0.250000 0.341394 0.992200
#
# Coordination Sequence:
#
# PCOD8182842 Si02
#       8
#     8   8   8   8   8   8   8   8
#     4   9  18  29  41  57  77 103 134 169 204 237
#     4   9  16  29  45  57  74 104 139 170 203 240
#     4   7  12  24  40  54  71  97 126 157 192 231
#     4   9  16  25  37  55  77 101 129 157 187 226
#     4  10  19  29  40  57  81 106 135 170 204 238
#     4   8  15  29  44  57  76 102 132 164 197 236
#     4  11  20  28  40  60  84 108 135 164 197 236
#     4   9  17  29  44  59  77 105 137 165 198 238
#
# _framework density 14.679354
#
# number of rings (size 3 to 8) (size 9 to 14) (size 15 to 20)
#    0.000    3.000    0.000    4.500    0.000    4.000 
#    0.000    5.000    0.000    0.000    0.000    0.000 
#    0.000    1.000    0.000    7.500    0.000    1.375 
#
# Total GULP energy -396448.757644 kJ/mol
# GULP energy per Si atom -12389.023676 kJ/mol
# Density = 1.464594 g / cm^3
# Si number density = 14.679354 Si / 1000 Ang^3
#
#
#
# Elastic Constant Matrix: (Units=GPa)
#
#
# Indices 1 2 3 4 5 6 
#
# 1 46.4888 33.5859 25.3100 0.0000 0.0000 0.0000
# 2 33.5859 106.6854 55.3289 0.0000 0.0000 0.0000
# 3 25.3100 55.3289 80.7884 0.0000 0.0000 0.0000
# 4 0.0000 0.0000 0.0000 24.8502 0.0000 0.0000
# 5 0.0000 0.0000 0.0000 0.0000 -0.6944 0.0000
# 6 0.0000 0.0000 0.0000 0.0000 0.0000 21.1665
#
#
#
# Elastic Compliance Matrix: (Units=1/GPa)
#
#
# Indices 1 2 3 4 5 6 
#
# 1 0.028802 -0.006804 -0.004363 0.000000 0.000000 0.000000
# 2 -0.006804 0.016144 -0.008925 0.000000 0.000000 0.000000
# 3 -0.004363 -0.008925 0.019857 0.000000 0.000000 0.000000
# 4 0.000000 0.000000 0.000000 0.040241 0.000000 0.000000
# 5 0.000000 0.000000 0.000000 0.000000 -1.440129 0.000000
# 6 0.000000 0.000000 0.000000 0.000000 0.000000 0.047245
#
#
# Mechanical properties :
#
#
# Convention : Reuss Voigt Hill
#
# Bulk Modulus (GPa) = 40.61994 51.37915 45.99954
# Shear Modulus (GPa) = -4.03405 17.04696 6.50646
#
# Velocity S-wave (km/s) = -1.65954 3.41146 2.10761
# Velocity P-wave (km/s) = 4.90504 7.11297 6.10958
#
# Compressibility (1/GPa) = 0.02461845
#
# Stress axis : x y z
#
# Youngs Moduli (GPa) = 34.71996 61.94282 50.35979
#
# Poissons Ratio (x) = 0.42148 0.21973
# Poissons Ratio (y) = 0.23625 0.44944
# Poissons Ratio (z) = 0.15149 0.55282
#
# Static dielectric constant tensor:
#      x y z
#    x 2.737680 0.000000 0.000000 
#    y 0.000000 3.143420 0.000000 
#    z 0.000000 0.000000 2.883580 
# 
# 
# High freq. dielectric constant tensor:
#      x y z
#    x 1.551290 0.000000 0.000000 
#    y 0.000000 1.553790 0.000000 
#    z 0.000000 0.000000 1.531460 
# 
# From -- ./inp_files/24436.got.cif
#   From: 2010.03.12/outbox.cif.g09.slc.cpg/sg40_13_cif.got.tgz:24436.got - 2010.04.14 01:38:03.
