data_PCOD8182636
_publ_section_title
;
Structure prediction by ZEFSAII (Michael W. Deem and Ramdas Pophale) SiO2 
 PCOD8182636
Probable space group: A M A 2
;
_chemical_formula_sum "Si O2"
_cell_formula_units_Z 40
_cell_length_a 8.356309
_cell_length_b 25.910426
_cell_length_c 9.716041
_cell_angle_alpha 90.000000
_cell_angle_beta 90.000000
_cell_angle_gamma 90.000000
_cell_volume 2103.673728
_symmetry_space_group_name_H-M "A M A 2"
_symmetry_group_IT_number 40
_symmetry_cell_setting 'orthorhombic'
loop_
_space_group_symop_operation_xyz
x,y,z
-x,-y,z
1/2-x,y,z
1/2+x,-y,z
x,1/2+y,1/2+z
-x,1/2-y,1/2+z
1/2-x,1/2+y,1/2+z
1/2+x,1/2-y,1/2+z
loop_
_atom_site_type_symbol
_atom_site_label
_atom_site_fract_x
_atom_site_fract_y
_atom_site_fract_z
Si Si1 0.936735 0.132533 0.250000
Si Si2 0.437172 0.714983 0.552953
Si Si3 0.563189 0.139821 0.837095
Si Si4 0.435941 0.557127 0.533017
Si Si5 0.061355 0.831004 0.538852
O O1 0.750000 0.118421 0.245042
O O2 0.003389 0.137916 0.405978
O O3 0.965015 0.186680 0.173238
O O4 0.033610 0.086962 0.175813
O O5 0.250000 0.713914 0.589901
O O6 0.465006 0.685674 0.409029
O O7 0.506796 0.772783 0.542730
O O8 0.750000 0.152211 0.852903
O O9 0.512382 0.138227 0.676750
O O10 0.525011 0.084916 0.906114
O O11 0.500000 0.500000 0.548533
O O12 0.250000 0.556731 0.499408
O O13 0.250000 0.826409 0.521924
#
# Coordination Sequence:
#
# PCOD8182636 Si02
#       5
#     8   8   8   8   8
#     4  10  19  34  53  77 105 138 174 213 254 300
#     4  10  18  31  49  75 108 145 180 211 244 295
#     4  10  19  34  53  77 105 138 174 213 254 300
#     4  11  22  39  59  79  98 127 168 213 259 312
#     4   9  19  32  50  76 110 142 173 210 253 297
#
# _framework density 19.014354999999998
#
# number of rings (size 3 to 8) (size 9 to 14) (size 15 to 20)
#    0.000    2.000    0.000    7.200    0.000    0.000 
#    0.000   11.000    0.000    0.000    0.000    0.000 
#    0.000    0.000    0.000    0.000    0.000    0.000 
#
# Total GULP energy -248014.293757 kJ/mol
# GULP energy per Si atom -12400.714688 kJ/mol
# Density = 1.897108 g / cm^3
# Si number density = 19.014355 Si / 1000 Ang^3
#
#
#
# Elastic Constant Matrix: (Units=GPa)
#
#
# Indices 1 2 3 4 5 6 
#
# 1 44.5938 4.8830 6.5688 0.0000 0.0000 0.0000
# 2 4.8830 124.2246 59.8708 0.0000 0.0000 0.0000
# 3 6.5688 59.8708 163.7031 0.0000 0.0000 0.0000
# 4 0.0000 0.0000 0.0000 22.1098 0.0000 0.0000
# 5 0.0000 0.0000 0.0000 0.0000 20.4851 0.0000
# 6 0.0000 0.0000 0.0000 0.0000 0.0000 27.9324
#
#
#
# Elastic Compliance Matrix: (Units=1/GPa)
#
#
# Indices 1 2 3 4 5 6 
#
# 1 0.022589 -0.000548 -0.000706 0.000000 0.000000 0.000000
# 2 -0.000548 0.009786 -0.003557 0.000000 0.000000 0.000000
# 3 -0.000706 -0.003557 0.007438 0.000000 0.000000 0.000000
# 4 0.000000 0.000000 0.000000 0.045229 0.000000 0.000000
# 5 0.000000 0.000000 0.000000 0.000000 0.048816 0.000000
# 6 0.000000 0.000000 0.000000 0.000000 0.000000 0.035801
#
#
# Mechanical properties :
#
#
# Convention : Reuss Voigt Hill
#
# Bulk Modulus (GPa) = 33.12262 52.79630 42.95946
# Shear Modulus (GPa) = 26.40715 31.51872 28.96294
#
# Velocity S-wave (km/s) = 3.73070 4.07581 3.90707
# Velocity P-wave (km/s) = 6.00126 7.06941 6.55712
#
# Compressibility (1/GPa) = 0.03019084
#
# Stress axis : x y z
#
# Youngs Moduli (GPa) = 44.27013 102.18932 134.44777
#
# Poissons Ratio (x) = 0.05596 0.09494
# Poissons Ratio (y) = 0.02424 0.47822
# Poissons Ratio (z) = 0.03126 0.36348
#
# Static dielectric constant tensor:
#      x y z
#    x 3.398810 0.000000 0.000000 
#    y 0.000000 3.271890 0.000000 
#    z 0.000000 0.000000 3.725690 
# 
# 
# High freq. dielectric constant tensor:
#      x y z
#    x 1.733920 0.000000 0.000000 
#    y 0.000000 1.722270 0.000000 
#    z 0.000000 0.000000 1.744360 
# 
# From -- ./inp_files/4374.got.cif
#   From: 2010.03.12/outbox.cif.g09.slc.cpg/sg40_3_cif.got.tgz:4374.got - 2010.04.14 01:38:03.
