data_PCOD8182947
_publ_section_title
;
Structure prediction by ZEFSAII (Michael W. Deem and Ramdas Pophale) SiO2 
 PCOD8182947
Probable space group: A M A 2
;
_chemical_formula_sum "Si O2"
_cell_formula_units_Z 64
_cell_length_a 9.670855
_cell_length_b 15.149905
_cell_length_c 22.675724
_cell_angle_alpha 90.000000
_cell_angle_beta 90.000000
_cell_angle_gamma 90.000000
_cell_volume 3322.277795
_symmetry_space_group_name_H-M "A M A 2"
_symmetry_group_IT_number 40
_symmetry_cell_setting 'orthorhombic'
loop_
_space_group_symop_operation_xyz
x,y,z
-x,-y,z
1/2-x,y,z
1/2+x,-y,z
x,1/2+y,1/2+z
-x,1/2-y,1/2+z
1/2-x,1/2+y,1/2+z
1/2+x,1/2-y,1/2+z
loop_
_atom_site_type_symbol
_atom_site_label
_atom_site_fract_x
_atom_site_fract_y
_atom_site_fract_z
Si Si1 0.535790 0.897515 0.412410
Si Si2 0.590687 0.767334 0.199369
Si Si3 0.594075 0.232642 0.571369
Si Si4 0.910021 0.083081 0.882186
Si Si5 0.096910 0.224282 0.941425
Si Si6 0.095312 0.084920 0.284263
Si Si7 0.408306 0.418488 0.242811
Si Si8 0.599156 0.916996 0.538445
O O1 0.409942 0.828312 0.423353
O O2 0.606253 0.873281 0.350133
O O3 0.629035 0.886606 0.470763
O O4 0.500000 0.000000 0.407330
O O5 0.750000 0.762812 0.218364
O O6 0.570815 0.791635 0.130188
O O7 0.524856 0.843673 0.240124
O O8 0.529299 0.670291 0.213376
O O9 0.750000 0.191849 0.572956
O O10 0.576672 0.289337 0.511894
O O11 0.479043 0.157238 0.575357
O O12 0.750000 0.073379 0.902457
O O13 0.920781 0.091908 0.812562
O O14 0.975678 0.170967 0.909758
O O15 0.000000 0.000000 0.904912
O O16 0.250000 0.190574 0.922912
O O17 0.250000 0.058901 0.263742
O O18 0.000000 0.000000 0.281932
O O19 0.500000 0.500000 0.219613
O O20 0.250000 0.435963 0.223685
O O21 0.750000 0.935907 0.566839
O O22 0.500000 0.000000 0.539651
#
# Coordination Sequence:
#
# PCOD8182947 Si02
#       8
#     8   8   8   8   8   8   8   8
#     4   9  19  32  51  79 111 140 169 206 254 312
#     4   9  18  35  56  74 100 138 174 209 254 305
#     4   9  19  35  52  71  99 136 176 214 253 303
#     4  10  20  35  56  81 108 136 170 215 266 318
#     4  10  20  34  54  79 107 140 176 215 261 309
#     4  10  20  35  55  78 103 134 173 216 262 311
#     4   9  18  33  53  78 105 134 167 205 252 307
#     4  10  19  31  49  74 105 138 170 208 254 305
#
# _framework density 19.263891999999998
#
# number of rings (size 3 to 8) (size 9 to 14) (size 15 to 20)
#    0.000    2.500    0.000    1.875    0.000    9.500 
#    0.000    3.750    0.000    1.500    0.000    0.000 
#    0.000    0.000    0.000    0.000    0.000    0.000 
#
# Total GULP energy -396478.690703 kJ/mol
# GULP energy per Si atom -12389.959084 kJ/mol
# Density = 1.922005 g / cm^3
# Si number density = 19.263892 Si / 1000 Ang^3
#
#
#
# Elastic Constant Matrix: (Units=GPa)
#
#
# Indices 1 2 3 4 5 6 
#
# 1 107.6494 32.5799 17.5977 0.0000 0.0000 0.0000
# 2 32.5799 82.9049 34.3868 0.0000 0.0000 0.0000
# 3 17.5977 34.3868 71.9034 0.0000 0.0000 0.0000
# 4 0.0000 0.0000 0.0000 22.2092 0.0000 0.0000
# 5 0.0000 0.0000 0.0000 0.0000 16.0876 0.0000
# 6 0.0000 0.0000 0.0000 0.0000 0.0000 28.5384
#
#
#
# Elastic Compliance Matrix: (Units=1/GPa)
#
#
# Indices 1 2 3 4 5 6 
#
# 1 0.010576 -0.003845 -0.000749 0.000000 0.000000 0.000000
# 2 -0.003845 0.016445 -0.006923 0.000000 0.000000 0.000000
# 3 -0.000749 -0.006923 0.017402 0.000000 0.000000 0.000000
# 4 0.000000 0.000000 0.000000 0.045026 0.000000 0.000000
# 5 0.000000 0.000000 0.000000 0.000000 0.062160 0.000000
# 6 0.000000 0.000000 0.000000 0.000000 0.000000 0.035040
#
#
# Mechanical properties :
#
#
# Convention : Reuss Voigt Hill
#
# Bulk Modulus (GPa) = 46.75863 47.95407 47.35635
# Shear Modulus (GPa) = 23.06127 25.22658 24.14393
#
# Velocity S-wave (km/s) = 3.46370 3.62266 3.54407
# Velocity P-wave (km/s) = 6.34994 6.51502 6.43301
#
# Compressibility (1/GPa) = 0.02138642
#
# Stress axis : x y z
#
# Youngs Moduli (GPa) = 94.55669 60.80972 57.46479
#
# Poissons Ratio (x) = 0.23383 0.04306
# Poissons Ratio (y) = 0.36359 0.39785
# Poissons Ratio (z) = 0.07086 0.42101
#
# Static dielectric constant tensor:
#      x y z
#    x 3.374250 0.000000 0.000000 
#    y 0.000000 3.424650 0.000000 
#    z 0.000000 0.000000 3.670670 
# 
# 
# High freq. dielectric constant tensor:
#      x y z
#    x 1.736200 0.000000 0.000000 
#    y 0.000000 1.731290 0.000000 
#    z 0.000000 0.000000 1.749580 
# 
# From -- ./inp_files/24335.got.cif
#   From: 2010.03.12/outbox.cif.g09.slc.cpg/sg40_13_cif.got.tgz:24335.got - 2010.04.14 01:38:03.
