data_PCOD8182964
_publ_section_title
;
Structure prediction by ZEFSAII (Michael W. Deem and Ramdas Pophale) SiO2 
 PCOD8182964
Probable space group: A M A 2
;
_chemical_formula_sum "Si O2"
_cell_formula_units_Z 48
_cell_length_a 9.083243
_cell_length_b 13.670417
_cell_length_c 18.567508
_cell_angle_alpha 90.000000
_cell_angle_beta 90.000000
_cell_angle_gamma 90.000000
_cell_volume 2305.559396
_symmetry_space_group_name_H-M "A M A 2"
_symmetry_group_IT_number 40
_symmetry_cell_setting 'orthorhombic'
loop_
_space_group_symop_operation_xyz
x,y,z
-x,-y,z
1/2-x,y,z
1/2+x,-y,z
x,1/2+y,1/2+z
-x,1/2-y,1/2+z
1/2-x,1/2+y,1/2+z
1/2+x,1/2-y,1/2+z
loop_
_atom_site_type_symbol
_atom_site_label
_atom_site_fract_x
_atom_site_fract_y
_atom_site_fract_z
Si Si1 0.086846 0.407489 0.852470
Si Si2 0.919673 0.209408 0.869792
Si Si3 0.579375 0.101851 0.725511
Si Si4 0.419621 0.398175 0.512118
Si Si5 0.419744 0.727519 0.109490
Si Si6 0.587622 0.089077 0.519870
O O1 0.250000 0.400832 0.817099
O O2 0.104442 0.429102 0.936203
O O3 0.000000 0.500000 0.817312
O O4 0.004996 0.305123 0.841988
O O5 0.750000 0.240414 0.879103
O O6 0.941472 0.127080 0.809082
O O7 0.983419 0.164354 0.944159
O O8 0.750000 0.091522 0.705469
O O9 0.511666 0.190831 0.678099
O O10 0.500000 0.000000 0.708154
O O11 0.500000 0.500000 0.520035
O O12 0.250000 0.419418 0.494869
O O13 0.436655 0.342406 0.589356
O O14 0.250000 0.698601 0.120315
O O15 0.486162 0.681656 0.036302
O O16 0.750000 0.098854 0.555174
O O17 0.500000 0.000000 0.557349
#
# Coordination Sequence:
#
# PCOD8182964 Si02
#       6
#     8   8   8   8   8   8
#     4  10  20  33  55  86 119 155 195 244 296 351
#     4  10  21  40  62  88 123 160 200 247 301 359
#     4  11  24  41  63  90 123 161 200 246 300 361
#     4  10  22  39  62  89 117 153 197 248 302 357
#     4  11  22  38  59  84 118 156 196 246 297 355
#     4  10  19  31  51  81 114 149 188 235 290 345
#
# _framework density 20.819241000000002
#
# number of rings (size 3 to 8) (size 9 to 14) (size 15 to 20)
#    0.000    1.667    1.667    3.000    0.000    4.667 
#    0.000    0.833    0.000    2.000    0.000    0.000 
#    0.000    0.000    0.000    0.000    0.000    0.000 
#
# Total GULP energy -297455.907672 kJ/mol
# GULP energy per Si atom -12393.996153 kJ/mol
# Density = 2.077186 g / cm^3
# Si number density = 20.819241 Si / 1000 Ang^3
#
#
#
# Elastic Constant Matrix: (Units=GPa)
#
#
# Indices 1 2 3 4 5 6 
#
# 1 134.2212 62.5470 29.4265 0.0000 0.0000 0.0000
# 2 62.5470 120.7400 25.9498 0.0000 0.0000 0.0000
# 3 29.4265 25.9498 68.9177 0.0000 0.0000 0.0000
# 4 0.0000 0.0000 0.0000 17.8160 0.0000 0.0000
# 5 0.0000 0.0000 0.0000 0.0000 17.8072 0.0000
# 6 0.0000 0.0000 0.0000 0.0000 0.0000 42.1191
#
#
#
# Elastic Compliance Matrix: (Units=1/GPa)
#
#
# Indices 1 2 3 4 5 6 
#
# 1 0.010226 -0.004743 -0.002581 0.000000 0.000000 0.000000
# 2 -0.004743 0.011211 -0.002196 0.000000 0.000000 0.000000
# 3 -0.002581 -0.002196 0.016439 0.000000 0.000000 0.000000
# 4 0.000000 0.000000 0.000000 0.056129 0.000000 0.000000
# 5 0.000000 0.000000 0.000000 0.000000 0.056157 0.000000
# 6 0.000000 0.000000 0.000000 0.000000 0.000000 0.023742
#
#
# Mechanical properties :
#
#
# Convention : Reuss Voigt Hill
#
# Bulk Modulus (GPa) = 53.08720 62.19171 57.63946
# Shear Modulus (GPa) = 25.09742 29.27884 27.18813
#
# Velocity S-wave (km/s) = 3.47579 3.75418 3.61766
# Velocity P-wave (km/s) = 6.45466 6.98061 6.72278
#
# Compressibility (1/GPa) = 0.01883693
#
# Stress axis : x y z
#
# Youngs Moduli (GPa) = 97.78657 89.19591 60.83141
#
# Poissons Ratio (x) = 0.42305 0.15698
# Poissons Ratio (y) = 0.46380 0.13360
# Poissons Ratio (z) = 0.25235 0.19590
#
# Static dielectric constant tensor:
#      x y z
#    x 3.990050 0.000000 0.000000 
#    y 0.000000 3.678120 0.000000 
#    z 0.000000 0.000000 3.524220 
# 
# 
# High freq. dielectric constant tensor:
#      x y z
#    x 1.823110 0.000000 0.000000 
#    y 0.000000 1.813550 0.000000 
#    z 0.000000 0.000000 1.794380 
# 
# From -- ./inp_files/19194.got.cif
#   From: 2010.03.12/outbox.cif.g09.slc.cpg/sg40_10_cif.got.tgz:19194.got - 2010.04.14 01:38:03.
