data_PCOD8182144
_publ_section_title
;
Structure prediction by ZEFSAII (Michael W. Deem and Ramdas Pophale) SiO2 
 PCOD8182144
Probable space group: A B M 2
;
_chemical_formula_sum "Si O2"
_cell_formula_units_Z 40
_cell_length_a 12.363769
_cell_length_b 27.343869
_cell_length_c 5.253356
_cell_angle_alpha 90.000000
_cell_angle_beta 90.000000
_cell_angle_gamma 90.000000
_cell_volume 1776.019293
_symmetry_space_group_name_H-M "A B M 2"
_symmetry_group_IT_number 39
_symmetry_cell_setting 'orthorhombic'
loop_
_space_group_symop_operation_xyz
x,y,z
-x,-y,z
-x,1/2+y,z
x,1/2-y,z
x,1/2+y,1/2+z
-x,1/2-y,1/2+z
-x,y,1/2+z
x,-y,1/2+z
loop_
_atom_site_type_symbol
_atom_site_label
_atom_site_fract_x
_atom_site_fract_y
_atom_site_fract_z
Si Si1 0.739726 0.392417 0.841530
Si Si2 0.379590 0.479826 0.248261
Si Si3 0.954074 0.944667 0.284830
Si Si4 0.070960 0.250000 0.781637
Si Si5 0.750147 0.829892 0.842713
Si Si6 0.429477 0.750000 0.302060
O O1 0.625905 0.421139 0.799262
O O2 0.826068 0.437127 0.815623
O O3 0.756950 0.351941 0.625959
O O4 0.744272 0.370316 0.122586
O O5 0.500000 0.500000 0.202674
O O6 0.320317 0.507903 0.481319
O O7 0.010501 0.917657 0.524335
O O8 0.000000 0.000000 0.264060
O O9 0.143278 0.201824 0.801616
O O10 0.016539 0.250000 0.505288
O O11 0.642022 0.798219 0.828960
O O12 0.519109 0.750000 0.521753
#
# Coordination Sequence:
#
# PCOD8182144 Si02
#       6
#     8   8   8   4   8   4
#     4  12  24  42  70  97 140 175 236 284 316 406
#     4  10  23  43  63  90 129 178 229 277 344 382
#     4  10  23  38  59  89 127 180 225 270 333 379
#     4  11  24  45  76 100 146 173 210 281 358 406
#     4  11  26  45  69 110 132 177 228 276 341 412
#     4  11  24  51  74 100 146 173 210 281 358 414
#
# _framework density 22.522276999999999
#
# number of rings (size 3 to 8) (size 9 to 14) (size 15 to 20)
#    0.000    1.200    0.000    4.800    5.600    8.000 
#   21.600    0.000    0.000    0.000    0.000    0.000 
#    0.000    0.000    0.000    0.000    0.000    0.000 
#
# Total GULP energy -247863.733114 kJ/mol
# GULP energy per Si atom -12393.186656 kJ/mol
# Density = 2.247102 g / cm^3
# Si number density = 22.522277 Si / 1000 Ang^3
#
#
#
# Elastic Constant Matrix: (Units=GPa)
#
#
# Indices 1 2 3 4 5 6 
#
# 1 80.2454 31.9232 -3.8827 0.0000 0.0000 0.0000
# 2 31.9232 79.9907 -3.3508 0.0000 0.0000 0.0000
# 3 -3.8827 -3.3508 143.7804 0.0000 0.0000 0.0000
# 4 0.0000 0.0000 0.0000 34.6483 0.0000 0.0000
# 5 0.0000 0.0000 0.0000 0.0000 -22.7449 0.0000
# 6 0.0000 0.0000 0.0000 0.0000 0.0000 30.5471
#
#
#
# Elastic Compliance Matrix: (Units=1/GPa)
#
#
# Indices 1 2 3 4 5 6 
#
# 1 0.014824 -0.005905 0.000263 0.000000 0.000000 0.000000
# 2 -0.005905 0.014866 0.000187 0.000000 0.000000 0.000000
# 3 0.000263 0.000187 0.006967 0.000000 0.000000 0.000000
# 4 0.000000 0.000000 0.000000 0.028861 0.000000 0.000000
# 5 0.000000 0.000000 0.000000 0.000000 -0.043966 0.000000
# 6 0.000000 0.000000 0.000000 0.000000 0.000000 0.032736
#
#
# Mechanical properties :
#
#
# Convention : Reuss Voigt Hill
#
# Bulk Modulus (GPa) = 38.84173 39.26621 39.05397
# Shear Modulus (GPa) = 67.76898 27.11188 47.44043
#
# Velocity S-wave (km/s) = 5.49136 3.47332 4.59451
# Velocity P-wave (km/s) = 7.58222 5.79288 6.74713
#
# Compressibility (1/GPa) = 0.02574551
#
# Stress axis : x y z
#
# Youngs Moduli (GPa) = 67.46022 67.26834 143.54407
#
# Poissons Ratio (x) = 0.39721 -0.03771
# Poissons Ratio (y) = 0.39834 -0.02684
# Poissons Ratio (z) = -0.01772 -0.01258
#
# Static dielectric constant tensor:
#      x y z
#    x 4.043130 0.000000 0.000000 
#    y 0.000000 4.038440 0.000000 
#    z 0.000000 0.000000 5.284230 
# 
# 
# High freq. dielectric constant tensor:
#      x y z
#    x 1.883350 0.000000 0.000000 
#    y 0.000000 1.875620 0.000000 
#    z 0.000000 0.000000 1.928320 
# 
# From -- ./inp_files/356.got.cif
#   From: 2010.03.12/outbox.cif.g09.slc.cpg/sg39_1_cif.got.tgz:356.got - 2010.04.14 02:53:20.
