data_PCOD8182087
_publ_section_title
;
Structure prediction by ZEFSAII (Michael W. Deem and Ramdas Pophale) SiO2 
 PCOD8182087
Probable space group: A B M 2
;
_chemical_formula_sum "Si O2"
_cell_formula_units_Z 64
_cell_length_a 11.864190
_cell_length_b 14.724002
_cell_length_c 16.521500
_cell_angle_alpha 90.000000
_cell_angle_beta 90.000000
_cell_angle_gamma 90.000000
_cell_volume 2886.113695
_symmetry_space_group_name_H-M "A B M 2"
_symmetry_group_IT_number 39
_symmetry_cell_setting 'orthorhombic'
loop_
_space_group_symop_operation_xyz
x,y,z
-x,-y,z
-x,1/2+y,z
x,1/2-y,z
x,1/2+y,1/2+z
-x,1/2-y,1/2+z
-x,y,1/2+z
x,-y,1/2+z
loop_
_atom_site_type_symbol
_atom_site_label
_atom_site_fract_x
_atom_site_fract_y
_atom_site_fract_z
Si Si1 0.260258 0.352367 0.302480
Si Si2 0.041739 0.401467 0.226742
Si Si3 0.641100 0.143451 0.142321
Si Si4 0.119717 0.023844 0.923205
Si Si5 0.607644 0.142192 0.652836
Si Si6 0.805111 0.646915 0.784986
Si Si7 0.829154 0.852875 0.068178
Si Si8 0.241742 0.647503 0.977775
O O1 0.229175 0.250000 0.276196
O O2 0.140577 0.407125 0.296218
O O3 0.353454 0.391000 0.241709
O O4 0.312077 0.355095 0.393127
O O5 0.095914 0.354287 0.148825
O O6 0.000000 0.500000 0.201395
O O7 0.934125 0.344001 0.255564
O O8 0.632564 0.250000 0.153784
O O9 0.516506 0.098656 0.143024
O O10 0.723684 0.107778 0.213630
O O11 0.685496 0.117716 0.053978
O O12 0.202982 0.073305 0.858405
O O13 0.149527 0.928648 0.964837
O O14 0.108934 0.091958 0.998352
O O15 0.000000 0.000000 0.880673
O O16 0.598770 0.250000 0.646704
O O17 0.701952 0.108515 0.587898
O O18 0.768900 0.750000 0.811233
O O19 0.819346 0.750000 0.037728
O O20 0.191281 0.750000 0.990191
#
# Coordination Sequence:
#
# PCOD8182087 Si02
#       8
#     8   8   8   8   8   8   8   8
#     4   9  17  34  62  90 119 160 211 259 312 382
#     4  11  21  35  59  90 128 166 210 261 315 379
#     4   9  20  39  65  94 125 166 211 263 324 380
#     4  12  26  42  60  94 131 174 216 269 324 385
#     4   8  16  37  65  93 121 163 214 260 320 384
#     4  11  23  40  63  93 133 172 212 260 320 389
#     4  10  22  40  65  92 126 169 216 265 320 387
#     4  10  22  41  64  94 127 163 212 266 320 377
#
# _framework density 22.175149999999999
#
# number of rings (size 3 to 8) (size 9 to 14) (size 15 to 20)
#    0.000    2.000    0.000    4.500    3.500    2.000 
#    2.250    0.625    0.000    0.000    0.000    0.000 
#    0.000    0.000    0.000    0.000    0.000    0.000 
#
# Total GULP energy -396481.687170 kJ/mol
# GULP energy per Si atom -12390.052724 kJ/mol
# Density = 2.212468 g / cm^3
# Si number density = 22.175150 Si / 1000 Ang^3
#
#
#
# Elastic Constant Matrix: (Units=GPa)
#
#
# Indices 1 2 3 4 5 6 
#
# 1 122.3315 26.4346 46.5725 0.0000 0.0000 0.0000
# 2 26.4346 92.1218 31.1381 0.0000 0.0000 0.0000
# 3 46.5725 31.1381 109.1073 0.0000 0.0000 0.0000
# 4 0.0000 0.0000 0.0000 23.1928 0.0000 0.0000
# 5 0.0000 0.0000 0.0000 0.0000 29.7945 0.0000
# 6 0.0000 0.0000 0.0000 0.0000 0.0000 10.7462
#
#
#
# Elastic Compliance Matrix: (Units=1/GPa)
#
#
# Indices 1 2 3 4 5 6 
#
# 1 0.009962 -0.001573 -0.003804 0.000000 0.000000 0.000000
# 2 -0.001573 0.012263 -0.002828 0.000000 0.000000 0.000000
# 3 -0.003804 -0.002828 0.011596 0.000000 0.000000 0.000000
# 4 0.000000 0.000000 0.000000 0.043117 0.000000 0.000000
# 5 0.000000 0.000000 0.000000 0.000000 0.033563 0.000000
# 6 0.000000 0.000000 0.000000 0.000000 0.000000 0.093056
#
#
# Mechanical properties :
#
#
# Convention : Reuss Voigt Hill
#
# Bulk Modulus (GPa) = 57.43359 59.09455 58.26407
# Shear Modulus (GPa) = 22.14636 27.37440 24.76038
#
# Velocity S-wave (km/s) = 3.16365 3.51730 3.34516
# Velocity P-wave (km/s) = 6.26906 6.57283 6.42274
#
# Compressibility (1/GPa) = 0.01741141
#
# Stress axis : x y z
#
# Youngs Moduli (GPa) = 100.37667 81.54917 86.23707
#
# Poissons Ratio (x) = 0.12829 0.32801
# Poissons Ratio (y) = 0.15790 0.24389
# Poissons Ratio (z) = 0.38179 0.23063
#
# Static dielectric constant tensor:
#      x y z
#    x 4.093440 0.000000 0.000000 
#    y 0.000000 3.984690 0.000000 
#    z 0.000000 0.000000 4.131440 
# 
# 
# High freq. dielectric constant tensor:
#      x y z
#    x 1.844380 0.000000 0.000000 
#    y 0.000000 1.879560 0.000000 
#    z 0.000000 0.000000 1.879450 
# 
# From -- ./inp_files/12340.got.cif
#   From: 2010.03.12/outbox.cif.g09.slc.cpg/sg39_7_cif.got.tgz:12340.got - 2010.04.14 02:53:20.
