data_PCOD8182173
_publ_section_title
;
Structure prediction by ZEFSAII (Michael W. Deem and Ramdas Pophale) SiO2 
 PCOD8182173
Probable space group: A B M 2
;
_chemical_formula_sum "Si O2"
_cell_formula_units_Z 64
_cell_length_a 22.255364
_cell_length_b 15.239348
_cell_length_c 8.869068
_cell_angle_alpha 90.000000
_cell_angle_beta 90.000000
_cell_angle_gamma 90.000000
_cell_volume 3008.008596
_symmetry_space_group_name_H-M "A B M 2"
_symmetry_group_IT_number 39
_symmetry_cell_setting 'orthorhombic'
loop_
_space_group_symop_operation_xyz
x,y,z
-x,-y,z
-x,1/2+y,z
x,1/2-y,z
x,1/2+y,1/2+z
-x,1/2-y,1/2+z
-x,y,1/2+z
x,-y,1/2+z
loop_
_atom_site_type_symbol
_atom_site_label
_atom_site_fract_x
_atom_site_fract_y
_atom_site_fract_z
Si Si1 0.177470 0.347808 0.020650
Si Si2 0.736692 0.996782 0.561735
Si Si3 0.060694 0.404847 0.528232
Si Si4 0.822735 0.652182 0.676731
Si Si5 0.566851 0.149411 0.415949
Si Si6 0.559146 0.649561 0.268961
Si Si7 0.650252 0.002871 0.812012
Si Si8 0.060946 0.404710 0.168764
O O1 0.205362 0.250000 0.027839
O O2 0.225010 0.415379 0.090558
O O3 0.117170 0.346028 0.120252
O O4 0.162169 0.375272 0.848676
O O5 0.773793 0.911705 0.606676
O O6 0.716137 0.988474 0.388816
O O7 0.670736 0.002147 0.638502
O O8 0.116970 0.346571 0.577112
O O9 0.055345 0.409647 0.348450
O O10 0.071607 0.500161 0.598036
O O11 0.999903 0.363555 0.598461
O O12 0.795544 0.750000 0.671824
O O13 0.584936 0.250000 0.382789
O O14 0.505618 0.123999 0.332445
O O15 0.557215 0.133065 0.591717
O O16 0.619400 0.089068 0.351672
O O17 0.575886 0.750000 0.309471
O O18 0.607585 0.585707 0.346477
#
# Coordination Sequence:
#
# PCOD8182173 Si02
#       8
#     8   8   8   8   8   8   8   8
#     4  11  25  45  68  93 130 175 218 271 333 391
#     4  12  26  44  65  95 128 174 224 268 316 379
#     4  11  22  39  67  98 130 168 215 270 333 394
#     4  11  25  45  67  94 131 172 218 274 331 390
#     4  10  23  43  68  98 134 170 211 262 323 381
#     4  10  23  43  67  99 134 169 210 264 321 381
#     4  12  25  42  69  95 129 173 220 267 314 383
#     4  11  22  39  67  98 129 169 214 270 333 395
#
# _framework density 21.276534000000002
#
# number of rings (size 3 to 8) (size 9 to 14) (size 15 to 20)
#    0.000    1.000    3.750    3.375    3.500    4.000 
#    0.000    0.000    0.000    0.000    0.000    0.000 
#    0.000    0.000    0.000    0.000    0.000    0.000 
#
# Total GULP energy -396887.000354 kJ/mol
# GULP energy per Si atom -12402.718761 kJ/mol
# Density = 2.122811 g / cm^3
# Si number density = 21.276534 Si / 1000 Ang^3
#
#
#
# Elastic Constant Matrix: (Units=GPa)
#
#
# Indices 1 2 3 4 5 6 
#
# 1 127.8130 67.4948 48.4253 0.0000 0.0000 0.0000
# 2 67.4948 120.0304 40.6753 0.0000 0.0000 0.0000
# 3 48.4253 40.6753 96.3607 0.0000 0.0000 0.0000
# 4 0.0000 0.0000 0.0000 27.4722 0.0000 0.0000
# 5 0.0000 0.0000 0.0000 0.0000 47.8082 0.0000
# 6 0.0000 0.0000 0.0000 0.0000 0.0000 4.2877
#
#
#
# Elastic Compliance Matrix: (Units=1/GPa)
#
#
# Indices 1 2 3 4 5 6 
#
# 1 0.012202 -0.005582 -0.003776 0.000000 0.000000 0.000000
# 2 -0.005582 0.012275 -0.002376 0.000000 0.000000 0.000000
# 3 -0.003776 -0.002376 0.013278 0.000000 0.000000 0.000000
# 4 0.000000 0.000000 0.000000 0.036400 0.000000 0.000000
# 5 0.000000 0.000000 0.000000 0.000000 0.020917 0.000000
# 6 0.000000 0.000000 0.000000 0.000000 0.000000 0.233223
#
#
# Mechanical properties :
#
#
# Convention : Reuss Voigt Hill
#
# Bulk Modulus (GPa) = 69.99201 73.04388 71.51794
# Shear Modulus (GPa) = 14.02416 28.42088 21.22252
#
# Velocity S-wave (km/s) = 2.57015 3.65880 3.16169
# Velocity P-wave (km/s) = 6.46338 7.22872 6.85674
#
# Compressibility (1/GPa) = 0.01428734
#
# Stress axis : x y z
#
# Youngs Moduli (GPa) = 81.95239 81.46414 75.31040
#
# Poissons Ratio (x) = 0.45473 0.28437
# Poissons Ratio (y) = 0.45745 0.17897
# Poissons Ratio (z) = 0.30945 0.19360
#
# Static dielectric constant tensor:
#      x y z
#    x 3.834470 0.000000 0.000000 
#    y 0.000000 3.768060 0.000000 
#    z 0.000000 0.000000 3.963240 
# 
# 
# High freq. dielectric constant tensor:
#      x y z
#    x 1.837230 0.000000 0.000000 
#    y 0.000000 1.833610 0.000000 
#    z 0.000000 0.000000 1.846740 
# 
# From -- ./inp_files/4090.got.cif
#   From: 2010.03.12/outbox.cif.g09.slc.cpg/sg39_3_cif.got.tgz:4090.got - 2010.04.14 02:53:20.
