data_PCOD8182159
_publ_section_title
;
Structure prediction by ZEFSAII (Michael W. Deem and Ramdas Pophale) SiO2 
 PCOD8182159
Probable space group: A B M 2
;
_chemical_formula_sum "Si O2"
_cell_formula_units_Z 40
_cell_length_a 14.485822
_cell_length_b 8.575949
_cell_length_c 15.483164
_cell_angle_alpha 90.000000
_cell_angle_beta 90.000000
_cell_angle_gamma 90.000000
_cell_volume 1923.468365
_symmetry_space_group_name_H-M "A B M 2"
_symmetry_group_IT_number 39
_symmetry_cell_setting 'orthorhombic'
loop_
_space_group_symop_operation_xyz
x,y,z
-x,-y,z
-x,1/2+y,z
x,1/2-y,z
x,1/2+y,1/2+z
-x,1/2-y,1/2+z
-x,y,1/2+z
x,-y,1/2+z
loop_
_atom_site_type_symbol
_atom_site_label
_atom_site_fract_x
_atom_site_fract_y
_atom_site_fract_z
Si Si1 0.227078 0.569731 0.282390
Si Si2 0.597268 0.934199 0.530371
Si Si3 0.216714 0.071065 0.975002
Si Si4 0.594102 0.433059 0.718838
Si Si5 0.101270 0.432498 0.626837
O O1 0.251762 0.750000 0.264161
O O2 0.180664 0.550566 0.376695
O O3 0.320700 0.468622 0.281495
O O4 0.157592 0.503215 0.209640
O O5 0.600004 0.750000 0.518000
O O6 0.500000 0.000000 0.495888
O O7 0.678398 0.011836 0.475620
O O8 0.612809 0.977159 0.629841
O O9 0.212956 0.250000 0.004853
O O10 0.152117 0.972968 0.037960
O O11 0.500000 0.500000 0.761106
O O12 0.583962 0.250000 0.701270
O O13 0.092380 0.250000 0.634244
O O14 0.000000 0.500000 0.627254
#
# Coordination Sequence:
#
# PCOD8182159 Si02
#       5
#     8   8   8   8   8
#     4  10  23  42  64  92 128 164 205 256 309 368
#     4  11  21  36  59  89 126 168 211 256 306 364
#     4  11  23  41  65  95 127 164 207 257 311 369
#     4  11  21  35  60  90 125 168 211 254 304 364
#     4  11  24  44  68  92 123 162 203 259 316 373
#
# _framework density 20.795767999999999
#
# number of rings (size 3 to 8) (size 9 to 14) (size 15 to 20)
#    0.000    1.200    2.000    6.000    0.000    4.000 
#    0.000    2.000    0.000    0.000    0.000    0.000 
#    0.000    0.000    0.000    0.000    0.000    0.000 
#
# Total GULP energy -248078.867474 kJ/mol
# GULP energy per Si atom -12403.943374 kJ/mol
# Density = 2.074844 g / cm^3
# Si number density = 20.795768 Si / 1000 Ang^3
#
#
#
# Elastic Constant Matrix: (Units=GPa)
#
#
# Indices 1 2 3 4 5 6 
#
# 1 138.5931 13.5377 53.7529 0.0000 0.0000 0.0000
# 2 13.5377 37.4305 11.9613 0.0000 0.0000 0.0000
# 3 53.7529 11.9613 105.2323 0.0000 0.0000 0.0000
# 4 0.0000 0.0000 0.0000 26.4413 0.0000 0.0000
# 5 0.0000 0.0000 0.0000 0.0000 13.1304 0.0000
# 6 0.0000 0.0000 0.0000 0.0000 0.0000 37.5062
#
#
#
# Elastic Compliance Matrix: (Units=1/GPa)
#
#
# Indices 1 2 3 4 5 6 
#
# 1 0.009124 -0.001879 -0.004447 0.000000 0.000000 0.000000
# 2 -0.001879 0.028110 -0.002235 0.000000 0.000000 0.000000
# 3 -0.004447 -0.002235 0.012028 0.000000 0.000000 0.000000
# 4 0.000000 0.000000 0.000000 0.037820 0.000000 0.000000
# 5 0.000000 0.000000 0.000000 0.000000 0.076159 0.000000
# 6 0.000000 0.000000 0.000000 0.000000 0.000000 0.026662
#
#
# Mechanical properties :
#
#
# Convention : Reuss Voigt Hill
#
# Bulk Modulus (GPa) = 31.11401 48.86219 39.98810
# Shear Modulus (GPa) = 22.96337 28.88252 25.92295
#
# Velocity S-wave (km/s) = 3.32661 3.73079 3.53448
# Velocity P-wave (km/s) = 5.45429 6.48889 5.99395
#
# Compressibility (1/GPa) = 0.03213986
#
# Stress axis : x y z
#
# Youngs Moduli (GPa) = 109.60650 35.57450 83.13716
#
# Poissons Ratio (x) = 0.06684 0.36969
# Poissons Ratio (y) = 0.20592 0.18585
# Poissons Ratio (z) = 0.48740 0.07953
#
# Static dielectric constant tensor:
#      x y z
#    x 3.930800 0.000000 0.000000 
#    y 0.000000 3.772930 0.000000 
#    z 0.000000 0.000000 3.705100 
# 
# 
# High freq. dielectric constant tensor:
#      x y z
#    x 1.812020 0.000000 0.000000 
#    y 0.000000 1.822470 0.000000 
#    z 0.000000 0.000000 1.811230 
# 
# From -- ./inp_files/9627.got.cif
#   From: 2010.03.12/outbox.cif.g09.slc.cpg/sg39_5_cif.got.tgz:9627.got - 2010.04.14 02:53:20.
