data_PCOD8182961
_publ_section_title
;
Structure prediction by ZEFSAII (Michael W. Deem and Ramdas Pophale) SiO2 
 PCOD8182961
Probable space group: A M A 2
;
_chemical_formula_sum "Si O2"
_cell_formula_units_Z 56
_cell_length_a 9.042939
_cell_length_b 14.117027
_cell_length_c 22.961875
_cell_angle_alpha 90.000000
_cell_angle_beta 90.000000
_cell_angle_gamma 90.000000
_cell_volume 2931.299507
_symmetry_space_group_name_H-M "A M A 2"
_symmetry_group_IT_number 40
_symmetry_cell_setting 'orthorhombic'
loop_
_space_group_symop_operation_xyz
x,y,z
-x,-y,z
1/2-x,y,z
1/2+x,-y,z
x,1/2+y,1/2+z
-x,1/2-y,1/2+z
1/2-x,1/2+y,1/2+z
1/2+x,1/2-y,1/2+z
loop_
_atom_site_type_symbol
_atom_site_label
_atom_site_fract_x
_atom_site_fract_y
_atom_site_fract_z
Si Si1 0.419257 0.151405 0.377310
Si Si2 0.425316 0.100876 0.613074
Si Si3 0.584217 0.831840 0.850087
Si Si4 0.575701 0.091448 0.268476
Si Si5 0.080417 0.705220 0.225425
Si Si6 0.082834 0.091725 0.969467
Si Si7 0.921646 0.784292 0.499419
O O1 0.250000 0.127242 0.361568
O O2 0.452107 0.261173 0.364979
O O3 0.526904 0.089331 0.336747
O O4 0.451511 0.140792 0.446549
O O5 0.250000 0.086152 0.617258
O O6 0.493387 0.154026 0.670065
O O7 0.470845 0.164226 0.558144
O O8 0.500000 0.000000 0.606899
O O9 0.750000 0.783818 0.853397
O O10 0.560378 0.862721 0.782576
O O11 0.576432 0.914245 0.898349
O O12 0.750000 0.081314 0.264011
O O13 0.516693 0.188835 0.238611
O O14 0.500000 0.000000 0.237745
O O15 0.250000 0.719769 0.209052
O O16 0.250000 0.087282 0.991918
O O17 0.000000 0.000000 0.994805
O O18 0.014278 0.188287 0.993632
O O19 0.750000 0.755194 0.500145
#
# Coordination Sequence:
#
# PCOD8182961 Si02
#       7
#     8   8   8   8   8   8   8
#     4   9  16  28  47  72 100 131 165 203 246 293
#     4  10  21  38  57  76  99 131 170 213 257 303
#     4   8  15  29  48  71  99 133 167 201 245 295
#     4  10  19  32  51  76 104 135 168 205 252 307
#     4   8  16  33  54  73 100 135 168 204 250 299
#     4  10  19  31  51  78 108 139 171 208 254 306
#     4   9  19  35  53  74 104 138 173 212 254 299
#
# _framework density 19.104154000000001
#
# number of rings (size 3 to 8) (size 9 to 14) (size 15 to 20)
#    0.000    2.857    0.000    2.143    0.000    2.857 
#    0.000    5.714    0.000    1.714    0.000    0.000 
#    0.000    0.000    0.000    0.000    0.000    0.000 
#
# Total GULP energy -346865.519597 kJ/mol
# GULP energy per Si atom -12388.054271 kJ/mol
# Density = 1.906067 g / cm^3
# Si number density = 19.104154 Si / 1000 Ang^3
#
#
#
# Elastic Constant Matrix: (Units=GPa)
#
#
# Indices 1 2 3 4 5 6 
#
# 1 69.3284 45.9721 34.5534 0.0000 0.0000 0.0000
# 2 45.9721 110.3046 49.6599 0.0000 0.0000 0.0000
# 3 34.5534 49.6599 124.3841 0.0000 0.0000 0.0000
# 4 0.0000 0.0000 0.0000 20.7851 0.0000 0.0000
# 5 0.0000 0.0000 0.0000 0.0000 18.0459 0.0000
# 6 0.0000 0.0000 0.0000 0.0000 0.0000 30.8853
#
#
#
# Elastic Compliance Matrix: (Units=1/GPa)
#
#
# Indices 1 2 3 4 5 6 
#
# 1 0.020710 -0.007365 -0.002813 0.000000 0.000000 0.000000
# 2 -0.007365 0.013672 -0.003412 0.000000 0.000000 0.000000
# 3 -0.002813 -0.003412 0.010183 0.000000 0.000000 0.000000
# 4 0.000000 0.000000 0.000000 0.048111 0.000000 0.000000
# 5 0.000000 0.000000 0.000000 0.000000 0.055414 0.000000
# 6 0.000000 0.000000 0.000000 0.000000 0.000000 0.032378
#
#
# Mechanical properties :
#
#
# Convention : Reuss Voigt Hill
#
# Bulk Modulus (GPa) = 57.52203 62.70976 60.11590
# Shear Modulus (GPa) = 23.42545 25.53204 24.47875
#
# Velocity S-wave (km/s) = 3.50551 3.65974 3.58345
# Velocity P-wave (km/s) = 6.82348 7.12423 6.97548
#
# Compressibility (1/GPa) = 0.01738464
#
# Stress axis : x y z
#
# Youngs Moduli (GPa) = 48.28660 73.14423 98.19968
#
# Poissons Ratio (x) = 0.53871 0.27620
# Poissons Ratio (y) = 0.35563 0.33509
# Poissons Ratio (z) = 0.13581 0.24960
#
# Static dielectric constant tensor:
#      x y z
#    x 3.379430 0.000000 0.000000 
#    y 0.000000 3.328150 0.000000 
#    z 0.000000 0.000000 3.692510 
# 
# 
# High freq. dielectric constant tensor:
#      x y z
#    x 1.731370 0.000000 0.000000 
#    y 0.000000 1.725430 0.000000 
#    z 0.000000 0.000000 1.732230 
# 
# From -- ./inp_files/22125.got.cif
#   From: 2010.03.12/outbox.cif.g09.slc.cpg/sg40_12_cif.got.tgz:22125.got - 2010.04.14 01:38:03.
