data_PCOD8182255
_publ_section_title
;
Structure prediction by ZEFSAII (Michael W. Deem and Ramdas Pophale) SiO2 
 PCOD8182255
Probable space group: A B M 2
;
_chemical_formula_sum "Si O2"
_cell_formula_units_Z 40
_cell_length_a 8.794215
_cell_length_b 21.843862
_cell_length_c 9.326174
_cell_angle_alpha 90.000000
_cell_angle_beta 90.000000
_cell_angle_gamma 90.000000
_cell_volume 1791.554471
_symmetry_space_group_name_H-M "A B M 2"
_symmetry_group_IT_number 39
_symmetry_cell_setting 'orthorhombic'
loop_
_space_group_symop_operation_xyz
x,y,z
-x,-y,z
-x,1/2+y,z
x,1/2-y,z
x,1/2+y,1/2+z
-x,1/2-y,1/2+z
-x,y,1/2+z
x,-y,1/2+z
loop_
_atom_site_type_symbol
_atom_site_label
_atom_site_fract_x
_atom_site_fract_y
_atom_site_fract_z
Si Si1 0.975253 0.570880 0.109810
Si Si2 0.475080 0.070831 0.236438
Si Si3 0.318884 0.381850 0.968851
Si Si4 0.180153 0.119331 0.377230
Si Si5 0.315913 0.250000 0.359624
Si Si6 0.620801 0.750000 0.031783
O O1 0.950278 0.606459 0.258718
O O2 0.000000 0.500000 0.143524
O O3 0.830468 0.579477 0.005416
O O4 0.124035 0.598015 0.033021
O O5 0.623478 0.099567 0.311588
O O6 0.329173 0.080501 0.337860
O O7 0.500000 0.000000 0.207319
O O8 0.451930 0.104203 0.084716
O O9 0.286523 0.309187 0.975515
O O10 0.210549 0.191284 0.381186
O O11 0.449462 0.250000 0.475016
O O12 0.390597 0.250000 0.203106
#
# Coordination Sequence:
#
# PCOD8182255 Si02
#       6
#     8   8   8   8   4   4
#     4  11  24  44  66  97 140 178 223 277 334 407
#     4  11  22  39  63  97 130 168 221 272 328 399
#     4  11  23  40  69  95 128 174 216 277 333 391
#     4  11  25  44  66  97 136 179 223 277 336 399
#     4  12  24  47  71  97 139 167 231 286 334 402
#     4  12  20  47  69  97 135 163 223 286 330 390
#
# _framework density 22.326979999999999
#
# number of rings (size 3 to 8) (size 9 to 14) (size 15 to 20)
#    0.000    0.800    6.000    2.400    0.000    6.400 
#    3.600    0.000    0.000    0.000    0.000    0.000 
#    0.000    0.000    0.000    0.000    0.000    0.000 
#
# Total GULP energy -248117.108271 kJ/mol
# GULP energy per Si atom -12405.855414 kJ/mol
# Density = 2.227616 g / cm^3
# Si number density = 22.326980 Si / 1000 Ang^3
#
#
#
# Elastic Constant Matrix: (Units=GPa)
#
#
# Indices 1 2 3 4 5 6 
#
# 1 36.8415 23.4072 3.5679 0.0000 0.0000 0.0000
# 2 23.4072 160.7931 11.0535 0.0000 0.0000 0.0000
# 3 3.5679 11.0535 45.5050 0.0000 0.0000 0.0000
# 4 0.0000 0.0000 0.0000 11.0601 0.0000 0.0000
# 5 0.0000 0.0000 0.0000 0.0000 48.5363 0.0000
# 6 0.0000 0.0000 0.0000 0.0000 0.0000 42.3878
#
#
#
# Elastic Compliance Matrix: (Units=1/GPa)
#
#
# Indices 1 2 3 4 5 6 
#
# 1 0.029987 -0.004275 -0.001313 0.000000 0.000000 0.000000
# 2 -0.004275 0.006934 -0.001349 0.000000 0.000000 0.000000
# 3 -0.001313 -0.001349 0.022406 0.000000 0.000000 0.000000
# 4 0.000000 0.000000 0.000000 0.090415 0.000000 0.000000
# 5 0.000000 0.000000 0.000000 0.000000 0.020603 0.000000
# 6 0.000000 0.000000 0.000000 0.000000 0.000000 0.023592
#
#
# Mechanical properties :
#
#
# Convention : Reuss Voigt Hill
#
# Bulk Modulus (GPa) = 22.00065 35.46632 28.73348
# Shear Modulus (GPa) = 22.42539 34.07091 28.24815
#
# Velocity S-wave (km/s) = 3.17268 3.91064 3.56083
# Velocity P-wave (km/s) = 4.82664 6.02580 5.45924
#
# Compressibility (1/GPa) = 0.04545320
#
# Stress axis : x y z
#
# Youngs Moduli (GPa) = 33.34831 144.21186 44.63036
#
# Poissons Ratio (x) = 0.61650 0.05859
# Poissons Ratio (y) = 0.14256 0.06021
# Poissons Ratio (z) = 0.04378 0.19457
#
# Static dielectric constant tensor:
#      x y z
#    x 3.918800 0.000000 0.000000 
#    y 0.000000 4.203610 0.000000 
#    z 0.000000 0.000000 4.097990 
# 
# 
# High freq. dielectric constant tensor:
#      x y z
#    x 1.868790 0.000000 0.000000 
#    y 0.000000 1.891640 0.000000 
#    z 0.000000 0.000000 1.884700 
# 
# From -- ./inp_files/2150.got.cif
#   From: 2010.03.12/outbox.cif.g09.slc.cpg/sg39_2_cif.got.tgz:2150.got - 2010.04.14 02:53:20.
