data_PCOD8182805
_publ_section_title
;
Structure prediction by ZEFSAII (Michael W. Deem and Ramdas Pophale) SiO2 
 PCOD8182805
Probable space group: A M A 2
;
_chemical_formula_sum "Si O2"
_cell_formula_units_Z 64
_cell_length_a 8.838621
_cell_length_b 30.948487
_cell_length_c 11.988459
_cell_angle_alpha 90.000000
_cell_angle_beta 90.000000
_cell_angle_gamma 90.000000
_cell_volume 3279.346418
_symmetry_space_group_name_H-M "A M A 2"
_symmetry_group_IT_number 40
_symmetry_cell_setting 'orthorhombic'
loop_
_space_group_symop_operation_xyz
x,y,z
-x,-y,z
1/2-x,y,z
1/2+x,-y,z
x,1/2+y,1/2+z
-x,1/2-y,1/2+z
1/2-x,1/2+y,1/2+z
1/2+x,1/2-y,1/2+z
loop_
_atom_site_type_symbol
_atom_site_label
_atom_site_fract_x
_atom_site_fract_y
_atom_site_fract_z
Si Si1 0.927539 0.206065 0.660670
Si Si2 0.572026 0.043860 0.127046
Si Si3 0.928602 0.567766 0.377844
Si Si4 0.570196 0.125121 0.267742
Si Si5 0.429640 0.797392 0.117384
Si Si6 0.429339 0.334808 0.388037
Si Si7 0.928908 0.956720 0.653497
Si Si8 0.071535 0.377646 0.021791
O O1 0.750000 0.215122 0.659234
O O2 0.985488 0.192293 0.782447
O O3 0.970803 0.168893 0.572573
O O4 0.013727 0.249380 0.632858
O O5 0.750000 0.041476 0.143146
O O6 0.507033 0.084468 0.197058
O O7 0.500000 0.000000 0.175209
O O8 0.528337 0.048140 0.997435
O O9 0.750000 0.564437 0.352942
O O10 0.988100 0.616693 0.376223
O O11 0.020630 0.543136 0.282627
O O12 0.750000 0.124904 0.263511
O O13 0.510740 0.169942 0.213434
O O14 0.512934 0.121922 0.394627
O O15 0.250000 0.797120 0.116023
O O16 0.496165 0.813764 0.999711
O O17 0.250000 0.336038 0.394457
O O18 0.750000 0.958788 0.644246
O O19 0.988062 0.914805 0.589582
O O20 0.000000 0.000000 0.598193
O O21 0.250000 0.386149 0.031444
#
# Coordination Sequence:
#
# PCOD8182805 Si02
#       8
#     8   8   8   8   8   8   8   8
#     4  10  21  36  56  83 116 152 188 235 289 336
#     4  10  20  35  58  85 114 147 189 233 284 341
#     4  10  18  36  62  85 115 153 189 231 283 342
#     4   9  19  37  60  84 111 151 195 234 280 341
#     4  10  20  36  59  84 112 150 194 235 278 339
#     4   9  17  34  59  82 110 152 192 228 283 340
#     4  12  25  40  60  87 117 149 190 237 286 340
#     4  10  21  40  62  82 113 154 194 235 285 341
#
# _framework density 19.516085
#
# number of rings (size 3 to 8) (size 9 to 14) (size 15 to 20)
#    0.000    2.000    2.500    1.500    1.750    2.500 
#    0.000    3.750    0.000    0.000    0.000    0.000 
#    0.000    0.000    0.000    0.000    0.000    0.000 
#
# Total GULP energy -396812.543077 kJ/mol
# GULP energy per Si atom -12400.391971 kJ/mol
# Density = 1.947167 g / cm^3
# Si number density = 19.516085 Si / 1000 Ang^3
#
#
#
# Elastic Constant Matrix: (Units=GPa)
#
#
# Indices 1 2 3 4 5 6 
#
# 1 45.1500 40.0701 35.1072 0.0000 0.0000 0.0000
# 2 40.0701 155.0929 59.3509 0.0000 0.0000 0.0000
# 3 35.1072 59.3509 135.3798 0.0000 0.0000 0.0000
# 4 0.0000 0.0000 0.0000 23.2424 0.0000 0.0000
# 5 0.0000 0.0000 0.0000 0.0000 -0.0305 0.0000
# 6 0.0000 0.0000 0.0000 0.0000 0.0000 34.7711
#
#
#
# Elastic Compliance Matrix: (Units=1/GPa)
#
#
# Indices 1 2 3 4 5 6 
#
# 1 0.031921 -0.006103 -0.005602 0.000000 0.000000 0.000000
# 2 -0.006103 0.008915 -0.002325 0.000000 0.000000 0.000000
# 3 -0.005602 -0.002325 0.009859 0.000000 0.000000 0.000000
# 4 0.000000 0.000000 0.000000 0.043025 0.000000 0.000000
# 5 0.000000 0.000000 0.000000 0.000000-32.828387 0.000000
# 6 0.000000 0.000000 0.000000 0.000000 0.000000 0.028760
#
#
# Mechanical properties :
#
#
# Convention : Reuss Voigt Hill
#
# Bulk Modulus (GPa) = 44.18402 67.18658 55.68530
# Shear Modulus (GPa) = -0.15304 25.00292 12.42494
#
# Velocity S-wave (km/s) = -0.28034 3.58319 2.52593
# Velocity P-wave (km/s) = 4.75228 7.18471 6.09115
#
# Compressibility (1/GPa) = 0.02263262
#
# Stress axis : x y z
#
# Youngs Moduli (GPa) = 31.32723 112.17668 101.43158
#
# Poissons Ratio (x) = 0.68466 0.56824
# Poissons Ratio (y) = 0.19120 0.23587
# Poissons Ratio (z) = 0.17550 0.26086
#
# Static dielectric constant tensor:
#      x y z
#    x 3.130090 0.000000 0.000000 
#    y 0.000000 3.700860 0.000000 
#    z 0.000000 0.000000 3.860100 
# 
# 
# High freq. dielectric constant tensor:
#      x y z
#    x 1.719980 0.000000 0.000000 
#    y 0.000000 1.778540 0.000000 
#    z 0.000000 0.000000 1.767700 
# 
# From -- ./inp_files/10656.got.cif
#   From: 2010.03.12/outbox.cif.g09.slc.cpg/sg40_6_cif.got.tgz:10656.got - 2010.04.14 01:38:03.
