data_PCOD8182023
_publ_section_title
;
Structure prediction by ZEFSAII (Michael W. Deem and Ramdas Pophale) SiO2 
 PCOD8182023
Probable space group: A B M 2
;
_chemical_formula_sum "Si O2"
_cell_formula_units_Z 48
_cell_length_a 9.103408
_cell_length_b 8.943773
_cell_length_c 31.379166
_cell_angle_alpha 90.000000
_cell_angle_beta 90.000000
_cell_angle_gamma 90.000000
_cell_volume 2554.854501
_symmetry_space_group_name_H-M "A B M 2"
_symmetry_group_IT_number 39
_symmetry_cell_setting 'orthorhombic'
loop_
_space_group_symop_operation_xyz
x,y,z
-x,-y,z
-x,1/2+y,z
x,1/2-y,z
x,1/2+y,1/2+z
-x,1/2-y,1/2+z
-x,y,1/2+z
x,-y,1/2+z
loop_
_atom_site_type_symbol
_atom_site_label
_atom_site_fract_x
_atom_site_fract_y
_atom_site_fract_z
Si Si1 0.343409 0.925494 0.047710
Si Si2 0.342139 0.425402 0.202345
Si Si3 0.841759 0.927821 0.121882
Si Si4 0.658712 0.426339 0.886392
Si Si5 0.846286 0.076827 0.964512
Si Si6 0.654012 0.923276 0.294426
O O1 0.358522 0.750000 0.058037
O O2 0.500000 0.000000 0.041610
O O3 0.262493 0.008578 0.085725
O O4 0.256278 0.954871 0.004517
O O5 0.500000 0.500000 0.194874
O O6 0.369520 0.250000 0.198087
O O7 0.226054 0.478665 0.167146
O O8 0.270706 0.467878 0.249104
O O9 0.854646 0.750000 0.117434
O O10 0.000000 0.000000 0.116972
O O11 0.500000 0.500000 0.891691
O O12 0.636564 0.250000 0.892660
O O13 0.768201 0.490103 0.922265
O O14 0.732442 0.464202 0.839573
O O15 0.878034 0.250000 0.958106
O O16 0.000000 0.000000 0.972829
O O17 0.621140 0.750000 0.293845
O O18 0.500000 0.000000 0.295360
#
# Coordination Sequence:
#
# PCOD8182023 Si02
#       6
#     8   8   8   8   8   8
#     4  11  23  39  59  82 106 134 172 215 260 310
#     4   9  18  32  52  77 103 134 172 214 258 305
#     4  11  23  38  55  77 107 141 176 215 262 312
#     4   9  17  31  52  77 103 133 171 213 256 303
#     4  10  22  37  53  76 106 139 172 209 255 306
#     4   8  14  27  48  73 101 131 166 210 256 300
#
# _framework density 18.787762000000001
#
# number of rings (size 3 to 8) (size 9 to 14) (size 15 to 20)
#    0.000    2.333    0.000    2.500    0.000    6.000 
#    0.000    0.833    0.000    0.000    0.000    0.000 
#    0.000    0.000    0.000    0.000    0.000    0.000 
#
# Total GULP energy -297382.580730 kJ/mol
# GULP energy per Si atom -12390.940864 kJ/mol
# Density = 1.874500 g / cm^3
# Si number density = 18.787762 Si / 1000 Ang^3
#
#
#
# Elastic Constant Matrix: (Units=GPa)
#
#
# Indices 1 2 3 4 5 6 
#
# 1 111.0033 44.8482 57.3986 0.0000 0.0000 0.0000
# 2 44.8482 53.7332 53.1355 0.0000 0.0000 0.0000
# 3 57.3986 53.1355 156.4212 0.0000 0.0000 0.0000
# 4 0.0000 0.0000 0.0000 23.3510 0.0000 0.0000
# 5 0.0000 0.0000 0.0000 0.0000 -66.0165 0.0000
# 6 0.0000 0.0000 0.0000 0.0000 0.0000 27.0016
#
#
#
# Elastic Compliance Matrix: (Units=1/GPa)
#
#
# Indices 1 2 3 4 5 6 
#
# 1 0.013902 -0.009876 -0.001746 0.000000 0.000000 0.000000
# 2 -0.009876 0.035041 -0.008279 0.000000 0.000000 0.000000
# 3 -0.001746 -0.008279 0.009846 0.000000 0.000000 0.000000
# 4 0.000000 0.000000 0.000000 0.042825 0.000000 0.000000
# 5 0.000000 0.000000 0.000000 0.000000 -0.015148 0.000000
# 6 0.000000 0.000000 0.000000 0.000000 0.000000 0.037035
#
#
# Mechanical properties :
#
#
# Convention : Reuss Voigt Hill
#
# Bulk Modulus (GPa) = 52.67214 70.21360 61.44287
# Shear Modulus (GPa) = 29.47548 7.91893 18.69720
#
# Velocity S-wave (km/s) = 3.96519 2.05526 3.15807
# Velocity P-wave (km/s) = 7.00427 6.56393 6.78768
#
# Compressibility (1/GPa) = 0.01898537
#
# Stress axis : x y z
#
# Youngs Moduli (GPa) = 71.93167 28.53833 101.56227
#
# Poissons Ratio (x) = 0.28185 0.17737
# Poissons Ratio (y) = 0.71042 0.84083
# Poissons Ratio (z) = 0.12562 0.23627
#
# Static dielectric constant tensor:
#      x y z
#    x 3.211130 0.000000 0.000000 
#    y 0.000000 3.423660 0.000000 
#    z 0.000000 0.000000 4.369350 
# 
# 
# High freq. dielectric constant tensor:
#      x y z
#    x 1.702920 0.000000 0.000000 
#    y 0.000000 1.729320 0.000000 
#    z 0.000000 0.000000 1.763080 
# 
# From -- ./inp_files/17578.got.cif
#   From: 2010.03.12/outbox.cif.g09.slc.cpg/sg39_9_cif.got.tgz:17578.got - 2010.04.14 02:53:20.
