data_PCOD8182759
_publ_section_title
;
Structure prediction by ZEFSAII (Michael W. Deem and Ramdas Pophale) SiO2 
 PCOD8182759
Probable space group: A M A 2
;
_chemical_formula_sum "Si O2"
_cell_formula_units_Z 64
_cell_length_a 18.067744
_cell_length_b 20.023310
_cell_length_c 8.713099
_cell_angle_alpha 90.000000
_cell_angle_beta 90.000000
_cell_angle_gamma 90.000000
_cell_volume 3152.190445
_symmetry_space_group_name_H-M "A M A 2"
_symmetry_group_IT_number 40
_symmetry_cell_setting 'orthorhombic'
loop_
_space_group_symop_operation_xyz
x,y,z
-x,-y,z
1/2-x,y,z
1/2+x,-y,z
x,1/2+y,1/2+z
-x,1/2-y,1/2+z
1/2-x,1/2+y,1/2+z
1/2+x,1/2-y,1/2+z
loop_
_atom_site_type_symbol
_atom_site_label
_atom_site_fract_x
_atom_site_fract_y
_atom_site_fract_z
Si Si1 0.030967 0.410585 0.424620
Si Si2 0.603967 0.777877 0.335285
Si Si3 0.463438 0.065696 0.617845
Si Si4 0.584201 0.147228 0.460007
Si Si5 0.162991 0.078154 0.395743
Si Si6 0.512184 0.270938 0.539163
Si Si7 0.073686 0.969039 0.236310
Si Si8 0.668602 0.145633 0.748860
O O1 0.056659 0.462316 0.555673
O O2 0.107653 0.394326 0.341957
O O3 0.970946 0.439606 0.303107
O O4 0.987103 0.347839 0.491889
O O5 0.640279 0.850513 0.325262
O O6 0.569878 0.759598 0.502949
O O7 0.666183 0.724274 0.289478
O O8 0.534160 0.769263 0.218357
O O9 0.508550 0.128642 0.551913
O O10 0.378360 0.067930 0.559624
O O11 0.500000 0.000000 0.544711
O O12 0.572954 0.227249 0.440118
O O13 0.591516 0.105095 0.303444
O O14 0.655086 0.133157 0.567182
O O15 0.250000 0.074621 0.426352
O O16 0.140182 0.020471 0.273469
O O17 0.000000 0.000000 0.314049
O O18 0.750000 0.118348 0.789547
#
# Coordination Sequence:
#
# PCOD8182759 Si02
#       8
#     8   8   8   8   8   8   8   8
#     4  10  23  34  62  90 114 155 200 263 299 355
#     4  10  20  35  60  90 119 156 208 255 305 365
#     4  11  20  40  57  84 115 156 210 246 291 361
#     4  10  18  34  62  83 114 153 201 252 290 365
#     4  12  24  38  63  91 129 170 204 252 318 386
#     4  10  18  33  59  94 113 151 201 259 309 353
#     4  12  21  39  61  89 118 156 208 258 298 351
#     4   9  20  37  55  83 121 156 190 242 311 368
#
# _framework density 20.303343000000002
#
# number of rings (size 3 to 8) (size 9 to 14) (size 15 to 20)
#    0.000    1.500    3.750    3.000    0.000    1.000 
#    0.000    0.000    0.000    9.000    0.000    0.000 
#    0.000    0.000    0.000    0.000    0.000    0.000 
#
# Total GULP energy -396461.451487 kJ/mol
# GULP energy per Si atom -12389.420359 kJ/mol
# Density = 2.025713 g / cm^3
# Si number density = 20.303343 Si / 1000 Ang^3
#
#
#
# Elastic Constant Matrix: (Units=GPa)
#
#
# Indices 1 2 3 4 5 6 
#
# 1 125.8186 37.4187 48.5359 0.0000 0.0000 0.0000
# 2 37.4187 81.7933 30.9758 0.0000 0.0000 0.0000
# 3 48.5359 30.9758 115.1704 0.0000 0.0000 0.0000
# 4 0.0000 0.0000 0.0000 21.4061 0.0000 0.0000
# 5 0.0000 0.0000 0.0000 0.0000 16.3078 0.0000
# 6 0.0000 0.0000 0.0000 0.0000 0.0000 19.6270
#
#
#
# Elastic Compliance Matrix: (Units=1/GPa)
#
#
# Indices 1 2 3 4 5 6 
#
# 1 0.010279 -0.003409 -0.003415 0.000000 0.000000 0.000000
# 2 -0.003409 0.014743 -0.002529 0.000000 0.000000 0.000000
# 3 -0.003415 -0.002529 0.010802 0.000000 0.000000 0.000000
# 4 0.000000 0.000000 0.000000 0.046716 0.000000 0.000000
# 5 0.000000 0.000000 0.000000 0.000000 0.061321 0.000000
# 6 0.000000 0.000000 0.000000 0.000000 0.000000 0.050950
#
#
# Mechanical properties :
#
#
# Convention : Reuss Voigt Hill
#
# Bulk Modulus (GPa) = 58.41502 61.84923 60.13212
# Shear Modulus (GPa) = 22.80785 25.19162 23.99974
#
# Velocity S-wave (km/s) = 3.35528 3.52627 3.44184
# Velocity P-wave (km/s) = 6.62149 6.86354 6.74360
#
# Compressibility (1/GPa) = 0.01711889
#
# Stress axis : x y z
#
# Youngs Moduli (GPa) = 97.28334 67.82806 92.57521
#
# Poissons Ratio (x) = 0.23124 0.31615
# Poissons Ratio (y) = 0.33166 0.23408
# Poissons Ratio (z) = 0.33222 0.17150
#
# Static dielectric constant tensor:
#      x y z
#    x 3.329700 0.000000 0.000000 
#    y 0.000000 4.001230 0.000000 
#    z 0.000000 0.000000 3.666470 
# 
# 
# High freq. dielectric constant tensor:
#      x y z
#    x 1.749640 0.000000 0.000000 
#    y 0.000000 1.813230 0.000000 
#    z 0.000000 0.000000 1.788750 
# 
# From -- ./inp_files/7770.got.cif
#   From: 2010.03.12/outbox.cif.g09.slc.cpg/sg40_4_cif.got.tgz:7770.got - 2010.04.14 01:38:03.
