data_PCOD8182600
_publ_section_title
;
Structure prediction by ZEFSAII (Michael W. Deem and Ramdas Pophale) SiO2 
 PCOD8182600
Probable space group: A M A 2
;
_chemical_formula_sum "Si O2"
_cell_formula_units_Z 52
_cell_length_a 9.305765
_cell_length_b 15.166501
_cell_length_c 20.313176
_cell_angle_alpha 90.000000
_cell_angle_beta 90.000000
_cell_angle_gamma 90.000000
_cell_volume 2866.918258
_symmetry_space_group_name_H-M "A M A 2"
_symmetry_group_IT_number 40
_symmetry_cell_setting 'orthorhombic'
loop_
_space_group_symop_operation_xyz
x,y,z
-x,-y,z
1/2-x,y,z
1/2+x,-y,z
x,1/2+y,1/2+z
-x,1/2-y,1/2+z
1/2-x,1/2+y,1/2+z
1/2+x,1/2-y,1/2+z
loop_
_atom_site_type_symbol
_atom_site_label
_atom_site_fract_x
_atom_site_fract_y
_atom_site_fract_z
Si Si1 0.401845 0.842783 0.838480
Si Si2 0.084828 0.912918 0.388134
Si Si3 0.913140 0.279929 0.963081
Si Si4 0.914126 0.368612 0.529685
Si Si5 0.909836 0.219332 0.266540
Si Si6 0.576950 0.584632 0.659170
Si Si7 0.000000 0.500000 0.421162
O O1 0.250000 0.840722 0.801513
O O2 0.403999 0.770741 0.895082
O O3 0.513710 0.812442 0.782649
O O4 0.413039 0.938825 0.870995
O O5 0.250000 0.933489 0.408164
O O6 0.082147 0.848644 0.326205
O O7 0.999649 0.870535 0.450176
O O8 0.000000 0.000000 0.367190
O O9 0.750000 0.296952 0.990066
O O10 0.007900 0.223200 0.013499
O O11 0.750000 0.351008 0.552170
O O12 0.010656 0.410264 0.586567
O O13 0.905679 0.435733 0.467541
O O14 0.750000 0.249651 0.252041
O O15 0.969075 0.170499 0.201278
O O16 0.500000 0.500000 0.692808
O O17 0.750000 0.572263 0.656414
#
# Coordination Sequence:
#
# PCOD8182600 Si02
#       7
#     8   8   8   8   8   8   4
#     4   9  18  31  50  74 100 134 171 212 258 308
#     4  10  18  30  49  73 100 132 171 212 258 305
#     4   9  18  32  48  70 101 132 166 209 259 309
#     4  11  21  33  51  75 106 139 172 211 261 316
#     4   9  20  35  49  70 102 139 175 214 257 306
#     4  11  22  35  51  74 104 139 178 213 256 308
#     4  10  20  32  52  80 112 136 174 214 266 314
#
# _framework density 18.137941999999999
#
# number of rings (size 3 to 8) (size 9 to 14) (size 15 to 20)
#    0.000    2.154    0.769    2.769    0.000    7.385 
#    0.000    0.000    0.000    0.000    2.000    0.000 
#    0.000    0.000    0.000    0.000    0.000    0.000 
#
# Total GULP energy -322125.502247 kJ/mol
# GULP energy per Si atom -12389.442394 kJ/mol
# Density = 1.809666 g / cm^3
# Si number density = 18.137942 Si / 1000 Ang^3
#
#
#
# Elastic Constant Matrix: (Units=GPa)
#
#
# Indices 1 2 3 4 5 6 
#
# 1 126.2742 34.7296 31.2588 0.0000 0.0000 0.0000
# 2 34.7296 57.6275 30.7717 0.0000 0.0000 0.0000
# 3 31.2588 30.7717 55.5615 0.0000 0.0000 0.0000
# 4 0.0000 0.0000 0.0000 29.6351 0.0000 0.0000
# 5 0.0000 0.0000 0.0000 0.0000 12.6158 0.0000
# 6 0.0000 0.0000 0.0000 0.0000 0.0000 18.4021
#
#
#
# Elastic Compliance Matrix: (Units=1/GPa)
#
#
# Indices 1 2 3 4 5 6 
#
# 1 0.009880 -0.004240 -0.003210 0.000000 0.000000 0.000000
# 2 -0.004240 0.026459 -0.012269 0.000000 0.000000 0.000000
# 3 -0.003210 -0.012269 0.026599 0.000000 0.000000 0.000000
# 4 0.000000 0.000000 0.000000 0.033744 0.000000 0.000000
# 5 0.000000 0.000000 0.000000 0.000000 0.079266 0.000000
# 6 0.000000 0.000000 0.000000 0.000000 0.000000 0.054342
#
#
# Mechanical properties :
#
#
# Convention : Reuss Voigt Hill
#
# Bulk Modulus (GPa) = 42.55226 48.10927 45.33076
# Shear Modulus (GPa) = 18.01408 21.64412 19.82910
#
# Velocity S-wave (km/s) = 3.15488 3.45817 3.31000
# Velocity P-wave (km/s) = 6.06484 6.52127 6.29719
#
# Compressibility (1/GPa) = 0.02350052
#
# Stress axis : x y z
#
# Youngs Moduli (GPa) = 101.21315 37.79395 37.59559
#
# Poissons Ratio (x) = 0.16025 0.12069
# Poissons Ratio (y) = 0.42916 0.46124
# Poissons Ratio (z) = 0.32492 0.46368
#
# Static dielectric constant tensor:
#      x y z
#    x 3.654340 0.000000 0.000000 
#    y 0.000000 3.481540 0.000000 
#    z 0.000000 0.000000 3.084950 
# 
# 
# High freq. dielectric constant tensor:
#      x y z
#    x 1.717430 0.000000 0.000000 
#    y 0.000000 1.691650 0.000000 
#    z 0.000000 0.000000 1.662470 
# 
# From -- ./inp_files/22043.got.cif
#   From: 2010.03.12/outbox.cif.g09.slc.cpg/sg40_12_cif.got.tgz:22043.got - 2010.04.14 01:38:03.
