data_PCOD8182594
_publ_section_title
;
Structure prediction by ZEFSAII (Michael W. Deem and Ramdas Pophale) SiO2 
 PCOD8182594
Probable space group: A M A 2
;
_chemical_formula_sum "Si O2"
_cell_formula_units_Z 56
_cell_length_a 8.834303
_cell_length_b 18.999168
_cell_length_c 17.772101
_cell_angle_alpha 90.000000
_cell_angle_beta 90.000000
_cell_angle_gamma 90.000000
_cell_volume 2982.947751
_symmetry_space_group_name_H-M "A M A 2"
_symmetry_group_IT_number 40
_symmetry_cell_setting 'orthorhombic'
loop_
_space_group_symop_operation_xyz
x,y,z
-x,-y,z
1/2-x,y,z
1/2+x,-y,z
x,1/2+y,1/2+z
-x,1/2-y,1/2+z
1/2-x,1/2+y,1/2+z
1/2+x,1/2-y,1/2+z
loop_
_atom_site_type_symbol
_atom_site_label
_atom_site_fract_x
_atom_site_fract_y
_atom_site_fract_z
Si Si1 0.077653 0.712246 0.718730
Si Si2 0.585335 0.565879 0.898280
Si Si3 0.428291 0.295053 0.968764
Si Si4 0.929062 0.422880 0.261067
Si Si5 0.922802 0.695109 0.360520
Si Si6 0.918948 0.067741 0.222470
Si Si7 0.924905 0.324666 0.125014
O O1 0.250000 0.722508 0.689433
O O2 0.063952 0.739095 0.803928
O O3 0.031853 0.631822 0.709398
O O4 0.955175 0.753746 0.670353
O O5 0.500000 0.500000 0.935916
O O6 0.750000 0.566057 0.936534
O O7 0.510524 0.641057 0.916463
O O8 0.598977 0.554073 0.810259
O O9 0.250000 0.282355 0.962545
O O10 0.506551 0.222792 0.939530
O O11 0.471205 0.319671 0.052086
O O12 0.750000 0.427805 0.271062
O O13 0.970938 0.390260 0.179077
O O14 0.000000 0.500000 0.267528
O O15 0.991729 0.373282 0.327955
O O16 0.750000 0.672878 0.374651
O O17 0.750000 0.079437 0.187980
O O18 0.000000 0.000000 0.184778
O O19 0.750000 0.328847 0.101477
#
# Coordination Sequence:
#
# PCOD8182594 Si02
#       7
#     8   8   8   8   8   8   8
#     4  10  19  33  53  77 103 136 177 224 269 319
#     4   9  19  31  46  70 103 139 173 210 253 302
#     4  11  21  35  53  78 111 147 185 227 275 328
#     4  10  21  38  60  84 113 147 188 236 285 337
#     4  10  20  34  56  82 108 141 184 230 277 329
#     4  10  18  30  48  73 103 135 171 212 257 306
#     4  10  22  37  54  78 108 145 183 225 276 331
#
# _framework density 18.773374
#
# number of rings (size 3 to 8) (size 9 to 14) (size 15 to 20)
#    0.000    2.000    1.429    2.571    0.000    5.143 
#    0.000    2.857    0.000    0.857    0.000    6.000 
#    0.000    0.000    0.000    0.000    0.000    0.000 
#
# Total GULP energy -347044.195832 kJ/mol
# GULP energy per Si atom -12394.435565 kJ/mol
# Density = 1.873065 g / cm^3
# Si number density = 18.773374 Si / 1000 Ang^3
#
#
#
# Elastic Constant Matrix: (Units=GPa)
#
#
# Indices 1 2 3 4 5 6 
#
# 1 92.1812 50.5455 32.6594 0.0000 0.0000 0.0000
# 2 50.5455 137.4704 31.6471 0.0000 0.0000 0.0000
# 3 32.6594 31.6471 49.0184 0.0000 0.0000 0.0000
# 4 0.0000 0.0000 0.0000 14.6775 0.0000 0.0000
# 5 0.0000 0.0000 0.0000 0.0000 27.1054 0.0000
# 6 0.0000 0.0000 0.0000 0.0000 0.0000 32.1121
#
#
#
# Elastic Compliance Matrix: (Units=1/GPa)
#
#
# Indices 1 2 3 4 5 6 
#
# 1 0.015872 -0.003995 -0.007995 0.000000 0.000000 0.000000
# 2 -0.003995 0.009550 -0.003504 0.000000 0.000000 0.000000
# 3 -0.007995 -0.003504 0.027990 0.000000 0.000000 0.000000
# 4 0.000000 0.000000 0.000000 0.068132 0.000000 0.000000
# 5 0.000000 0.000000 0.000000 0.000000 0.036893 0.000000
# 6 0.000000 0.000000 0.000000 0.000000 0.000000 0.031141
#
#
# Mechanical properties :
#
#
# Convention : Reuss Voigt Hill
#
# Bulk Modulus (GPa) = 44.59791 56.48599 50.54195
# Shear Modulus (GPa) = 21.92606 25.70019 23.81313
#
# Velocity S-wave (km/s) = 3.42121 3.70397 3.56540
# Velocity P-wave (km/s) = 6.27804 6.96033 6.62797
#
# Compressibility (1/GPa) = 0.02242258
#
# Stress axis : x y z
#
# Youngs Moduli (GPa) = 63.00580 104.71413 35.72755
#
# Poissons Ratio (x) = 0.41834 0.28566
# Poissons Ratio (y) = 0.25171 0.12518
# Poissons Ratio (z) = 0.50376 0.36689
#
# Static dielectric constant tensor:
#      x y z
#    x 3.662700 0.000000 0.000000 
#    y 0.000000 3.501540 0.000000 
#    z 0.000000 0.000000 3.148430 
# 
# 
# High freq. dielectric constant tensor:
#      x y z
#    x 1.743910 0.000000 0.000000 
#    y 0.000000 1.730390 0.000000 
#    z 0.000000 0.000000 1.688840 
# 
# From -- ./inp_files/19504.got.cif
#   From: 2010.03.12/outbox.cif.g09.slc.cpg/sg40_10_cif.got.tgz:19504.got - 2010.04.14 01:38:03.
