data_PCOD8182447
_publ_section_title
;
Structure prediction by ZEFSAII (Michael W. Deem and Ramdas Pophale) SiO2 
 PCOD8182447
Probable space group: A M A 2
;
_chemical_formula_sum "Si O2"
_cell_formula_units_Z 64
_cell_length_a 8.928536
_cell_length_b 18.443036
_cell_length_c 26.142024
_cell_angle_alpha 90.000000
_cell_angle_beta 90.000000
_cell_angle_gamma 90.000000
_cell_volume 4304.789077
_symmetry_space_group_name_H-M "A M A 2"
_symmetry_group_IT_number 40
_symmetry_cell_setting 'orthorhombic'
loop_
_space_group_symop_operation_xyz
x,y,z
-x,-y,z
1/2-x,y,z
1/2+x,-y,z
x,1/2+y,1/2+z
-x,1/2-y,1/2+z
1/2-x,1/2+y,1/2+z
1/2+x,1/2-y,1/2+z
loop_
_atom_site_type_symbol
_atom_site_label
_atom_site_fract_x
_atom_site_fract_y
_atom_site_fract_z
Si Si1 0.580796 0.281845 0.378920
Si Si2 0.923561 0.155863 0.740341
Si Si3 0.426547 0.424071 0.138391
Si Si4 0.920922 0.926453 0.831663
Si Si5 0.421806 0.203109 0.292076
Si Si6 0.572692 0.923224 0.533423
Si Si7 0.919494 0.155741 0.445335
Si Si8 0.923041 0.076730 0.338801
O O1 0.750000 0.262464 0.358552
O O2 0.561266 0.369046 0.378861
O O3 0.454014 0.250111 0.342434
O O4 0.561930 0.242456 0.434052
O O5 0.750000 0.142331 0.753370
O O6 0.961327 0.133921 0.682434
O O7 0.961921 0.242000 0.745330
O O8 0.016750 0.106320 0.779050
O O9 0.500000 0.500000 0.154636
O O10 0.250000 0.435055 0.129342
O O11 0.503247 0.394968 0.086605
O O12 0.750000 0.945507 0.821008
O O13 0.000000 0.000000 0.848698
O O14 0.250000 0.179265 0.290936
O O15 0.519001 0.129654 0.293306
O O16 0.750000 0.931830 0.538442
O O17 0.534523 0.865418 0.489563
O O18 0.500000 0.000000 0.518148
O O19 0.750000 0.137873 0.462899
O O20 0.959309 0.111821 0.393782
O O21 0.750000 0.064315 0.330177
O O22 0.000000 0.000000 0.334226
#
# Coordination Sequence:
#
# PCOD8182447 Si02
#       8
#     8   8   8   8   8   8   8   8
#     4   8  16  29  42  57  79 108 139 168 200 241
#     4   9  18  30  44  61  81 109 142 172 204 243
#     4  10  19  31  44  59  81 108 139 173 206 238
#     4  10  18  27  41  61  85 112 140 170 203 240
#     4   9  16  27  42  60  82 106 134 169 205 241
#     4  11  21  31  43  60  81 106 137 171 207 242
#     4   9  17  30  45  59  78 106 139 171 203 240
#     4  10  19  29  42  61  84 111 141 170 202 241
#
# _framework density 14.867163
#
# number of rings (size 3 to 8) (size 9 to 14) (size 15 to 20)
#    0.000    2.500    0.000    4.875    0.000    6.500 
#    0.000    0.000    0.000    0.000    0.000    0.000 
#    0.000    1.000    0.000    6.000    0.000    4.250 
#
# Total GULP energy -396590.055100 kJ/mol
# GULP energy per Si atom -12393.439222 kJ/mol
# Density = 1.483332 g / cm^3
# Si number density = 14.867163 Si / 1000 Ang^3
#
#
#
# Elastic Constant Matrix: (Units=GPa)
#
#
# Indices 1 2 3 4 5 6 
#
# 1 91.2594 54.4424 43.2120 0.0000 0.0000 0.0000
# 2 54.4424 111.7273 52.3388 0.0000 0.0000 0.0000
# 3 43.2120 52.3388 74.5786 0.0000 0.0000 0.0000
# 4 0.0000 0.0000 0.0000 25.9205 0.0000 0.0000
# 5 0.0000 0.0000 0.0000 0.0000 19.1274 0.0000
# 6 0.0000 0.0000 0.0000 0.0000 0.0000 24.0924
#
#
#
# Elastic Compliance Matrix: (Units=1/GPa)
#
#
# Indices 1 2 3 4 5 6 
#
# 1 0.017104 -0.005500 -0.006050 0.000000 0.000000 0.000000
# 2 -0.005500 0.015103 -0.007412 0.000000 0.000000 0.000000
# 3 -0.006050 -0.007412 0.022116 0.000000 0.000000 0.000000
# 4 0.000000 0.000000 0.000000 0.038579 0.000000 0.000000
# 5 0.000000 0.000000 0.000000 0.000000 0.052281 0.000000
# 6 0.000000 0.000000 0.000000 0.000000 0.000000 0.041507
#
#
# Mechanical properties :
#
#
# Convention : Reuss Voigt Hill
#
# Bulk Modulus (GPa) = 60.98462 64.17240 62.57851
# Shear Modulus (GPa) = 21.73149 22.33285 22.03217
#
# Velocity S-wave (km/s) = 3.82738 3.87998 3.85377
# Velocity P-wave (km/s) = 7.78720 7.95800 7.87307
#
# Compressibility (1/GPa) = 0.01639758
#
# Stress axis : x y z
#
# Youngs Moduli (GPa) = 58.46660 66.21353 45.21596
#
# Poissons Ratio (x) = 0.36418 0.27357
# Poissons Ratio (y) = 0.32157 0.33515
# Poissons Ratio (z) = 0.35374 0.49078
#
# Static dielectric constant tensor:
#      x y z
#    x 3.004630 0.000000 0.000000 
#    y 0.000000 3.022700 0.000000 
#    z 0.000000 0.000000 2.698750 
# 
# 
# High freq. dielectric constant tensor:
#      x y z
#    x 1.585620 0.000000 0.000000 
#    y 0.000000 1.562000 0.000000 
#    z 0.000000 0.000000 1.528680 
# 
# From -- ./inp_files/25540.got.cif
#   From: 2010.03.12/outbox.cif.g09.slc.cpg/sg40_13_cif.got.tgz:25540.got - 2010.04.14 01:38:03.
