data_PCOD8182794
_publ_section_title
;
Structure prediction by ZEFSAII (Michael W. Deem and Ramdas Pophale) SiO2 
 PCOD8182794
Probable space group: A M A 2
;
_chemical_formula_sum "Si O2"
_cell_formula_units_Z 48
_cell_length_a 16.247933
_cell_length_b 15.796413
_cell_length_c 9.140697
_cell_angle_alpha 90.000000
_cell_angle_beta 90.000000
_cell_angle_gamma 90.000000
_cell_volume 2346.042700
_symmetry_space_group_name_H-M "A M A 2"
_symmetry_group_IT_number 40
_symmetry_cell_setting 'orthorhombic'
loop_
_space_group_symop_operation_xyz
x,y,z
-x,-y,z
1/2-x,y,z
1/2+x,-y,z
x,1/2+y,1/2+z
-x,1/2-y,1/2+z
1/2-x,1/2+y,1/2+z
1/2+x,1/2-y,1/2+z
loop_
_atom_site_type_symbol
_atom_site_label
_atom_site_fract_x
_atom_site_fract_y
_atom_site_fract_z
Si Si1 0.344546 0.042715 0.235460
Si Si2 0.913085 0.358197 0.495970
Si Si3 0.157093 0.988692 0.830426
Si Si4 0.403152 0.383826 0.575313
Si Si5 0.093127 0.975553 0.512302
Si Si6 0.654347 0.688969 0.857549
O O1 0.250000 0.013890 0.219171
O O2 0.404558 0.973436 0.161081
O O3 0.368291 0.048426 0.406550
O O4 0.361035 0.129536 0.147187
O O5 0.903416 0.437809 0.387040
O O6 0.880590 0.276957 0.412643
O O7 0.007368 0.347355 0.540460
O O8 0.250000 0.019939 0.856342
O O9 0.143522 0.971232 0.661048
O O10 0.142680 0.901175 0.920719
O O11 0.357270 0.316336 0.680907
O O12 0.101820 0.884887 0.434377
O O13 0.000000 0.000000 0.546896
O O14 0.750000 0.679500 0.897581
#
# Coordination Sequence:
#
# PCOD8182794 Si02
#       6
#     8   8   8   8   8   8
#     4  10  18  35  60  87 116 158 203 243 291 360
#     4  11  22  37  60  89 120 154 196 248 303 356
#     4  11  21  38  61  88 118 158 203 248 295 356
#     4  10  20  36  59  83 114 156 200 241 290 353
#     4  11  22  38  60  86 118 155 199 248 295 354
#     4  11  23  42  62  87 120 159 198 246 303 359
#
# _framework density 20.459985
#
# number of rings (size 3 to 8) (size 9 to 14) (size 15 to 20)
#    0.000    1.333    0.000   11.500    0.000    2.667 
#    0.000    1.667    0.000    0.000    0.000    0.000 
#    0.000    0.000    0.000    0.000    0.000    0.000 
#
# Total GULP energy -297532.710622 kJ/mol
# GULP energy per Si atom -12397.196276 kJ/mol
# Density = 2.041342 g / cm^3
# Si number density = 20.459985 Si / 1000 Ang^3
#
#
#
# Elastic Constant Matrix: (Units=GPa)
#
#
# Indices 1 2 3 4 5 6 
#
# 1 112.7963 27.7079 26.4776 0.0000 0.0000 0.0000
# 2 27.7079 85.3766 45.0993 0.0000 0.0000 0.0000
# 3 26.4776 45.0993 162.9386 0.0000 0.0000 0.0000
# 4 0.0000 0.0000 0.0000 38.9212 0.0000 0.0000
# 5 0.0000 0.0000 0.0000 0.0000 35.3968 0.0000
# 6 0.0000 0.0000 0.0000 0.0000 0.0000 13.8453
#
#
#
# Elastic Compliance Matrix: (Units=1/GPa)
#
#
# Indices 1 2 3 4 5 6 
#
# 1 0.009728 -0.002720 -0.000828 0.000000 0.000000 0.000000
# 2 -0.002720 0.014479 -0.003566 0.000000 0.000000 0.000000
# 3 -0.000828 -0.003566 0.007259 0.000000 0.000000 0.000000
# 4 0.000000 0.000000 0.000000 0.025693 0.000000 0.000000
# 5 0.000000 0.000000 0.000000 0.000000 0.028251 0.000000
# 6 0.000000 0.000000 0.000000 0.000000 0.000000 0.072227
#
#
# Mechanical properties :
#
#
# Convention : Reuss Voigt Hill
#
# Bulk Modulus (GPa) = 58.00803 62.18676 60.09739
# Shear Modulus (GPa) = 28.15164 35.08778 31.61971
#
# Velocity S-wave (km/s) = 3.71339 4.14568 3.93548
# Velocity P-wave (km/s) = 6.84099 7.30588 7.07725
#
# Compressibility (1/GPa) = 0.01723899
#
# Stress axis : x y z
#
# Youngs Moduli (GPa) = 102.79615 69.06575 137.76466
#
# Poissons Ratio (x) = 0.18784 0.11407
# Poissons Ratio (y) = 0.27957 0.49122
# Poissons Ratio (z) = 0.08512 0.24626
#
# Static dielectric constant tensor:
#      x y z
#    x 3.677800 0.000000 0.000000 
#    y 0.000000 3.442090 0.000000 
#    z 0.000000 0.000000 4.162230 
# 
# 
# High freq. dielectric constant tensor:
#      x y z
#    x 1.810410 0.000000 0.000000 
#    y 0.000000 1.759110 0.000000 
#    z 0.000000 0.000000 1.817310 
# 
# From -- ./inp_files/6424.got.cif
#   From: 2010.03.12/outbox.cif.g09.slc.cpg/sg40_4_cif.got.tgz:6424.got - 2010.04.14 01:38:03.
