data_PCOD8182716
_publ_section_title
;
Structure prediction by ZEFSAII (Michael W. Deem and Ramdas Pophale) SiO2 
 PCOD8182716
Probable space group: A M A 2
;
_chemical_formula_sum "Si O2"
_cell_formula_units_Z 64
_cell_length_a 9.267995
_cell_length_b 19.033790
_cell_length_c 17.774293
_cell_angle_alpha 90.000000
_cell_angle_beta 90.000000
_cell_angle_gamma 90.000000
_cell_volume 3135.475411
_symmetry_space_group_name_H-M "A M A 2"
_symmetry_group_IT_number 40
_symmetry_cell_setting 'orthorhombic'
loop_
_space_group_symop_operation_xyz
x,y,z
-x,-y,z
1/2-x,y,z
1/2+x,-y,z
x,1/2+y,1/2+z
-x,1/2-y,1/2+z
1/2-x,1/2+y,1/2+z
1/2+x,1/2-y,1/2+z
loop_
_atom_site_type_symbol
_atom_site_label
_atom_site_fract_x
_atom_site_fract_y
_atom_site_fract_z
Si Si1 0.080147 0.345654 0.863050
Si Si2 0.582947 0.303177 0.426514
Si Si3 0.908067 0.062313 0.898978
Si Si4 0.423370 0.925059 0.212111
Si Si5 0.904674 0.058871 0.727587
Si Si6 0.582281 0.827514 0.103170
Si Si7 0.918446 0.178586 0.632927
Si Si8 0.420767 0.928482 0.505433
O O1 0.250000 0.338827 0.866800
O O2 0.020528 0.269150 0.890242
O O3 0.031470 0.372018 0.780251
O O4 0.028588 0.404166 0.922495
O O5 0.750000 0.313194 0.405212
O O6 0.491170 0.365375 0.391198
O O7 0.560294 0.312038 0.515308
O O8 0.750000 0.069164 0.938319
O O9 0.883911 0.039379 0.813616
O O10 0.000000 0.000000 0.939933
O O11 0.250000 0.934731 0.207046
O O12 0.485184 0.891636 0.134490
O O13 0.500000 0.000000 0.225216
O O14 0.750000 0.054944 0.685695
O O15 0.962675 0.137268 0.709615
O O16 0.000000 0.000000 0.687032
O O17 0.750000 0.843981 0.121770
O O18 0.516280 0.756531 0.140544
O O19 0.750000 0.193168 0.621382
O O20 0.972947 0.132645 0.562409
O O21 0.250000 0.940308 0.509316
O O22 0.500000 0.000000 0.526360
#
# Coordination Sequence:
#
# PCOD8182716 Si02
#       8
#     8   8   8   8   8   8   8   8
#     4   9  19  37  60  86 117 153 193 238 294 354
#     4  10  20  38  62  86 113 151 194 241 296 353
#     4  10  21  36  55  82 113 148 187 234 286 343
#     4  11  24  42  63  89 121 157 199 248 298 353
#     4   9  18  32  50  76 110 145 181 220 267 325
#     4  10  21  39  63  86 112 151 195 238 289 347
#     4   9  17  32  54  79 111 150 187 226 276 339
#     4  10  18  32  55  82 113 151 190 229 280 344
#
# _framework density 20.411577999999999
#
# number of rings (size 3 to 8) (size 9 to 14) (size 15 to 20)
#    0.000    2.250    1.250    1.500    1.750    1.500 
#    0.000    3.125    0.000    0.000    0.000    0.000 
#    0.000    0.000    0.000    0.000    0.000    0.000 
#
# Total GULP energy -396419.516619 kJ/mol
# GULP energy per Si atom -12388.109894 kJ/mol
# Density = 2.036512 g / cm^3
# Si number density = 20.411578 Si / 1000 Ang^3
#
#
#
# Elastic Constant Matrix: (Units=GPa)
#
#
# Indices 1 2 3 4 5 6 
#
# 1 79.9785 55.8522 28.8620 0.0000 0.0000 0.0000
# 2 55.8522 147.0855 35.6856 0.0000 0.0000 0.0000
# 3 28.8620 35.6856 48.7003 0.0000 0.0000 0.0000
# 4 0.0000 0.0000 0.0000 30.7295 0.0000 0.0000
# 5 0.0000 0.0000 0.0000 0.0000 8.0583 0.0000
# 6 0.0000 0.0000 0.0000 0.0000 0.0000 33.5659
#
#
#
# Elastic Compliance Matrix: (Units=1/GPa)
#
#
# Indices 1 2 3 4 5 6 
#
# 1 0.018898 -0.005423 -0.007226 0.000000 0.000000 0.000000
# 2 -0.005423 0.009825 -0.003985 0.000000 0.000000 0.000000
# 3 -0.007226 -0.003985 0.027737 0.000000 0.000000 0.000000
# 4 0.000000 0.000000 0.000000 0.032542 0.000000 0.000000
# 5 0.000000 0.000000 0.000000 0.000000 0.124096 0.000000
# 6 0.000000 0.000000 0.000000 0.000000 0.000000 0.029792
#
#
# Mechanical properties :
#
#
# Convention : Reuss Voigt Hill
#
# Bulk Modulus (GPa) = 43.12082 57.39598 50.25840
# Shear Modulus (GPa) = 17.61252 24.82838 21.22045
#
# Velocity S-wave (km/s) = 2.94065 3.49146 3.22782
# Velocity P-wave (km/s) = 5.71852 6.66589 6.21029
#
# Compressibility (1/GPa) = 0.02319066
#
# Stress axis : x y z
#
# Youngs Moduli (GPa) = 52.91529 101.78201 36.05328
#
# Poissons Ratio (x) = 0.55195 0.26053
# Poissons Ratio (y) = 0.28695 0.14369
# Poissons Ratio (z) = 0.38238 0.40565
#
# Static dielectric constant tensor:
#      x y z
#    x 3.701290 0.000000 0.000000 
#    y 0.000000 3.972960 0.000000 
#    z 0.000000 0.000000 3.639540 
# 
# 
# High freq. dielectric constant tensor:
#      x y z
#    x 1.768110 0.000000 0.000000 
#    y 0.000000 1.811520 0.000000 
#    z 0.000000 0.000000 1.791500 
# 
# From -- ./inp_files/22405.got.cif
#   From: 2010.03.12/outbox.cif.g09.slc.cpg/sg40_12_cif.got.tgz:22405.got - 2010.04.14 01:38:03.
