data_PCOD8182798
_publ_section_title
;
Structure prediction by ZEFSAII (Michael W. Deem and Ramdas Pophale) SiO2 
 PCOD8182798
Probable space group: A M A 2
;
_chemical_formula_sum "Si O2"
_cell_formula_units_Z 64
_cell_length_a 16.468140
_cell_length_b 16.492538
_cell_length_c 11.908098
_cell_angle_alpha 90.000000
_cell_angle_beta 90.000000
_cell_angle_gamma 90.000000
_cell_volume 3234.256383
_symmetry_space_group_name_H-M "A M A 2"
_symmetry_group_IT_number 40
_symmetry_cell_setting 'orthorhombic'
loop_
_space_group_symop_operation_xyz
x,y,z
-x,-y,z
1/2-x,y,z
1/2+x,-y,z
x,1/2+y,1/2+z
-x,1/2-y,1/2+z
1/2-x,1/2+y,1/2+z
1/2+x,1/2-y,1/2+z
loop_
_atom_site_type_symbol
_atom_site_label
_atom_site_fract_x
_atom_site_fract_y
_atom_site_fract_z
Si Si1 0.159093 0.126596 0.086510
Si Si2 0.080908 0.803331 0.979047
Si Si3 0.845280 0.552535 0.602154
Si Si4 0.345073 0.895788 0.356328
Si Si5 0.344385 0.555640 0.968470
Si Si6 0.903480 0.281586 0.392643
Si Si7 0.653659 0.324262 0.153549
Si Si8 0.345885 0.696478 0.809896
O O1 0.250000 0.108899 0.128730
O O2 0.119869 0.182931 0.184120
O O3 0.118889 0.037643 0.080472
O O4 0.163354 0.174754 0.969852
O O5 0.118538 0.780133 0.858151
O O6 0.984822 0.801441 0.961274
O O7 0.105941 0.893298 0.013506
O O8 0.115100 0.743692 0.074458
O O9 0.750000 0.560203 0.575301
O O10 0.864078 0.578498 0.729437
O O11 0.250000 0.878476 0.373495
O O12 0.393325 0.814622 0.385834
O O13 0.378951 0.965769 0.441541
O O14 0.250000 0.550071 0.940044
O O15 0.381388 0.621906 0.883588
O O16 0.358790 0.586728 0.096449
O O17 0.894794 0.322364 0.270396
O O18 0.750000 0.305312 0.170240
O O19 0.250000 0.703757 0.819161
#
# Coordination Sequence:
#
# PCOD8182798 Si02
#       8
#     8   8   8   8   8   8   8   8
#     4  10  21  37  60  89 120 154 199 254 312 368
#     4  11  23  36  59  88 124 157 205 253 305 364
#     4  10  19  37  66  92 112 149 211 260 295 362
#     4  10  18  35  63  93 114 145 204 258 293 352
#     4   8  15  31  61  92 111 141 200 257 289 339
#     4  12  25  36  57  89 130 163 196 248 313 370
#     4  10  20  40  65  87 118 167 210 246 302 377
#     4   9  17  34  59  87 118 151 191 249 308 359
#
# _framework density 19.788164999999999
#
# number of rings (size 3 to 8) (size 9 to 14) (size 15 to 20)
#    0.000    2.000    2.500    3.000    1.750    0.500 
#    0.000    3.750    2.750    3.000    0.000    0.000 
#    0.000    0.000    0.000    0.000    0.000    0.000 
#
# Total GULP energy -396605.480685 kJ/mol
# GULP energy per Si atom -12393.921271 kJ/mol
# Density = 1.974313 g / cm^3
# Si number density = 19.788165 Si / 1000 Ang^3
#
#
#
# Elastic Constant Matrix: (Units=GPa)
#
#
# Indices 1 2 3 4 5 6 
#
# 1 49.6465 15.1206 23.5535 0.0000 0.0000 0.0000
# 2 15.1206 113.6109 66.0589 0.0000 0.0000 0.0000
# 3 23.5535 66.0589 123.9129 0.0000 0.0000 0.0000
# 4 0.0000 0.0000 0.0000 40.9063 0.0000 0.0000
# 5 0.0000 0.0000 0.0000 0.0000 22.4493 0.0000
# 6 0.0000 0.0000 0.0000 0.0000 0.0000 9.5810
#
#
#
# Elastic Compliance Matrix: (Units=1/GPa)
#
#
# Indices 1 2 3 4 5 6 
#
# 1 0.022180 -0.000725 -0.003829 0.000000 0.000000 0.000000
# 2 -0.000725 0.012780 -0.006675 0.000000 0.000000 0.000000
# 3 -0.003829 -0.006675 0.012357 0.000000 0.000000 0.000000
# 4 0.000000 0.000000 0.000000 0.024446 0.000000 0.000000
# 5 0.000000 0.000000 0.000000 0.000000 0.044545 0.000000
# 6 0.000000 0.000000 0.000000 0.000000 0.000000 0.104373
#
#
# Mechanical properties :
#
#
# Convention : Reuss Voigt Hill
#
# Bulk Modulus (GPa) = 40.23045 55.18182 47.70614
# Shear Modulus (GPa) = 19.88658 26.74980 23.31819
#
# Velocity S-wave (km/s) = 3.17357 3.68068 3.43649
# Velocity P-wave (km/s) = 5.81407 6.78307 6.31718
#
# Compressibility (1/GPa) = 0.02485679
#
# Stress axis : x y z
#
# Youngs Moduli (GPa) = 45.08552 78.24887 80.92845
#
# Poissons Ratio (x) = 0.05677 0.30990
# Poissons Ratio (y) = 0.03271 0.54020
# Poissons Ratio (z) = 0.17265 0.52232
#
# Static dielectric constant tensor:
#      x y z
#    x 3.297500 0.000000 0.000000 
#    y 0.000000 3.740100 0.000000 
#    z 0.000000 0.000000 3.645580 
# 
# 
# High freq. dielectric constant tensor:
#      x y z
#    x 1.746930 0.000000 0.000000 
#    y 0.000000 1.769440 0.000000 
#    z 0.000000 0.000000 1.768910 
# 
# From -- ./inp_files/12452.got.cif
#   From: 2010.03.12/outbox.cif.g09.slc.cpg/sg40_7_cif.got.tgz:12452.got - 2010.04.14 01:38:03.
