data_PCOD8182136
_publ_section_title
;
Structure prediction by ZEFSAII (Michael W. Deem and Ramdas Pophale) SiO2 
 PCOD8182136
Probable space group: A B M 2
;
_chemical_formula_sum "Si O2"
_cell_formula_units_Z 56
_cell_length_a 13.897458
_cell_length_b 16.696068
_cell_length_c 10.971843
_cell_angle_alpha 90.000000
_cell_angle_beta 90.000000
_cell_angle_gamma 90.000000
_cell_volume 2545.828591
_symmetry_space_group_name_H-M "A B M 2"
_symmetry_group_IT_number 39
_symmetry_cell_setting 'orthorhombic'
loop_
_space_group_symop_operation_xyz
x,y,z
-x,-y,z
-x,1/2+y,z
x,1/2-y,z
x,1/2+y,1/2+z
-x,1/2-y,1/2+z
-x,y,1/2+z
x,-y,1/2+z
loop_
_atom_site_type_symbol
_atom_site_label
_atom_site_fract_x
_atom_site_fract_y
_atom_site_fract_z
Si Si1 0.596873 0.462880 0.500000
Si Si2 0.031614 0.091507 0.367320
Si Si3 0.072439 0.344738 0.627485
Si Si4 0.769448 0.160925 0.834058
Si Si5 0.581842 0.160064 0.698596
Si Si6 0.281520 0.390313 0.584335
Si Si7 0.388992 0.337430 0.815018
O O1 0.500000 0.500000 0.441075
O O2 0.550672 0.404189 0.599698
O O3 0.676408 0.521912 0.554373
O O4 0.651704 0.408291 0.399840
O O5 0.013790 0.130340 0.502799
O O6 0.144828 0.096712 0.335079
O O7 0.980000 0.136859 0.255257
O O8 0.000000 0.000000 0.371568
O O9 0.092988 0.250000 0.619549
O O10 0.171435 0.395418 0.631842
O O11 0.809506 0.250000 0.804855
O O12 0.688752 0.134201 0.738918
O O13 0.716685 0.163698 0.964063
O O14 0.583910 0.250000 0.643913
O O15 0.505124 0.156333 0.808343
O O16 0.347406 0.345566 0.680564
O O17 0.359016 0.250000 0.866753
#
# Coordination Sequence:
#
# PCOD8182136 Si02
#       7
#     8   8   8   8   8   8   8
#     4  12  25  39  62  94 136 173 222 271 335 371
#     4  11  24  43  72 103 137 170 226 284 345 400
#     4  11  24  47  72 100 134 182 224 276 343 414
#     4  10  22  44  69  94 128 178 220 263 331 405
#     4  10  23  41  65  92 130 178 223 266 323 391
#     4  11  24  39  68  94 132 169 219 267 331 389
#     4  11  24  43  65  94 132 175 225 271 316 389
#
# _framework density 21.996766999999998
#
# number of rings (size 3 to 8) (size 9 to 14) (size 15 to 20)
#    0.000    1.143    1.429    5.143    6.000    1.143 
#    2.571    0.000    0.000    0.000    0.000    0.000 
#    0.000    0.000    0.000    0.000    0.000    0.000 
#
# Total GULP energy -347036.512849 kJ/mol
# GULP energy per Si atom -12394.161173 kJ/mol
# Density = 2.194670 g / cm^3
# Si number density = 21.996767 Si / 1000 Ang^3
#
#
#
# Elastic Constant Matrix: (Units=GPa)
#
#
# Indices 1 2 3 4 5 6 
#
# 1 92.6938 55.7212 41.0046 0.0000 0.0000 0.0000
# 2 55.7212 133.4755 50.7760 0.0000 0.0000 0.0000
# 3 41.0046 50.7760 96.1335 0.0000 0.0000 0.0000
# 4 0.0000 0.0000 0.0000 41.4930 0.0000 0.0000
# 5 0.0000 0.0000 0.0000 0.0000 32.1183 0.0000
# 6 0.0000 0.0000 0.0000 0.0000 0.0000 -72.3460
#
#
#
# Elastic Compliance Matrix: (Units=1/GPa)
#
#
# Indices 1 2 3 4 5 6 
#
# 1 0.015546 -0.004965 -0.004009 0.000000 0.000000 0.000000
# 2 -0.004965 0.010962 -0.003672 0.000000 0.000000 0.000000
# 3 -0.004009 -0.003672 0.014051 0.000000 0.000000 0.000000
# 4 0.000000 0.000000 0.000000 0.024100 0.000000 0.000000
# 5 0.000000 0.000000 0.000000 0.000000 0.031135 0.000000
# 6 0.000000 0.000000 0.000000 0.000000 0.000000 -0.013822
#
#
# Mechanical properties :
#
#
# Convention : Reuss Voigt Hill
#
# Bulk Modulus (GPa) = 65.49609 68.58959 67.04284
# Shear Modulus (GPa) = 44.50281 11.90645 28.20463
#
# Velocity S-wave (km/s) = 4.50283 2.32907 3.58469
# Velocity P-wave (km/s) = 7.54148 6.20340 6.90493
#
# Compressibility (1/GPa) = 0.01526809
#
# Stress axis : x y z
#
# Youngs Moduli (GPa) = 64.32482 91.22761 71.16698
#
# Poissons Ratio (x) = 0.45295 0.28528
# Poissons Ratio (y) = 0.31937 0.26132
# Poissons Ratio (z) = 0.25785 0.33498
#
# Static dielectric constant tensor:
#      x y z
#    x 3.916130 0.000000 0.000000 
#    y 0.000000 5.473130 0.000000 
#    z 0.000000 0.000000 3.992320 
# 
# 
# High freq. dielectric constant tensor:
#      x y z
#    x 1.854520 0.000000 0.000000 
#    y 0.000000 1.876630 0.000000 
#    z 0.000000 0.000000 1.865980 
# 
# From -- ./inp_files/6463.got.cif
#   From: 2010.03.12/outbox.cif.g09.slc.cpg/sg39_4_cif.got.tgz:6463.got - 2010.04.14 02:53:20.
