data_PCOD8182119
_publ_section_title
;
Structure prediction by ZEFSAII (Michael W. Deem and Ramdas Pophale) SiO2 
 PCOD8182119
Probable space group: A B M 2
;
_chemical_formula_sum "Si O2"
_cell_formula_units_Z 40
_cell_length_a 7.644942
_cell_length_b 20.095518
_cell_length_c 12.039171
_cell_angle_alpha 90.000000
_cell_angle_beta 90.000000
_cell_angle_gamma 90.000000
_cell_volume 1849.566639
_symmetry_space_group_name_H-M "A B M 2"
_symmetry_group_IT_number 39
_symmetry_cell_setting 'orthorhombic'
loop_
_space_group_symop_operation_xyz
x,y,z
-x,-y,z
-x,1/2+y,z
x,1/2-y,z
x,1/2+y,1/2+z
-x,1/2-y,1/2+z
-x,y,1/2+z
x,-y,1/2+z
loop_
_atom_site_type_symbol
_atom_site_label
_atom_site_fract_x
_atom_site_fract_y
_atom_site_fract_z
Si Si1 0.689516 0.250000 0.960740
Si Si2 0.000000 0.000000 0.092228
Si Si3 0.929072 0.750000 0.005651
Si Si4 0.179651 0.604971 0.454520
Si Si5 0.500369 0.859511 0.086542
Si Si6 0.318923 0.039543 0.730541
Si Si7 0.684748 0.750000 0.208923
O O1 0.751209 0.250000 0.833886
O O2 0.576272 0.185079 0.987076
O O3 0.866010 0.250000 0.031455
O O4 0.830975 0.996068 0.172316
O O5 0.018247 0.064532 0.011002
O O6 0.850022 0.750000 0.128262
O O7 0.870306 0.816810 0.939488
O O8 0.345408 0.596560 0.535248
O O9 0.234230 0.572968 0.338240
O O10 0.352889 0.905575 0.137091
O O11 0.568400 0.814911 0.188307
O O12 0.500000 0.000000 0.758912
#
# Coordination Sequence:
#
# PCOD8182119 Si02
#       7
#     4   4   4   8   8   8   4
#     4  11  21  39  70 100 136 188 227 293 373 422
#     4  12  26  48  70 110 142 184 244 304 350 450
#     4  10  24  44  66 104 143 181 242 310 349 441
#     4  11  25  46  72 101 143 189 244 299 369 429
#     4  10  22  42  66  99 136 179 237 290 347 437
#     4  12  26  45  71 100 142 194 237 295 367 433
#     4   9  21  41  64  96 133 177 229 285 352 421
#
# _framework density 21.626685999999999
#
# number of rings (size 3 to 8) (size 9 to 14) (size 15 to 20)
#    0.000    1.200    2.000    3.600    2.800    6.400 
#    7.200    0.000    0.000    0.000    0.000    0.000 
#    0.000    0.000    0.000    0.000    0.000    0.000 
#
# Total GULP energy -247954.199071 kJ/mol
# GULP energy per Si atom -12397.709954 kJ/mol
# Density = 2.157746 g / cm^3
# Si number density = 21.626686 Si / 1000 Ang^3
#
#
#
# Elastic Constant Matrix: (Units=GPa)
#
#
# Indices 1 2 3 4 5 6 
#
# 1 110.9540 36.6494 32.9767 0.0000 0.0000 0.0000
# 2 36.6494 116.4860 56.3007 0.0000 0.0000 0.0000
# 3 32.9767 56.3007 103.8281 0.0000 0.0000 0.0000
# 4 0.0000 0.0000 0.0000 8531.8223 0.0000 0.0000
# 5 0.0000 0.0000 0.0000 0.0000 27.4772 0.0000
# 6 0.0000 0.0000 0.0000 0.0000 0.0000 38.9526
#
#
#
# Elastic Compliance Matrix: (Units=1/GPa)
#
#
# Indices 1 2 3 4 5 6 
#
# 1 0.010375 -0.002265 -0.002067 0.000000 0.000000 0.000000
# 2 -0.002265 0.012128 -0.005857 0.000000 0.000000 0.000000
# 3 -0.002067 -0.005857 0.013464 0.000000 0.000000 0.000000
# 4 0.000000 0.000000 0.000000 0.000117 0.000000 0.000000
# 5 0.000000 0.000000 0.000000 0.000000 0.036394 0.000000
# 6 0.000000 0.000000 0.000000 0.000000 0.000000 0.025672
#
#
# Mechanical properties :
#
#
# Convention : Reuss Voigt Hill
#
# Bulk Modulus (GPa) = 64.14883 64.79130 64.47007
# Shear Modulus (GPa) = 40.41201 1733.33984 886.87592
#
# Velocity S-wave (km/s) = 4.32744 28.34117 20.27250
# Velocity P-wave (km/s) = 7.39563 33.18112 24.03832
#
# Compressibility (1/GPa) = 0.01558875
#
# Stress axis : x y z
#
# Youngs Moduli (GPa) = 96.38253 82.45154 74.27341
#
# Poissons Ratio (x) = 0.18678 0.15352
# Poissons Ratio (y) = 0.21834 0.43503
# Poissons Ratio (z) = 0.19921 0.48293
#
# Static dielectric constant tensor:
#      x y z
#    x 3.962400 0.000000 0.000000 
#    y 0.000000 1.212090 0.000000 
#    z 0.000000 0.000000 3.666830 
# 
# 
# High freq. dielectric constant tensor:
#      x y z
#    x 1.858430 0.000000 0.000000 
#    y 0.000000 1.855730 0.000000 
#    z 0.000000 0.000000 1.842590 
# 
# From -- ./inp_files/4986.got.cif
#   From: 2010.03.12/outbox.cif.g09.slc.cpg/sg39_3_cif.got.tgz:4986.got - 2010.04.14 02:53:20.
