data_PCOD8182821
_publ_section_title
;
Structure prediction by ZEFSAII (Michael W. Deem and Ramdas Pophale) SiO2 
 PCOD8182821
Probable space group: A M A 2
;
_chemical_formula_sum "Si O2"
_cell_formula_units_Z 52
_cell_length_a 20.177768
_cell_length_b 12.697263
_cell_length_c 10.003349
_cell_angle_alpha 90.000000
_cell_angle_beta 90.000000
_cell_angle_gamma 90.000000
_cell_volume 2562.882292
_symmetry_space_group_name_H-M "A M A 2"
_symmetry_group_IT_number 40
_symmetry_cell_setting 'orthorhombic'
loop_
_space_group_symop_operation_xyz
x,y,z
-x,-y,z
1/2-x,y,z
1/2+x,-y,z
x,1/2+y,1/2+z
-x,1/2-y,1/2+z
1/2-x,1/2+y,1/2+z
1/2+x,1/2-y,1/2+z
loop_
_atom_site_type_symbol
_atom_site_label
_atom_site_fract_x
_atom_site_fract_y
_atom_site_fract_z
Si Si1 0.385863 0.106464 0.142080
Si Si2 0.458133 0.101722 0.877430
Si Si3 0.250000 0.211822 0.548747
Si Si4 0.606239 0.335368 0.119614
Si Si5 0.978986 0.321178 0.867231
Si Si6 0.608703 0.622361 0.759512
Si Si7 0.750000 0.861457 0.251742
Si Si8 0.250000 0.388127 0.757748
O O1 0.444298 0.159063 0.226055
O O2 0.316692 0.166767 0.170704
O O3 0.382291 0.982914 0.175093
O O4 0.401390 0.121440 0.986869
O O5 0.420048 0.088143 0.736524
O O6 0.509809 0.197189 0.878629
O O7 0.500000 0.000000 0.914025
O O8 0.315085 0.148956 0.599006
O O9 0.250000 0.207433 0.387707
O O10 0.250000 0.332434 0.607705
O O11 0.588609 0.215423 0.158237
O O12 0.567634 0.365226 0.984271
O O13 0.049949 0.383918 0.869382
O O14 0.680882 0.649150 0.827617
O O15 0.750000 0.986691 0.268004
#
# Coordination Sequence:
#
# PCOD8182821 Si02
#       8
#     8   8   4   8   8   8   4   4
#     4  11  21  38  62  87 113 153 201 248 290 361
#     4  11  23  38  55  85 124 153 195 247 307 365
#     4  10  18  39  59  86 123 155 206 260 305 373
#     4  10  21  36  59  86 116 158 189 248 315 356
#     4  11  20  35  59  85 114 152 198 240 293 356
#     4   9  19  35  59  87 110 147 200 240 290 360
#     4  10  20  37  63  92 115 155 216 254 301 375
#     4   8  18  34  58  90 114 154 194 254 310 362
#
# _framework density 20.289656999999998
#
# number of rings (size 3 to 8) (size 9 to 14) (size 15 to 20)
#    0.000    1.846    1.538    4.154    0.000    1.846 
#    0.000    0.769    0.000    1.846    0.000    0.000 
#    0.000    0.000    0.000    0.000    0.000    0.000 
#
# Total GULP energy -322221.270404 kJ/mol
# GULP energy per Si atom -12393.125785 kJ/mol
# Density = 2.024348 g / cm^3
# Si number density = 20.289657 Si / 1000 Ang^3
#
#
#
# Elastic Constant Matrix: (Units=GPa)
#
#
# Indices 1 2 3 4 5 6 
#
# 1 180.6238 11.5796 55.2954 0.0000 0.0000 0.0000
# 2 11.5796 40.4526 7.2552 0.0000 0.0000 0.0000
# 3 55.2954 7.2552 98.0814 0.0000 0.0000 0.0000
# 4 0.0000 0.0000 0.0000 21.0240 0.0000 0.0000
# 5 0.0000 0.0000 0.0000 0.0000 35.9622 0.0000
# 6 0.0000 0.0000 0.0000 0.0000 0.0000 18.8262
#
#
#
# Elastic Compliance Matrix: (Units=1/GPa)
#
#
# Indices 1 2 3 4 5 6 
#
# 1 0.006755 -0.001267 -0.003714 0.000000 0.000000 0.000000
# 2 -0.001267 0.025290 -0.001156 0.000000 0.000000 0.000000
# 3 -0.003714 -0.001156 0.012375 0.000000 0.000000 0.000000
# 4 0.000000 0.000000 0.000000 0.047565 0.000000 0.000000
# 5 0.000000 0.000000 0.000000 0.000000 0.027807 0.000000
# 6 0.000000 0.000000 0.000000 0.000000 0.000000 0.053118
#
#
# Mechanical properties :
#
#
# Convention : Reuss Voigt Hill
#
# Bulk Modulus (GPa) = 31.10966 51.93536 41.52251
# Shear Modulus (GPa) = 25.52317 31.49764 28.51040
#
# Velocity S-wave (km/s) = 3.55059 3.94432 3.75263
# Velocity P-wave (km/s) = 5.67230 6.81147 6.26782
#
# Compressibility (1/GPa) = 0.03214436
#
# Stress axis : x y z
#
# Youngs Moduli (GPa) = 148.04468 39.54064 80.80681
#
# Poissons Ratio (x) = 0.05011 0.30015
# Poissons Ratio (y) = 0.18763 0.09343
# Poissons Ratio (z) = 0.54989 0.04572
#
# Static dielectric constant tensor:
#      x y z
#    x 4.345450 0.000000 0.000000 
#    y 0.000000 3.467550 0.000000 
#    z 0.000000 0.000000 3.521700 
# 
# 
# High freq. dielectric constant tensor:
#      x y z
#    x 1.822380 0.000000 0.000000 
#    y 0.000000 1.770020 0.000000 
#    z 0.000000 0.000000 1.768610 
# 
# From -- ./inp_files/8269.got.cif
#   From: 2010.03.12/outbox.cif.g09.slc.cpg/sg40_5_cif.got.tgz:8269.got - 2010.04.14 01:38:03.
