data_PCOD8182595
_publ_section_title
;
Structure prediction by ZEFSAII (Michael W. Deem and Ramdas Pophale) SiO2 
 PCOD8182595
Probable space group: A M A 2
;
_chemical_formula_sum "Si O2"
_cell_formula_units_Z 64
_cell_length_a 9.358895
_cell_length_b 33.173571
_cell_length_c 11.798932
_cell_angle_alpha 90.000000
_cell_angle_beta 90.000000
_cell_angle_gamma 90.000000
_cell_volume 3663.190440
_symmetry_space_group_name_H-M "A M A 2"
_symmetry_group_IT_number 40
_symmetry_cell_setting 'orthorhombic'
loop_
_space_group_symop_operation_xyz
x,y,z
-x,-y,z
1/2-x,y,z
1/2+x,-y,z
x,1/2+y,1/2+z
-x,1/2-y,1/2+z
1/2-x,1/2+y,1/2+z
1/2+x,1/2-y,1/2+z
loop_
_atom_site_type_symbol
_atom_site_label
_atom_site_fract_x
_atom_site_fract_y
_atom_site_fract_z
Si Si1 0.086063 0.766318 0.643640
Si Si2 0.911933 0.816842 0.818894
Si Si3 0.080913 0.178242 0.073896
Si Si4 0.085294 0.960419 0.337791
Si Si5 0.087558 0.112319 0.652111
Si Si6 0.415352 0.961090 0.603299
Si Si7 0.087399 0.837115 0.482143
Si Si8 0.084535 0.373824 0.745449
O O1 0.250000 0.767234 0.680323
O O2 0.032753 0.720962 0.625700
O O3 0.065132 0.791229 0.525689
O O4 0.000251 0.784529 0.748105
O O5 0.750000 0.800625 0.822719
O O6 0.920591 0.860678 0.763483
O O7 0.973672 0.821861 0.944716
O O8 0.250000 0.171825 0.080921
O O9 0.006451 0.141622 0.139541
O O10 0.250000 0.969146 0.311715
O O11 0.060522 0.952891 0.470555
O O12 0.033861 0.919380 0.276005
O O13 0.000000 0.000000 0.295033
O O14 0.250000 0.098909 0.625768
O O15 0.986058 0.074521 0.675453
O O16 0.028548 0.135739 0.543812
O O17 0.250000 0.965428 0.634954
O O18 0.500000 0.000000 0.643410
O O19 0.250000 0.851841 0.510469
O O20 0.059295 0.842296 0.348642
O O21 0.250000 0.374467 0.711246
#
# Coordination Sequence:
#
# PCOD8182595 Si02
#       8
#     8   8   8   8   8   8   8   8
#     4   9  19  34  54  76 100 133 175 217 261 309
#     4   9  20  37  54  72 101 137 174 213 260 309
#     4  10  22  37  52  75 104 137 176 220 263 308
#     4   9  18  32  50  75 106 137 169 206 257 315
#     4  10  18  30  50  75 100 134 172 211 254 306
#     4  10  18  30  48  75 108 138 165 206 258 312
#     4   9  17  32  51  72 101 137 170 209 259 309
#     4  10  20  34  53  78 106 139 176 214 260 316
#
# _framework density 17.471108999999998
#
# number of rings (size 3 to 8) (size 9 to 14) (size 15 to 20)
#    0.000    2.500    1.250    0.750    1.750    3.000 
#    0.000    0.000    0.000    0.750    0.000    1.750 
#    0.000    0.000    0.000    0.000    0.000    0.000 
#
# Total GULP energy -396757.133064 kJ/mol
# GULP energy per Si atom -12398.660408 kJ/mol
# Density = 1.743134 g / cm^3
# Si number density = 17.471109 Si / 1000 Ang^3
#
#
#
# Elastic Constant Matrix: (Units=GPa)
#
#
# Indices 1 2 3 4 5 6 
#
# 1 82.9166 50.1293 38.1427 0.0000 0.0000 0.0000
# 2 50.1293 105.7242 37.9311 0.0000 0.0000 0.0000
# 3 38.1427 37.9311 90.5202 0.0000 0.0000 0.0000
# 4 0.0000 0.0000 0.0000 21.0795 0.0000 0.0000
# 5 0.0000 0.0000 0.0000 0.0000 23.9921 0.0000
# 6 0.0000 0.0000 0.0000 0.0000 0.0000 29.5363
#
#
#
# Elastic Compliance Matrix: (Units=1/GPa)
#
#
# Indices 1 2 3 4 5 6 
#
# 1 0.018565 -0.007057 -0.004866 0.000000 0.000000 0.000000
# 2 -0.007057 0.013815 -0.002815 0.000000 0.000000 0.000000
# 3 -0.004866 -0.002815 0.014277 0.000000 0.000000 0.000000
# 4 0.000000 0.000000 0.000000 0.047439 0.000000 0.000000
# 5 0.000000 0.000000 0.000000 0.000000 0.041680 0.000000
# 6 0.000000 0.000000 0.000000 0.000000 0.000000 0.033857
#
#
# Mechanical properties :
#
#
# Convention : Reuss Voigt Hill
#
# Bulk Modulus (GPa) = 58.20321 59.06303 58.63312
# Shear Modulus (GPa) = 24.40975 25.11878 24.76426
#
# Velocity S-wave (km/s) = 3.74190 3.79586 3.76898
# Velocity P-wave (km/s) = 7.21494 7.28635 7.25073
#
# Compressibility (1/GPa) = 0.01718118
#
# Stress axis : x y z
#
# Youngs Moduli (GPa) = 53.86455 72.38679 70.04178
#
# Poissons Ratio (x) = 0.51083 0.34080
# Poissons Ratio (y) = 0.38012 0.19718
# Poissons Ratio (z) = 0.26209 0.20378
#
# Static dielectric constant tensor:
#      x y z
#    x 3.274720 0.000000 0.000000 
#    y 0.000000 3.401230 0.000000 
#    z 0.000000 0.000000 3.003600 
# 
# 
# High freq. dielectric constant tensor:
#      x y z
#    x 1.677350 0.000000 0.000000 
#    y 0.000000 1.679580 0.000000 
#    z 0.000000 0.000000 1.645360 
# 
# From -- ./inp_files/10627.got.cif
#   From: 2010.03.12/outbox.cif.g09.slc.cpg/sg40_6_cif.got.tgz:10627.got - 2010.04.14 01:38:03.
