data_PCOD8182976
_publ_section_title
;
Structure prediction by ZEFSAII (Michael W. Deem and Ramdas Pophale) SiO2 
 PCOD8182976
Probable space group: A M A 2
;
_chemical_formula_sum "Si O2"
_cell_formula_units_Z 64
_cell_length_a 8.888648
_cell_length_b 20.693254
_cell_length_c 19.271792
_cell_angle_alpha 90.000000
_cell_angle_beta 90.000000
_cell_angle_gamma 90.000000
_cell_volume 3544.758040
_symmetry_space_group_name_H-M "A M A 2"
_symmetry_group_IT_number 40
_symmetry_cell_setting 'orthorhombic'
loop_
_space_group_symop_operation_xyz
x,y,z
-x,-y,z
1/2-x,y,z
1/2+x,-y,z
x,1/2+y,1/2+z
-x,1/2-y,1/2+z
1/2-x,1/2+y,1/2+z
1/2+x,1/2-y,1/2+z
loop_
_atom_site_type_symbol
_atom_site_label
_atom_site_fract_x
_atom_site_fract_y
_atom_site_fract_z
Si Si1 0.925950 0.621873 0.835820
Si Si2 0.921366 0.745377 0.491733
Si Si3 0.427366 0.565286 0.706454
Si Si4 0.574222 0.312587 0.210909
Si Si5 0.077154 0.818254 0.130577
Si Si6 0.572845 0.434956 0.122002
Si Si7 0.575399 0.121104 0.493426
Si Si8 0.423684 0.258191 0.335896
O O1 0.750000 0.618954 0.818937
O O2 0.961902 0.600887 0.914428
O O3 0.013492 0.574072 0.784883
O O4 0.979833 0.694416 0.821449
O O5 0.750000 0.771203 0.500407
O O6 0.952342 0.689461 0.548045
O O7 0.946951 0.716664 0.414686
O O8 0.031636 0.804673 0.505832
O O9 0.500000 0.500000 0.675611
O O10 0.250000 0.558032 0.707320
O O11 0.471799 0.625160 0.657997
O O12 0.750000 0.317179 0.227063
O O13 0.533929 0.249030 0.166978
O O14 0.518451 0.374752 0.168269
O O15 0.483829 0.312735 0.283483
O O16 0.250000 0.836427 0.146159
O O17 0.500000 0.500000 0.152877
O O18 0.750000 0.442201 0.122427
O O19 0.518581 0.425564 0.043012
O O20 0.750000 0.112966 0.510494
O O21 0.250000 0.242328 0.321041
#
# Coordination Sequence:
#
# PCOD8182976 Si02
#       8
#     8   8   8   8   8   8   8   8
#     4  10  20  35  53  77 111 148 184 221 267 319
#     4   9  18  34  55  81 112 145 178 222 275 320
#     4  12  25  39  56  80 109 145 185 227 273 324
#     4  10  20  35  57  80 110 148 181 221 277 325
#     4  10  19  36  59  81 110 145 181 224 273 325
#     4  11  23  39  56  78 109 148 186 226 274 325
#     4  10  20  33  53  80 110 146 185 224 264 318
#     4  10  19  31  54  85 112 140 181 227 270 319
#
# _framework density 18.054828000000001
#
# number of rings (size 3 to 8) (size 9 to 14) (size 15 to 20)
#    0.000    1.750    2.500    2.625    0.000    4.000 
#    0.000    0.000    0.000    0.750    0.000    1.750 
#    0.000    0.000    0.000    0.000    0.000    0.000 
#
# Total GULP energy -396892.186797 kJ/mol
# GULP energy per Si atom -12402.880837 kJ/mol
# Density = 1.801373 g / cm^3
# Si number density = 18.054828 Si / 1000 Ang^3
#
#
#
# Elastic Constant Matrix: (Units=GPa)
#
#
# Indices 1 2 3 4 5 6 
#
# 1 91.4223 50.4677 41.7973 0.0000 0.0000 0.0000
# 2 50.4677 107.3817 51.0195 0.0000 0.0000 0.0000
# 3 41.7973 51.0195 99.8110 0.0000 0.0000 0.0000
# 4 0.0000 0.0000 0.0000 22.8722 0.0000 0.0000
# 5 0.0000 0.0000 0.0000 0.0000 28.3394 0.0000
# 6 0.0000 0.0000 0.0000 0.0000 0.0000 29.2741
#
#
#
# Elastic Compliance Matrix: (Units=1/GPa)
#
#
# Indices 1 2 3 4 5 6 
#
# 1 0.015748 -0.005637 -0.003713 0.000000 0.000000 0.000000
# 2 -0.005637 0.014317 -0.004958 0.000000 0.000000 0.000000
# 3 -0.003713 -0.004958 0.014108 0.000000 0.000000 0.000000
# 4 0.000000 0.000000 0.000000 0.043721 0.000000 0.000000
# 5 0.000000 0.000000 0.000000 0.000000 0.035287 0.000000
# 6 0.000000 0.000000 0.000000 0.000000 0.000000 0.034160
#
#
# Mechanical properties :
#
#
# Convention : Reuss Voigt Hill
#
# Bulk Modulus (GPa) = 64.27914 65.02043 64.64978
# Shear Modulus (GPa) = 26.15845 26.45252 26.30548
#
# Velocity S-wave (km/s) = 3.81048 3.83184 3.82118
# Velocity P-wave (km/s) = 7.41884 7.46112 7.44001
#
# Compressibility (1/GPa) = 0.01555715
#
# Stress axis : x y z
#
# Youngs Moduli (GPa) = 63.50172 69.84461 70.88075
#
# Poissons Ratio (x) = 0.39371 0.26319
# Poissons Ratio (y) = 0.35795 0.35143
# Poissons Ratio (z) = 0.23579 0.34629
#
# Static dielectric constant tensor:
#      x y z
#    x 3.343580 0.000000 0.000000 
#    y 0.000000 3.143660 0.000000 
#    z 0.000000 0.000000 3.535970 
# 
# 
# High freq. dielectric constant tensor:
#      x y z
#    x 1.707030 0.000000 0.000000 
#    y 0.000000 1.671810 0.000000 
#    z 0.000000 0.000000 1.702230 
# 
# From -- ./inp_files/22363.got.cif
#   From: 2010.03.12/outbox.cif.g09.slc.cpg/sg40_12_cif.got.tgz:22363.got - 2010.04.14 01:38:03.
