data_PCOD8182403
_publ_section_title
;
Structure prediction by ZEFSAII (Michael W. Deem and Ramdas Pophale) SiO2 
 PCOD8182403
Probable space group: A M A 2
;
_chemical_formula_sum "Si O2"
_cell_formula_units_Z 64
_cell_length_a 18.615912
_cell_length_b 16.519808
_cell_length_c 11.930267
_cell_angle_alpha 90.000000
_cell_angle_beta 90.000000
_cell_angle_gamma 90.000000
_cell_volume 3668.930424
_symmetry_space_group_name_H-M "A M A 2"
_symmetry_group_IT_number 40
_symmetry_cell_setting 'orthorhombic'
loop_
_space_group_symop_operation_xyz
x,y,z
-x,-y,z
1/2-x,y,z
1/2+x,-y,z
x,1/2+y,1/2+z
-x,1/2-y,1/2+z
1/2-x,1/2+y,1/2+z
1/2+x,1/2-y,1/2+z
loop_
_atom_site_type_symbol
_atom_site_label
_atom_site_fract_x
_atom_site_fract_y
_atom_site_fract_z
Si Si1 0.831938 0.766886 0.272730
Si Si2 0.916186 0.521063 0.072597
Si Si3 0.082963 0.736149 0.112723
Si Si4 0.916518 0.986851 0.818802
Si Si5 0.666142 0.385314 0.964139
Si Si6 0.434430 0.191148 0.857351
Si Si7 0.906082 0.149294 0.923763
Si Si8 0.078747 0.793697 0.567612
O O1 0.750000 0.767921 0.230689
O O2 0.851471 0.849326 0.340380
O O3 0.841206 0.693620 0.360629
O O4 0.883937 0.755331 0.167753
O O5 0.883495 0.499049 0.195082
O O6 0.895271 0.614513 0.053309
O O7 0.000000 0.500000 0.062124
O O8 0.874807 0.470275 0.977493
O O9 0.089553 0.740065 0.246430
O O10 0.005811 0.699042 0.085241
O O11 0.141556 0.676083 0.061471
O O12 0.091445 0.825297 0.055368
O O13 0.897418 0.897485 0.862656
O O14 0.891105 0.053473 0.910400
O O15 0.000000 0.000000 0.801523
O O16 0.750000 0.399862 0.978867
O O17 0.520423 0.179077 0.863120
O O18 0.402308 0.243621 0.957056
#
# Coordination Sequence:
#
# PCOD8182403 Si02
#       8
#     8   8   8   8   8   8   8   8
#     4  10  20  35  52  76 109 144 180 215 265 331
#     4  11  18  31  53  81 107 137 180 233 272 308
#     4  10  17  32  53  79 105 141 178 221 271 322
#     4   9  15  29  48  76 105 132 166 214 262 305
#     4  10  21  35  54  79 109 145 183 225 273 327
#     4  10  18  30  52  79 105 135 173 221 273 315
#     4   9  17  29  52  75 104 137 177 216 262 316
#     4  11  20  32  54  80 109 140 179 225 272 322
#
# _framework density 17.443776
#
# number of rings (size 3 to 8) (size 9 to 14) (size 15 to 20)
#    0.000    2.000    5.000    0.750    0.000    0.500 
#    0.000    1.875    0.000    1.500    0.000    3.500 
#    0.000    0.000    0.000    0.000    0.000    0.000 
#
# Total GULP energy -396632.258129 kJ/mol
# GULP energy per Si atom -12394.758067 kJ/mol
# Density = 1.740407 g / cm^3
# Si number density = 17.443776 Si / 1000 Ang^3
#
#
#
# Elastic Constant Matrix: (Units=GPa)
#
#
# Indices 1 2 3 4 5 6 
#
# 1 52.2538 32.7501 31.7025 0.0000 0.0000 0.0000
# 2 32.7501 138.9143 75.8186 0.0000 0.0000 0.0000
# 3 31.7025 75.8186 121.2488 0.0000 0.0000 0.0000
# 4 0.0000 0.0000 0.0000 30.3738 0.0000 0.0000
# 5 0.0000 0.0000 0.0000 0.0000 13.7657 0.0000
# 6 0.0000 0.0000 0.0000 0.0000 0.0000 12.0508
#
#
#
# Elastic Compliance Matrix: (Units=1/GPa)
#
#
# Indices 1 2 3 4 5 6 
#
# 1 0.023731 -0.003352 -0.004109 0.000000 0.000000 0.000000
# 2 -0.003352 0.011402 -0.006253 0.000000 0.000000 0.000000
# 3 -0.004109 -0.006253 0.013232 0.000000 0.000000 0.000000
# 4 0.000000 0.000000 0.000000 0.032923 0.000000 0.000000
# 5 0.000000 0.000000 0.000000 0.000000 0.072645 0.000000
# 6 0.000000 0.000000 0.000000 0.000000 0.000000 0.082982
#
#
# Mechanical properties :
#
#
# Convention : Reuss Voigt Hill
#
# Bulk Modulus (GPa) = 47.76309 65.88437 56.82373
# Shear Modulus (GPa) = 18.42825 22.71443 20.57134
#
# Velocity S-wave (km/s) = 3.25381 3.61245 3.43781
# Velocity P-wave (km/s) = 6.44647 7.43312 6.95731
#
# Compressibility (1/GPa) = 0.02093667
#
# Stress axis : x y z
#
# Youngs Moduli (GPa) = 42.13869 87.70344 75.57388
#
# Poissons Ratio (x) = 0.29401 0.31051
# Poissons Ratio (y) = 0.14126 0.47259
# Poissons Ratio (z) = 0.17313 0.54844
#
# Static dielectric constant tensor:
#      x y z
#    x 2.986830 0.000000 0.000000 
#    y 0.000000 3.399230 0.000000 
#    z 0.000000 0.000000 3.267820 
# 
# 
# High freq. dielectric constant tensor:
#      x y z
#    x 1.643950 0.000000 0.000000 
#    y 0.000000 1.671440 0.000000 
#    z 0.000000 0.000000 1.663560 
# 
# From -- ./inp_files/13198.got.cif
#   From: 2010.03.12/outbox.cif.g09.slc.cpg/sg40_7_cif.got.tgz:13198.got - 2010.04.14 01:38:03.
