data_PCOD8182140
_publ_section_title
;
Structure prediction by ZEFSAII (Michael W. Deem and Ramdas Pophale) SiO2 
 PCOD8182140
Probable space group: A B M 2
;
_chemical_formula_sum "Si O2"
_cell_formula_units_Z 64
_cell_length_a 14.734651
_cell_length_b 21.763522
_cell_length_c 9.153371
_cell_angle_alpha 90.000000
_cell_angle_beta 90.000000
_cell_angle_gamma 90.000000
_cell_volume 2935.283801
_symmetry_space_group_name_H-M "A B M 2"
_symmetry_group_IT_number 39
_symmetry_cell_setting 'orthorhombic'
loop_
_space_group_symop_operation_xyz
x,y,z
-x,-y,z
-x,1/2+y,z
x,1/2-y,z
x,1/2+y,1/2+z
-x,1/2-y,1/2+z
-x,y,1/2+z
x,-y,1/2+z
loop_
_atom_site_type_symbol
_atom_site_label
_atom_site_fract_x
_atom_site_fract_y
_atom_site_fract_z
Si Si1 0.846630 0.007197 0.771980
Si Si2 0.456852 0.321386 0.803901
Si Si3 0.718261 0.983230 0.510630
Si Si4 0.702015 0.624993 0.986488
Si Si5 0.243580 0.179386 0.289601
Si Si6 0.940332 0.628604 0.209901
Si Si7 0.611849 0.367580 0.994458
Si Si8 0.894556 0.118999 0.389115
O O1 0.794858 0.977849 0.634597
O O2 0.923314 0.055646 0.728296
O O3 0.892467 0.954770 0.871526
O O4 0.768254 0.041636 0.864906
O O5 0.482656 0.250000 0.815379
O O6 0.376868 0.335766 0.916059
O O7 0.542804 0.361396 0.857751
O O8 0.430235 0.335935 0.637502
O O9 0.681814 0.052153 0.483065
O O10 0.632116 0.938664 0.537334
O O11 0.790835 0.642353 0.889220
O O12 0.715206 0.640827 0.155379
O O13 0.260115 0.250000 0.253888
O O14 0.135686 0.166461 0.299006
O O15 0.293386 0.163178 0.442690
O O16 0.041033 0.647311 0.264098
O O17 0.940039 0.641392 0.038767
#
# Coordination Sequence:
#
# PCOD8182140 Si02
#       8
#     8   8   8   8   8   8   8   8
#     4  11  19  37  60  94 129 166 207 263 330 398
#     4  12  26  44  67  97 126 169 223 268 328 403
#     4  11  21  40  67  96 130 164 210 268 339 399
#     4  10  22  45  66  95 129 173 219 274 335 396
#     4  11  22  42  67  92 130 178 222 276 333 392
#     4  11  22  38  57  93 130 171 224 265 327 391
#     4  12  25  43  70  96 131 166 217 283 334 406
#     4  10  23  35  59  90 130 170 216 268 326 390
#
# _framework density 21.803682999999999
#
# number of rings (size 3 to 8) (size 9 to 14) (size 15 to 20)
#    0.000    1.000    5.000    4.125    1.750    2.500 
#    0.000    4.375    0.000    0.000    0.000    0.000 
#    0.000    0.000    0.000    0.000    0.000    0.000 
#
# Total GULP energy -396724.302843 kJ/mol
# GULP energy per Si atom -12397.634464 kJ/mol
# Density = 2.175406 g / cm^3
# Si number density = 21.803683 Si / 1000 Ang^3
#
#
#
# Elastic Constant Matrix: (Units=GPa)
#
#
# Indices 1 2 3 4 5 6 
#
# 1 96.9516 36.5198 25.9782 0.0000 0.0000 0.0000
# 2 36.5198 76.7227 22.5393 0.0000 0.0000 0.0000
# 3 25.9782 22.5393 67.3597 0.0000 0.0000 0.0000
# 4 0.0000 0.0000 0.0000 25.8572 0.0000 0.0000
# 5 0.0000 0.0000 0.0000 0.0000 39.7237 0.0000
# 6 0.0000 0.0000 0.0000 0.0000 0.0000 19.9521
#
#
#
# Elastic Compliance Matrix: (Units=1/GPa)
#
#
# Indices 1 2 3 4 5 6 
#
# 1 0.013203 -0.005311 -0.003315 0.000000 0.000000 0.000000
# 2 -0.005311 0.016591 -0.003503 0.000000 0.000000 0.000000
# 3 -0.003315 -0.003503 0.017296 0.000000 0.000000 0.000000
# 4 0.000000 0.000000 0.000000 0.038674 0.000000 0.000000
# 5 0.000000 0.000000 0.000000 0.000000 0.025174 0.000000
# 6 0.000000 0.000000 0.000000 0.000000 0.000000 0.050120
#
#
# Mechanical properties :
#
#
# Convention : Reuss Voigt Hill
#
# Bulk Modulus (GPa) = 43.79741 45.67874 44.73807
# Shear Modulus (GPa) = 25.91646 27.50637 26.71142
#
# Velocity S-wave (km/s) = 3.45139 3.55568 3.50392
# Velocity P-wave (km/s) = 6.00113 6.15245 6.07726
#
# Compressibility (1/GPa) = 0.02283240
#
# Stress axis : x y z
#
# Youngs Moduli (GPa) = 75.73957 60.27330 57.81551
#
# Poissons Ratio (x) = 0.32010 0.19165
# Poissons Ratio (y) = 0.40224 0.20255
# Poissons Ratio (z) = 0.25107 0.21116
#
# Static dielectric constant tensor:
#      x y z
#    x 4.041730 0.000000 0.000000 
#    y 0.000000 3.819820 0.000000 
#    z 0.000000 0.000000 3.985500 
# 
# 
# High freq. dielectric constant tensor:
#      x y z
#    x 1.855300 0.000000 0.000000 
#    y 0.000000 1.838760 0.000000 
#    z 0.000000 0.000000 1.863490 
# 
# From -- ./inp_files/3527.got.cif
#   From: 2010.03.12/outbox.cif.g09.slc.cpg/sg39_2_cif.got.tgz:3527.got - 2010.04.14 02:53:20.
