data_PCOD8182660
_publ_section_title
;
Structure prediction by ZEFSAII (Michael W. Deem and Ramdas Pophale) SiO2 
 PCOD8182660
Probable space group: A M A 2
;
_chemical_formula_sum "Si O2"
_cell_formula_units_Z 48
_cell_length_a 13.312805
_cell_length_b 11.505517
_cell_length_c 17.320989
_cell_angle_alpha 90.000000
_cell_angle_beta 90.000000
_cell_angle_gamma 90.000000
_cell_volume 2653.068083
_symmetry_space_group_name_H-M "A M A 2"
_symmetry_group_IT_number 40
_symmetry_cell_setting 'orthorhombic'
loop_
_space_group_symop_operation_xyz
x,y,z
-x,-y,z
1/2-x,y,z
1/2+x,-y,z
x,1/2+y,1/2+z
-x,1/2-y,1/2+z
1/2-x,1/2+y,1/2+z
1/2+x,1/2-y,1/2+z
loop_
_atom_site_type_symbol
_atom_site_label
_atom_site_fract_x
_atom_site_fract_y
_atom_site_fract_z
Si Si1 0.941578 0.668835 0.148910
Si Si2 0.362531 0.062093 0.420245
Si Si3 0.364716 0.224980 0.287714
Si Si4 0.944547 0.173069 0.473071
Si Si5 0.634704 0.925276 0.708288
Si Si6 0.970317 0.377219 0.365600
O O1 0.905155 0.780699 0.199119
O O2 0.885874 0.559215 0.187913
O O3 0.062267 0.653703 0.154501
O O4 0.907304 0.684069 0.060898
O O5 0.250000 0.090407 0.448707
O O6 0.377119 0.100124 0.330353
O O7 0.438112 0.136066 0.473795
O O8 0.382642 0.925093 0.426995
O O9 0.250000 0.266504 0.289337
O O10 0.428543 0.320268 0.333440
O O11 0.922652 0.294843 0.431135
O O12 0.750000 0.892766 0.691346
O O13 0.609596 0.899870 0.797590
O O14 0.000000 0.500000 0.404358
#
# Coordination Sequence:
#
# PCOD8182660 Si02
#       6
#     8   8   8   8   8   8
#     4  10  19  31  49  78 105 132 170 216 267 308
#     4   9  18  33  52  76 102 137 174 212 260 307
#     4   9  17  32  54  74  98 135 177 212 250 313
#     4  10  21  33  52  79 111 130 169 225 260 307
#     4  10  18  31  53  76 102 135 178 220 254 306
#     4  10  19  34  53  77 105 136 179 210 257 311
#
# _framework density 18.092261000000001
#
# number of rings (size 3 to 8) (size 9 to 14) (size 15 to 20)
#    0.000    2.333    3.333    2.500    0.000    4.000 
#    0.000    0.000   11.000    0.000    0.000    0.000 
#    0.000    0.000    0.000    0.000    0.000    0.000 
#
# Total GULP energy -297449.781515 kJ/mol
# GULP energy per Si atom -12393.740896 kJ/mol
# Density = 1.805108 g / cm^3
# Si number density = 18.092261 Si / 1000 Ang^3
#
#
#
# Elastic Constant Matrix: (Units=GPa)
#
#
# Indices 1 2 3 4 5 6 
#
# 1 104.4636 15.4078 31.1372 0.0000 0.0000 0.0000
# 2 15.4078 89.9103 69.8997 0.0000 0.0000 0.0000
# 3 31.1372 69.8997 141.7882 0.0000 0.0000 0.0000
# 4 0.0000 0.0000 0.0000 23.4419 0.0000 0.0000
# 5 0.0000 0.0000 0.0000 0.0000 12.4065 0.0000
# 6 0.0000 0.0000 0.0000 0.0000 0.0000 12.1236
#
#
#
# Elastic Compliance Matrix: (Units=1/GPa)
#
#
# Indices 1 2 3 4 5 6 
#
# 1 0.010243 -0.000011 -0.002244 0.000000 0.000000 0.000000
# 2 -0.000011 0.018034 -0.008888 0.000000 0.000000 0.000000
# 3 -0.002244 -0.008888 0.011927 0.000000 0.000000 0.000000
# 4 0.000000 0.000000 0.000000 0.042659 0.000000 0.000000
# 5 0.000000 0.000000 0.000000 0.000000 0.080603 0.000000
# 6 0.000000 0.000000 0.000000 0.000000 0.000000 0.082483
#
#
# Mechanical properties :
#
#
# Convention : Reuss Voigt Hill
#
# Bulk Modulus (GPa) = 55.80814 63.22794 59.51804
# Shear Modulus (GPa) = 18.23429 24.24224 21.23827
#
# Velocity S-wave (km/s) = 3.17811 3.66447 3.42992
# Velocity P-wave (km/s) = 6.66187 7.27515 6.97525
#
# Compressibility (1/GPa) = 0.01791853
#
# Stress axis : x y z
#
# Youngs Moduli (GPa) = 97.62575 55.45062 83.84071
#
# Poissons Ratio (x) = 0.00059 0.18815
# Poissons Ratio (y) = 0.00104 0.74519
# Poissons Ratio (z) = 0.21909 0.49286
#
# Static dielectric constant tensor:
#      x y z
#    x 3.403720 0.000000 0.000000 
#    y 0.000000 3.279560 0.000000 
#    z 0.000000 0.000000 3.399120 
# 
# 
# High freq. dielectric constant tensor:
#      x y z
#    x 1.703810 0.000000 0.000000 
#    y 0.000000 1.669820 0.000000 
#    z 0.000000 0.000000 1.689140 
# 
# From -- ./inp_files/20637.got.cif
#   From: 2010.03.12/outbox.cif.g09.slc.cpg/sg40_11_cif.got.tgz:20637.got - 2010.04.14 01:38:03.
