data_PCOD8182408
_publ_section_title
;
Structure prediction by ZEFSAII (Michael W. Deem and Ramdas Pophale) SiO2 
 PCOD8182408
Probable space group: A M A 2
;
_chemical_formula_sum "Si O2"
_cell_formula_units_Z 48
_cell_length_a 18.465171
_cell_length_b 15.538562
_cell_length_c 9.125084
_cell_angle_alpha 90.000000
_cell_angle_beta 90.000000
_cell_angle_gamma 90.000000
_cell_volume 2618.189217
_symmetry_space_group_name_H-M "A M A 2"
_symmetry_group_IT_number 40
_symmetry_cell_setting 'orthorhombic'
loop_
_space_group_symop_operation_xyz
x,y,z
-x,-y,z
1/2-x,y,z
1/2+x,-y,z
x,1/2+y,1/2+z
-x,1/2-y,1/2+z
1/2-x,1/2+y,1/2+z
1/2+x,1/2-y,1/2+z
loop_
_atom_site_type_symbol
_atom_site_label
_atom_site_fract_x
_atom_site_fract_y
_atom_site_fract_z
Si Si1 0.830054 0.845769 0.569040
Si Si2 0.544828 0.422880 0.900922
Si Si3 0.421887 0.507432 0.581788
Si Si4 0.035338 0.753174 0.375239
Si Si5 0.332437 0.143838 0.910281
Si Si6 0.579312 0.187008 0.068817
O O1 0.750000 0.857728 0.506121
O O2 0.879519 0.912387 0.481977
O O3 0.833359 0.872643 0.737925
O O4 0.850933 0.746117 0.536327
O O5 0.500000 0.500000 0.971722
O O6 0.562519 0.439335 0.730296
O O7 0.491633 0.343937 0.935804
O O8 0.500000 0.500000 0.499997
O O9 0.362092 0.557557 0.487815
O O10 0.394485 0.409287 0.611917
O O11 0.113952 0.724954 0.441359
O O12 0.037645 0.762438 0.199866
O O13 0.975423 0.683320 0.429343
O O14 0.250000 0.163652 0.964226
#
# Coordination Sequence:
#
# PCOD8182408 Si02
#       6
#     8   8   8   8   8   8
#     4   9  21  38  53  76 110 147 183 219 272 334
#     4  10  19  34  58  83 109 138 184 231 271 323
#     4  11  19  35  56  87 112 133 184 234 269 324
#     4  10  17  34  53  79 108 141 177 223 267 320
#     4  10  21  35  53  77 111 147 181 220 273 329
#     4  10  19  33  58  79 108 140 178 224 269 325
#
# _framework density 18.333282000000001
#
# number of rings (size 3 to 8) (size 9 to 14) (size 15 to 20)
#    0.000    2.000    5.000    0.000    0.000    2.000 
#    3.000    0.833    0.000    0.000    0.000    0.000 
#    0.000    0.000    0.000    0.000    0.000    0.000 
#
# Total GULP energy -297354.369419 kJ/mol
# GULP energy per Si atom -12389.765392 kJ/mol
# Density = 1.829155 g / cm^3
# Si number density = 18.333282 Si / 1000 Ang^3
#
#
#
# Elastic Constant Matrix: (Units=GPa)
#
#
# Indices 1 2 3 4 5 6 
#
# 1 165.1670 67.2878 48.5856 0.0000 0.0000 0.0000
# 2 67.2878 110.8268 36.4372 0.0000 0.0000 0.0000
# 3 48.5856 36.4372 45.9994 0.0000 0.0000 0.0000
# 4 0.0000 0.0000 0.0000 23.5768 0.0000 0.0000
# 5 0.0000 0.0000 0.0000 0.0000 25.3601 0.0000
# 6 0.0000 0.0000 0.0000 0.0000 0.0000 27.5239
#
#
#
# Elastic Compliance Matrix: (Units=1/GPa)
#
#
# Indices 1 2 3 4 5 6 
#
# 1 0.009641 -0.003388 -0.007499 0.000000 0.000000 0.000000
# 2 -0.003388 0.013391 -0.007029 0.000000 0.000000 0.000000
# 3 -0.007499 -0.007029 0.035228 0.000000 0.000000 0.000000
# 4 0.000000 0.000000 0.000000 0.042415 0.000000 0.000000
# 5 0.000000 0.000000 0.000000 0.000000 0.039432 0.000000
# 6 0.000000 0.000000 0.000000 0.000000 0.000000 0.036332
#
#
# Mechanical properties :
#
#
# Convention : Reuss Voigt Hill
#
# Bulk Modulus (GPa) = 44.58767 69.62385 57.10576
# Shear Modulus (GPa) = 22.75356 26.60433 24.67895
#
# Velocity S-wave (km/s) = 3.52676 3.81353 3.67294
# Velocity P-wave (km/s) = 6.39980 7.57957 7.01453
#
# Compressibility (1/GPa) = 0.02242773
#
# Stress axis : x y z
#
# Youngs Moduli (GPa) = 103.72876 74.67760 28.38645
#
# Poissons Ratio (x) = 0.25298 0.21287
# Poissons Ratio (y) = 0.35140 0.19953
# Poissons Ratio (z) = 0.77787 0.52492
#
# Static dielectric constant tensor:
#      x y z
#    x 3.590440 0.000000 0.000000 
#    y 0.000000 3.472740 0.000000 
#    z 0.000000 0.000000 3.248330 
# 
# 
# High freq. dielectric constant tensor:
#      x y z
#    x 1.706600 0.000000 0.000000 
#    y 0.000000 1.710680 0.000000 
#    z 0.000000 0.000000 1.692720 
# 
# From -- ./inp_files/7448.got.cif
#   From: 2010.03.12/outbox.cif.g09.slc.cpg/sg40_4_cif.got.tgz:7448.got - 2010.04.14 01:38:03.
