data_PCOD8182014
_publ_section_title
;
Structure prediction by ZEFSAII (Michael W. Deem and Ramdas Pophale) SiO2 
 PCOD8182014
Probable space group: A B M 2
;
_chemical_formula_sum "Si O2"
_cell_formula_units_Z 64
_cell_length_a 14.074369
_cell_length_b 16.705210
_cell_length_c 12.258341
_cell_angle_alpha 90.000000
_cell_angle_beta 90.000000
_cell_angle_gamma 90.000000
_cell_volume 2882.123396
_symmetry_space_group_name_H-M "A B M 2"
_symmetry_group_IT_number 39
_symmetry_cell_setting 'orthorhombic'
loop_
_space_group_symop_operation_xyz
x,y,z
-x,-y,z
-x,1/2+y,z
x,1/2-y,z
x,1/2+y,1/2+z
-x,1/2-y,1/2+z
-x,y,1/2+z
x,-y,1/2+z
loop_
_atom_site_type_symbol
_atom_site_label
_atom_site_fract_x
_atom_site_fract_y
_atom_site_fract_z
Si Si1 0.840295 0.657641 0.756990
Si Si2 0.168133 0.160624 0.123679
Si Si3 0.466317 0.158163 0.237763
Si Si4 0.035336 0.090286 0.949872
Si Si5 0.350207 0.081706 0.807870
Si Si6 0.282252 0.404422 0.325556
Si Si7 0.635183 0.662464 0.017898
Si Si8 0.155720 0.157862 0.507353
O O1 0.868875 0.750000 0.771250
O O2 0.902315 0.605732 0.841617
O O3 0.728856 0.647866 0.781108
O O4 0.856318 0.628244 0.632362
O O5 0.126168 0.250000 0.143753
O O6 0.203933 0.126592 0.239178
O O7 0.253146 0.166614 0.038373
O O8 0.090484 0.105233 0.064157
O O9 0.500087 0.250000 0.247334
O O10 0.555167 0.097745 0.238425
O O11 0.382377 0.143315 0.326277
O O12 0.419071 0.136077 0.124484
O O13 0.000000 0.000000 0.948615
O O14 0.944456 0.148204 0.946075
O O15 0.305380 0.995098 0.792689
O O16 0.387328 0.094611 0.930593
O O17 0.236102 0.395281 0.445722
O O18 0.599553 0.750000 0.977650
O O19 0.188316 0.250000 0.502762
#
# Coordination Sequence:
#
# PCOD8182014 Si02
#       8
#     8   8   8   8   8   8   8   8
#     4  11  25  45  68  98 138 187 238 287 356 431
#     4  10  21  43  73  95 130 186 234 280 339 431
#     4  10  22  42  69 100 134 185 244 287 346 432
#     4  12  26  43  71 102 138 176 236 299 353 416
#     4  12  23  40  69 101 142 179 229 305 354 412
#     4  11  25  43  68 102 143 182 231 291 359 415
#     4   9  19  38  66  96 129 181 239 283 343 418
#     4  11  26  44  66  98 141 188 233 288 350 425
#
# _framework density 22.205850000000002
#
# number of rings (size 3 to 8) (size 9 to 14) (size 15 to 20)
#    0.000    1.250    1.250    5.250    3.500    2.500 
#    0.000    3.750    0.000    0.000    0.000    0.000 
#    0.000    0.000    0.000    0.000    0.000    0.000 
#
# Total GULP energy -396770.115212 kJ/mol
# GULP energy per Si atom -12399.066100 kJ/mol
# Density = 2.215531 g / cm^3
# Si number density = 22.205850 Si / 1000 Ang^3
#
#
#
# Elastic Constant Matrix: (Units=GPa)
#
#
# Indices 1 2 3 4 5 6 
#
# 1 134.3435 44.1608 53.5698 0.0000 0.0000 0.0000
# 2 44.1608 118.4916 48.0601 0.0000 0.0000 0.0000
# 3 53.5698 48.0601 88.7301 0.0000 0.0000 0.0000
# 4 0.0000 0.0000 0.0000 29.9883 0.0000 0.0000
# 5 0.0000 0.0000 0.0000 0.0000 31.7063 0.0000
# 6 0.0000 0.0000 0.0000 0.0000 0.0000 40.8870
#
#
#
# Elastic Compliance Matrix: (Units=1/GPa)
#
#
# Indices 1 2 3 4 5 6 
#
# 1 0.010048 -0.001646 -0.005175 0.000000 0.000000 0.000000
# 2 -0.001646 0.011085 -0.005010 0.000000 0.000000 0.000000
# 3 -0.005175 -0.005010 0.017108 0.000000 0.000000 0.000000
# 4 0.000000 0.000000 0.000000 0.033346 0.000000 0.000000
# 5 0.000000 0.000000 0.000000 0.000000 0.031539 0.000000
# 6 0.000000 0.000000 0.000000 0.000000 0.000000 0.024458
#
#
# Mechanical properties :
#
#
# Convention : Reuss Voigt Hill
#
# Bulk Modulus (GPa) = 68.59224 70.34963 69.47094
# Shear Modulus (GPa) = 32.02921 33.56794 32.79857
#
# Velocity S-wave (km/s) = 3.80198 3.89224 3.84738
# Velocity P-wave (km/s) = 7.08730 7.20755 7.14768
#
# Compressibility (1/GPa) = 0.01457891
#
# Stress axis : x y z
#
# Youngs Moduli (GPa) = 99.52046 90.21141 58.45092
#
# Poissons Ratio (x) = 0.14848 0.30248
# Poissons Ratio (y) = 0.16380 0.29287
# Poissons Ratio (z) = 0.51502 0.45200
#
# Static dielectric constant tensor:
#      x y z
#    x 4.128760 0.000000 0.000000 
#    y 0.000000 3.860110 0.000000 
#    z 0.000000 0.000000 4.020980 
# 
# 
# High freq. dielectric constant tensor:
#      x y z
#    x 1.879450 0.000000 0.000000 
#    y 0.000000 1.870280 0.000000 
#    z 0.000000 0.000000 1.875050 
# 
# From -- ./inp_files/6635.got.cif
#   From: 2010.03.12/outbox.cif.g09.slc.cpg/sg39_4_cif.got.tgz:6635.got - 2010.04.14 02:53:20.
