data_PCOD8182039
_publ_section_title
;
Structure prediction by ZEFSAII (Michael W. Deem and Ramdas Pophale) SiO2 
 PCOD8182039
Probable space group: A B M 2
;
_chemical_formula_sum "Si O2"
_cell_formula_units_Z 48
_cell_length_a 6.214733
_cell_length_b 21.922791
_cell_length_c 16.744111
_cell_angle_alpha 90.000000
_cell_angle_beta 90.000000
_cell_angle_gamma 90.000000
_cell_volume 2281.289560
_symmetry_space_group_name_H-M "A B M 2"
_symmetry_group_IT_number 39
_symmetry_cell_setting 'orthorhombic'
loop_
_space_group_symop_operation_xyz
x,y,z
-x,-y,z
-x,1/2+y,z
x,1/2-y,z
x,1/2+y,1/2+z
-x,1/2-y,1/2+z
-x,y,1/2+z
x,-y,1/2+z
loop_
_atom_site_type_symbol
_atom_site_label
_atom_site_fract_x
_atom_site_fract_y
_atom_site_fract_z
Si Si1 0.500000 0.000000 0.471781
Si Si2 0.954759 0.819942 0.823447
Si Si3 0.000000 0.500000 0.187441
Si Si4 0.312953 0.913655 0.599784
Si Si5 0.647198 0.895143 0.378583
Si Si6 0.667968 0.406624 0.236215
Si Si7 0.659093 0.318360 0.476567
O O1 0.639417 0.044035 0.525173
O O2 0.322619 0.039384 0.421715
O O3 0.023874 0.750000 0.803462
O O4 0.152941 0.866493 0.831781
O O5 0.813486 0.845410 0.748725
O O6 0.836670 0.822213 0.907871
O O7 0.897119 0.556852 0.139520
O O8 0.810182 0.468537 0.237515
O O9 0.519662 0.904811 0.657358
O O10 0.255424 0.849109 0.558767
O O11 0.470370 0.911587 0.314293
O O12 0.562700 0.847183 0.444323
O O13 0.604305 0.250000 0.500215
#
# Coordination Sequence:
#
# PCOD8182039 Si02
#       7
#     4   8   4   8   8   8   8
#     4  10  22  38  58  92 130 160 218 258 332 376
#     4  10  22  41  67  97 127 168 219 262 317 386
#     4  12  24  40  64  86 132 168 214 260 316 384
#     4  11  23  40  61  92 129 171 209 268 317 383
#     4  10  22  39  65  93 126 168 209 269 319 378
#     4  11  24  41  62  91 130 168 210 262 320 373
#     4   9  21  41  63  93 126 165 214 262 318 374
#
# _framework density 21.040728999999999
#
# number of rings (size 3 to 8) (size 9 to 14) (size 15 to 20)
#    0.000    1.667    1.667    1.500    7.000    1.333 
#    0.000    2.500    0.000    0.000    0.000    0.000 
#    0.000    0.000    0.000    0.000    0.000    0.000 
#
# Total GULP energy -297396.899611 kJ/mol
# GULP energy per Si atom -12391.537484 kJ/mol
# Density = 2.099284 g / cm^3
# Si number density = 21.040729 Si / 1000 Ang^3
#
#
#
# Elastic Constant Matrix: (Units=GPa)
#
#
# Indices 1 2 3 4 5 6 
#
# 1 89.2251 50.8442 36.1496 0.0000 0.0000 0.0000
# 2 50.8442 157.4234 72.3386 0.0000 0.0000 0.0000
# 3 36.1496 72.3386 83.8126 0.0000 0.0000 0.0000
# 4 0.0000 0.0000 0.0000 29.8418 0.0000 0.0000
# 5 0.0000 0.0000 0.0000 0.0000 -59.0355 0.0000
# 6 0.0000 0.0000 0.0000 0.0000 0.0000 31.5283
#
#
#
# Elastic Compliance Matrix: (Units=1/GPa)
#
#
# Indices 1 2 3 4 5 6 
#
# 1 0.014374 -0.002973 -0.003634 0.000000 0.000000 0.000000
# 2 -0.002973 0.011142 -0.008335 0.000000 0.000000 0.000000
# 3 -0.003634 -0.008335 0.020693 0.000000 0.000000 0.000000
# 4 0.000000 0.000000 0.000000 0.033510 0.000000 0.000000
# 5 0.000000 0.000000 0.000000 0.000000 -0.016939 0.000000
# 6 0.000000 0.000000 0.000000 0.000000 0.000000 0.031717
#
#
# Mechanical properties :
#
#
# Convention : Reuss Voigt Hill
#
# Bulk Modulus (GPa) = 61.25237 72.12512 66.68875
# Shear Modulus (GPa) = 38.51419 11.87550 25.19484
#
# Velocity S-wave (km/s) = 4.28303 2.37830 3.46415
# Velocity P-wave (km/s) = 7.32350 6.47263 6.91117
#
# Compressibility (1/GPa) = 0.01632590
#
# Stress axis : x y z
#
# Youngs Moduli (GPa) = 69.57097 89.74757 48.32637
#
# Poissons Ratio (x) = 0.26678 0.17562
# Poissons Ratio (y) = 0.20680 0.40279
# Poissons Ratio (z) = 0.25283 0.74804
#
# Static dielectric constant tensor:
#      x y z
#    x 4.019160 0.000000 0.000000 
#    y 0.000000 4.542620 0.000000 
#    z 0.000000 0.000000 3.961250 
# 
# 
# High freq. dielectric constant tensor:
#      x y z
#    x 1.811090 0.000000 0.000000 
#    y 0.000000 1.837750 0.000000 
#    z 0.000000 0.000000 1.823870 
# 
# From -- ./inp_files/11070.got.cif
#   From: 2010.03.12/outbox.cif.g09.slc.cpg/sg39_6_cif.got.tgz:11070.got - 2010.04.14 02:53:20.
