data_PCOD8182932
_publ_section_title
;
Structure prediction by ZEFSAII (Michael W. Deem and Ramdas Pophale) SiO2 
 PCOD8182932
Probable space group: A M A 2
;
_chemical_formula_sum "Si O2"
_cell_formula_units_Z 64
_cell_length_a 9.073985
_cell_length_b 29.867509
_cell_length_c 14.174664
_cell_angle_alpha 90.000000
_cell_angle_beta 90.000000
_cell_angle_gamma 90.000000
_cell_volume 3841.579572
_symmetry_space_group_name_H-M "A M A 2"
_symmetry_group_IT_number 40
_symmetry_cell_setting 'orthorhombic'
loop_
_space_group_symop_operation_xyz
x,y,z
-x,-y,z
1/2-x,y,z
1/2+x,-y,z
x,1/2+y,1/2+z
-x,1/2-y,1/2+z
1/2-x,1/2+y,1/2+z
1/2+x,1/2-y,1/2+z
loop_
_atom_site_type_symbol
_atom_site_label
_atom_site_fract_x
_atom_site_fract_y
_atom_site_fract_z
Si Si1 0.419083 0.868433 0.658530
Si Si2 0.078043 0.044467 0.390025
Si Si3 0.423443 0.303943 0.656603
Si Si4 0.086176 0.822815 0.464050
Si Si5 0.917752 0.778065 0.977829
Si Si6 0.075819 0.545656 0.107987
Si Si7 0.577174 0.863893 0.298972
Si Si8 0.423312 0.212575 0.760384
O O1 0.250000 0.874829 0.690230
O O2 0.430139 0.857318 0.548494
O O3 0.508827 0.914514 0.671775
O O4 0.490699 0.829516 0.719759
O O5 0.250000 0.036471 0.380837
O O6 0.035248 0.054069 0.498456
O O7 0.026341 0.085789 0.324949
O O8 0.000000 0.000000 0.351527
O O9 0.250000 0.309101 0.658631
O O10 0.478005 0.305319 0.548595
O O11 0.493629 0.347366 0.706116
O O12 0.474456 0.258570 0.710074
O O13 0.250000 0.825975 0.417571
O O14 0.062136 0.773642 0.505653
O O15 0.963641 0.831910 0.386042
O O16 0.750000 0.793830 0.993181
O O17 0.965951 0.785161 0.870123
O O18 0.250000 0.542954 0.124488
O O19 0.000000 0.500000 0.142931
O O20 0.750000 0.860848 0.281498
O O21 0.250000 0.205428 0.744639
#
# Coordination Sequence:
#
# PCOD8182932 Si02
#       8
#     8   8   8   8   8   8   8   8
#     4  11  21  32  50  75 103 137 175 211 256 304
#     4   9  19  32  48  72 100 132 168 206 249 301
#     4  11  22  35  51  75 102 134 174 213 255 303
#     4  10  19  31  48  72 103 136 172 212 251 295
#     4  10  20  37  52  70 101 137 174 216 257 296
#     4  10  19  33  50  73 104 135 171 209 254 304
#     4  11  21  33  50  74 102 137 175 208 252 305
#     4  10  21  35  51  71 101 136 174 213 253 301
#
# _framework density 16.659814000000001
#
# number of rings (size 3 to 8) (size 9 to 14) (size 15 to 20)
#    0.000    1.750    3.750    1.500    0.000    3.500 
#    0.000    0.000    0.000    0.000    0.000    0.875 
#    0.000    4.000    0.000    0.000    0.000    0.000 
#
# Total GULP energy -396841.003672 kJ/mol
# GULP energy per Si atom -12401.281365 kJ/mol
# Density = 1.662190 g / cm^3
# Si number density = 16.659814 Si / 1000 Ang^3
#
#
#
# Elastic Constant Matrix: (Units=GPa)
#
#
# Indices 1 2 3 4 5 6 
#
# 1 70.4227 48.1730 33.1207 0.0000 0.0000 0.0000
# 2 48.1730 98.0872 26.0905 0.0000 0.0000 0.0000
# 3 33.1207 26.0905 62.8204 0.0000 0.0000 0.0000
# 4 0.0000 0.0000 0.0000 24.8233 0.0000 0.0000
# 5 0.0000 0.0000 0.0000 0.0000 27.4499 0.0000
# 6 0.0000 0.0000 0.0000 0.0000 0.0000 31.2741
#
#
#
# Elastic Compliance Matrix: (Units=1/GPa)
#
#
# Indices 1 2 3 4 5 6 
#
# 1 0.025391 -0.010016 -0.009227 0.000000 0.000000 0.000000
# 2 -0.010016 0.015412 -0.001120 0.000000 0.000000 0.000000
# 3 -0.009227 -0.001120 0.021248 0.000000 0.000000 0.000000
# 4 0.000000 0.000000 0.000000 0.040285 0.000000 0.000000
# 5 0.000000 0.000000 0.000000 0.000000 0.036430 0.000000
# 6 0.000000 0.000000 0.000000 0.000000 0.000000 0.031975
#
#
# Mechanical properties :
#
#
# Convention : Reuss Voigt Hill
#
# Bulk Modulus (GPa) = 46.89312 49.56652 48.22982
# Shear Modulus (GPa) = 22.87533 24.97252 23.92392
#
# Velocity S-wave (km/s) = 3.70953 3.87585 3.79360
# Velocity P-wave (km/s) = 6.82320 7.06020 6.94271
#
# Compressibility (1/GPa) = 0.02132509
#
# Stress axis : x y z
#
# Youngs Moduli (GPa) = 39.38418 64.88463 47.06219
#
# Poissons Ratio (x) = 0.64987 0.43425
# Poissons Ratio (y) = 0.39446 0.05272
# Poissons Ratio (z) = 0.36340 0.07269
#
# Static dielectric constant tensor:
#      x y z
#    x 3.175220 0.000000 0.000000 
#    y 0.000000 3.141740 0.000000 
#    z 0.000000 0.000000 2.904560 
# 
# 
# High freq. dielectric constant tensor:
#      x y z
#    x 1.650500 0.000000 0.000000 
#    y 0.000000 1.634460 0.000000 
#    z 0.000000 0.000000 1.611720 
# 
# From -- ./inp_files/15886.got.cif
#   From: 2010.03.12/outbox.cif.g09.slc.cpg/sg40_8_cif.got.tgz:15886.got - 2010.04.14 01:38:03.
