data_PCOD8182764
_publ_section_title
;
Structure prediction by ZEFSAII (Michael W. Deem and Ramdas Pophale) SiO2 
 PCOD8182764
Probable space group: A M A 2
;
_chemical_formula_sum "Si O2"
_cell_formula_units_Z 48
_cell_length_a 9.989954
_cell_length_b 8.892919
_cell_length_c 27.633293
_cell_angle_alpha 90.000000
_cell_angle_beta 90.000000
_cell_angle_gamma 90.000000
_cell_volume 2454.937653
_symmetry_space_group_name_H-M "A M A 2"
_symmetry_group_IT_number 40
_symmetry_cell_setting 'orthorhombic'
loop_
_space_group_symop_operation_xyz
x,y,z
-x,-y,z
1/2-x,y,z
1/2+x,-y,z
x,1/2+y,1/2+z
-x,1/2-y,1/2+z
1/2-x,1/2+y,1/2+z
1/2+x,1/2-y,1/2+z
loop_
_atom_site_type_symbol
_atom_site_label
_atom_site_fract_x
_atom_site_fract_y
_atom_site_fract_z
Si Si1 0.097281 0.640230 0.251280
Si Si2 0.250000 0.721083 0.610794
Si Si3 0.480973 0.327373 0.659403
Si Si4 0.981339 0.676225 0.942125
Si Si5 0.750000 0.123399 0.088027
Si Si6 0.750000 0.632111 0.010398
Si Si7 0.095306 0.856863 0.338700
Si Si8 0.250000 0.719175 0.987404
O O1 0.250000 0.583251 0.254916
O O2 0.082483 0.741230 0.203943
O O3 0.057796 0.738444 0.297561
O O4 0.000000 0.500000 0.248332
O O5 0.378869 0.748224 0.644415
O O6 0.250000 0.556133 0.587973
O O7 0.250000 0.840479 0.567508
O O8 0.500000 0.500000 0.675179
O O9 0.382120 0.313620 0.613850
O O10 0.928021 0.729588 0.889825
O O11 0.000000 0.500000 0.936939
O O12 0.878250 0.709617 0.985471
O O13 0.120765 0.757073 0.954838
O O14 0.750000 0.172838 0.032989
O O15 0.750000 0.453440 0.003894
O O16 0.250000 0.909977 0.335036
O O17 0.000000 0.000000 0.332159
#
# Coordination Sequence:
#
# PCOD8182764 Si02
#       8
#     8   4   8   8   4   4   8   4
#     4  11  25  43  61  88 122 152 189 242 299 355
#     4  10  22  34  59  86 115 149 200 241 289 346
#     4  10  21  40  62  85 114 156 199 244 289 344
#     4   9  18  33  55  84 112 148 194 239 281 333
#     4  10  20  38  55  84 117 153 196 247 287 338
#     4  10  18  34  53  82 113 151 190 237 285 342
#     4  10  21  39  64  90 117 153 198 243 289 346
#     4  10  20  32  55  80 117 153 192 237 289 340
#
# _framework density 19.552430000000001
#
# number of rings (size 3 to 8) (size 9 to 14) (size 15 to 20)
#    0.000    2.000    1.667    1.500    4.667    2.000 
#    0.000    1.667    0.000    0.000    0.000    0.000 
#    0.000    0.000    0.000    0.000    0.000    0.000 
#
# Total GULP energy -297656.389708 kJ/mol
# GULP energy per Si atom -12402.349571 kJ/mol
# Density = 1.950793 g / cm^3
# Si number density = 19.552430 Si / 1000 Ang^3
#
#
#
# Elastic Constant Matrix: (Units=GPa)
#
#
# Indices 1 2 3 4 5 6 
#
# 1 111.6219 22.5837 16.0124 0.0000 0.0000 0.0000
# 2 22.5837 44.3495 26.5069 0.0000 0.0000 0.0000
# 3 16.0124 26.5069 92.9588 0.0000 0.0000 0.0000
# 4 0.0000 0.0000 0.0000 27.4798 0.0000 0.0000
# 5 0.0000 0.0000 0.0000 0.0000 28.8516 0.0000
# 6 0.0000 0.0000 0.0000 0.0000 0.0000 22.0458
#
#
#
# Elastic Compliance Matrix: (Units=1/GPa)
#
#
# Indices 1 2 3 4 5 6 
#
# 1 0.009996 -0.004895 -0.000326 0.000000 0.000000 0.000000
# 2 -0.004895 0.029578 -0.007591 0.000000 0.000000 0.000000
# 3 -0.000326 -0.007591 0.012978 0.000000 0.000000 0.000000
# 4 0.000000 0.000000 0.000000 0.036390 0.000000 0.000000
# 5 0.000000 0.000000 0.000000 0.000000 0.034660 0.000000
# 6 0.000000 0.000000 0.000000 0.000000 0.000000 0.045360
#
#
# Mechanical properties :
#
#
# Convention : Reuss Voigt Hill
#
# Bulk Modulus (GPa) = 37.13641 42.12624 39.63133
# Shear Modulus (GPa) = 24.56247 27.93060 26.24654
#
# Velocity S-wave (km/s) = 3.54819 3.78365 3.66781
# Velocity P-wave (km/s) = 5.98504 6.37809 6.18469
#
# Compressibility (1/GPa) = 0.02692775
#
# Stress axis : x y z
#
# Youngs Moduli (GPa) = 100.03976 33.80907 77.05293
#
# Poissons Ratio (x) = 0.16551 0.02511
# Poissons Ratio (y) = 0.48973 0.58489
# Poissons Ratio (z) = 0.03261 0.25664
#
# Static dielectric constant tensor:
#      x y z
#    x 3.930240 0.000000 0.000000 
#    y 0.000000 3.190910 0.000000 
#    z 0.000000 0.000000 3.680210 
# 
# 
# High freq. dielectric constant tensor:
#      x y z
#    x 1.782450 0.000000 0.000000 
#    y 0.000000 1.726700 0.000000 
#    z 0.000000 0.000000 1.772880 
# 
# From -- ./inp_files/24047.got.cif
#   From: 2010.03.12/outbox.cif.g09.slc.cpg/sg40_13_cif.got.tgz:24047.got - 2010.04.14 01:38:03.
