data_PCOD8182646
_publ_section_title
;
Structure prediction by ZEFSAII (Michael W. Deem and Ramdas Pophale) SiO2 
 PCOD8182646
Probable space group: A M A 2
;
_chemical_formula_sum "Si O2"
_cell_formula_units_Z 64
_cell_length_a 14.472489
_cell_length_b 17.707459
_cell_length_c 14.215048
_cell_angle_alpha 90.000000
_cell_angle_beta 90.000000
_cell_angle_gamma 90.000000
_cell_volume 3642.904646
_symmetry_space_group_name_H-M "A M A 2"
_symmetry_group_IT_number 40
_symmetry_cell_setting 'orthorhombic'
loop_
_space_group_symop_operation_xyz
x,y,z
-x,-y,z
1/2-x,y,z
1/2+x,-y,z
x,1/2+y,1/2+z
-x,1/2-y,1/2+z
1/2-x,1/2+y,1/2+z
1/2+x,1/2-y,1/2+z
loop_
_atom_site_type_symbol
_atom_site_label
_atom_site_fract_x
_atom_site_fract_y
_atom_site_fract_z
Si Si1 0.974994 0.832018 0.270760
Si Si2 0.360950 0.315577 0.284988
Si Si3 0.040811 0.422238 0.427123
Si Si4 0.642377 0.124886 0.386130
Si Si5 0.144678 0.026945 0.297312
Si Si6 0.353379 0.815791 0.577167
Si Si7 0.084425 0.152327 0.064131
Si Si8 0.351298 0.991334 0.095538
O O1 0.916249 0.760597 0.309563
O O2 0.923420 0.904159 0.316064
O O3 0.980133 0.836995 0.157159
O O4 0.079626 0.830360 0.310040
O O5 0.250000 0.302046 0.290533
O O6 0.388924 0.384043 0.354186
O O7 0.394759 0.337597 0.179219
O O8 0.083535 0.446331 0.526560
O O9 0.000000 0.500000 0.381050
O O10 0.968224 0.359633 0.463970
O O11 0.750000 0.151165 0.373503
O O12 0.598953 0.142704 0.489144
O O13 0.635158 0.034264 0.379460
O O14 0.250000 0.057139 0.286963
O O15 0.115952 0.980190 0.202961
O O16 0.250000 0.845425 0.578651
O O17 0.353966 0.726507 0.556572
O O18 0.150899 0.081068 0.077238
O O19 0.250000 0.957950 0.079588
#
# Coordination Sequence:
#
# PCOD8182646 Si02
#       8
#     8   8   8   8   8   8   8   8
#     4  10  18  31  51  73  98 124 154 195 240 284
#     4  10  20  34  52  71  93 125 163 200 234 272
#     4  10  19  30  45  68  97 124 152 189 236 286
#     4  10  19  30  46  69  98 128 157 193 236 283
#     4   9  17  29  47  74 101 124 154 191 237 287
#     4   9  18  32  48  66  88 120 164 202 228 263
#     4   9  17  29  47  69  92 120 153 191 234 280
#     4   9  16  27  45  68  94 121 149 187 234 283
#
# _framework density 17.568398999999999
#
# number of rings (size 3 to 8) (size 9 to 14) (size 15 to 20)
#    0.000    2.500    0.000    3.000    0.000    5.000 
#    0.000    1.875    0.000    0.750    0.000    0.000 
#    0.000   10.000    0.000    0.000    0.000    0.000 
#
# Total GULP energy -396473.644824 kJ/mol
# GULP energy per Si atom -12389.801401 kJ/mol
# Density = 1.752841 g / cm^3
# Si number density = 17.568399 Si / 1000 Ang^3
#
#
#
# Elastic Constant Matrix: (Units=GPa)
#
#
# Indices 1 2 3 4 5 6 
#
# 1 72.1358 20.7005 28.1562 0.0000 0.0000 0.0000
# 2 20.7005 71.5350 42.8983 0.0000 0.0000 0.0000
# 3 28.1562 42.8983 82.4836 0.0000 0.0000 0.0000
# 4 0.0000 0.0000 0.0000 24.4356 0.0000 0.0000
# 5 0.0000 0.0000 0.0000 0.0000 21.8113 0.0000
# 6 0.0000 0.0000 0.0000 0.0000 0.0000 24.9098
#
#
#
# Elastic Compliance Matrix: (Units=1/GPa)
#
#
# Indices 1 2 3 4 5 6 
#
# 1 0.016187 -0.001992 -0.004490 0.000000 0.000000 0.000000
# 2 -0.001992 0.020560 -0.010013 0.000000 0.000000 0.000000
# 3 -0.004490 -0.010013 0.018864 0.000000 0.000000 0.000000
# 4 0.000000 0.000000 0.000000 0.040924 0.000000 0.000000
# 5 0.000000 0.000000 0.000000 0.000000 0.045848 0.000000
# 6 0.000000 0.000000 0.000000 0.000000 0.000000 0.040145
#
#
# Mechanical properties :
#
#
# Convention : Reuss Voigt Hill
#
# Bulk Modulus (GPa) = 44.20495 45.51827 44.86161
# Shear Modulus (GPa) = 22.41584 23.19131 22.80357
#
# Velocity S-wave (km/s) = 3.57587 3.63720 3.60667
# Velocity P-wave (km/s) = 6.50119 6.60336 6.55247
#
# Compressibility (1/GPa) = 0.02262190
#
# Stress axis : x y z
#
# Youngs Moduli (GPa) = 61.77924 48.63763 53.01161
#
# Poissons Ratio (x) = 0.09687 0.23800
# Poissons Ratio (y) = 0.12305 0.53081
# Poissons Ratio (z) = 0.27736 0.48701
#
# Static dielectric constant tensor:
#      x y z
#    x 3.207730 0.000000 0.000000 
#    y 0.000000 3.182060 0.000000 
#    z 0.000000 0.000000 3.334690 
# 
# 
# High freq. dielectric constant tensor:
#      x y z
#    x 1.673360 0.000000 0.000000 
#    y 0.000000 1.666680 0.000000 
#    z 0.000000 0.000000 1.667440 
# 
# From -- ./inp_files/12457.got.cif
#   From: 2010.03.12/outbox.cif.g09.slc.cpg/sg40_7_cif.got.tgz:12457.got - 2010.04.14 01:38:03.
