data_PCOD8182358
_publ_section_title
;
Structure prediction by ZEFSAII (Michael W. Deem and Ramdas Pophale) SiO2 
 PCOD8182358
Probable space group: A M A 2
;
_chemical_formula_sum "Si O2"
_cell_formula_units_Z 64
_cell_length_a 8.650278
_cell_length_b 20.316578
_cell_length_c 22.638485
_cell_angle_alpha 90.000000
_cell_angle_beta 90.000000
_cell_angle_gamma 90.000000
_cell_volume 3978.578988
_symmetry_space_group_name_H-M "A M A 2"
_symmetry_group_IT_number 40
_symmetry_cell_setting 'orthorhombic'
loop_
_space_group_symop_operation_xyz
x,y,z
-x,-y,z
1/2-x,y,z
1/2+x,-y,z
x,1/2+y,1/2+z
-x,1/2-y,1/2+z
1/2-x,1/2+y,1/2+z
1/2+x,1/2-y,1/2+z
loop_
_atom_site_type_symbol
_atom_site_label
_atom_site_fract_x
_atom_site_fract_y
_atom_site_fract_z
Si Si1 0.566722 0.430362 0.767130
Si Si2 0.568994 0.312696 0.848592
Si Si3 0.934365 0.809626 0.481764
Si Si4 0.424459 0.729914 0.256020
Si Si5 0.431843 0.647054 0.151987
Si Si6 0.925821 0.647804 0.668328
Si Si7 0.432517 0.429855 0.055191
Si Si8 0.067487 0.234356 0.079395
O O1 0.500000 0.500000 0.787695
O O2 0.750000 0.432630 0.766152
O O3 0.502853 0.376442 0.813969
O O4 0.506437 0.413364 0.701272
O O5 0.750000 0.318588 0.851196
O O6 0.526416 0.245354 0.813644
O O7 0.502918 0.310667 0.914661
O O8 0.750000 0.803778 0.485331
O O9 0.989262 0.876704 0.512536
O O10 0.014230 0.744927 0.511486
O O11 0.250000 0.721197 0.278017
O O12 0.478358 0.663793 0.220348
O O13 0.438697 0.789507 0.210405
O O14 0.250000 0.633022 0.147449
O O15 0.524327 0.585346 0.124160
O O16 0.471899 0.709922 0.112922
O O17 0.750000 0.629061 0.653524
O O18 0.015624 0.664063 0.606834
O O19 0.500000 0.500000 0.036786
O O20 0.250000 0.428642 0.046724
O O21 0.250000 0.244432 0.086642
#
# Coordination Sequence:
#
# PCOD8182358 Si02
#       8
#     8   8   8   8   8   8   8   8
#     4  10  19  31  44  62  86 115 149 184 217 256
#     4   9  19  31  44  61  85 116 150 183 215 250
#     4  10  19  32  45  61  86 117 150 184 216 252
#     4   8  15  26  43  63  83 106 135 172 217 259
#     4   9  16  28  44  63  84 108 137 174 217 261
#     4   9  16  28  44  62  82 108 138 175 220 262
#     4  11  21  32  45  62  84 115 149 184 219 256
#     4  10  17  26  42  64  84 107 138 176 219 262
#
# _framework density 16.086147
#
# number of rings (size 3 to 8) (size 9 to 14) (size 15 to 20)
#    0.000    2.500    0.000    6.000    0.000    5.500 
#    0.000    1.250    0.000    0.000    0.000    0.000 
#    0.000    1.000    0.000    6.750    0.000    5.500 
#
# Total GULP energy -396538.320979 kJ/mol
# GULP energy per Si atom -12391.822531 kJ/mol
# Density = 1.604953 g / cm^3
# Si number density = 16.086147 Si / 1000 Ang^3
#
#
#
# Elastic Constant Matrix: (Units=GPa)
#
#
# Indices 1 2 3 4 5 6 
#
# 1 42.2427 9.6670 23.0553 0.0000 0.0000 0.0000
# 2 9.6670 22.8380 44.8770 0.0000 0.0000 0.0000
# 3 23.0553 44.8770 108.6252 0.0000 0.0000 0.0000
# 4 0.0000 0.0000 0.0000 17.6980 0.0000 0.0000
# 5 0.0000 0.0000 0.0000 0.0000 22.7406 0.0000
# 6 0.0000 0.0000 0.0000 0.0000 0.0000 23.7141
#
#
#
# Elastic Compliance Matrix: (Units=1/GPa)
#
#
# Indices 1 2 3 4 5 6 
#
# 1 0.026778 -0.000885 -0.005318 0.000000 0.000000 0.000000
# 2 -0.000885 0.232715 -0.095955 0.000000 0.000000 0.000000
# 3 -0.005318 -0.095955 0.049977 0.000000 0.000000 0.000000
# 4 0.000000 0.000000 0.000000 0.056503 0.000000 0.000000
# 5 0.000000 0.000000 0.000000 0.000000 0.043974 0.000000
# 6 0.000000 0.000000 0.000000 0.000000 0.000000 0.042169
#
#
# Mechanical properties :
#
#
# Convention : Reuss Voigt Hill
#
# Bulk Modulus (GPa) = 9.50987 36.54494 23.02741
# Shear Modulus (GPa) = 7.23082 19.23764 13.23423
#
# Velocity S-wave (km/s) = 2.12246 3.46195 2.87140
# Velocity P-wave (km/s) = 3.45414 6.22477 5.03383
#
# Compressibility (1/GPa) = 0.10515390
#
# Stress axis : x y z
#
# Youngs Moduli (GPa) = 37.34456 4.29710 20.00911
#
# Poissons Ratio (x) = 0.00380 0.10641
# Poissons Ratio (y) = 0.03305 1.91998
# Poissons Ratio (z) = 0.19859 0.41233
#
# Static dielectric constant tensor:
#      x y z
#    x 3.063660 0.000000 0.000000 
#    y 0.000000 3.046580 0.000000 
#    z 0.000000 0.000000 3.467750 
# 
# 
# High freq. dielectric constant tensor:
#      x y z
#    x 1.629890 0.000000 0.000000 
#    y 0.000000 1.576640 0.000000 
#    z 0.000000 0.000000 1.603890 
# 
# From -- ./inp_files/22559.got.cif
#   From: 2010.03.12/outbox.cif.g09.slc.cpg/sg40_12_cif.got.tgz:22559.got - 2010.04.14 01:38:03.
