data_PCOD8182986
_publ_section_title
;
Structure prediction by ZEFSAII (Michael W. Deem and Ramdas Pophale) SiO2 
 PCOD8182986
Probable space group: A M A 2
;
_chemical_formula_sum "Si O2"
_cell_formula_units_Z 48
_cell_length_a 8.758373
_cell_length_b 13.573173
_cell_length_c 23.748101
_cell_angle_alpha 90.000000
_cell_angle_beta 90.000000
_cell_angle_gamma 90.000000
_cell_volume 2823.148407
_symmetry_space_group_name_H-M "A M A 2"
_symmetry_group_IT_number 40
_symmetry_cell_setting 'orthorhombic'
loop_
_space_group_symop_operation_xyz
x,y,z
-x,-y,z
1/2-x,y,z
1/2+x,-y,z
x,1/2+y,1/2+z
-x,1/2-y,1/2+z
1/2-x,1/2+y,1/2+z
1/2+x,1/2-y,1/2+z
loop_
_atom_site_type_symbol
_atom_site_label
_atom_site_fract_x
_atom_site_fract_y
_atom_site_fract_z
Si Si1 0.070647 0.395829 0.085740
Si Si2 0.428195 0.601261 0.302066
Si Si3 0.073956 0.298715 0.200526
Si Si4 0.929405 0.399434 0.759544
Si Si5 0.069425 0.298085 0.863747
Si Si6 0.568705 0.393202 0.968880
O O1 0.250000 0.409282 0.074200
O O2 0.037254 0.317643 0.135140
O O3 0.000000 0.500000 0.103915
O O4 0.989471 0.355792 0.029568
O O5 0.500000 0.500000 0.324156
O O6 0.250000 0.587133 0.301620
O O7 0.479498 0.625683 0.238653
O O8 0.478221 0.688771 0.343930
O O9 0.250000 0.319381 0.214251
O O10 0.030515 0.186036 0.214697
O O11 0.750000 0.410812 0.768819
O O12 0.000000 0.500000 0.735067
O O13 0.007266 0.377433 0.819367
O O14 0.250000 0.310734 0.869141
O O15 0.989733 0.314887 0.923470
O O16 0.500000 0.500000 0.954915
O O17 0.750000 0.399507 0.968198
#
# Coordination Sequence:
#
# PCOD8182986 Si02
#       6
#     8   8   8   8   8   8
#     4  10  19  32  49  71  97 126 158 195 237 284
#     4  10  20  32  50  73  99 128 159 195 237 282
#     4   9  19  33  50  71  98 129 161 196 237 281
#     4  10  19  32  49  72  99 128 160 197 238 283
#     4  10  20  34  50  71  97 128 161 196 237 283
#     4  11  21  33  50  72  97 127 159 197 240 285
#
# _framework density 17.002293000000002
#
# number of rings (size 3 to 8) (size 9 to 14) (size 15 to 20)
#    0.000    2.000    0.000    5.500    0.000    5.333 
#    0.000    0.000    0.000    1.000    0.000    2.333 
#    0.000    0.000    0.000    0.000    0.000    0.000 
#
# Total GULP energy -297672.015286 kJ/mol
# GULP energy per Si atom -12403.000637 kJ/mol
# Density = 1.696360 g / cm^3
# Si number density = 17.002293 Si / 1000 Ang^3
#
#
#
# Elastic Constant Matrix: (Units=GPa)
#
#
# Indices 1 2 3 4 5 6 
#
# 1 97.9408 45.3398 50.6269 0.0000 0.0000 0.0000
# 2 45.3398 105.0565 59.8864 0.0000 0.0000 0.0000
# 3 50.6269 59.8864 120.9181 0.0000 0.0000 0.0000
# 4 0.0000 0.0000 0.0000 -69.1546 0.0000 0.0000
# 5 0.0000 0.0000 0.0000 0.0000 28.5062 0.0000
# 6 0.0000 0.0000 0.0000 0.0000 0.0000 29.1632
#
#
#
# Elastic Compliance Matrix: (Units=1/GPa)
#
#
# Indices 1 2 3 4 5 6 
#
# 1 0.014026 -0.003770 -0.004005 0.000000 0.000000 0.000000
# 2 -0.003770 0.014277 -0.005492 0.000000 0.000000 0.000000
# 3 -0.004005 -0.005492 0.012667 0.000000 0.000000 0.000000
# 4 0.000000 0.000000 0.000000 -0.014460 0.000000 0.000000
# 5 0.000000 0.000000 0.000000 0.000000 0.035080 0.000000
# 6 0.000000 0.000000 0.000000 0.000000 0.000000 0.034290
#
#
# Mechanical properties :
#
#
# Convention : Reuss Voigt Hill
#
# Bulk Modulus (GPa) = 69.27860 70.62464 69.95162
# Shear Modulus (GPa) = 39.30025 8.90710 24.10368
#
# Velocity S-wave (km/s) = 4.81299 2.29132 3.76928
# Velocity P-wave (km/s) = 8.46886 6.97343 7.75726
#
# Compressibility (1/GPa) = 0.01443447
#
# Stress axis : x y z
#
# Youngs Moduli (GPa) = 71.29655 70.04517 78.94465
#
# Poissons Ratio (x) = 0.26407 0.31620
# Poissons Ratio (y) = 0.26879 0.43358
# Poissons Ratio (z) = 0.28556 0.38470
#
# Static dielectric constant tensor:
#      x y z
#    x 3.305810 0.000000 0.000000 
#    y 0.000000 3.234490 0.000000 
#    z 0.000000 0.000000 3.158850 
# 
# 
# High freq. dielectric constant tensor:
#      x y z
#    x 1.674410 0.000000 0.000000 
#    y 0.000000 1.644750 0.000000 
#    z 0.000000 0.000000 1.645690 
# 
# From -- ./inp_files/21984.got.cif
#   From: 2010.03.12/outbox.cif.g09.slc.cpg/sg40_11_cif.got.tgz:21984.got - 2010.04.14 01:38:03.
