data_PCOD8182271
_publ_section_title
;
Structure prediction by ZEFSAII (Michael W. Deem and Ramdas Pophale) SiO2 
 PCOD8182271
Probable space group: A B M 2
;
_chemical_formula_sum "Si O2"
_cell_formula_units_Z 52
_cell_length_a 17.389823
_cell_length_b 17.249826
_cell_length_c 9.480013
_cell_angle_alpha 90.000000
_cell_angle_beta 90.000000
_cell_angle_gamma 90.000000
_cell_volume 2843.732970
_symmetry_space_group_name_H-M "A B M 2"
_symmetry_group_IT_number 39
_symmetry_cell_setting 'orthorhombic'
loop_
_space_group_symop_operation_xyz
x,y,z
-x,-y,z
-x,1/2+y,z
x,1/2-y,z
x,1/2+y,1/2+z
-x,1/2-y,1/2+z
-x,y,1/2+z
x,-y,1/2+z
loop_
_atom_site_type_symbol
_atom_site_label
_atom_site_fract_x
_atom_site_fract_y
_atom_site_fract_z
Si Si1 0.277735 0.960784 0.849550
Si Si2 0.933678 0.250000 0.952085
Si Si3 0.834542 0.331713 0.752196
Si Si4 0.887654 0.750000 0.998117
Si Si5 0.445072 0.158835 0.616555
Si Si6 0.449963 0.422918 0.323007
Si Si7 0.280581 0.099413 0.661761
Si Si8 0.179911 0.750000 0.194756
O O1 0.217784 0.905373 0.771410
O O2 0.361916 0.942346 0.788561
O O3 0.256469 0.047364 0.796908
O O4 0.273398 0.951556 0.018121
O O5 0.900492 0.250000 0.110961
O O6 0.024530 0.250000 0.953311
O O7 0.904477 0.327283 0.866961
O O8 0.786561 0.250000 0.776098
O O9 0.869447 0.327188 0.592537
O O10 0.834034 0.750000 0.861176
O O11 0.439883 0.250000 0.603914
O O12 0.457343 0.123194 0.465429
O O13 0.519532 0.134323 0.703679
O O14 0.367591 0.126716 0.687419
O O15 0.500000 0.500000 0.329846
O O16 0.226546 0.173815 0.648988
#
# Coordination Sequence:
#
# PCOD8182271 Si02
#       8
#     8   4   8   4   8   8   8   4
#     4  11  23  39  62  85 127 166 203 261 307 362
#     4   9  17  39  67  90 120 166 196 241 297 376
#     4   8  19  37  58  94 127 154 211 234 305 373
#     4   9  21  35  67  98 122 153 206 244 292 376
#     4  11  23  41  56  87 115 156 209 256 303 361
#     4  11  23  39  60  83 118 164 207 249 315 358
#     4  11  24  38  63  83 125 159 207 255 305 364
#     4  12  20  40  64  94 118 159 204 243 303 358
#
# _framework density 18.285824000000002
#
# number of rings (size 3 to 8) (size 9 to 14) (size 15 to 20)
#    0.923    0.615    3.846    1.846    4.308    1.231 
#    0.000    0.000    0.000    5.538    0.000    0.000 
#    0.000    0.000    0.000    0.000    0.000    0.000 
#
# Total GULP energy -322221.413020 kJ/mol
# GULP energy per Si atom -12393.131270 kJ/mol
# Density = 1.824421 g / cm^3
# Si number density = 18.285824 Si / 1000 Ang^3
#
#
#
# Elastic Constant Matrix: (Units=GPa)
#
#
# Indices 1 2 3 4 5 6 
#
# 1 88.1977 29.7507 28.0504 0.0000 0.0000 0.0000
# 2 29.7507 117.8764 32.9527 0.0000 0.0000 0.0000
# 3 28.0504 32.9527 73.2981 0.0000 0.0000 0.0000
# 4 0.0000 0.0000 0.0000 4.8441 0.0000 0.0000
# 5 0.0000 0.0000 0.0000 0.0000 25.3192 0.0000
# 6 0.0000 0.0000 0.0000 0.0000 0.0000 24.3822
#
#
#
# Elastic Compliance Matrix: (Units=1/GPa)
#
#
# Indices 1 2 3 4 5 6 
#
# 1 0.013403 -0.002229 -0.004127 0.000000 0.000000 0.000000
# 2 -0.002229 0.010074 -0.003676 0.000000 0.000000 0.000000
# 3 -0.004127 -0.003676 0.016875 0.000000 0.000000 0.000000
# 4 0.000000 0.000000 0.000000 0.206435 0.000000 0.000000
# 5 0.000000 0.000000 0.000000 0.000000 0.039496 0.000000
# 6 0.000000 0.000000 0.000000 0.000000 0.000000 0.041014
#
#
# Mechanical properties :
#
#
# Convention : Reuss Voigt Hill
#
# Bulk Modulus (GPa) = 49.29129 51.20885 50.25007
# Shear Modulus (GPa) = 14.11946 23.48367 18.80156
#
# Velocity S-wave (km/s) = 2.78178 3.58754 3.21004
# Velocity P-wave (km/s) = 6.11001 6.72503 6.42489
#
# Compressibility (1/GPa) = 0.02028756
#
# Stress axis : x y z
#
# Youngs Moduli (GPa) = 74.61252 99.26930 59.25996
#
# Poissons Ratio (x) = 0.22127 0.24456
# Poissons Ratio (y) = 0.16631 0.21783
# Poissons Ratio (z) = 0.30792 0.36489
#
# Static dielectric constant tensor:
#      x y z
#    x 3.253340 0.000000 0.000000 
#    y 0.000000 3.258260 0.000000 
#    z 0.000000 0.000000 3.438370 
# 
# 
# High freq. dielectric constant tensor:
#      x y z
#    x 1.698050 0.000000 0.000000 
#    y 0.000000 1.697320 0.000000 
#    z 0.000000 0.000000 1.720690 
# 
# From -- ./inp_files/3787.got.cif
#   From: 2010.03.12/outbox.cif.g09.slc.cpg/sg39_2_cif.got.tgz:3787.got - 2010.04.14 02:53:20.
