data_PCOD8182034
_publ_section_title
;
Structure prediction by ZEFSAII (Michael W. Deem and Ramdas Pophale) SiO2 
 PCOD8182034
Probable space group: A B M 2
;
_chemical_formula_sum "Si O2"
_cell_formula_units_Z 64
_cell_length_a 19.447876
_cell_length_b 9.220900
_cell_length_c 20.359371
_cell_angle_alpha 90.000000
_cell_angle_beta 90.000000
_cell_angle_gamma 90.000000
_cell_volume 3650.983291
_symmetry_space_group_name_H-M "A B M 2"
_symmetry_group_IT_number 39
_symmetry_cell_setting 'orthorhombic'
loop_
_space_group_symop_operation_xyz
x,y,z
-x,-y,z
-x,1/2+y,z
x,1/2-y,z
x,1/2+y,1/2+z
-x,1/2-y,1/2+z
-x,y,1/2+z
x,-y,1/2+z
loop_
_atom_site_type_symbol
_atom_site_label
_atom_site_fract_x
_atom_site_fract_y
_atom_site_fract_z
Si Si1 0.428683 0.581166 0.896600
Si Si2 0.571393 0.077768 0.635103
Si Si3 0.786544 0.922750 0.212251
Si Si4 0.785264 0.077998 0.562151
Si Si5 0.657760 0.919601 0.526641
Si Si6 0.937266 0.090269 0.563343
Si Si7 0.935901 0.088540 0.719944
Si Si8 0.353926 0.078937 0.267796
O O1 0.500000 0.500000 0.905538
O O2 0.444760 0.750000 0.885984
O O3 0.387250 0.515848 0.834208
O O4 0.382996 0.553208 0.960025
O O5 0.564007 0.250000 0.625139
O O6 0.596465 0.036866 0.707838
O O7 0.500000 0.000000 0.621136
O O8 0.625466 0.015699 0.583923
O O9 0.790518 0.750000 0.213566
O O10 0.772592 0.969858 0.137454
O O11 0.860916 0.980774 0.238500
O O12 0.723418 0.983749 0.256392
O O13 0.772969 0.250000 0.552815
O O14 0.862556 0.032589 0.540810
O O15 0.734532 0.982665 0.516906
O O16 0.658833 0.750000 0.545421
O O17 0.947579 0.250000 0.535157
O O18 0.940205 0.091586 0.641701
O O19 0.000000 0.000000 0.532771
O O20 0.942224 0.250000 0.748789
O O21 0.000000 0.000000 0.750129
O O22 0.346818 0.250000 0.273351
#
# Coordination Sequence:
#
# PCOD8182034 Si02
#       8
#     8   8   8   8   8   8   8   8
#     4  10  22  38  54  72  95 125 161 201 245 294
#     4  11  21  34  54  75  96 123 157 198 244 295
#     4   8  13  25  46  69  91 121 159 195 232 279
#     4   9  16  29  48  70  96 130 167 201 242 290
#     4  11  22  34  49  73 101 128 161 202 246 292
#     4   8  14  23  38  62  94 128 161 194 235 286
#     4   8  13  21  36  59  90 123 153 184 224 275
#     4   9  17  32  54  74  93 123 162 201 239 286
#
# _framework density 17.529523999999999
#
# number of rings (size 3 to 8) (size 9 to 14) (size 15 to 20)
#    0.000    2.750    1.250    3.000    0.000    2.500 
#    0.000    2.500    0.000    0.000    0.000    0.875 
#    0.000    4.000    0.000    0.000    0.000    0.000 
#
# Total GULP energy -396585.412333 kJ/mol
# GULP energy per Si atom -12393.294135 kJ/mol
# Density = 1.748963 g / cm^3
# Si number density = 17.529524 Si / 1000 Ang^3
#
#
#
# Elastic Constant Matrix: (Units=GPa)
#
#
# Indices 1 2 3 4 5 6 
#
# 1 169.7246 60.7652 40.7985 0.0000 0.0000 0.0000
# 2 60.7652 62.3608 33.6217 0.0000 0.0000 0.0000
# 3 40.7985 33.6217 63.1976 0.0000 0.0000 0.0000
# 4 0.0000 0.0000 0.0000 14.1391 0.0000 0.0000
# 5 0.0000 0.0000 0.0000 0.0000 17.8297 0.0000
# 6 0.0000 0.0000 0.0000 0.0000 0.0000 30.2799
#
#
#
# Elastic Compliance Matrix: (Units=1/GPa)
#
#
# Indices 1 2 3 4 5 6 
#
# 1 0.009168 -0.008052 -0.001635 0.000000 0.000000 0.000000
# 2 -0.008052 0.029557 -0.010527 0.000000 0.000000 0.000000
# 3 -0.001635 -0.010527 0.022479 0.000000 0.000000 0.000000
# 4 0.000000 0.000000 0.000000 0.070726 0.000000 0.000000
# 5 0.000000 0.000000 0.000000 0.000000 0.056086 0.000000
# 6 0.000000 0.000000 0.000000 0.000000 0.000000 0.033025
#
#
# Mechanical properties :
#
#
# Convention : Reuss Voigt Hill
#
# Bulk Modulus (GPa) = 48.12934 62.85043 55.48989
# Shear Modulus (GPa) = 18.62949 23.12292 20.87620
#
# Velocity S-wave (km/s) = 3.26352 3.63586 3.45471
# Velocity P-wave (km/s) = 6.45883 7.31832 6.90197
#
# Compressibility (1/GPa) = 0.02077735
#
# Stress axis : x y z
#
# Youngs Moduli (GPa) = 109.08092 33.83334 44.48604
#
# Poissons Ratio (x) = 0.27241 0.07272
# Poissons Ratio (y) = 0.87827 0.46828
# Poissons Ratio (z) = 0.17832 0.35615
#
# Static dielectric constant tensor:
#      x y z
#    x 3.743090 0.000000 0.000000 
#    y 0.000000 3.124800 0.000000 
#    z 0.000000 0.000000 2.988190 
# 
# 
# High freq. dielectric constant tensor:
#      x y z
#    x 1.702950 0.000000 0.000000 
#    y 0.000000 1.652990 0.000000 
#    z 0.000000 0.000000 1.629120 
# 
# From -- ./inp_files/13238.got.cif
#   From: 2010.03.12/outbox.cif.g09.slc.cpg/sg39_7_cif.got.tgz:13238.got - 2010.04.14 02:53:20.
