data_PCOD8182496
_publ_section_title
;
Structure prediction by ZEFSAII (Michael W. Deem and Ramdas Pophale) SiO2 
 PCOD8182496
Probable space group: A M A 2
;
_chemical_formula_sum "Si O2"
_cell_formula_units_Z 56
_cell_length_a 8.779350
_cell_length_b 31.724096
_cell_length_c 13.965678
_cell_angle_alpha 90.000000
_cell_angle_beta 90.000000
_cell_angle_gamma 90.000000
_cell_volume 3889.677933
_symmetry_space_group_name_H-M "A M A 2"
_symmetry_group_IT_number 40
_symmetry_cell_setting 'orthorhombic'
loop_
_space_group_symop_operation_xyz
x,y,z
-x,-y,z
1/2-x,y,z
1/2+x,-y,z
x,1/2+y,1/2+z
-x,1/2-y,1/2+z
1/2-x,1/2+y,1/2+z
1/2+x,1/2-y,1/2+z
loop_
_atom_site_type_symbol
_atom_site_label
_atom_site_fract_x
_atom_site_fract_y
_atom_site_fract_z
Si Si1 0.430043 0.117903 0.508810
Si Si2 0.077514 0.956061 0.597872
Si Si3 0.569389 0.314855 0.334469
Si Si4 0.927890 0.236411 0.212393
Si Si5 0.931370 0.233770 0.998876
Si Si6 0.429222 0.312587 0.894107
Si Si7 0.923423 0.624824 0.199497
O O1 0.250000 0.118907 0.501246
O O2 0.489921 0.069318 0.512591
O O3 0.503371 0.141412 0.417677
O O4 0.486764 0.142244 0.605350
O O5 0.250000 0.964038 0.564450
O O6 0.072006 0.926549 0.693582
O O7 0.000000 0.000000 0.622191
O O8 0.750000 0.316017 0.343558
O O9 0.508440 0.279179 0.260757
O O10 0.500039 0.305109 0.438551
O O11 0.506817 0.359535 0.295678
O O12 0.750000 0.242982 0.201211
O O13 0.964591 0.197068 0.282440
O O14 0.995916 0.228418 0.107122
O O15 0.750000 0.232092 0.993795
O O16 0.988581 0.278320 0.960039
O O17 0.250000 0.310807 0.914806
O O18 0.750000 0.641246 0.196988
#
# Coordination Sequence:
#
# PCOD8182496 Si02
#       7
#     8   8   8   8   8   8   8
#     4  10  18  28  43  63  87 115 142 174 215 261
#     4   9  18  30  45  66  91 117 145 175 215 260
#     4  10  18  29  43  61  84 112 146 182 222 263
#     4   8  17  29  41  56  79 111 146 185 220 254
#     4  10  18  29  43  59  81 112 149 188 225 259
#     4  10  18  30  43  59  82 111 150 187 221 260
#     4   9  18  29  43  63  85 113 145 176 208 255
#
# _framework density 14.397079
#
# number of rings (size 3 to 8) (size 9 to 14) (size 15 to 20)
#    0.857    1.714    0.000    4.714    0.000    1.143 
#    0.000    7.857    0.000    0.000    0.000    0.000 
#    0.000    1.143    0.000    7.429    0.000    5.571 
#
# Total GULP energy -346953.746279 kJ/mol
# GULP energy per Si atom -12391.205224 kJ/mol
# Density = 1.436431 g / cm^3
# Si number density = 14.397079 Si / 1000 Ang^3
#
#
#
# Elastic Constant Matrix: (Units=GPa)
#
#
# Indices 1 2 3 4 5 6 
#
# 1 93.2906 33.1877 35.4276 0.0000 0.0000 0.0000
# 2 33.1877 73.5661 36.6735 0.0000 0.0000 0.0000
# 3 35.4276 36.6735 93.5988 0.0000 0.0000 0.0000
# 4 0.0000 0.0000 0.0000 17.6541 0.0000 0.0000
# 5 0.0000 0.0000 0.0000 0.0000 19.4928 0.0000
# 6 0.0000 0.0000 0.0000 0.0000 0.0000 25.1714
#
#
#
# Elastic Compliance Matrix: (Units=1/GPa)
#
#
# Indices 1 2 3 4 5 6 
#
# 1 0.013590 -0.004432 -0.003407 0.000000 0.000000 0.000000
# 2 -0.004432 0.018338 -0.005508 0.000000 0.000000 0.000000
# 3 -0.003407 -0.005508 0.014132 0.000000 0.000000 0.000000
# 4 0.000000 0.000000 0.000000 0.056644 0.000000 0.000000
# 5 0.000000 0.000000 0.000000 0.000000 0.051301 0.000000
# 6 0.000000 0.000000 0.000000 0.000000 0.000000 0.039728
#
#
# Mechanical properties :
#
#
# Convention : Reuss Voigt Hill
#
# Bulk Modulus (GPa) = 51.63803 52.33701 51.98752
# Shear Modulus (GPa) = 22.03791 22.80811 22.42301
#
# Velocity S-wave (km/s) = 3.91669 3.98454 3.95076
# Velocity P-wave (km/s) = 7.50991 7.58948 7.54980
#
# Compressibility (1/GPa) = 0.01936557
#
# Stress axis : x y z
#
# Youngs Moduli (GPa) = 73.58439 54.53061 70.76383
#
# Poissons Ratio (x) = 0.24169 0.24111
# Poissons Ratio (y) = 0.32614 0.38974
# Poissons Ratio (z) = 0.25072 0.30033
#
# Static dielectric constant tensor:
#      x y z
#    x 2.814030 0.000000 0.000000 
#    y 0.000000 2.647990 0.000000 
#    z 0.000000 0.000000 2.855700 
# 
# 
# High freq. dielectric constant tensor:
#      x y z
#    x 1.563310 0.000000 0.000000 
#    y 0.000000 1.521680 0.000000 
#    z 0.000000 0.000000 1.525400 
# 
# From -- ./inp_files/15811.got.cif
#   From: 2010.03.12/outbox.cif.g09.slc.cpg/sg40_8_cif.got.tgz:15811.got - 2010.04.14 01:38:03.
