data_PCOD8182265
_publ_section_title
;
Structure prediction by ZEFSAII (Michael W. Deem and Ramdas Pophale) SiO2 
 PCOD8182265
Probable space group: A B M 2
;
_chemical_formula_sum "Si O2"
_cell_formula_units_Z 44
_cell_length_a 7.647703
_cell_length_b 19.908589
_cell_length_c 13.949611
_cell_angle_alpha 90.000000
_cell_angle_beta 90.000000
_cell_angle_gamma 90.000000
_cell_volume 2123.897686
_symmetry_space_group_name_H-M "A B M 2"
_symmetry_group_IT_number 39
_symmetry_cell_setting 'orthorhombic'
loop_
_space_group_symop_operation_xyz
x,y,z
-x,-y,z
-x,1/2+y,z
x,1/2-y,z
x,1/2+y,1/2+z
-x,1/2-y,1/2+z
-x,y,1/2+z
x,-y,1/2+z
loop_
_atom_site_type_symbol
_atom_site_label
_atom_site_fract_x
_atom_site_fract_y
_atom_site_fract_z
Si Si1 0.737362 0.542670 0.690450
Si Si2 0.894592 0.603041 0.202198
Si Si3 0.109338 0.671763 0.901164
Si Si4 0.229210 0.671851 0.517551
Si Si5 0.404535 0.898898 0.000159
Si Si6 0.500000 0.000000 0.850852
O O1 0.798287 0.466181 0.677144
O O2 0.617955 0.565314 0.602089
O O3 0.620724 0.548148 0.785702
O O4 0.897589 0.593592 0.698961
O O5 0.843681 0.629871 0.306529
O O6 0.836501 0.657716 0.124813
O O7 0.110756 0.750000 0.876088
O O8 0.256123 0.657063 0.981872
O O9 0.921046 0.649719 0.942720
O O10 0.271248 0.750000 0.508888
O O11 0.403116 0.631634 0.492303
O O12 0.377894 0.954421 0.917810
#
# Coordination Sequence:
#
# PCOD8182265 Si02
#       6
#     8   8   8   8   8   4
#     4  11  24  40  67  99 135 173 216 273 337 392
#     4  11  22  44  66  98 134 175 219 269 336 392
#     4  11  24  45  69  95 132 178 224 272 323 390
#     4  11  24  44  68  97 134 176 224 272 323 394
#     4  12  24  43  68  98 134 175 219 273 331 395
#     4  12  22  40  64  98 136 170 220 272 328 396
#
# _framework density 20.716629000000001
#
# number of rings (size 3 to 8) (size 9 to 14) (size 15 to 20)
#    0.000    0.727    3.636    4.909    0.000    0.000 
#    0.000    0.000    0.000    0.000    0.000    0.000 
#    0.000    0.000    0.000    0.000    0.000    0.000 
#
# Total GULP energy -272912.230278 kJ/mol
# GULP energy per Si atom -12405.101376 kJ/mol
# Density = 2.066948 g / cm^3
# Si number density = 20.716629 Si / 1000 Ang^3
#
#
#
# Elastic Constant Matrix: (Units=GPa)
#
#
# Indices 1 2 3 4 5 6 
#
# 1 119.9182 41.1138 33.0169 0.0000 0.0000 0.0000
# 2 41.1138 68.7340 40.6734 0.0000 0.0000 0.0000
# 3 33.0169 40.6734 116.7645 0.0000 0.0000 0.0000
# 4 0.0000 0.0000 0.0000 27.3256 0.0000 0.0000
# 5 0.0000 0.0000 0.0000 0.0000 33.2762 0.0000
# 6 0.0000 0.0000 0.0000 0.0000 0.0000 34.3121
#
#
#
# Elastic Compliance Matrix: (Units=1/GPa)
#
#
# Indices 1 2 3 4 5 6 
#
# 1 0.010581 -0.005742 -0.000992 0.000000 0.000000 0.000000
# 2 -0.005742 0.021443 -0.005846 0.000000 0.000000 0.000000
# 3 -0.000992 -0.005846 0.010881 0.000000 0.000000 0.000000
# 4 0.000000 0.000000 0.000000 0.036596 0.000000 0.000000
# 5 0.000000 0.000000 0.000000 0.000000 0.030052 0.000000
# 6 0.000000 0.000000 0.000000 0.000000 0.000000 0.029144
#
#
# Mechanical properties :
#
#
# Convention : Reuss Voigt Hill
#
# Bulk Modulus (GPa) = 56.35228 59.44721 57.89975
# Shear Modulus (GPa) = 29.45166 31.69029 30.57097
#
# Velocity S-wave (km/s) = 3.77456 3.91538 3.84562
# Velocity P-wave (km/s) = 6.80124 7.01413 6.90851
#
# Compressibility (1/GPa) = 0.01774551
#
# Stress axis : x y z
#
# Youngs Moduli (GPa) = 94.51148 46.63599 91.90424
#
# Poissons Ratio (x) = 0.26779 0.09114
# Poissons Ratio (y) = 0.54270 0.53724
# Poissons Ratio (z) = 0.09372 0.27262
#
# Static dielectric constant tensor:
#      x y z
#    x 3.876890 0.000000 0.000000 
#    y 0.000000 3.663100 0.000000 
#    z 0.000000 0.000000 3.735790 
# 
# 
# High freq. dielectric constant tensor:
#      x y z
#    x 1.824760 0.000000 0.000000 
#    y 0.000000 1.804870 0.000000 
#    z 0.000000 0.000000 1.820250 
# 
# From -- ./inp_files/8274.got.cif
#   From: 2010.03.12/outbox.cif.g09.slc.cpg/sg39_5_cif.got.tgz:8274.got - 2010.04.14 02:53:20.
