data_PCOD8182668
_publ_section_title
;
Structure prediction by ZEFSAII (Michael W. Deem and Ramdas Pophale) SiO2 
 PCOD8182668
Probable space group: A M A 2
;
_chemical_formula_sum "Si O2"
_cell_formula_units_Z 40
_cell_length_a 8.893039
_cell_length_b 28.594843
_cell_length_c 9.258549
_cell_angle_alpha 90.000000
_cell_angle_beta 90.000000
_cell_angle_gamma 90.000000
_cell_volume 2354.403218
_symmetry_space_group_name_H-M "A M A 2"
_symmetry_group_IT_number 40
_symmetry_cell_setting 'orthorhombic'
loop_
_space_group_symop_operation_xyz
x,y,z
-x,-y,z
1/2-x,y,z
1/2+x,-y,z
x,1/2+y,1/2+z
-x,1/2-y,1/2+z
1/2-x,1/2+y,1/2+z
1/2+x,1/2-y,1/2+z
loop_
_atom_site_type_symbol
_atom_site_label
_atom_site_fract_x
_atom_site_fract_y
_atom_site_fract_z
Si Si1 0.572348 0.287624 0.583370
Si Si2 0.419711 0.622615 0.101411
Si Si3 0.573136 0.700280 0.277478
Si Si4 0.427427 0.949999 0.424919
Si Si5 0.080270 0.129218 0.285109
O O1 0.750000 0.289754 0.557619
O O2 0.486801 0.286718 0.433782
O O3 0.525607 0.241293 0.669100
O O4 0.516369 0.332478 0.674910
O O5 0.250000 0.611721 0.152700
O O6 0.501365 0.651820 0.225201
O O7 0.507354 0.573503 0.072658
O O8 0.419462 0.650963 0.948381
O O9 0.750000 0.693749 0.284305
O O10 0.250000 0.954589 0.435083
O O11 0.475108 0.917215 0.287648
O O12 0.500000 0.000000 0.401123
O O13 0.250000 0.114503 0.242254
#
# Coordination Sequence:
#
# PCOD8182668 Si02
#       5
#     8   8   8   8   8
#     4  10  21  36  52  73 106 144 179 218 267 317
#     4   9  18  34  53  75 105 139 174 218 265 311
#     4  11  22  34  51  78 106 140 183 222 264 319
#     4  10  18  31  54  83 109 137 175 222 267 317
#     4   8  17  33  52  75 104 138 176 216 261 313
#
# _framework density 16.989442
#
# number of rings (size 3 to 8) (size 9 to 14) (size 15 to 20)
#    1.200    1.200    0.000    3.600    0.000    4.000 
#    0.000    0.000    0.000    1.200    0.000    2.800 
#    0.000    0.000    0.000    0.000    0.000    0.000 
#
# Total GULP energy -247841.869143 kJ/mol
# GULP energy per Si atom -12392.093457 kJ/mol
# Density = 1.695077 g / cm^3
# Si number density = 16.989442 Si / 1000 Ang^3
#
#
#
# Elastic Constant Matrix: (Units=GPa)
#
#
# Indices 1 2 3 4 5 6 
#
# 1 100.6133 48.1041 32.4006 0.0000 0.0000 0.0000
# 2 48.1041 86.4470 16.2033 0.0000 0.0000 0.0000
# 3 32.4006 16.2033 59.9999 0.0000 0.0000 0.0000
# 4 0.0000 0.0000 0.0000 27.5207 0.0000 0.0000
# 5 0.0000 0.0000 0.0000 0.0000 27.1240 0.0000
# 6 0.0000 0.0000 0.0000 0.0000 0.0000 23.7748
#
#
#
# Elastic Compliance Matrix: (Units=1/GPa)
#
#
# Indices 1 2 3 4 5 6 
#
# 1 0.015565 -0.007464 -0.006390 0.000000 0.000000 0.000000
# 2 -0.007464 0.015763 -0.000227 0.000000 0.000000 0.000000
# 3 -0.006390 -0.000227 0.020178 0.000000 0.000000 0.000000
# 4 0.000000 0.000000 0.000000 0.036336 0.000000 0.000000
# 5 0.000000 0.000000 0.000000 0.000000 0.036868 0.000000
# 6 0.000000 0.000000 0.000000 0.000000 0.000000 0.042061
#
#
# Mechanical properties :
#
#
# Convention : Reuss Voigt Hill
#
# Bulk Modulus (GPa) = 42.83188 48.94179 45.88684
# Shear Modulus (GPa) = 24.66520 25.70738 25.18629
#
# Velocity S-wave (km/s) = 3.81438 3.89413 3.85446
# Velocity P-wave (km/s) = 6.68318 7.00633 6.84666
#
# Compressibility (1/GPa) = 0.02334710
#
# Stress axis : x y z
#
# Youngs Moduli (GPa) = 64.24583 63.43773 49.55792
#
# Poissons Ratio (x) = 0.47348 0.31666
# Poissons Ratio (y) = 0.47951 0.01123
# Poissons Ratio (z) = 0.41052 0.01437
#
# Static dielectric constant tensor:
#      x y z
#    x 3.164040 0.000000 0.000000 
#    y 0.000000 3.071080 0.000000 
#    z 0.000000 0.000000 2.949620 
# 
# 
# High freq. dielectric constant tensor:
#      x y z
#    x 1.664410 0.000000 0.000000 
#    y 0.000000 1.646100 0.000000 
#    z 0.000000 0.000000 1.629540 
# 
# From -- ./inp_files/4438.got.cif
#   From: 2010.03.12/outbox.cif.g09.slc.cpg/sg40_3_cif.got.tgz:4438.got - 2010.04.14 01:38:03.
