data_PCOD8182790
_publ_section_title
;
Structure prediction by ZEFSAII (Michael W. Deem and Ramdas Pophale) SiO2 
 PCOD8182790
Probable space group: A M A 2
;
_chemical_formula_sum "Si O2"
_cell_formula_units_Z 64
_cell_length_a 17.261862
_cell_length_b 16.159545
_cell_length_c 12.109265
_cell_angle_alpha 90.000000
_cell_angle_beta 90.000000
_cell_angle_gamma 90.000000
_cell_volume 3377.804827
_symmetry_space_group_name_H-M "A M A 2"
_symmetry_group_IT_number 40
_symmetry_cell_setting 'orthorhombic'
loop_
_space_group_symop_operation_xyz
x,y,z
-x,-y,z
1/2-x,y,z
1/2+x,-y,z
x,1/2+y,1/2+z
-x,1/2-y,1/2+z
1/2-x,1/2+y,1/2+z
1/2+x,1/2-y,1/2+z
loop_
_atom_site_type_symbol
_atom_site_label
_atom_site_fract_x
_atom_site_fract_y
_atom_site_fract_z
Si Si1 0.906783 0.263481 0.100250
Si Si2 0.156161 0.694686 0.334174
Si Si3 0.339975 0.092302 0.462113
Si Si4 0.839991 0.990888 0.818174
Si Si5 0.340549 0.201716 0.267416
Si Si6 0.085973 0.760654 0.557820
Si Si7 0.341329 0.846530 0.924428
Si Si8 0.339116 0.433803 0.083197
O O1 0.884038 0.262348 0.228701
O O2 0.995511 0.247802 0.071035
O O3 0.884140 0.351831 0.050460
O O4 0.862265 0.185537 0.045925
O O5 0.250000 0.702857 0.328434
O O6 0.126188 0.599872 0.342437
O O7 0.120704 0.740988 0.438691
O O8 0.250000 0.110301 0.485267
O O9 0.361730 0.118627 0.336812
O O10 0.358516 0.995309 0.480649
O O11 0.750000 0.985659 0.842745
O O12 0.876605 0.062246 0.897799
O O13 0.856455 0.013607 0.692035
O O14 0.250000 0.210160 0.250636
O O15 0.377185 0.197939 0.146682
O O16 0.373547 0.281028 0.334218
O O17 0.105379 0.855785 0.582222
O O18 0.250000 0.850855 0.911299
O O19 0.250000 0.403424 0.079553
#
# Coordination Sequence:
#
# PCOD8182790 Si02
#       8
#     8   8   8   8   8   8   8   8
#     4  11  23  36  56  84 124 156 195 236 300 359
#     4  11  23  41  61  88 122 158 195 249 305 360
#     4   9  18  35  61  82 107 148 199 243 283 346
#     4   9  17  33  62  89 109 140 199 255 291 336
#     4   9  17  33  57  82 109 147 191 237 285 349
#     4  12  25  35  56  87 127 155 189 242 305 356
#     4   9  17  34  62  86 107 147 198 244 282 349
#     4  10  18  35  58  86 113 147 198 250 291 348
#
# _framework density 18.947216000000001
#
# number of rings (size 3 to 8) (size 9 to 14) (size 15 to 20)
#    0.000    2.000    2.500    3.000    3.500    0.500 
#    0.000    3.125    0.000    3.000    0.000    0.000 
#    0.000    0.000    0.000    0.000    0.000    0.000 
#
# Total GULP energy -396651.466418 kJ/mol
# GULP energy per Si atom -12395.358326 kJ/mol
# Density = 1.890409 g / cm^3
# Si number density = 18.947216 Si / 1000 Ang^3
#
#
#
# Elastic Constant Matrix: (Units=GPa)
#
#
# Indices 1 2 3 4 5 6 
#
# 1 31.5642 -0.3023 10.4359 0.0000 0.0000 0.0000
# 2 -0.3023 53.5648 7.7534 0.0000 0.0000 0.0000
# 3 10.4359 7.7534 90.0121 0.0000 0.0000 0.0000
# 4 0.0000 0.0000 0.0000 31.7552 0.0000 0.0000
# 5 0.0000 0.0000 0.0000 0.0000 -8.3354 0.0000
# 6 0.0000 0.0000 0.0000 0.0000 0.0000 10.6468
#
#
#
# Elastic Compliance Matrix: (Units=1/GPa)
#
#
# Indices 1 2 3 4 5 6 
#
# 1 0.032974 0.000749 -0.003887 0.000000 0.000000 0.000000
# 2 0.000749 0.018922 -0.001717 0.000000 0.000000 0.000000
# 3 -0.003887 -0.001717 0.011708 0.000000 0.000000 0.000000
# 4 0.000000 0.000000 0.000000 0.031491 0.000000 0.000000
# 5 0.000000 0.000000 0.000000 0.000000 -0.119970 0.000000
# 6 0.000000 0.000000 0.000000 0.000000 0.000000 0.093925
#
#
# Mechanical properties :
#
#
# Convention : Reuss Voigt Hill
#
# Bulk Modulus (GPa) = 18.55522 23.43499 20.99510
# Shear Modulus (GPa) = 51.69331 17.29694 34.49513
#
# Velocity S-wave (km/s) = 5.22896 3.02470 4.27147
# Velocity P-wave (km/s) = 6.80224 4.95922 5.95249
#
# Compressibility (1/GPa) = 0.05389319
#
# Stress axis : x y z
#
# Youngs Moduli (GPa) = 30.32701 52.84941 85.41029
#
# Poissons Ratio (x) = -0.03957 0.33203
# Poissons Ratio (y) = -0.02271 0.14662
# Poissons Ratio (z) = 0.11789 0.09073
#
# Static dielectric constant tensor:
#      x y z
#    x 3.262010 0.000000 0.000000 
#    y 0.000000 3.656780 0.000000 
#    z 0.000000 0.000000 3.609100 
# 
# 
# High freq. dielectric constant tensor:
#      x y z
#    x 1.714110 0.000000 0.000000 
#    y 0.000000 1.731250 0.000000 
#    z 0.000000 0.000000 1.732220 
# 
# From -- ./inp_files/12463.got.cif
#   From: 2010.03.12/outbox.cif.g09.slc.cpg/sg40_7_cif.got.tgz:12463.got - 2010.04.14 01:38:03.
