data_PCOD8182616
_publ_section_title
;
Structure prediction by ZEFSAII (Michael W. Deem and Ramdas Pophale) SiO2 
 PCOD8182616
Probable space group: A M A 2
;
_chemical_formula_sum "Si O2"
_cell_formula_units_Z 48
_cell_length_a 16.472962
_cell_length_b 16.086483
_cell_length_c 9.196674
_cell_angle_alpha 90.000000
_cell_angle_beta 90.000000
_cell_angle_gamma 90.000000
_cell_volume 2437.045250
_symmetry_space_group_name_H-M "A M A 2"
_symmetry_group_IT_number 40
_symmetry_cell_setting 'orthorhombic'
loop_
_space_group_symop_operation_xyz
x,y,z
-x,-y,z
1/2-x,y,z
1/2+x,-y,z
x,1/2+y,1/2+z
-x,1/2-y,1/2+z
1/2-x,1/2+y,1/2+z
1/2+x,1/2-y,1/2+z
loop_
_atom_site_type_symbol
_atom_site_label
_atom_site_fract_x
_atom_site_fract_y
_atom_site_fract_z
Si Si1 0.409165 0.027940 0.773010
Si Si2 0.342668 0.627202 0.033836
Si Si3 0.843476 0.622492 0.105879
Si Si4 0.345815 0.048407 0.090451
Si Si5 0.593614 0.523457 0.862689
Si Si6 0.346409 0.213254 0.257520
O O1 0.393978 0.113900 0.682282
O O2 0.500000 0.000000 0.743252
O O3 0.350161 0.956240 0.712939
O O4 0.392891 0.042282 0.940464
O O5 0.250000 0.644125 0.078895
O O6 0.347573 0.543205 0.939187
O O7 0.376001 0.700624 0.926321
O O8 0.750000 0.639894 0.069699
O O9 0.882149 0.702450 0.188325
O O10 0.890815 0.608986 0.952047
O O11 0.250000 0.041846 0.064821
O O12 0.377402 0.973015 0.194513
O O13 0.374371 0.135395 0.160091
O O14 0.500000 0.500000 0.876561
O O15 0.250000 0.216104 0.261523
#
# Coordination Sequence:
#
# PCOD8182616 Si02
#       6
#     8   8   8   8   8   8
#     4  11  21  33  50  77 107 136 175 221 262 307
#     4   9  16  31  52  73  97 137 175 203 248 315
#     4  10  18  33  54  77 101 133 171 215 260 310
#     4  10  19  35  53  72  98 137 177 214 259 317
#     4  10  18  30  51  76 103 134 171 212 257 313
#     4   8  17  32  53  75  98 129 174 215 255 312
#
# _framework density 19.695981
#
# number of rings (size 3 to 8) (size 9 to 14) (size 15 to 20)
#    0.000    2.333    0.000    7.500    0.000    0.000 
#    0.000    6.667    0.000    4.000    0.000    0.000 
#    0.000    0.000    0.000    0.000    0.000    0.000 
#
# Total GULP energy -297417.618979 kJ/mol
# GULP energy per Si atom -12392.400791 kJ/mol
# Density = 1.965115 g / cm^3
# Si number density = 19.695981 Si / 1000 Ang^3
#
#
#
# Elastic Constant Matrix: (Units=GPa)
#
#
# Indices 1 2 3 4 5 6 
#
# 1 76.4629 13.7440 28.9079 0.0000 0.0000 0.0000
# 2 13.7440 78.7928 51.5841 0.0000 0.0000 0.0000
# 3 28.9079 51.5841 169.4907 0.0000 0.0000 0.0000
# 4 0.0000 0.0000 0.0000 37.8369 0.0000 0.0000
# 5 0.0000 0.0000 0.0000 0.0000 26.0511 0.0000
# 6 0.0000 0.0000 0.0000 0.0000 0.0000 7.3682
#
#
#
# Elastic Compliance Matrix: (Units=1/GPa)
#
#
# Indices 1 2 3 4 5 6 
#
# 1 0.014056 -0.001102 -0.002062 0.000000 0.000000 0.000000
# 2 -0.001102 0.015936 -0.004662 0.000000 0.000000 0.000000
# 3 -0.002062 -0.004662 0.007671 0.000000 0.000000 0.000000
# 4 0.000000 0.000000 0.000000 0.026429 0.000000 0.000000
# 5 0.000000 0.000000 0.000000 0.000000 0.038386 0.000000
# 6 0.000000 0.000000 0.000000 0.000000 0.000000 0.135718
#
#
# Mechanical properties :
#
#
# Convention : Reuss Voigt Hill
#
# Bulk Modulus (GPa) = 45.43291 57.02425 51.22858
# Shear Modulus (GPa) = 19.14354 29.61860 24.38107
#
# Velocity S-wave (km/s) = 3.12100 3.88208 3.52216
# Velocity P-wave (km/s) = 6.00872 7.00779 6.52740
#
# Compressibility (1/GPa) = 0.02201048
#
# Stress axis : x y z
#
# Youngs Moduli (GPa) = 71.14469 62.75132 130.36750
#
# Poissons Ratio (x) = 0.06914 0.26882
# Poissons Ratio (y) = 0.07839 0.60779
# Poissons Ratio (z) = 0.14670 0.29255
#
# Static dielectric constant tensor:
#      x y z
#    x 3.368970 0.000000 0.000000 
#    y 0.000000 3.701720 0.000000 
#    z 0.000000 0.000000 3.977350 
# 
# 
# High freq. dielectric constant tensor:
#      x y z
#    x 1.756870 0.000000 0.000000 
#    y 0.000000 1.728350 0.000000 
#    z 0.000000 0.000000 1.778450 
# 
# From -- ./inp_files/6456.got.cif
#   From: 2010.03.12/outbox.cif.g09.slc.cpg/sg40_4_cif.got.tgz:6456.got - 2010.04.14 01:38:03.
