data_PCOD8182717
_publ_section_title
;
Structure prediction by ZEFSAII (Michael W. Deem and Ramdas Pophale) SiO2 
 PCOD8182717
Probable space group: A M A 2
;
_chemical_formula_sum "Si O2"
_cell_formula_units_Z 56
_cell_length_a 8.824048
_cell_length_b 15.675997
_cell_length_c 19.649541
_cell_angle_alpha 90.000000
_cell_angle_beta 90.000000
_cell_angle_gamma 90.000000
_cell_volume 2718.037496
_symmetry_space_group_name_H-M "A M A 2"
_symmetry_group_IT_number 40
_symmetry_cell_setting 'orthorhombic'
loop_
_space_group_symop_operation_xyz
x,y,z
-x,-y,z
1/2-x,y,z
1/2+x,-y,z
x,1/2+y,1/2+z
-x,1/2-y,1/2+z
1/2-x,1/2+y,1/2+z
1/2+x,1/2-y,1/2+z
loop_
_atom_site_type_symbol
_atom_site_label
_atom_site_fract_x
_atom_site_fract_y
_atom_site_fract_z
Si Si1 0.069375 0.093518 0.464810
Si Si2 0.078178 0.383788 0.366060
Si Si3 0.576148 0.918413 0.996418
Si Si4 0.070998 0.257231 0.053519
Si Si5 0.423579 0.191669 0.330577
Si Si6 0.582143 0.925849 0.732684
Si Si7 0.919435 0.235514 0.192619
O O1 0.250000 0.089305 0.471322
O O2 0.021729 0.124119 0.388315
O O3 0.010921 0.158968 0.523230
O O4 0.000000 0.000000 0.477735
O O5 0.250000 0.406906 0.387343
O O6 0.054977 0.282396 0.365715
O O7 0.958122 0.426750 0.416593
O O8 0.038580 0.421297 0.293475
O O9 0.750000 0.922398 0.015130
O O10 0.508977 0.826036 0.014522
O O11 0.500000 0.000000 0.034484
O O12 0.250000 0.271886 0.046024
O O13 0.033616 0.227282 0.130227
O O14 0.250000 0.174693 0.309872
O O15 0.520937 0.187846 0.260768
O O16 0.750000 0.953429 0.755849
O O17 0.591311 0.836822 0.696265
O O18 0.500000 0.000000 0.686403
O O19 0.750000 0.199373 0.178131
#
# Coordination Sequence:
#
# PCOD8182717 Si02
#       7
#     8   8   8   8   8   8   8
#     4  11  23  41  66  97 130 169 217 268 323 383
#     4  10  18  32  55  82 114 150 185 232 288 344
#     4  11  23  37  57  85 116 152 193 241 298 359
#     4  11  24  42  63  89 124 164 208 261 317 379
#     4   9  19  37  61  88 119 157 202 252 305 365
#     4  10  20  33  50  78 112 148 189 235 287 351
#     4  10  22  38  60  85 116 159 205 256 315 376
#
# _framework density 20.603100999999999
#
# number of rings (size 3 to 8) (size 9 to 14) (size 15 to 20)
#    0.000    1.714    1.429    3.000    0.000    5.714 
#    0.000    2.143    0.000    0.000    0.000    0.000 
#    0.000    0.000    0.000    0.000    0.000    0.000 
#
# Total GULP energy -346888.040908 kJ/mol
# GULP energy per Si atom -12388.858604 kJ/mol
# Density = 2.055621 g / cm^3
# Si number density = 20.603101 Si / 1000 Ang^3
#
#
#
# Elastic Constant Matrix: (Units=GPa)
#
#
# Indices 1 2 3 4 5 6 
#
# 1 88.3243 41.6276 27.8481 0.0000 0.0000 0.0000
# 2 41.6276 99.4037 19.8542 0.0000 0.0000 0.0000
# 3 27.8481 19.8542 84.8863 0.0000 0.0000 0.0000
# 4 0.0000 0.0000 0.0000 11.0142 0.0000 0.0000
# 5 0.0000 0.0000 0.0000 0.0000 27.2608 0.0000
# 6 0.0000 0.0000 0.0000 0.0000 0.0000 30.5446
#
#
#
# Elastic Compliance Matrix: (Units=1/GPa)
#
#
# Indices 1 2 3 4 5 6 
#
# 1 0.015111 -0.005600 -0.003648 0.000000 0.000000 0.000000
# 2 -0.005600 0.012628 -0.001117 0.000000 0.000000 0.000000
# 3 -0.003648 -0.001117 0.013238 0.000000 0.000000 0.000000
# 4 0.000000 0.000000 0.000000 0.090792 0.000000 0.000000
# 5 0.000000 0.000000 0.000000 0.000000 0.036683 0.000000
# 6 0.000000 0.000000 0.000000 0.000000 0.000000 0.032739
#
#
# Mechanical properties :
#
#
# Convention : Reuss Voigt Hill
#
# Bulk Modulus (GPa) = 49.38347 50.14156 49.76251
# Shear Modulus (GPa) = 21.86572 25.98288 23.92430
#
# Velocity S-wave (km/s) = 3.26127 3.55507 3.41133
# Velocity P-wave (km/s) = 6.18079 6.42192 6.30251
#
# Compressibility (1/GPa) = 0.02024969
#
# Stress axis : x y z
#
# Youngs Moduli (GPa) = 66.17646 79.18944 75.53835
#
# Poissons Ratio (x) = 0.44343 0.27554
# Poissons Ratio (y) = 0.37056 0.08434
# Poissons Ratio (z) = 0.24139 0.08842
#
# Static dielectric constant tensor:
#      x y z
#    x 3.814680 0.000000 0.000000 
#    y 0.000000 4.364340 0.000000 
#    z 0.000000 0.000000 3.535840 
# 
# 
# High freq. dielectric constant tensor:
#      x y z
#    x 1.814000 0.000000 0.000000 
#    y 0.000000 1.811710 0.000000 
#    z 0.000000 0.000000 1.784620 
# 
# From -- ./inp_files/22173.got.cif
#   From: 2010.03.12/outbox.cif.g09.slc.cpg/sg40_12_cif.got.tgz:22173.got - 2010.04.14 01:38:03.
