data_PCOD8182383
_publ_section_title
;
Structure prediction by ZEFSAII (Michael W. Deem and Ramdas Pophale) SiO2 
 PCOD8182383
Probable space group: A M A 2
;
_chemical_formula_sum "Si O2"
_cell_formula_units_Z 64
_cell_length_a 9.045209
_cell_length_b 30.359819
_cell_length_c 14.338005
_cell_angle_alpha 90.000000
_cell_angle_beta 90.000000
_cell_angle_gamma 90.000000
_cell_volume 3937.372573
_symmetry_space_group_name_H-M "A M A 2"
_symmetry_group_IT_number 40
_symmetry_cell_setting 'orthorhombic'
loop_
_space_group_symop_operation_xyz
x,y,z
-x,-y,z
1/2-x,y,z
1/2+x,-y,z
x,1/2+y,1/2+z
-x,1/2-y,1/2+z
1/2-x,1/2+y,1/2+z
1/2+x,1/2-y,1/2+z
loop_
_atom_site_type_symbol
_atom_site_label
_atom_site_fract_x
_atom_site_fract_y
_atom_site_fract_z
Si Si1 0.573939 0.283090 0.097320
Si Si2 0.075563 0.543795 0.482513
Si Si3 0.074131 0.044011 0.768587
Si Si4 0.425330 0.303628 0.707830
Si Si5 0.423523 0.226687 0.385367
Si Si6 0.915037 0.313231 0.391858
Si Si7 0.422079 0.633608 0.574918
Si Si8 0.083093 0.635284 0.209068
O O1 0.750000 0.282962 0.106194
O O2 0.515980 0.239272 0.150400
O O3 0.504498 0.327150 0.145754
O O4 0.522394 0.284130 0.990210
O O5 0.250000 0.538248 0.487664
O O6 0.024157 0.550851 0.375767
O O7 0.023775 0.584981 0.545589
O O8 0.000000 0.500000 0.524066
O O9 0.250000 0.040169 0.761658
O O10 0.015041 0.085788 0.706861
O O11 0.000000 0.000000 0.727023
O O12 0.250000 0.304499 0.712767
O O13 0.490955 0.303932 0.812177
O O14 0.482564 0.348702 0.661215
O O15 0.250000 0.219556 0.373385
O O16 0.464688 0.277070 0.364149
O O17 0.750000 0.292090 0.391170
O O18 0.954151 0.333073 0.491134
O O19 0.921830 0.352110 0.317473
O O20 0.250000 0.633207 0.601857
O O21 0.250000 0.632150 0.172604
#
# Coordination Sequence:
#
# PCOD8182383 Si02
#       8
#     8   8   8   8   8   8   8   8
#     4   9  18  30  47  68  91 120 160 199 230 276
#     4   9  17  29  45  68  97 128 159 194 235 283
#     4   9  16  27  45  67  93 124 157 190 230 280
#     4  11  21  34  50  69  94 128 164 198 239 287
#     4  11  21  33  46  68  97 124 159 205 243 274
#     4  10  17  28  48  69  94 128 163 193 230 279
#     4  10  19  31  48  72  99 129 164 200 238 283
#     4   9  15  28  48  67  89 127 165 188 222 281
#
# _framework density 16.254493
#
# number of rings (size 3 to 8) (size 9 to 14) (size 15 to 20)
#    0.000    2.250    3.750    0.750    0.000    0.500 
#    0.000    0.625    0.000    0.000    0.000    0.875 
#    0.000    2.000    0.000    0.000    0.000    0.000 
#
# Total GULP energy -396636.331980 kJ/mol
# GULP energy per Si atom -12394.885374 kJ/mol
# Density = 1.621750 g / cm^3
# Si number density = 16.254493 Si / 1000 Ang^3
#
#
#
# Elastic Constant Matrix: (Units=GPa)
#
#
# Indices 1 2 3 4 5 6 
#
# 1 34.9200 24.1564 20.2348 0.0000 0.0000 0.0000
# 2 24.1564 111.7922 28.8739 0.0000 0.0000 0.0000
# 3 20.2348 28.8739 68.8499 0.0000 0.0000 0.0000
# 4 0.0000 0.0000 0.0000 19.3804 0.0000 0.0000
# 5 0.0000 0.0000 0.0000 0.0000 19.2842 0.0000
# 6 0.0000 0.0000 0.0000 0.0000 0.0000 25.9259
#
#
#
# Elastic Compliance Matrix: (Units=1/GPa)
#
#
# Indices 1 2 3 4 5 6 
#
# 1 0.037722 -0.005930 -0.008600 0.000000 0.000000 0.000000
# 2 -0.005930 0.010964 -0.002855 0.000000 0.000000 0.000000
# 3 -0.008600 -0.002855 0.018249 0.000000 0.000000 0.000000
# 4 0.000000 0.000000 0.000000 0.051599 0.000000 0.000000
# 5 0.000000 0.000000 0.000000 0.000000 0.051856 0.000000
# 6 0.000000 0.000000 0.000000 0.000000 0.000000 0.038571
#
#
# Mechanical properties :
#
#
# Convention : Reuss Voigt Hill
#
# Bulk Modulus (GPa) = 31.08893 40.23248 35.66071
# Shear Modulus (GPa) = 19.65002 22.40456 21.02729
#
# Velocity S-wave (km/s) = 3.48069 3.71666 3.60061
# Velocity P-wave (km/s) = 5.94319 6.57445 6.26677
#
# Compressibility (1/GPa) = 0.03216579
#
# Stress axis : x y z
#
# Youngs Moduli (GPa) = 26.50958 91.20754 54.79716
#
# Poissons Ratio (x) = 0.54086 0.47123
# Poissons Ratio (y) = 0.15720 0.15646
# Poissons Ratio (z) = 0.22797 0.26042
#
# Static dielectric constant tensor:
#      x y z
#    x 2.845650 0.000000 0.000000 
#    y 0.000000 3.185090 0.000000 
#    z 0.000000 0.000000 2.987120 
# 
# 
# High freq. dielectric constant tensor:
#      x y z
#    x 1.602630 0.000000 0.000000 
#    y 0.000000 1.620590 0.000000 
#    z 0.000000 0.000000 1.600830 
# 
# From -- ./inp_files/15885.got.cif
#   From: 2010.03.12/outbox.cif.g09.slc.cpg/sg40_8_cif.got.tgz:15885.got - 2010.04.14 01:38:03.
