data_PCOD8182502
_publ_section_title
;
Structure prediction by ZEFSAII (Michael W. Deem and Ramdas Pophale) SiO2 
 PCOD8182502
Probable space group: A M A 2
;
_chemical_formula_sum "Si O2"
_cell_formula_units_Z 56
_cell_length_a 9.506987
_cell_length_b 18.674388
_cell_length_c 18.058281
_cell_angle_alpha 90.000000
_cell_angle_beta 90.000000
_cell_angle_gamma 90.000000
_cell_volume 3206.015995
_symmetry_space_group_name_H-M "A M A 2"
_symmetry_group_IT_number 40
_symmetry_cell_setting 'orthorhombic'
loop_
_space_group_symop_operation_xyz
x,y,z
-x,-y,z
1/2-x,y,z
1/2+x,-y,z
x,1/2+y,1/2+z
-x,1/2-y,1/2+z
1/2-x,1/2+y,1/2+z
1/2+x,1/2-y,1/2+z
loop_
_atom_site_type_symbol
_atom_site_label
_atom_site_fract_x
_atom_site_fract_y
_atom_site_fract_z
Si Si1 0.416878 0.794518 0.907880
Si Si2 0.905931 0.303381 0.168708
Si Si3 0.913151 0.703567 0.804436
Si Si4 0.082110 0.926267 0.200533
Si Si5 0.906820 0.563321 0.162375
Si Si6 0.093032 0.830603 0.067636
Si Si7 0.403665 0.438690 0.336323
O O1 0.250000 0.778503 0.910961
O O2 0.493795 0.722869 0.876963
O O3 0.458840 0.859336 0.853337
O O4 0.480010 0.819500 0.987693
O O5 0.750000 0.338329 0.176699
O O6 0.947604 0.264274 0.244273
O O7 0.904804 0.246967 0.103353
O O8 0.019803 0.361687 0.145794
O O9 0.750000 0.704442 0.826981
O O10 0.952887 0.626081 0.769884
O O11 0.250000 0.938887 0.196575
O O12 0.025243 0.889010 0.124091
O O13 0.000000 0.000000 0.212969
O O14 0.750000 0.563465 0.127488
O O15 0.896602 0.550171 0.249264
O O16 0.000000 0.500000 0.126018
O O17 0.250000 0.858206 0.052523
O O18 0.500000 0.500000 0.372893
O O19 0.250000 0.448177 0.372348
#
# Coordination Sequence:
#
# PCOD8182502 Si02
#       7
#     8   8   8   8   8   8   8
#     4  10  18  31  49  71  98 129 165 201 238 288
#     4   9  16  30  49  67  89 123 161 197 237 285
#     4   9  18  31  49  71  97 127 161 204 249 289
#     4   9  18  34  53  75 101 131 167 206 249 295
#     4  10  18  28  43  67  94 120 151 190 231 272
#     4   8  17  32  50  70  97 130 160 195 246 297
#     4   9  18  28  40  63  94 124 152 183 221 266
#
# _framework density 17.467161999999998
#
# number of rings (size 3 to 8) (size 9 to 14) (size 15 to 20)
#    0.000    2.857    1.429    2.143    0.000    2.286 
#    0.000    3.571    0.000    0.857    0.000    2.000 
#    0.000    0.000    0.000    0.000    0.000    0.000 
#
# Total GULP energy -346933.533541 kJ/mol
# GULP energy per Si atom -12390.483341 kJ/mol
# Density = 1.742741 g / cm^3
# Si number density = 17.467162 Si / 1000 Ang^3
#
#
#
# Elastic Constant Matrix: (Units=GPa)
#
#
# Indices 1 2 3 4 5 6 
#
# 1 65.7194 53.5108 22.7429 0.0000 0.0000 0.0000
# 2 53.5108 110.2567 30.3309 0.0000 0.0000 0.0000
# 3 22.7429 30.3309 54.4371 0.0000 0.0000 0.0000
# 4 0.0000 0.0000 0.0000 13.9951 0.0000 0.0000
# 5 0.0000 0.0000 0.0000 0.0000 14.0312 0.0000
# 6 0.0000 0.0000 0.0000 0.0000 0.0000 36.3619
#
#
#
# Elastic Compliance Matrix: (Units=1/GPa)
#
#
# Indices 1 2 3 4 5 6 
#
# 1 0.026074 -0.011406 -0.004538 0.000000 0.000000 0.000000
# 2 -0.011406 0.015701 -0.003983 0.000000 0.000000 0.000000
# 3 -0.004538 -0.003983 0.022485 0.000000 0.000000 0.000000
# 4 0.000000 0.000000 0.000000 0.071453 0.000000 0.000000
# 5 0.000000 0.000000 0.000000 0.000000 0.071270 0.000000
# 6 0.000000 0.000000 0.000000 0.000000 0.000000 0.027501
#
#
# Mechanical properties :
#
#
# Convention : Reuss Voigt Hill
#
# Bulk Modulus (GPa) = 40.97398 49.28693 45.13046
# Shear Modulus (GPa) = 17.70078 21.13290 19.41684
#
# Velocity S-wave (km/s) = 3.18681 3.48208 3.33771
# Velocity P-wave (km/s) = 6.08684 6.66669 6.38335
#
# Compressibility (1/GPa) = 0.02440573
#
# Stress axis : x y z
#
# Youngs Moduli (GPa) = 38.35277 63.68992 44.47408
#
# Poissons Ratio (x) = 0.72644 0.20183
# Poissons Ratio (y) = 0.43745 0.17714
# Poissons Ratio (z) = 0.17405 0.25368
#
# Static dielectric constant tensor:
#      x y z
#    x 3.276290 0.000000 0.000000 
#    y 0.000000 3.174160 0.000000 
#    z 0.000000 0.000000 3.056650 
# 
# 
# High freq. dielectric constant tensor:
#      x y z
#    x 1.661040 0.000000 0.000000 
#    y 0.000000 1.671060 0.000000 
#    z 0.000000 0.000000 1.644890 
# 
# From -- ./inp_files/19481.got.cif
#   From: 2010.03.12/outbox.cif.g09.slc.cpg/sg40_10_cif.got.tgz:19481.got - 2010.04.14 01:38:03.
