data_PCOD8182587
_publ_section_title
;
Structure prediction by ZEFSAII (Michael W. Deem and Ramdas Pophale) SiO2 
 PCOD8182587
Probable space group: A M A 2
;
_chemical_formula_sum "Si O2"
_cell_formula_units_Z 48
_cell_length_a 8.768802
_cell_length_b 23.928926
_cell_length_c 13.784482
_cell_angle_alpha 90.000000
_cell_angle_beta 90.000000
_cell_angle_gamma 90.000000
_cell_volume 2892.370484
_symmetry_space_group_name_H-M "A M A 2"
_symmetry_group_IT_number 40
_symmetry_cell_setting 'orthorhombic'
loop_
_space_group_symop_operation_xyz
x,y,z
-x,-y,z
1/2-x,y,z
1/2+x,-y,z
x,1/2+y,1/2+z
-x,1/2-y,1/2+z
1/2-x,1/2+y,1/2+z
1/2+x,1/2-y,1/2+z
loop_
_atom_site_type_symbol
_atom_site_label
_atom_site_fract_x
_atom_site_fract_y
_atom_site_fract_z
Si Si1 0.931587 0.166367 0.578270
Si Si2 0.431405 0.726231 0.250320
Si Si3 0.570487 0.057502 0.468183
Si Si4 0.429817 0.165786 0.155034
Si Si5 0.569489 0.558402 0.746532
Si Si6 0.428378 0.226775 0.965829
O O1 0.750000 0.168583 0.587748
O O2 0.989376 0.107387 0.536316
O O3 0.994180 0.214731 0.506787
O O4 0.003544 0.176383 0.683997
O O5 0.250000 0.727259 0.243479
O O6 0.494317 0.786613 0.220450
O O7 0.493131 0.713530 0.359112
O O8 0.750000 0.052175 0.474325
O O9 0.519715 0.069525 0.357699
O O10 0.500000 0.000000 0.507275
O O11 0.250000 0.166299 0.174669
O O12 0.500187 0.106252 0.179568
O O13 0.467071 0.177326 0.041515
O O14 0.500000 0.500000 0.710201
O O15 0.750000 0.557187 0.734524
O O16 0.250000 0.235194 0.955501
#
# Coordination Sequence:
#
# PCOD8182587 Si02
#       6
#     8   8   8   8   8   8
#     4   9  17  31  47  66  93 124 151 184 230 277
#     4  10  18  30  48  70  93 121 155 192 229 272
#     4   9  18  31  48  68  95 125 153 186 229 275
#     4  10  19  32  48  68  94 125 155 188 228 273
#     4  10  19  32  49  71  95 122 153 188 228 273
#     4   8  16  30  47  65  91 123 152 182 227 276
#
# _framework density 16.595385
#
# number of rings (size 3 to 8) (size 9 to 14) (size 15 to 20)
#    0.000    2.667    0.000    3.500    0.000    4.000 
#    0.000   11.667    0.000    1.000    0.000    2.333 
#    0.000    0.000    0.000    0.000    0.000    0.000 
#
# Total GULP energy -297550.432363 kJ/mol
# GULP energy per Si atom -12397.934682 kJ/mol
# Density = 1.655761 g / cm^3
# Si number density = 16.595385 Si / 1000 Ang^3
#
#
#
# Elastic Constant Matrix: (Units=GPa)
#
#
# Indices 1 2 3 4 5 6 
#
# 1 51.3369 38.5591 35.4022 0.0000 0.0000 0.0000
# 2 38.5591 141.5072 75.4589 0.0000 0.0000 0.0000
# 3 35.4022 75.4589 135.3638 0.0000 0.0000 0.0000
# 4 0.0000 0.0000 0.0000 30.0664 0.0000 0.0000
# 5 0.0000 0.0000 0.0000 0.0000 22.2224 0.0000
# 6 0.0000 0.0000 0.0000 0.0000 0.0000 29.2900
#
#
#
# Elastic Compliance Matrix: (Units=1/GPa)
#
#
# Indices 1 2 3 4 5 6 
#
# 1 0.025964 -0.004915 -0.004051 0.000000 0.000000 0.000000
# 2 -0.004915 0.010986 -0.004839 0.000000 0.000000 0.000000
# 3 -0.004051 -0.004839 0.011144 0.000000 0.000000 0.000000
# 4 0.000000 0.000000 0.000000 0.033260 0.000000 0.000000
# 5 0.000000 0.000000 0.000000 0.000000 0.045000 0.000000
# 6 0.000000 0.000000 0.000000 0.000000 0.000000 0.034141
#
#
# Mechanical properties :
#
#
# Convention : Reuss Voigt Hill
#
# Bulk Modulus (GPa) = 48.81432 69.67205 59.24318
# Shear Modulus (GPa) = 25.64980 28.23495 26.94238
#
# Velocity S-wave (km/s) = 3.93567 4.12925 4.03362
# Velocity P-wave (km/s) = 7.08032 8.05035 7.58087
#
# Compressibility (1/GPa) = 0.02048579
#
# Stress axis : x y z
#
# Youngs Moduli (GPa) = 38.51475 91.02129 89.73118
#
# Poissons Ratio (x) = 0.44736 0.36347
# Poissons Ratio (y) = 0.18930 0.43421
# Poissons Ratio (z) = 0.15601 0.44045
#
# Static dielectric constant tensor:
#      x y z
#    x 3.022490 0.000000 0.000000 
#    y 0.000000 3.114520 0.000000 
#    z 0.000000 0.000000 3.329220 
# 
# 
# High freq. dielectric constant tensor:
#      x y z
#    x 1.634300 0.000000 0.000000 
#    y 0.000000 1.631230 0.000000 
#    z 0.000000 0.000000 1.632010 
# 
# From -- ./inp_files/10225.got.cif
#   From: 2010.03.12/outbox.cif.g09.slc.cpg/sg40_6_cif.got.tgz:10225.got - 2010.04.14 01:38:03.
