data_PCOD8182769
_publ_section_title
;
Structure prediction by ZEFSAII (Michael W. Deem and Ramdas Pophale) SiO2 
 PCOD8182769
Probable space group: A M A 2
;
_chemical_formula_sum "Si O2"
_cell_formula_units_Z 64
_cell_length_a 18.639193
_cell_length_b 14.866113
_cell_length_c 12.732322
_cell_angle_alpha 90.000000
_cell_angle_beta 90.000000
_cell_angle_gamma 90.000000
_cell_volume 3528.029016
_symmetry_space_group_name_H-M "A M A 2"
_symmetry_group_IT_number 40
_symmetry_cell_setting 'orthorhombic'
loop_
_space_group_symop_operation_xyz
x,y,z
-x,-y,z
1/2-x,y,z
1/2+x,-y,z
x,1/2+y,1/2+z
-x,1/2-y,1/2+z
1/2-x,1/2+y,1/2+z
1/2+x,1/2-y,1/2+z
loop_
_atom_site_type_symbol
_atom_site_label
_atom_site_fract_x
_atom_site_fract_y
_atom_site_fract_z
Si Si1 0.169529 0.318504 0.949810
Si Si2 0.479769 0.101026 0.149935
Si Si3 0.668172 0.661075 0.297836
Si Si4 0.052725 0.137249 0.605148
Si Si5 0.554385 0.238254 0.292578
Si Si6 0.669494 0.819333 0.134157
Si Si7 0.395401 0.940307 0.614884
Si Si8 0.550848 0.700855 0.459265
O O1 0.250000 0.328762 0.908809
O O2 0.121670 0.309709 0.846450
O O3 0.160590 0.232748 0.024887
O O4 0.149852 0.407298 0.015364
O O5 0.501429 0.162267 0.248213
O O6 0.393314 0.106356 0.135408
O O7 0.500000 0.000000 0.176755
O O8 0.525364 0.133042 0.049577
O O9 0.750000 0.646866 0.331689
O O10 0.657693 0.751791 0.231010
O O11 0.644652 0.577008 0.225126
O O12 0.623252 0.664309 0.405537
O O13 0.082285 0.194777 0.702652
O O14 0.062956 0.197581 0.501283
O O15 0.969277 0.114909 0.619564
O O16 0.097419 0.046261 0.596787
O O17 0.511848 0.299323 0.374340
O O18 0.750000 0.862162 0.140830
#
# Coordination Sequence:
#
# PCOD8182769 Si02
#       8
#     8   8   8   8   8   8   8   8
#     4  10  19  35  59  83 110 148 184 229 282 332
#     4  11  23  36  56  87 113 147 187 235 277 318
#     4  10  19  35  59  83 110 148 184 229 282 332
#     4  10  21  32  56  87 112 141 183 238 285 313
#     4  11  19  37  57  80 114 147 191 225 273 341
#     4   9  17  34  59  84 108 140 189 232 275 330
#     4  10  18  34  56  88 110 135 186 241 273 325
#     4  11  19  37  57  80 114 147 191 225 273 341
#
# _framework density 18.140440000000002
#
# number of rings (size 3 to 8) (size 9 to 14) (size 15 to 20)
#    0.000    1.750    5.000    2.625    0.000    2.000 
#    0.000    6.250    0.000    0.000    0.000    0.000 
#    0.000    0.000    0.000    0.000    0.000    0.000 
#
# Total GULP energy -396820.271938 kJ/mol
# GULP energy per Si atom -12400.633498 kJ/mol
# Density = 1.809915 g / cm^3
# Si number density = 18.140440 Si / 1000 Ang^3
#
#
#
# Elastic Constant Matrix: (Units=GPa)
#
#
# Indices 1 2 3 4 5 6 
#
# 1 124.9696 21.6868 28.5082 0.0000 0.0000 0.0000
# 2 21.6868 58.8298 -1.5160 0.0000 0.0000 0.0000
# 3 28.5082 -1.5160 64.9001 0.0000 0.0000 0.0000
# 4 0.0000 0.0000 0.0000 9.5043 0.0000 0.0000
# 5 0.0000 0.0000 0.0000 0.0000 28.7764 0.0000
# 6 0.0000 0.0000 0.0000 0.0000 0.0000 24.7303
#
#
#
# Elastic Compliance Matrix: (Units=1/GPa)
#
#
# Indices 1 2 3 4 5 6 
#
# 1 0.009620 -0.003657 -0.004311 0.000000 0.000000 0.000000
# 2 -0.003657 0.018399 0.002036 0.000000 0.000000 0.000000
# 3 -0.004311 0.002036 0.017350 0.000000 0.000000 0.000000
# 4 0.000000 0.000000 0.000000 0.105215 0.000000 0.000000
# 5 0.000000 0.000000 0.000000 0.000000 0.034751 0.000000
# 6 0.000000 0.000000 0.000000 0.000000 0.000000 0.040436
#
#
# Mechanical properties :
#
#
# Convention : Reuss Voigt Hill
#
# Bulk Modulus (GPa) = 29.84711 38.45085 34.14898
# Shear Modulus (GPa) = 20.09619 25.93692 23.01655
#
# Velocity S-wave (km/s) = 3.33199 3.78535 3.56588
# Velocity P-wave (km/s) = 5.59392 6.35196 5.98495
#
# Compressibility (1/GPa) = 0.03350408
#
# Stress axis : x y z
#
# Youngs Moduli (GPa) = 103.94883 54.35107 57.63821
#
# Poissons Ratio (x) = 0.19878 0.24849
# Poissons Ratio (y) = 0.38018 -0.11737
# Poissons Ratio (z) = 0.44814 -0.11068
#
# Static dielectric constant tensor:
#      x y z
#    x 3.442120 0.000000 0.000000 
#    y 0.000000 3.115560 0.000000 
#    z 0.000000 0.000000 3.343870 
# 
# 
# High freq. dielectric constant tensor:
#      x y z
#    x 1.704190 0.000000 0.000000 
#    y 0.000000 1.679030 0.000000 
#    z 0.000000 0.000000 1.702960 
# 
# From -- ./inp_files/13154.got.cif
#   From: 2010.03.12/outbox.cif.g09.slc.cpg/sg40_7_cif.got.tgz:13154.got - 2010.04.14 01:38:03.
