data_PCOD8182909
_publ_section_title
;
Structure prediction by ZEFSAII (Michael W. Deem and Ramdas Pophale) SiO2 
 PCOD8182909
Probable space group: A M A 2
;
_chemical_formula_sum "Si O2"
_cell_formula_units_Z 56
_cell_length_a 8.790826
_cell_length_b 13.522099
_cell_length_c 29.424488
_cell_angle_alpha 90.000000
_cell_angle_beta 90.000000
_cell_angle_gamma 90.000000
_cell_volume 3497.701231
_symmetry_space_group_name_H-M "A M A 2"
_symmetry_group_IT_number 40
_symmetry_cell_setting 'orthorhombic'
loop_
_space_group_symop_operation_xyz
x,y,z
-x,-y,z
1/2-x,y,z
1/2+x,-y,z
x,1/2+y,1/2+z
-x,1/2-y,1/2+z
1/2-x,1/2+y,1/2+z
1/2+x,1/2-y,1/2+z
loop_
_atom_site_type_symbol
_atom_site_label
_atom_site_fract_x
_atom_site_fract_y
_atom_site_fract_z
Si Si1 0.429094 0.107459 0.025590
Si Si2 0.927667 0.101105 0.752003
Si Si3 0.572078 0.798765 0.835191
Si Si4 0.429338 0.699713 0.702351
Si Si5 0.570854 0.600624 0.787081
Si Si6 0.927434 0.893657 0.926561
Si Si7 0.430423 0.390751 0.615656
O O1 0.250000 0.102482 0.035686
O O2 0.512643 0.159816 0.068187
O O3 0.500000 0.000000 0.022641
O O4 0.464555 0.155900 0.976051
O O5 0.750000 0.086071 0.755448
O O6 0.970720 0.188975 0.717429
O O7 0.987859 0.125013 0.802235
O O8 0.000000 0.000000 0.733319
O O9 0.750000 0.817170 0.828518
O O10 0.529113 0.686119 0.823110
O O11 0.518320 0.819142 0.886900
O O12 0.250000 0.683178 0.697532
O O13 0.493457 0.622338 0.738794
O O14 0.511781 0.681466 0.654868
O O15 0.500000 0.500000 0.806904
O O16 0.750000 0.589946 0.779884
O O17 0.750000 0.912994 0.923074
O O18 0.000000 0.000000 0.919373
O O19 0.500000 0.500000 0.621897
O O20 0.250000 0.398358 0.616528
#
# Coordination Sequence:
#
# PCOD8182909 Si02
#       7
#     8   8   8   8   8   8   8
#     4   9  16  27  42  61  87 115 144 177 215 260
#     4  10  20  32  47  66  90 118 147 181 217 256
#     4   9  18  31  46  65  89 118 151 182 216 258
#     4  10  20  33  47  65  88 116 150 181 215 259
#     4  10  19  31  46  64  89 118 148 184 221 258
#     4   9  17  28  43  64  89 117 146 177 214 257
#     4  11  20  30  45  65  90 118 147 180 219 262
#
# _framework density 16.010515000000002
#
# number of rings (size 3 to 8) (size 9 to 14) (size 15 to 20)
#    0.000    2.286    0.000    4.714    0.000    4.571 
#    0.000    0.000    0.000    0.000    0.000    1.000 
#    0.000    2.286    0.000    0.000    0.000    0.000 
#
# Total GULP energy -347094.641896 kJ/mol
# GULP energy per Si atom -12396.237211 kJ/mol
# Density = 1.597407 g / cm^3
# Si number density = 16.010515 Si / 1000 Ang^3
#
#
#
# Elastic Constant Matrix: (Units=GPa)
#
#
# Indices 1 2 3 4 5 6 
#
# 1 82.1930 35.8863 51.5113 0.0000 0.0000 0.0000
# 2 35.8863 82.5104 51.3434 0.0000 0.0000 0.0000
# 3 51.5113 51.3434 150.9409 0.0000 0.0000 0.0000
# 4 0.0000 0.0000 0.0000 17.0334 0.0000 0.0000
# 5 0.0000 0.0000 0.0000 0.0000 24.4285 0.0000
# 6 0.0000 0.0000 0.0000 0.0000 0.0000 23.6063
#
#
#
# Elastic Compliance Matrix: (Units=1/GPa)
#
#
# Indices 1 2 3 4 5 6 
#
# 1 0.016827 -0.004751 -0.004126 0.000000 0.000000 0.000000
# 2 -0.004751 0.016715 -0.004064 0.000000 0.000000 0.000000
# 3 -0.004126 -0.004064 0.009416 0.000000 0.000000 0.000000
# 4 0.000000 0.000000 0.000000 0.058708 0.000000 0.000000
# 5 0.000000 0.000000 0.000000 0.000000 0.040936 0.000000
# 6 0.000000 0.000000 0.000000 0.000000 0.000000 0.042362
#
#
# Mechanical properties :
#
#
# Convention : Reuss Voigt Hill
#
# Bulk Modulus (GPa) = 58.56696 65.90292 62.23494
# Shear Modulus (GPa) = 23.09063 24.80719 23.94891
#
# Velocity S-wave (km/s) = 3.80177 3.94055 3.87178
# Velocity P-wave (km/s) = 7.47870 7.87119 7.67745
#
# Compressibility (1/GPa) = 0.01707447
#
# Stress axis : x y z
#
# Youngs Moduli (GPa) = 59.42899 59.82608 106.20355
#
# Poissons Ratio (x) = 0.28422 0.43824
# Poissons Ratio (y) = 0.28233 0.43166
# Poissons Ratio (z) = 0.24523 0.24316
#
# Static dielectric constant tensor:
#      x y z
#    x 3.166530 0.000000 0.000000 
#    y 0.000000 2.899570 0.000000 
#    z 0.000000 0.000000 3.627230 
# 
# 
# High freq. dielectric constant tensor:
#      x y z
#    x 1.631180 0.000000 0.000000 
#    y 0.000000 1.579740 0.000000 
#    z 0.000000 0.000000 1.618200 
# 
# From -- ./inp_files/26411.got.cif
#   From: 2010.03.12/outbox.cif.g09.slc.cpg/sg40_14_cif.got.tgz:26411.got - 2010.04.14 01:38:03.
