data_PCOD8182926
_publ_section_title
;
Structure prediction by ZEFSAII (Michael W. Deem and Ramdas Pophale) SiO2 
 PCOD8182926
Probable space group: A M A 2
;
_chemical_formula_sum "Si O2"
_cell_formula_units_Z 64
_cell_length_a 8.952636
_cell_length_b 14.480058
_cell_length_c 27.626239
_cell_angle_alpha 90.000000
_cell_angle_beta 90.000000
_cell_angle_gamma 90.000000
_cell_volume 3581.318888
_symmetry_space_group_name_H-M "A M A 2"
_symmetry_group_IT_number 40
_symmetry_cell_setting 'orthorhombic'
loop_
_space_group_symop_operation_xyz
x,y,z
-x,-y,z
1/2-x,y,z
1/2+x,-y,z
x,1/2+y,1/2+z
-x,1/2-y,1/2+z
1/2-x,1/2+y,1/2+z
1/2+x,1/2-y,1/2+z
loop_
_atom_site_type_symbol
_atom_site_label
_atom_site_fract_x
_atom_site_fract_y
_atom_site_fract_z
Si Si1 0.575359 0.288517 0.617210
Si Si2 0.574874 0.410572 0.433900
Si Si3 0.423412 0.593298 0.706498
Si Si4 0.582784 0.352805 0.989611
Si Si5 0.416023 0.853474 0.026611
Si Si6 0.573096 0.709877 0.897096
Si Si7 0.572779 0.403234 0.816396
Si Si8 0.073842 0.910670 0.583010
O O1 0.750000 0.297700 0.605874
O O2 0.533360 0.322106 0.671139
O O3 0.491012 0.354834 0.579429
O O4 0.525936 0.181532 0.612097
O O5 0.500000 0.500000 0.407922
O O6 0.750000 0.424536 0.434740
O O7 0.516355 0.409945 0.489053
O O8 0.530719 0.317286 0.405467
O O9 0.500000 0.500000 0.688178
O O10 0.250000 0.572436 0.704433
O O11 0.471608 0.619051 0.760955
O O12 0.750000 0.394237 0.983225
O O13 0.495381 0.355213 0.938826
O O14 0.594145 0.249855 0.008275
O O15 0.488664 0.410539 0.028337
O O16 0.250000 0.897000 0.029745
O O17 0.750000 0.695574 0.896042
O O18 0.498899 0.679856 0.846819
O O19 0.500000 0.500000 0.832666
O O20 0.750000 0.407550 0.824494
O O21 0.250000 0.922542 0.581533
O O22 0.000000 0.000000 0.609255
#
# Coordination Sequence:
#
# PCOD8182926 Si02
#       8
#     8   8   8   8   8   8   8   8
#     4   9  18  33  51  71  99 133 166 201 244 293
#     4  10  20  33  50  72 101 136 171 206 243 287
#     4   9  19  35  54  76  99 125 158 198 246 297
#     4   9  17  30  47  68  95 127 164 201 237 282
#     4   9  17  29  46  69  97 128 163 201 239 281
#     4  10  20  34  52  75 102 131 165 205 249 295
#     4  10  20  35  55  77 100 126 159 201 250 302
#     4  10  19  31  48  70  99 134 169 205 243 285
#
# _framework density 17.870511
#
# number of rings (size 3 to 8) (size 9 to 14) (size 15 to 20)
#    0.000    2.500    0.000    2.250    0.000    7.000 
#    0.000    3.750    0.000    0.750    0.000    3.500 
#    0.000    0.000    0.000    0.000    0.000    0.000 
#
# Total GULP energy -396743.457340 kJ/mol
# GULP energy per Si atom -12398.233042 kJ/mol
# Density = 1.782984 g / cm^3
# Si number density = 17.870511 Si / 1000 Ang^3
#
#
#
# Elastic Constant Matrix: (Units=GPa)
#
#
# Indices 1 2 3 4 5 6 
#
# 1 90.5329 49.3253 43.3346 0.0000 0.0000 0.0000
# 2 49.3253 106.2368 57.8044 0.0000 0.0000 0.0000
# 3 43.3346 57.8044 99.7966 0.0000 0.0000 0.0000
# 4 0.0000 0.0000 0.0000 22.5736 0.0000 0.0000
# 5 0.0000 0.0000 0.0000 0.0000 23.6940 0.0000
# 6 0.0000 0.0000 0.0000 0.0000 0.0000 30.2743
#
#
#
# Elastic Compliance Matrix: (Units=1/GPa)
#
#
# Indices 1 2 3 4 5 6 
#
# 1 0.015711 -0.005231 -0.003792 0.000000 0.000000 0.000000
# 2 -0.005231 0.015487 -0.006699 0.000000 0.000000 0.000000
# 3 -0.003792 -0.006699 0.015547 0.000000 0.000000 0.000000
# 4 0.000000 0.000000 0.000000 0.044300 0.000000 0.000000
# 5 0.000000 0.000000 0.000000 0.000000 0.042205 0.000000
# 6 0.000000 0.000000 0.000000 0.000000 0.000000 0.033031
#
#
# Mechanical properties :
#
#
# Convention : Reuss Voigt Hill
#
# Bulk Modulus (GPa) = 65.35674 66.38834 65.87254
# Shear Modulus (GPa) = 24.65188 25.04851 24.85020
#
# Velocity S-wave (km/s) = 3.71815 3.74795 3.73308
# Velocity P-wave (km/s) = 7.42191 7.48063 7.45132
#
# Compressibility (1/GPa) = 0.01530064
#
# Stress axis : x y z
#
# Youngs Moduli (GPa) = 63.64971 64.57220 64.32103
#
# Poissons Ratio (x) = 0.33779 0.24391
# Poissons Ratio (y) = 0.33297 0.43086
# Poissons Ratio (z) = 0.24137 0.43254
#
# Static dielectric constant tensor:
#      x y z
#    x 3.463180 0.000000 0.000000 
#    y 0.000000 3.399040 0.000000 
#    z 0.000000 0.000000 3.255180 
# 
# 
# High freq. dielectric constant tensor:
#      x y z
#    x 1.704910 0.000000 0.000000 
#    y 0.000000 1.687860 0.000000 
#    z 0.000000 0.000000 1.664790 
# 
# From -- ./inp_files/24275.got.cif
#   From: 2010.03.12/outbox.cif.g09.slc.cpg/sg40_13_cif.got.tgz:24275.got - 2010.04.14 01:38:03.
