data_PCOD8182485
_publ_section_title
;
Structure prediction by ZEFSAII (Michael W. Deem and Ramdas Pophale) SiO2 
 PCOD8182485
Probable space group: A M A 2
;
_chemical_formula_sum "Si O2"
_cell_formula_units_Z 64
_cell_length_a 8.840705
_cell_length_b 18.692072
_cell_length_c 21.333047
_cell_angle_alpha 90.000000
_cell_angle_beta 90.000000
_cell_angle_gamma 90.000000
_cell_volume 3525.309363
_symmetry_space_group_name_H-M "A M A 2"
_symmetry_group_IT_number 40
_symmetry_cell_setting 'orthorhombic'
loop_
_space_group_symop_operation_xyz
x,y,z
-x,-y,z
1/2-x,y,z
1/2+x,-y,z
x,1/2+y,1/2+z
-x,1/2-y,1/2+z
1/2-x,1/2+y,1/2+z
1/2+x,1/2-y,1/2+z
loop_
_atom_site_type_symbol
_atom_site_label
_atom_site_fract_x
_atom_site_fract_y
_atom_site_fract_z
Si Si1 0.419028 0.431250 0.859160
Si Si2 0.583536 0.069558 0.211112
Si Si3 0.071098 0.424545 0.048720
Si Si4 0.928923 0.873494 0.676649
Si Si5 0.572494 0.571132 0.301802
Si Si6 0.076098 0.779055 0.851163
Si Si7 0.923986 0.831049 0.445527
Si Si8 0.928206 0.223065 0.228293
O O1 0.500000 0.500000 0.888870
O O2 0.250000 0.423314 0.888152
O O3 0.408248 0.437734 0.785391
O O4 0.529223 0.368141 0.880350
O O5 0.750000 0.067325 0.181089
O O6 0.506532 0.148055 0.198727
O O7 0.500000 0.000000 0.182199
O O8 0.250000 0.432368 0.050811
O O9 0.000000 0.500000 0.026414
O O10 0.010551 0.404827 0.116636
O O11 0.026749 0.359705 0.001981
O O12 0.750000 0.884960 0.670952
O O13 0.970506 0.789234 0.683195
O O14 0.990469 0.916372 0.735795
O O15 0.500000 0.500000 0.332272
O O16 0.750000 0.561184 0.290351
O O17 0.536850 0.636619 0.348890
O O18 0.250000 0.766476 0.832658
O O19 0.047243 0.751528 0.923162
O O20 0.981908 0.736470 0.798903
O O21 0.750000 0.844520 0.463876
O O22 0.750000 0.212354 0.234217
#
# Coordination Sequence:
#
# PCOD8182485 Si02
#       8
#     8   8   8   8   8   8   8   8
#     4  10  18  28  42  62  92 128 165 199 235 281
#     4   9  17  27  41  65  96 129 162 197 237 288
#     4  12  25  40  55  73 100 135 175 215 251 296
#     4  10  20  35  55  76 100 133 171 214 257 300
#     4  10  19  33  52  78 106 134 165 203 252 304
#     4   9  19  32  49  72 100 130 164 204 248 300
#     4  11  21  34  50  70  97 131 169 207 248 292
#     4   9  17  31  50  72  99 130 167 207 252 301
#
# _framework density 18.154434999999999
#
# number of rings (size 3 to 8) (size 9 to 14) (size 15 to 20)
#    0.000    2.000    1.250    3.375    0.000    2.500 
#    0.000    0.000    0.000    0.000    0.000    0.875 
#    0.000    0.000    0.000    0.000    0.000    0.000 
#
# Total GULP energy -396497.447200 kJ/mol
# GULP energy per Si atom -12390.545225 kJ/mol
# Density = 1.811312 g / cm^3
# Si number density = 18.154435 Si / 1000 Ang^3
#
#
#
# Elastic Constant Matrix: (Units=GPa)
#
#
# Indices 1 2 3 4 5 6 
#
# 1 82.2001 38.7593 23.8037 0.0000 0.0000 0.0000
# 2 38.7593 128.3316 26.4097 0.0000 0.0000 0.0000
# 3 23.8037 26.4097 53.7324 0.0000 0.0000 0.0000
# 4 0.0000 0.0000 0.0000 22.7305 0.0000 0.0000
# 5 0.0000 0.0000 0.0000 0.0000 20.8366 0.0000
# 6 0.0000 0.0000 0.0000 0.0000 0.0000 25.3725
#
#
#
# Elastic Compliance Matrix: (Units=1/GPa)
#
#
# Indices 1 2 3 4 5 6 
#
# 1 0.015312 -0.003592 -0.005018 0.000000 0.000000 0.000000
# 2 -0.003592 0.009512 -0.003084 0.000000 0.000000 0.000000
# 3 -0.005018 -0.003084 0.022349 0.000000 0.000000 0.000000
# 4 0.000000 0.000000 0.000000 0.043994 0.000000 0.000000
# 5 0.000000 0.000000 0.000000 0.000000 0.047992 0.000000
# 6 0.000000 0.000000 0.000000 0.000000 0.000000 0.039413
#
#
# Mechanical properties :
#
#
# Convention : Reuss Voigt Hill
#
# Bulk Modulus (GPa) = 42.04155 49.13439 45.58797
# Shear Modulus (GPa) = 23.82217 25.47402 24.64809
#
# Velocity S-wave (km/s) = 3.62635 3.74997 3.68868
# Velocity P-wave (km/s) = 6.38294 6.77297 6.58085
#
# Compressibility (1/GPa) = 0.02378599
#
# Stress axis : x y z
#
# Youngs Moduli (GPa) = 65.30713 105.13234 44.74390
#
# Poissons Ratio (x) = 0.37764 0.22452
# Poissons Ratio (y) = 0.23459 0.13798
# Poissons Ratio (z) = 0.32770 0.32421
#
# Static dielectric constant tensor:
#      x y z
#    x 3.515690 0.000000 0.000000 
#    y 0.000000 3.831070 0.000000 
#    z 0.000000 0.000000 2.940180 
# 
# 
# High freq. dielectric constant tensor:
#      x y z
#    x 1.711130 0.000000 0.000000 
#    y 0.000000 1.717810 0.000000 
#    z 0.000000 0.000000 1.648960 
# 
# From -- ./inp_files/24391.got.cif
#   From: 2010.03.12/outbox.cif.g09.slc.cpg/sg40_13_cif.got.tgz:24391.got - 2010.04.14 01:38:03.
