data_PCOD8182347
_publ_section_title
;
Structure prediction by ZEFSAII (Michael W. Deem and Ramdas Pophale) SiO2 
 PCOD8182347
Probable space group: A M A 2
;
_chemical_formula_sum "Si O2"
_cell_formula_units_Z 48
_cell_length_a 8.848290
_cell_length_b 31.848035
_cell_length_c 9.449191
_cell_angle_alpha 90.000000
_cell_angle_beta 90.000000
_cell_angle_gamma 90.000000
_cell_volume 2662.788162
_symmetry_space_group_name_H-M "A M A 2"
_symmetry_group_IT_number 40
_symmetry_cell_setting 'orthorhombic'
loop_
_space_group_symop_operation_xyz
x,y,z
-x,-y,z
1/2-x,y,z
1/2+x,-y,z
x,1/2+y,1/2+z
-x,1/2-y,1/2+z
1/2-x,1/2+y,1/2+z
1/2+x,1/2-y,1/2+z
loop_
_atom_site_type_symbol
_atom_site_label
_atom_site_fract_x
_atom_site_fract_y
_atom_site_fract_z
Si Si1 0.082229 0.040383 0.563290
Si Si2 0.572551 0.212041 0.532452
Si Si3 0.429087 0.873838 0.229096
Si Si4 0.430398 0.629963 0.036677
Si Si5 0.927504 0.290650 0.728185
Si Si6 0.921699 0.958130 0.225110
O O1 0.250000 0.033462 0.615544
O O2 0.025656 0.086402 0.618616
O O3 0.068373 0.041563 0.394361
O O4 0.000000 0.000000 0.629252
O O5 0.750000 0.203166 0.519156
O O6 0.491192 0.172181 0.612326
O O7 0.536598 0.252504 0.624852
O O8 0.502770 0.219703 0.378389
O O9 0.250000 0.874091 0.214024
O O10 0.480228 0.870011 0.390247
O O11 0.499723 0.832358 0.155172
O O12 0.494018 0.917054 0.163083
O O13 0.250000 0.631046 0.010651
O O14 0.750000 0.297853 0.750522
O O15 0.750000 0.957199 0.172365
O O16 0.000000 0.000000 0.163899
#
# Coordination Sequence:
#
# PCOD8182347 Si02
#       6
#     8   8   8   8   8   8
#     4   8  14  21  31  49  73 104 138 170 208 254
#     4  10  20  32  48  69  90 118 155 189 228 275
#     4  10  17  25  39  58  81 112 147 180 220 268
#     4   9  16  26  39  56  81 112 144 180 222 264
#     4  10  20  33  48  67  92 120 152 191 230 271
#     4   9  15  23  34  51  77 108 142 178 217 262
#
# _framework density 18.026219000000001
#
# number of rings (size 3 to 8) (size 9 to 14) (size 15 to 20)
#    0.000    2.667    0.000    6.500    0.000    7.333 
#    0.000    0.000    0.000    0.000    0.000    0.000 
#    0.000    1.333    0.000   12.000    0.000   14.667 
#
# Total GULP energy -297318.559990 kJ/mol
# GULP energy per Si atom -12388.273333 kJ/mol
# Density = 1.798519 g / cm^3
# Si number density = 18.026219 Si / 1000 Ang^3
#
#
#
# Elastic Constant Matrix: (Units=GPa)
#
#
# Indices 1 2 3 4 5 6 
#
# 1 131.9708 97.4195 20.1681 0.0000 0.0000 0.0000
# 2 97.4195 224.1346 31.5145 0.0000 0.0000 0.0000
# 3 20.1681 31.5145 20.3853 0.0000 0.0000 0.0000
# 4 0.0000 0.0000 0.0000 14.9212 0.0000 0.0000
# 5 0.0000 0.0000 0.0000 0.0000 8.5866 0.0000
# 6 0.0000 0.0000 0.0000 0.0000 0.0000 36.8193
#
#
#
# Elastic Compliance Matrix: (Units=1/GPa)
#
#
# Indices 1 2 3 4 5 6 
#
# 1 0.011494 -0.004340 -0.004661 0.000000 0.000000 0.000000
# 2 -0.004340 0.007340 -0.007053 0.000000 0.000000 0.000000
# 3 -0.004661 -0.007053 0.064570 0.000000 0.000000 0.000000
# 4 0.000000 0.000000 0.000000 0.067019 0.000000 0.000000
# 5 0.000000 0.000000 0.000000 0.000000 0.116461 0.000000
# 6 0.000000 0.000000 0.000000 0.000000 0.000000 0.027160
#
#
# Mechanical properties :
#
#
# Convention : Reuss Voigt Hill
#
# Bulk Modulus (GPa) = 19.49528 74.96611 47.23070
# Shear Modulus (GPa) = 14.56664 27.22465 20.89564
#
# Velocity S-wave (km/s) = 2.84576 3.89045 3.40837
# Velocity P-wave (km/s) = 4.65148 7.86501 6.46121
#
# Compressibility (1/GPa) = 0.05129447
#
# Stress axis : x y z
#
# Youngs Moduli (GPa) = 87.00351 136.24398 15.48705
#
# Poissons Ratio (x) = 0.59134 0.07219
# Poissons Ratio (y) = 0.37762 0.10923
# Poissons Ratio (z) = 0.40556 0.96090
#
# Static dielectric constant tensor:
#      x y z
#    x 3.457250 0.000000 0.000000 
#    y 0.000000 4.357070 0.000000 
#    z 0.000000 0.000000 2.510600 
# 
# 
# High freq. dielectric constant tensor:
#      x y z
#    x 1.713050 0.000000 0.000000 
#    y 0.000000 1.737470 0.000000 
#    z 0.000000 0.000000 1.596370 
# 
# From -- ./inp_files/10449.got.cif
#   From: 2010.03.12/outbox.cif.g09.slc.cpg/sg40_6_cif.got.tgz:10449.got - 2010.04.14 01:38:03.
