data_PCOD8182994
_publ_section_title
;
Structure prediction by ZEFSAII (Michael W. Deem and Ramdas Pophale) SiO2 
 PCOD8182994
Probable space group: A M A 2
;
_chemical_formula_sum "Si O2"
_cell_formula_units_Z 64
_cell_length_a 8.597129
_cell_length_b 30.060977
_cell_length_c 14.237334
_cell_angle_alpha 90.000000
_cell_angle_beta 90.000000
_cell_angle_gamma 90.000000
_cell_volume 3679.469507
_symmetry_space_group_name_H-M "A M A 2"
_symmetry_group_IT_number 40
_symmetry_cell_setting 'orthorhombic'
loop_
_space_group_symop_operation_xyz
x,y,z
-x,-y,z
1/2-x,y,z
1/2+x,-y,z
x,1/2+y,1/2+z
-x,1/2-y,1/2+z
1/2-x,1/2+y,1/2+z
1/2+x,1/2-y,1/2+z
loop_
_atom_site_type_symbol
_atom_site_label
_atom_site_fract_x
_atom_site_fract_y
_atom_site_fract_z
Si Si1 0.567955 0.954623 0.861470
Si Si2 0.067740 0.634493 0.607461
Si Si3 0.571344 0.183462 0.941820
Si Si4 0.429040 0.774729 0.428522
Si Si5 0.566099 0.546809 0.567077
Si Si6 0.427636 0.637188 0.274958
Si Si7 0.571521 0.300277 0.111910
Si Si8 0.069063 0.719111 0.726966
O O1 0.750000 0.960275 0.881908
O O2 0.534041 0.915039 0.787208
O O3 0.500000 0.000000 0.816603
O O4 0.483654 0.944672 0.959529
O O5 0.250000 0.633301 0.587582
O O6 0.023332 0.670892 0.685510
O O7 0.976733 0.644485 0.511470
O O8 0.006108 0.585316 0.634396
O O9 0.750000 0.197178 0.953838
O O10 0.462661 0.225257 0.966362
O O11 0.543017 0.167143 0.836332
O O12 0.250000 0.781188 0.402327
O O13 0.474349 0.806285 0.515894
O O14 0.531201 0.783882 0.336880
O O15 0.500000 0.500000 0.603960
O O16 0.750000 0.546979 0.575517
O O17 0.250000 0.646669 0.307059
O O18 0.452785 0.653442 0.168253
O O19 0.750000 0.293118 0.084353
O O20 0.524027 0.258141 0.175651
O O21 0.250000 0.729317 0.713017
#
# Coordination Sequence:
#
# PCOD8182994 Si02
#       8
#     8   8   8   8   8   8   8   8
#     4  10  19  32  50  73 105 138 173 213 262 313
#     4  11  22  36  53  75 107 141 177 219 267 316
#     4  12  22  31  51  76 104 140 182 220 259 311
#     4  12  24  38  53  73 107 143 179 224 268 308
#     4  11  21  33  51  76 106 140 177 215 261 314
#     4  10  21  35  52  74 105 142 176 217 265 312
#     4  11  22  36  55  77 104 139 181 220 265 317
#     4  11  23  37  55  78 105 139 180 221 266 316
#
# _framework density 17.393812
#
# number of rings (size 3 to 8) (size 9 to 14) (size 15 to 20)
#    0.000    1.000    3.750    5.625    0.000    2.500 
#    0.000    0.000    0.000    0.000    0.000    0.875 
#    0.000    2.000    0.000    0.000    0.000    0.000 
#
# Total GULP energy -396852.086606 kJ/mol
# GULP energy per Si atom -12401.627706 kJ/mol
# Density = 1.735422 g / cm^3
# Si number density = 17.393812 Si / 1000 Ang^3
#
#
#
# Elastic Constant Matrix: (Units=GPa)
#
#
# Indices 1 2 3 4 5 6 
#
# 1 86.0219 26.8561 12.4088 0.0000 0.0000 0.0000
# 2 26.8561 99.8257 20.0663 0.0000 0.0000 0.0000
# 3 12.4088 20.0663 55.6698 0.0000 0.0000 0.0000
# 4 0.0000 0.0000 0.0000 25.5239 0.0000 0.0000
# 5 0.0000 0.0000 0.0000 0.0000 21.8220 0.0000
# 6 0.0000 0.0000 0.0000 0.0000 0.0000 27.2987
#
#
#
# Elastic Compliance Matrix: (Units=1/GPa)
#
#
# Indices 1 2 3 4 5 6 
#
# 1 0.012846 -0.003105 -0.001744 0.000000 0.000000 0.000000
# 2 -0.003105 0.011551 -0.003471 0.000000 0.000000 0.000000
# 3 -0.001744 -0.003471 0.019603 0.000000 0.000000 0.000000
# 4 0.000000 0.000000 0.000000 0.039179 0.000000 0.000000
# 5 0.000000 0.000000 0.000000 0.000000 0.045825 0.000000
# 6 0.000000 0.000000 0.000000 0.000000 0.000000 0.036632
#
#
# Mechanical properties :
#
#
# Convention : Reuss Voigt Hill
#
# Bulk Modulus (GPa) = 36.55194 40.01999 38.28597
# Shear Modulus (GPa) = 26.12376 27.07466 26.59921
#
# Velocity S-wave (km/s) = 3.87964 3.94962 3.91478
# Velocity P-wave (km/s) = 6.41317 6.62249 6.51867
#
# Compressibility (1/GPa) = 0.02735833
#
# Stress axis : x y z
#
# Youngs Moduli (GPa) = 77.84499 86.57497 51.01251
#
# Poissons Ratio (x) = 0.26885 0.08897
# Poissons Ratio (y) = 0.24174 0.17708
# Poissons Ratio (z) = 0.13576 0.30053
#
# Static dielectric constant tensor:
#      x y z
#    x 3.325250 0.000000 0.000000 
#    y 0.000000 3.451650 0.000000 
#    z 0.000000 0.000000 3.035730 
# 
# 
# High freq. dielectric constant tensor:
#      x y z
#    x 1.688770 0.000000 0.000000 
#    y 0.000000 1.666960 0.000000 
#    z 0.000000 0.000000 1.637540 
# 
# From -- ./inp_files/15922.got.cif
#   From: 2010.03.12/outbox.cif.g09.slc.cpg/sg40_8_cif.got.tgz:15922.got - 2010.04.14 01:38:03.
