data_PCOD8182524
_publ_section_title
;
Structure prediction by ZEFSAII (Michael W. Deem and Ramdas Pophale) SiO2 
 PCOD8182524
Probable space group: A M A 2
;
_chemical_formula_sum "Si O2"
_cell_formula_units_Z 64
_cell_length_a 8.800716
_cell_length_b 18.623428
_cell_length_c 26.077753
_cell_angle_alpha 90.000000
_cell_angle_beta 90.000000
_cell_angle_gamma 90.000000
_cell_volume 4274.130698
_symmetry_space_group_name_H-M "A M A 2"
_symmetry_group_IT_number 40
_symmetry_cell_setting 'orthorhombic'
loop_
_space_group_symop_operation_xyz
x,y,z
-x,-y,z
1/2-x,y,z
1/2+x,-y,z
x,1/2+y,1/2+z
-x,1/2-y,1/2+z
1/2-x,1/2+y,1/2+z
1/2+x,1/2-y,1/2+z
loop_
_atom_site_type_symbol
_atom_site_label
_atom_site_fract_x
_atom_site_fract_y
_atom_site_fract_z
Si Si1 0.567470 0.423126 0.120590
Si Si2 0.415745 0.705793 0.060391
Si Si3 0.569936 0.576577 0.607864
Si Si4 0.071864 0.575898 0.301232
Si Si5 0.573328 0.425160 0.419623
Si Si6 0.570900 0.659821 0.214064
Si Si7 0.568134 0.658976 0.507637
Si Si8 0.582834 0.211718 0.166451
O O1 0.500000 0.500000 0.107777
O O2 0.750000 0.424536 0.122350
O O3 0.504877 0.370110 0.074916
O O4 0.508094 0.395263 0.175007
O O5 0.250000 0.687572 0.037928
O O6 0.397729 0.748333 0.113053
O O7 0.497144 0.760277 0.020461
O O8 0.500000 0.500000 0.620829
O O9 0.750000 0.570754 0.607774
O O10 0.513516 0.603861 0.551970
O O11 0.518480 0.632158 0.652989
O O12 0.250000 0.573714 0.288965
O O13 0.039190 0.592463 0.360644
O O14 0.000000 0.500000 0.285075
O O15 0.990237 0.639416 0.270223
O O16 0.500000 0.500000 0.436406
O O17 0.750000 0.430464 0.431389
O O18 0.500232 0.362205 0.453150
O O19 0.750000 0.649999 0.210833
O O20 0.529088 0.743139 0.203211
O O21 0.750000 0.661037 0.505402
O O22 0.750000 0.206851 0.192616
#
# Coordination Sequence:
#
# PCOD8182524 Si02
#       8
#     8   8   8   8   8   8   8   8
#     4  10  18  29  43  60  84 111 139 168 201 241
#     4   7  13  26  42  57  77 107 137 164 196 237
#     4   9  17  27  41  61  85 113 142 170 202 241
#     4  10  20  33  45  58  80 108 138 171 206 242
#     4  10  20  31  43  60  81 107 138 172 206 239
#     4  11  20  29  43  62  81 105 139 173 207 244
#     4   9  16  28  44  60  80 109 141 169 201 239
#     4   8  15  29  43  56  79 110 139 167 202 241
#
# _framework density 14.973805
#
# number of rings (size 3 to 8) (size 9 to 14) (size 15 to 20)
#    0.000    2.750    0.000    5.250    0.000    3.500 
#    0.000    5.625    0.000    0.000    0.000    0.000 
#    0.000    1.000    0.000    7.500    0.000    4.375 
#
# Total GULP energy -396520.583823 kJ/mol
# GULP energy per Si atom -12391.268244 kJ/mol
# Density = 1.493972 g / cm^3
# Si number density = 14.973805 Si / 1000 Ang^3
#
#
#
# Elastic Constant Matrix: (Units=GPa)
#
#
# Indices 1 2 3 4 5 6 
#
# 1 65.4566 39.4850 32.7213 0.0000 0.0000 0.0000
# 2 39.4850 123.0284 51.8382 0.0000 0.0000 0.0000
# 3 32.7213 51.8382 65.7945 0.0000 0.0000 0.0000
# 4 0.0000 0.0000 0.0000 25.7004 0.0000 0.0000
# 5 0.0000 0.0000 0.0000 0.0000 15.7683 0.0000
# 6 0.0000 0.0000 0.0000 0.0000 0.0000 19.4723
#
#
#
# Elastic Compliance Matrix: (Units=1/GPa)
#
#
# Indices 1 2 3 4 5 6 
#
# 1 0.021323 -0.003556 -0.007803 0.000000 0.000000 0.000000
# 2 -0.003556 0.012760 -0.008285 0.000000 0.000000 0.000000
# 3 -0.007803 -0.008285 0.025607 0.000000 0.000000 0.000000
# 4 0.000000 0.000000 0.000000 0.038910 0.000000 0.000000
# 5 0.000000 0.000000 0.000000 0.000000 0.063418 0.000000
# 6 0.000000 0.000000 0.000000 0.000000 0.000000 0.051355
#
#
# Mechanical properties :
#
#
# Convention : Reuss Voigt Hill
#
# Bulk Modulus (GPa) = 49.01331 55.81871 52.41601
# Shear Modulus (GPa) = 19.27059 20.87053 20.07056
#
# Velocity S-wave (km/s) = 3.59131 3.73742 3.66509
# Velocity P-wave (km/s) = 7.07110 7.48217 7.27954
#
# Compressibility (1/GPa) = 0.02040262
#
# Stress axis : x y z
#
# Youngs Moduli (GPa) = 46.89816 78.36744 39.05121
#
# Poissons Ratio (x) = 0.27864 0.30472
# Poissons Ratio (y) = 0.16675 0.32355
# Poissons Ratio (z) = 0.36595 0.64931
#
# Static dielectric constant tensor:
#      x y z
#    x 2.846220 0.000000 0.000000 
#    y 0.000000 3.245310 0.000000 
#    z 0.000000 0.000000 2.737140 
# 
# 
# High freq. dielectric constant tensor:
#      x y z
#    x 1.570200 0.000000 0.000000 
#    y 0.000000 1.568660 0.000000 
#    z 0.000000 0.000000 1.538210 
# 
# From -- ./inp_files/24389.got.cif
#   From: 2010.03.12/outbox.cif.g09.slc.cpg/sg40_13_cif.got.tgz:24389.got - 2010.04.14 01:38:03.
