data_PCOD8182194
_publ_section_title
;
Structure prediction by ZEFSAII (Michael W. Deem and Ramdas Pophale) SiO2 
 PCOD8182194
Probable space group: A B M 2
;
_chemical_formula_sum "Si O2"
_cell_formula_units_Z 48
_cell_length_a 11.239574
_cell_length_b 22.211208
_cell_length_c 9.321610
_cell_angle_alpha 90.000000
_cell_angle_beta 90.000000
_cell_angle_gamma 90.000000
_cell_volume 2327.088816
_symmetry_space_group_name_H-M "A B M 2"
_symmetry_group_IT_number 39
_symmetry_cell_setting 'orthorhombic'
loop_
_space_group_symop_operation_xyz
x,y,z
-x,-y,z
-x,1/2+y,z
x,1/2-y,z
x,1/2+y,1/2+z
-x,1/2-y,1/2+z
-x,y,1/2+z
x,-y,1/2+z
loop_
_atom_site_type_symbol
_atom_site_label
_atom_site_fract_x
_atom_site_fract_y
_atom_site_fract_z
Si Si1 0.349197 0.607590 0.042900
Si Si2 0.459720 0.431829 0.247334
Si Si3 0.830596 0.180975 0.890792
Si Si4 0.122306 0.543160 0.128395
Si Si5 0.790078 0.084213 0.645914
Si Si6 0.039986 0.397654 0.913233
O O1 0.439487 0.611808 0.177489
O O2 0.257105 0.554593 0.078776
O O3 0.426522 0.593124 0.902658
O O4 0.267822 0.667464 0.015849
O O5 0.500000 0.500000 0.263988
O O6 0.347972 0.432693 0.138666
O O7 0.820757 0.250000 0.844494
O O8 0.804621 0.136237 0.761120
O O9 0.966349 0.165017 0.934838
O O10 0.125373 0.473927 0.185154
O O11 0.071425 0.588296 0.248825
O O12 0.040508 0.550338 0.987091
O O13 0.832751 0.109062 0.492232
#
# Coordination Sequence:
#
# PCOD8182194 Si02
#       6
#     8   8   8   8   8   8
#     4  10  24  41  64 100 129 177 217 273 328 388
#     4  11  22  39  62  98 136 173 212 267 337 404
#     4  10  24  47  65  91 131 176 227 273 323 388
#     4  11  24  38  62  98 142 166 216 267 344 400
#     4  11  24  36  65  97 133 173 216 273 332 396
#     4  11  24  39  63  97 133 178 212 274 334 397
#
# _framework density 20.626631
#
# number of rings (size 3 to 8) (size 9 to 14) (size 15 to 20)
#    0.000    1.333    3.333    1.000   11.667    0.667 
#    0.000    3.333    0.000    0.000    0.000    0.000 
#    0.000    0.000    0.000    0.000    0.000    0.000 
#
# Total GULP energy -297367.544907 kJ/mol
# GULP energy per Si atom -12390.314371 kJ/mol
# Density = 2.057968 g / cm^3
# Si number density = 20.626631 Si / 1000 Ang^3
#
#
#
# Elastic Constant Matrix: (Units=GPa)
#
#
# Indices 1 2 3 4 5 6 
#
# 1 81.9206 15.3770 39.4573 0.0000 0.0000 0.0000
# 2 15.3770 124.1771 23.0308 0.0000 0.0000 0.0000
# 3 39.4573 23.0308 99.2531 0.0000 0.0000 0.0000
# 4 0.0000 0.0000 0.0000 19.6632 0.0000 0.0000
# 5 0.0000 0.0000 0.0000 0.0000 50.3865 0.0000
# 6 0.0000 0.0000 0.0000 0.0000 0.0000 18.5630
#
#
#
# Elastic Compliance Matrix: (Units=1/GPa)
#
#
# Indices 1 2 3 4 5 6 
#
# 1 0.015172 -0.000794 -0.005847 0.000000 0.000000 0.000000
# 2 -0.000794 0.008457 -0.001647 0.000000 0.000000 0.000000
# 3 -0.005847 -0.001647 0.012782 0.000000 0.000000 0.000000
# 4 0.000000 0.000000 0.000000 0.050856 0.000000 0.000000
# 5 0.000000 0.000000 0.000000 0.000000 0.019847 0.000000
# 6 0.000000 0.000000 0.000000 0.000000 0.000000 0.053871
#
#
# Mechanical properties :
#
#
# Convention : Reuss Voigt Hill
#
# Bulk Modulus (GPa) = 50.41689 51.23123 50.82406
# Shear Modulus (GPa) = 27.14842 32.88825 30.01834
#
# Velocity S-wave (km/s) = 3.63186 3.99740 3.81900
# Velocity P-wave (km/s) = 6.48713 6.79683 6.64379
#
# Compressibility (1/GPa) = 0.01983462
#
# Stress axis : x y z
#
# Youngs Moduli (GPa) = 65.90897 118.24867 78.23560
#
# Poissons Ratio (x) = 0.09393 0.45747
# Poissons Ratio (y) = 0.05235 0.12882
# Poissons Ratio (z) = 0.38539 0.19470
#
# Static dielectric constant tensor:
#      x y z
#    x 4.431750 0.000000 0.000000 
#    y 0.000000 3.386940 0.000000 
#    z 0.000000 0.000000 3.751690 
# 
# 
# High freq. dielectric constant tensor:
#      x y z
#    x 1.833510 0.000000 0.000000 
#    y 0.000000 1.755720 0.000000 
#    z 0.000000 0.000000 1.807210 
# 
# From -- ./inp_files/2709.got.cif
#   From: 2010.03.12/outbox.cif.g09.slc.cpg/sg39_2_cif.got.tgz:2709.got - 2010.04.14 02:53:20.
