data_PCOD8182178
_publ_section_title
;
Structure prediction by ZEFSAII (Michael W. Deem and Ramdas Pophale) SiO2 
 PCOD8182178
Probable space group: A B M 2
;
_chemical_formula_sum "Si O2"
_cell_formula_units_Z 48
_cell_length_a 13.322772
_cell_length_b 17.749906
_cell_length_c 9.822490
_cell_angle_alpha 90.000000
_cell_angle_beta 90.000000
_cell_angle_gamma 90.000000
_cell_volume 2322.802306
_symmetry_space_group_name_H-M "A B M 2"
_symmetry_group_IT_number 39
_symmetry_cell_setting 'orthorhombic'
loop_
_space_group_symop_operation_xyz
x,y,z
-x,-y,z
-x,1/2+y,z
x,1/2-y,z
x,1/2+y,1/2+z
-x,1/2-y,1/2+z
-x,y,1/2+z
x,-y,1/2+z
loop_
_atom_site_type_symbol
_atom_site_label
_atom_site_fract_x
_atom_site_fract_y
_atom_site_fract_z
Si Si1 0.787722 0.412958 0.916360
Si Si2 0.782186 0.916111 0.875445
Si Si3 0.420273 0.835740 0.304669
Si Si4 0.145592 0.337709 0.143332
Si Si5 0.945944 0.419423 0.152260
Si Si6 0.590317 0.664086 0.499428
O O1 0.760542 0.495744 0.866713
O O2 0.807913 0.359587 0.788208
O O3 0.693512 0.381443 0.998550
O O4 0.884667 0.418357 0.012391
O O5 0.683931 0.877636 0.818016
O O6 0.877184 0.898096 0.780436
O O7 0.802036 0.888090 0.027990
O O8 0.402462 0.750000 0.351367
O O9 0.508331 0.871734 0.396946
O O10 0.457015 0.840895 0.149402
O O11 0.165300 0.250000 0.114217
O O12 0.027242 0.353431 0.143499
O O13 0.000000 0.500000 0.174003
O O14 0.614071 0.750000 0.457901
#
# Coordination Sequence:
#
# PCOD8182178 Si02
#       6
#     8   8   8   8   8   8
#     4  12  24  44  71 100 138 181 230 289 346 418
#     4  12  24  44  71 100 138 181 230 289 346 418
#     4  10  23  44  69  97 133 177 226 285 350 414
#     4  12  28  42  67 105 141 183 232 288 348 416
#     4  12  24  46  69  99 140 185 234 285 353 406
#     4  10  23  44  69  97 133 177 226 285 350 414
#
# _framework density 20.664694000000001
#
# number of rings (size 3 to 8) (size 9 to 14) (size 15 to 20)
#    0.000    0.667    5.000    2.000    2.333    4.667 
#    0.000    1.667    0.000    0.000    0.000    0.000 
#    0.000    0.000    0.000    0.000    0.000    0.000 
#
# Total GULP energy -297738.617031 kJ/mol
# GULP energy per Si atom -12405.775710 kJ/mol
# Density = 2.061766 g / cm^3
# Si number density = 20.664694 Si / 1000 Ang^3
#
#
#
# Elastic Constant Matrix: (Units=GPa)
#
#
# Indices 1 2 3 4 5 6 
#
# 1 110.9779 32.1956 37.9052 0.0000 0.0000 0.0000
# 2 32.1956 76.5125 11.2145 0.0000 0.0000 0.0000
# 3 37.9052 11.2145 104.2217 0.0000 0.0000 0.0000
# 4 0.0000 0.0000 0.0000 33.1111 0.0000 0.0000
# 5 0.0000 0.0000 0.0000 0.0000 42.7907 0.0000
# 6 0.0000 0.0000 0.0000 0.0000 0.0000 33.0329
#
#
#
# Elastic Compliance Matrix: (Units=1/GPa)
#
#
# Indices 1 2 3 4 5 6 
#
# 1 0.011535 -0.004307 -0.003732 0.000000 0.000000 0.000000
# 2 -0.004307 0.014887 -0.000036 0.000000 0.000000 0.000000
# 3 -0.003732 -0.000036 0.010956 0.000000 0.000000 0.000000
# 4 0.000000 0.000000 0.000000 0.030201 0.000000 0.000000
# 5 0.000000 0.000000 0.000000 0.000000 0.023370 0.000000
# 6 0.000000 0.000000 0.000000 0.000000 0.000000 0.030273
#
#
# Mechanical properties :
#
#
# Convention : Reuss Voigt Hill
#
# Bulk Modulus (GPa) = 47.10341 50.48253 48.79297
# Shear Modulus (GPa) = 34.61488 35.81340 35.21414
#
# Velocity S-wave (km/s) = 4.09721 4.16753 4.13252
# Velocity P-wave (km/s) = 6.72506 6.90219 6.81420
#
# Compressibility (1/GPa) = 0.02122988
#
# Stress axis : x y z
#
# Youngs Moduli (GPa) = 86.69390 67.17177 91.27422
#
# Poissons Ratio (x) = 0.28929 0.34062
# Poissons Ratio (y) = 0.37337 0.00324
# Poissons Ratio (z) = 0.32352 0.00239
#
# Static dielectric constant tensor:
#      x y z
#    x 3.790690 0.000000 0.000000 
#    y 0.000000 3.685150 0.000000 
#    z 0.000000 0.000000 3.930450 
# 
# 
# High freq. dielectric constant tensor:
#      x y z
#    x 1.814200 0.000000 0.000000 
#    y 0.000000 1.802810 0.000000 
#    z 0.000000 0.000000 1.827290 
# 
# From -- ./inp_files/3222.got.cif
#   From: 2010.03.12/outbox.cif.g09.slc.cpg/sg39_2_cif.got.tgz:3222.got - 2010.04.14 02:53:20.
