data_PCOD8182937
_publ_section_title
;
Structure prediction by ZEFSAII (Michael W. Deem and Ramdas Pophale) SiO2 
 PCOD8182937
Probable space group: A M A 2
;
_chemical_formula_sum "Si O2"
_cell_formula_units_Z 64
_cell_length_a 8.769211
_cell_length_b 28.287495
_cell_length_c 14.411118
_cell_angle_alpha 90.000000
_cell_angle_beta 90.000000
_cell_angle_gamma 90.000000
_cell_volume 3574.807697
_symmetry_space_group_name_H-M "A M A 2"
_symmetry_group_IT_number 40
_symmetry_cell_setting 'orthorhombic'
loop_
_space_group_symop_operation_xyz
x,y,z
-x,-y,z
1/2-x,y,z
1/2+x,-y,z
x,1/2+y,1/2+z
-x,1/2-y,1/2+z
1/2-x,1/2+y,1/2+z
1/2+x,1/2-y,1/2+z
loop_
_atom_site_type_symbol
_atom_site_label
_atom_site_fract_x
_atom_site_fract_y
_atom_site_fract_z
Si Si1 0.427100 0.680877 0.610480
Si Si2 0.430076 0.548857 0.907454
Si Si3 0.070189 0.549411 0.119510
Si Si4 0.074053 0.726282 0.905640
Si Si5 0.428767 0.864083 0.727900
Si Si6 0.075555 0.720466 0.119795
Si Si7 0.071956 0.136829 0.295965
Si Si8 0.928138 0.825479 0.902510
O O1 0.250000 0.695764 0.610812
O O2 0.522754 0.726434 0.641047
O O3 0.460170 0.639422 0.685388
O O4 0.474281 0.662060 0.508794
O O5 0.500000 0.500000 0.871829
O O6 0.250000 0.545095 0.898314
O O7 0.500107 0.589827 0.841278
O O8 0.479188 0.559524 0.013287
O O9 0.250000 0.546218 0.129276
O O10 0.000000 0.500000 0.154140
O O11 0.010892 0.591354 0.183035
O O12 0.250000 0.738591 0.882239
O O13 0.006412 0.683935 0.843919
O O14 0.971892 0.771410 0.881741
O O15 0.056788 0.709745 0.011366
O O16 0.250000 0.872111 0.721946
O O17 0.472697 0.815986 0.675918
O O18 0.479824 0.860513 0.835306
O O19 0.250000 0.714244 0.151845
O O20 0.250000 0.135748 0.318729
O O21 0.750000 0.832509 0.884471
#
# Coordination Sequence:
#
# PCOD8182937 Si02
#       8
#     8   8   8   8   8   8   8   8
#     4   9  18  32  50  72 100 135 172 209 250 297
#     4   9  18  33  53  76 103 131 158 193 241 296
#     4  10  20  36  56  79 105 130 158 198 250 306
#     4   9  17  30  49  73 102 134 164 198 246 304
#     4  12  23  34  51  73  98 134 176 214 252 296
#     4  10  19  31  48  73 105 137 168 206 251 299
#     4   9  16  29  50  72  95 128 166 198 237 294
#     4  10  20  33  48  70 100 133 170 212 253 294
#
# _framework density 17.903061000000001
#
# number of rings (size 3 to 8) (size 9 to 14) (size 15 to 20)
#    0.000    2.250    0.000    3.750    0.000    4.500 
#    0.000    1.250    0.000    0.750    0.000    1.750 
#    0.000    0.000    0.000    0.000    0.000    0.000 
#
# Total GULP energy -396823.892008 kJ/mol
# GULP energy per Si atom -12400.746625 kJ/mol
# Density = 1.786231 g / cm^3
# Si number density = 17.903061 Si / 1000 Ang^3
#
#
#
# Elastic Constant Matrix: (Units=GPa)
#
#
# Indices 1 2 3 4 5 6 
#
# 1 52.2554 24.3309 25.6107 0.0000 0.0000 0.0000
# 2 24.3309 92.8602 72.6018 0.0000 0.0000 0.0000
# 3 25.6107 72.6018 108.6217 0.0000 0.0000 0.0000
# 4 0.0000 0.0000 0.0000 27.4483 0.0000 0.0000
# 5 0.0000 0.0000 0.0000 0.0000 22.2015 0.0000
# 6 0.0000 0.0000 0.0000 0.0000 0.0000 29.3126
#
#
#
# Elastic Compliance Matrix: (Units=1/GPa)
#
#
# Indices 1 2 3 4 5 6 
#
# 1 0.022201 -0.003612 -0.002820 0.000000 0.000000 0.000000
# 2 -0.003612 0.023144 -0.014617 0.000000 0.000000 0.000000
# 3 -0.002820 -0.014617 0.019641 0.000000 0.000000 0.000000
# 4 0.000000 0.000000 0.000000 0.036432 0.000000 0.000000
# 5 0.000000 0.000000 0.000000 0.000000 0.045042 0.000000
# 6 0.000000 0.000000 0.000000 0.000000 0.000000 0.034115
#
#
# Mechanical properties :
#
#
# Convention : Reuss Voigt Hill
#
# Bulk Modulus (GPa) = 43.69375 55.42488 49.55932
# Shear Modulus (GPa) = 21.71048 24.53875 23.12461
#
# Velocity S-wave (km/s) = 3.48612 3.70624 3.59786
# Velocity P-wave (km/s) = 6.37673 7.02428 6.70832
#
# Compressibility (1/GPa) = 0.02288657
#
# Stress axis : x y z
#
# Youngs Moduli (GPa) = 45.04340 43.20810 50.91280
#
# Poissons Ratio (x) = 0.15607 0.14359
# Poissons Ratio (y) = 0.16270 0.74422
# Poissons Ratio (z) = 0.12703 0.63159
#
# Static dielectric constant tensor:
#      x y z
#    x 3.260590 0.000000 0.000000 
#    y 0.000000 3.252830 0.000000 
#    z 0.000000 0.000000 3.514890 
# 
# 
# High freq. dielectric constant tensor:
#      x y z
#    x 1.686030 0.000000 0.000000 
#    y 0.000000 1.672270 0.000000 
#    z 0.000000 0.000000 1.697600 
# 
# From -- ./inp_files/15563.got.cif
#   From: 2010.03.12/outbox.cif.g09.slc.cpg/sg40_8_cif.got.tgz:15563.got - 2010.04.14 01:38:03.
