data_PCOD8182156
_publ_section_title
;
Structure prediction by ZEFSAII (Michael W. Deem and Ramdas Pophale) SiO2 
 PCOD8182156
Probable space group: A B M 2
;
_chemical_formula_sum "Si O2"
_cell_formula_units_Z 44
_cell_length_a 15.764834
_cell_length_b 9.041622
_cell_length_c 14.185413
_cell_angle_alpha 90.000000
_cell_angle_beta 90.000000
_cell_angle_gamma 90.000000
_cell_volume 2021.984087
_symmetry_space_group_name_H-M "A B M 2"
_symmetry_group_IT_number 39
_symmetry_cell_setting 'orthorhombic'
loop_
_space_group_symop_operation_xyz
x,y,z
-x,-y,z
-x,1/2+y,z
x,1/2-y,z
x,1/2+y,1/2+z
-x,1/2-y,1/2+z
-x,y,1/2+z
x,-y,1/2+z
loop_
_atom_site_type_symbol
_atom_site_label
_atom_site_fract_x
_atom_site_fract_y
_atom_site_fract_z
Si Si1 0.108922 0.589315 0.741920
Si Si2 0.413468 0.076739 0.545996
Si Si3 0.270458 0.919568 0.189916
Si Si4 0.313678 0.583554 0.400660
Si Si5 0.000000 0.000000 0.086159
Si Si6 0.120187 0.925907 0.430564
O O1 0.133343 0.750000 0.783379
O O2 0.187491 0.520785 0.684020
O O3 0.085060 0.481041 0.828904
O O4 0.034285 0.618218 0.663707
O O5 0.428353 0.250000 0.548554
O O6 0.338277 0.024285 0.614426
O O7 0.500000 0.000000 0.577656
O O8 0.384410 0.025746 0.442236
O O9 0.242476 0.750000 0.172739
O O10 0.317106 0.935853 0.289384
O O11 0.337253 0.750000 0.430567
O O12 0.219809 0.543781 0.437842
O O13 0.922082 0.026903 0.013210
O O14 0.098022 0.750000 0.440774
#
# Coordination Sequence:
#
# PCOD8182156 Si02
#       6
#     8   8   8   8   4   8
#     4  11  24  40  61  89 119 154 199 249 300 354
#     4  11  23  38  59  90 122 153 191 237 289 347
#     4   9  21  42  64  85 116 157 197 238 290 351
#     4   9  19  40  64  85 114 152 194 241 291 346
#     4  12  24  36  58  88 120 158 200 244 296 348
#     4  10  23  42  62  85 117 158 202 247 296 352
#
# _framework density 21.760804
#
# number of rings (size 3 to 8) (size 9 to 14) (size 15 to 20)
#    0.000    1.818    0.000    4.364    0.000   12.364 
#    0.000    1.818    0.000    0.000    0.000    0.000 
#    0.000    0.000    0.000    0.000    0.000    0.000 
#
# Total GULP energy -272544.994707 kJ/mol
# GULP energy per Si atom -12388.408850 kJ/mol
# Density = 2.171128 g / cm^3
# Si number density = 21.760804 Si / 1000 Ang^3
#
#
#
# Elastic Constant Matrix: (Units=GPa)
#
#
# Indices 1 2 3 4 5 6 
#
# 1 72.1809 49.9674 40.8277 0.0000 0.0000 0.0000
# 2 49.9674 94.0054 32.4501 0.0000 0.0000 0.0000
# 3 40.8277 32.4501 100.7107 0.0000 0.0000 0.0000
# 4 0.0000 0.0000 0.0000 14.4239 0.0000 0.0000
# 5 0.0000 0.0000 0.0000 0.0000 24.1534 0.0000
# 6 0.0000 0.0000 0.0000 0.0000 0.0000 17.4544
#
#
#
# Elastic Compliance Matrix: (Units=1/GPa)
#
#
# Indices 1 2 3 4 5 6 
#
# 1 0.025374 -0.011180 -0.006684 0.000000 0.000000 0.000000
# 2 -0.011180 0.016895 -0.000911 0.000000 0.000000 0.000000
# 3 -0.006684 -0.000911 0.012933 0.000000 0.000000 0.000000
# 4 0.000000 0.000000 0.000000 0.069329 0.000000 0.000000
# 5 0.000000 0.000000 0.000000 0.000000 0.041402 0.000000
# 6 0.000000 0.000000 0.000000 0.000000 0.000000 0.057292
#
#
# Mechanical properties :
#
#
# Convention : Reuss Voigt Hill
#
# Bulk Modulus (GPa) = 56.65513 57.04304 56.84908
# Shear Modulus (GPa) = 18.75044 20.78314 19.76679
#
# Velocity S-wave (km/s) = 2.93859 3.09378 3.01718
# Velocity P-wave (km/s) = 6.13235 6.24760 6.19024
#
# Compressibility (1/GPa) = 0.01765065
#
# Stress axis : x y z
#
# Youngs Moduli (GPa) = 39.40991 59.18955 77.32227
#
# Poissons Ratio (x) = 0.66174 0.51685
# Poissons Ratio (y) = 0.44060 0.07047
# Poissons Ratio (z) = 0.26343 0.05394
#
# Static dielectric constant tensor:
#      x y z
#    x 3.884200 0.000000 0.000000 
#    y 0.000000 3.730920 0.000000 
#    z 0.000000 0.000000 4.059130 
# 
# 
# High freq. dielectric constant tensor:
#      x y z
#    x 1.850060 0.000000 0.000000 
#    y 0.000000 1.839080 0.000000 
#    z 0.000000 0.000000 1.866900 
# 
# From -- ./inp_files/9998.got.cif
#   From: 2010.03.12/outbox.cif.g09.slc.cpg/sg39_5_cif.got.tgz:9998.got - 2010.04.14 02:53:20.
