data_PCOD8182691
_publ_section_title
;
Structure prediction by ZEFSAII (Michael W. Deem and Ramdas Pophale) SiO2 
 PCOD8182691
Probable space group: A M A 2
;
_chemical_formula_sum "Si O2"
_cell_formula_units_Z 64
_cell_length_a 8.444029
_cell_length_b 22.545036
_cell_length_c 15.560781
_cell_angle_alpha 90.000000
_cell_angle_beta 90.000000
_cell_angle_gamma 90.000000
_cell_volume 2962.320472
_symmetry_space_group_name_H-M "A M A 2"
_symmetry_group_IT_number 40
_symmetry_cell_setting 'orthorhombic'
loop_
_space_group_symop_operation_xyz
x,y,z
-x,-y,z
1/2-x,y,z
1/2+x,-y,z
x,1/2+y,1/2+z
-x,1/2-y,1/2+z
1/2-x,1/2+y,1/2+z
1/2+x,1/2-y,1/2+z
loop_
_atom_site_type_symbol
_atom_site_label
_atom_site_fract_x
_atom_site_fract_y
_atom_site_fract_z
Si Si1 0.437022 0.313932 0.766660
Si Si2 0.064099 0.565736 0.191783
Si Si3 0.567760 0.436471 0.704593
Si Si4 0.565133 0.065467 0.862891
Si Si5 0.070701 0.120250 0.029370
Si Si6 0.064333 0.935239 0.517336
Si Si7 0.062285 0.676637 0.946095
Si Si8 0.932046 0.236056 0.090531
O O1 0.250000 0.306714 0.772924
O O2 0.476917 0.382915 0.750710
O O3 0.515605 0.292001 0.855764
O O4 0.503921 0.272483 0.687445
O O5 0.250000 0.567185 0.209869
O O6 0.000000 0.500000 0.176570
O O7 0.973707 0.597614 0.271661
O O8 0.019792 0.595437 0.101003
O O9 0.500000 0.500000 0.733738
O O10 0.750000 0.432948 0.732568
O O11 0.546616 0.430229 0.601577
O O12 0.750000 0.067092 0.885145
O O13 0.500000 0.000000 0.847915
O O14 0.462505 0.093443 0.937127
O O15 0.250000 0.144709 0.032728
O O16 0.949176 0.173457 0.042741
O O17 0.250000 0.940557 0.532540
O O18 0.019821 0.888295 0.443237
O O19 0.000000 0.000000 0.491465
O O20 0.250000 0.671124 0.951375
O O21 0.992266 0.714174 0.027616
O O22 0.750000 0.251989 0.100844
#
# Coordination Sequence:
#
# PCOD8182691 Si02
#       8
#     8   8   8   8   8   8   8   8
#     4  10  21  40  64  90 120 158 201 251 303 358
#     4  10  18  32  52  76 110 151 192 239 294 351
#     4  10  20  34  55  85 120 159 200 245 300 363
#     4  11  20  31  49  76 113 155 202 251 304 362
#     4  10  20  34  54  81 114 154 201 252 304 358
#     4  11  22  39  62  90 122 158 197 245 300 364
#     4  11  23  42  66  93 123 160 201 249 303 362
#     4   9  21  42  64  85 118 159 199 248 306 358
#
# _framework density 21.604683999999999
#
# number of rings (size 3 to 8) (size 9 to 14) (size 15 to 20)
#    0.000    1.750    0.000    6.750    0.000    4.500 
#    2.250    2.500    0.000    0.000    0.000    0.000 
#    0.000    0.000    0.000    0.000    0.000    0.000 
#
# Total GULP energy -396636.211097 kJ/mol
# GULP energy per Si atom -12394.881597 kJ/mol
# Density = 2.155551 g / cm^3
# Si number density = 21.604684 Si / 1000 Ang^3
#
#
#
# Elastic Constant Matrix: (Units=GPa)
#
#
# Indices 1 2 3 4 5 6 
#
# 1 89.5354 17.8597 21.9994 0.0000 0.0000 0.0000
# 2 17.8597 73.7384 41.5230 0.0000 0.0000 0.0000
# 3 21.9994 41.5230 126.4577 0.0000 0.0000 0.0000
# 4 0.0000 0.0000 0.0000 16.3375 0.0000 0.0000
# 5 0.0000 0.0000 0.0000 0.0000 36.1466 0.0000
# 6 0.0000 0.0000 0.0000 0.0000 0.0000 23.0355
#
#
#
# Elastic Compliance Matrix: (Units=1/GPa)
#
#
# Indices 1 2 3 4 5 6 
#
# 1 0.011929 -0.002111 -0.001382 0.000000 0.000000 0.000000
# 2 -0.002111 0.017011 -0.005219 0.000000 0.000000 0.000000
# 3 -0.001382 -0.005219 0.009862 0.000000 0.000000 0.000000
# 4 0.000000 0.000000 0.000000 0.061209 0.000000 0.000000
# 5 0.000000 0.000000 0.000000 0.000000 0.027665 0.000000
# 6 0.000000 0.000000 0.000000 0.000000 0.000000 0.043411
#
#
# Mechanical properties :
#
#
# Convention : Reuss Voigt Hill
#
# Bulk Modulus (GPa) = 46.77452 50.27728 48.52590
# Shear Modulus (GPa) = 25.55745 28.99388 27.27566
#
# Velocity S-wave (km/s) = 3.44315 3.66733 3.55701
# Velocity P-wave (km/s) = 6.12407 6.42296 6.27529
#
# Compressibility (1/GPa) = 0.02137916
#
# Stress axis : x y z
#
# Youngs Moduli (GPa) = 83.82601 58.78418 101.40184
#
# Poissons Ratio (x) = 0.12410 0.14015
# Poissons Ratio (y) = 0.17696 0.52917
# Poissons Ratio (z) = 0.11586 0.30677
#
# Static dielectric constant tensor:
#      x y z
#    x 3.750740 0.000000 0.000000 
#    y 0.000000 3.664420 0.000000 
#    z 0.000000 0.000000 4.410560 
# 
# 
# High freq. dielectric constant tensor:
#      x y z
#    x 1.847830 0.000000 0.000000 
#    y 0.000000 1.818150 0.000000 
#    z 0.000000 0.000000 1.866630 
# 
# From -- ./inp_files/15665.got.cif
#   From: 2010.03.12/outbox.cif.g09.slc.cpg/sg40_8_cif.got.tgz:15665.got - 2010.04.14 01:38:03.
