data_PCOD8182632
_publ_section_title
;
Structure prediction by ZEFSAII (Michael W. Deem and Ramdas Pophale) SiO2 
 PCOD8182632
Probable space group: A M A 2
;
_chemical_formula_sum "Si O2"
_cell_formula_units_Z 64
_cell_length_a 8.700643
_cell_length_b 18.636918
_cell_length_c 21.837623
_cell_angle_alpha 90.000000
_cell_angle_beta 90.000000
_cell_angle_gamma 90.000000
_cell_volume 3541.039798
_symmetry_space_group_name_H-M "A M A 2"
_symmetry_group_IT_number 40
_symmetry_cell_setting 'orthorhombic'
loop_
_space_group_symop_operation_xyz
x,y,z
-x,-y,z
1/2-x,y,z
1/2+x,-y,z
x,1/2+y,1/2+z
-x,1/2-y,1/2+z
1/2-x,1/2+y,1/2+z
1/2+x,1/2-y,1/2+z
loop_
_atom_site_type_symbol
_atom_site_label
_atom_site_fract_x
_atom_site_fract_y
_atom_site_fract_z
Si Si1 0.568285 0.574438 0.133090
Si Si2 0.575856 0.666107 0.761782
Si Si3 0.568753 0.130766 0.504296
Si Si4 0.929716 0.573224 0.543678
Si Si5 0.926594 0.432813 0.674214
Si Si6 0.570022 0.075623 0.376690
Si Si7 0.431589 0.219015 0.054123
Si Si8 0.574011 0.284636 0.173276
O O1 0.500000 0.500000 0.157804
O O2 0.750000 0.571487 0.135748
O O3 0.507260 0.588133 0.063773
O O4 0.512725 0.639360 0.176180
O O5 0.750000 0.639175 0.747075
O O6 0.445286 0.633138 0.718927
O O7 0.534709 0.642902 0.831151
O O8 0.563864 0.750062 0.742220
O O9 0.750000 0.123526 0.501204
O O10 0.496330 0.097721 0.442377
O O11 0.524246 0.214481 0.510412
O O12 0.750000 0.574163 0.530072
O O13 0.000000 0.500000 0.513708
O O14 0.965142 0.574186 0.615425
O O15 0.004878 0.647665 0.519775
O O16 0.750000 0.442487 0.654379
O O17 0.000000 0.500000 0.711091
O O18 0.750000 0.063438 0.382717
O O19 0.500000 0.000000 0.353945
O O20 0.250000 0.211089 0.063651
O O21 0.502132 0.231511 0.121860
O O22 0.750000 0.297969 0.154698
#
# Coordination Sequence:
#
# PCOD8182632 Si02
#       8
#     8   8   8   8   8   8   8   8
#     4  10  19  32  51  75 100 127 159 201 251 304
#     4  10  20  32  47  67  96 130 168 204 242 286
#     4   8  17  32  51  72  98 129 167 205 246 292
#     4  11  20  30  44  66  95 126 160 198 242 295
#     4  11  20  29  43  61  89 126 163 199 237 280
#     4  10  20  35  51  71  99 135 172 210 242 283
#     4  10  18  31  49  71  96 128 164 206 252 300
#     4  10  19  31  47  69  97 129 163 203 245 298
#
# _framework density 18.073786999999999
#
# number of rings (size 3 to 8) (size 9 to 14) (size 15 to 20)
#    0.000    2.000    1.250    5.625    0.000    2.000 
#    0.000    3.125    0.000    0.000    0.000    0.875 
#    0.000    0.000    0.000    0.000    0.000    0.000 
#
# Total GULP energy -396480.544106 kJ/mol
# GULP energy per Si atom -12390.017003 kJ/mol
# Density = 1.803265 g / cm^3
# Si number density = 18.073787 Si / 1000 Ang^3
#
#
#
# Elastic Constant Matrix: (Units=GPa)
#
#
# Indices 1 2 3 4 5 6 
#
# 1 83.2433 37.2285 14.4890 0.0000 0.0000 0.0000
# 2 37.2285 135.4380 33.0022 0.0000 0.0000 0.0000
# 3 14.4890 33.0022 63.2145 0.0000 0.0000 0.0000
# 4 0.0000 0.0000 0.0000 23.5659 0.0000 0.0000
# 5 0.0000 0.0000 0.0000 0.0000 13.2036 0.0000
# 6 0.0000 0.0000 0.0000 0.0000 0.0000 31.6264
#
#
#
# Elastic Compliance Matrix: (Units=1/GPa)
#
#
# Indices 1 2 3 4 5 6 
#
# 1 0.013797 -0.003462 -0.001355 0.000000 0.000000 0.000000
# 2 -0.003462 0.009329 -0.004077 0.000000 0.000000 0.000000
# 3 -0.001355 -0.004077 0.018258 0.000000 0.000000 0.000000
# 4 0.000000 0.000000 0.000000 0.042434 0.000000 0.000000
# 5 0.000000 0.000000 0.000000 0.000000 0.075737 0.000000
# 6 0.000000 0.000000 0.000000 0.000000 0.000000 0.031619
#
#
# Mechanical properties :
#
#
# Convention : Reuss Voigt Hill
#
# Bulk Modulus (GPa) = 42.37957 50.14836 46.26397
# Shear Modulus (GPa) = 23.05986 26.82424 24.94205
#
# Velocity S-wave (km/s) = 3.57581 3.85665 3.71888
# Velocity P-wave (km/s) = 6.36770 6.90205 6.64025
#
# Compressibility (1/GPa) = 0.02359628
#
# Stress axis : x y z
#
# Youngs Moduli (GPa) = 72.47820 107.19835 54.77082
#
# Poissons Ratio (x) = 0.37116 0.07420
# Poissons Ratio (y) = 0.25095 0.22327
# Poissons Ratio (z) = 0.09819 0.43699
#
# Static dielectric constant tensor:
#      x y z
#    x 3.249120 0.000000 0.000000 
#    y 0.000000 3.834910 0.000000 
#    z 0.000000 0.000000 3.113320 
# 
# 
# High freq. dielectric constant tensor:
#      x y z
#    x 1.701020 0.000000 0.000000 
#    y 0.000000 1.710800 0.000000 
#    z 0.000000 0.000000 1.641740 
# 
# From -- ./inp_files/24402.got.cif
#   From: 2010.03.12/outbox.cif.g09.slc.cpg/sg40_13_cif.got.tgz:24402.got - 2010.04.14 01:38:03.
