data_PCOD8182037
_publ_section_title
;
Structure prediction by ZEFSAII (Michael W. Deem and Ramdas Pophale) SiO2 
 PCOD8182037
Probable space group: A B M 2
;
_chemical_formula_sum "Si O2"
_cell_formula_units_Z 48
_cell_length_a 9.124448
_cell_length_b 8.620171
_cell_length_c 31.185734
_cell_angle_alpha 90.000000
_cell_angle_beta 90.000000
_cell_angle_gamma 90.000000
_cell_volume 2452.892141
_symmetry_space_group_name_H-M "A B M 2"
_symmetry_group_IT_number 39
_symmetry_cell_setting 'orthorhombic'
loop_
_space_group_symop_operation_xyz
x,y,z
-x,-y,z
-x,1/2+y,z
x,1/2-y,z
x,1/2+y,1/2+z
-x,1/2-y,1/2+z
-x,y,1/2+z
x,-y,1/2+z
loop_
_atom_site_type_symbol
_atom_site_label
_atom_site_fract_x
_atom_site_fract_y
_atom_site_fract_z
Si Si1 0.160771 0.933535 0.694390
Si Si2 0.663744 0.433052 0.115928
Si Si3 0.841188 0.432192 0.356447
Si Si4 0.339138 0.433455 0.772782
Si Si5 0.339480 0.068515 0.935852
Si Si6 0.660006 0.068351 0.529629
O O1 0.152460 0.750000 0.691855
O O2 0.228418 0.998069 0.650870
O O3 0.261687 0.984026 0.733392
O O4 0.000000 0.000000 0.701648
O O5 0.500000 0.500000 0.121148
O O6 0.656462 0.250000 0.120842
O O7 0.735016 0.480392 0.069731
O O8 0.856390 0.250000 0.360500
O O9 0.743784 0.480183 0.316044
O O10 0.767541 0.501897 0.399637
O O11 0.000000 0.500000 0.349608
O O12 0.500000 0.500000 0.776964
O O13 0.341941 0.250000 0.764907
O O14 0.358626 0.250000 0.928802
O O15 0.500000 0.000000 0.930475
O O16 0.267005 0.035375 0.982994
O O17 0.654038 0.250000 0.540302
O O18 0.500000 0.000000 0.525324
#
# Coordination Sequence:
#
# PCOD8182037 Si02
#       6
#     8   8   8   8   8   8
#     4  12  25  42  61  84 115 149 186 229 281 337
#     4  11  21  36  58  85 115 149 191 235 282 333
#     4  10  22  38  56  81 114 150 187 228 277 332
#     4  11  23  40  62  88 115 146 187 232 279 331
#     4   9  18  33  54  81 111 145 187 234 280 329
#     4   9  16  29  51  79 111 145 185 234 283 328
#
# _framework density 19.568738
#
# number of rings (size 3 to 8) (size 9 to 14) (size 15 to 20)
#    0.000    1.667    0.000    6.500    0.000    4.000 
#    0.000    0.833    0.000    2.000    0.000    0.000 
#    0.000    0.000    0.000    0.000    0.000    0.000 
#
# Total GULP energy -297544.123226 kJ/mol
# GULP energy per Si atom -12397.671801 kJ/mol
# Density = 1.952420 g / cm^3
# Si number density = 19.568738 Si / 1000 Ang^3
#
#
#
# Elastic Constant Matrix: (Units=GPa)
#
#
# Indices 1 2 3 4 5 6 
#
# 1 120.9952 46.0708 68.8435 0.0000 0.0000 0.0000
# 2 46.0708 107.4995 60.6867 0.0000 0.0000 0.0000
# 3 68.8435 60.6867 168.1460 0.0000 0.0000 0.0000
# 4 0.0000 0.0000 0.0000 9.5730 0.0000 0.0000
# 5 0.0000 0.0000 0.0000 0.0000 20.5069 0.0000
# 6 0.0000 0.0000 0.0000 0.0000 0.0000 29.8906
#
#
#
# Elastic Compliance Matrix: (Units=1/GPa)
#
#
# Indices 1 2 3 4 5 6 
#
# 1 0.011423 -0.002832 -0.003654 0.000000 0.000000 0.000000
# 2 -0.002832 0.012385 -0.003310 0.000000 0.000000 0.000000
# 3 -0.003654 -0.003310 0.008638 0.000000 0.000000 0.000000
# 4 0.000000 0.000000 0.000000 0.104460 0.000000 0.000000
# 5 0.000000 0.000000 0.000000 0.000000 0.048764 0.000000
# 6 0.000000 0.000000 0.000000 0.000000 0.000000 0.033455
#
#
# Mechanical properties :
#
#
# Convention : Reuss Voigt Hill
#
# Bulk Modulus (GPa) = 77.81164 83.09365 80.45264
# Shear Modulus (GPa) = 20.57585 26.73008 23.65296
#
# Velocity S-wave (km/s) = 3.24615 3.69990 3.48042
# Velocity P-wave (km/s) = 7.34163 7.79788 7.57319
#
# Compressibility (1/GPa) = 0.01285155
#
# Stress axis : x y z
#
# Youngs Moduli (GPa) = 87.54625 80.74303 115.76465
#
# Poissons Ratio (x) = 0.22869 0.42306
# Poissons Ratio (y) = 0.24795 0.38322
# Poissons Ratio (z) = 0.31994 0.26729
#
# Static dielectric constant tensor:
#      x y z
#    x 3.394460 0.000000 0.000000 
#    y 0.000000 3.702600 0.000000 
#    z 0.000000 0.000000 4.475280 
# 
# 
# High freq. dielectric constant tensor:
#      x y z
#    x 1.740230 0.000000 0.000000 
#    y 0.000000 1.771440 0.000000 
#    z 0.000000 0.000000 1.791980 
# 
# From -- ./inp_files/17606.got.cif
#   From: 2010.03.12/outbox.cif.g09.slc.cpg/sg39_9_cif.got.tgz:17606.got - 2010.04.14 02:53:20.
