data_PCOD8182230
_publ_section_title
;
Structure prediction by ZEFSAII (Michael W. Deem and Ramdas Pophale) SiO2 
 PCOD8182230
Probable space group: A B M 2
;
_chemical_formula_sum "Si O2"
_cell_formula_units_Z 56
_cell_length_a 15.482743
_cell_length_b 9.064643
_cell_length_c 20.326048
_cell_angle_alpha 90.000000
_cell_angle_beta 90.000000
_cell_angle_gamma 90.000000
_cell_volume 2852.670141
_symmetry_space_group_name_H-M "A B M 2"
_symmetry_group_IT_number 39
_symmetry_cell_setting 'orthorhombic'
loop_
_space_group_symop_operation_xyz
x,y,z
-x,-y,z
-x,1/2+y,z
x,1/2-y,z
x,1/2+y,1/2+z
-x,1/2-y,1/2+z
-x,y,1/2+z
x,-y,1/2+z
loop_
_atom_site_type_symbol
_atom_site_label
_atom_site_fract_x
_atom_site_fract_y
_atom_site_fract_z
Si Si1 0.266845 0.425102 0.648640
Si Si2 0.131687 0.585716 0.969262
Si Si3 0.081912 0.083535 0.615080
Si Si4 0.269838 0.924538 0.293578
Si Si5 0.326583 0.420816 0.511550
Si Si6 0.914186 0.576193 0.842869
Si Si7 0.587982 0.074468 0.396154
O O1 0.257754 0.250000 0.640992
O O2 0.170263 0.490994 0.641170
O O3 0.302194 0.472707 0.720406
O O4 0.328230 0.476622 0.588171
O O5 0.120814 0.750000 0.938896
O O6 0.094013 0.464976 0.919685
O O7 0.078579 0.574823 0.036344
O O8 0.231719 0.553692 0.982935
O O9 0.075739 0.250000 0.640889
O O10 0.000000 0.000000 0.645368
O O11 0.267860 0.750000 0.299319
O O12 0.172503 0.983064 0.306473
O O13 0.337170 0.985660 0.347219
O O14 0.354884 0.250000 0.505935
O O15 0.392442 0.520970 0.470306
O O16 0.924451 0.750000 0.835611
O O17 0.000000 0.500000 0.812553
O O18 0.579131 0.250000 0.394654
O O19 0.500000 0.000000 0.371363
#
# Coordination Sequence:
#
# PCOD8182230 Si02
#       7
#     8   8   8   8   8   8   8
#     4   8  16  33  55  76 104 145 184 219 271 328
#     4   9  17  30  48  73 104 139 179 225 276 323
#     4   9  17  28  45  70 100 137 182 227 269 317
#     4   9  19  36  56  79 111 149 186 224 271 329
#     4   9  17  33  59  85 108 138 177 225 276 326
#     4  11  21  32  48  75 108 148 191 230 273 319
#     4  11  22  38  61  88 113 142 180 224 277 332
#
# _framework density 19.630731999999998
#
# number of rings (size 3 to 8) (size 9 to 14) (size 15 to 20)
#    0.000    2.571    1.429    3.000    0.000    2.286 
#    0.000    2.857    0.000    7.714    0.000    0.000 
#    0.000    0.000    0.000    0.000    0.000    0.000 
#
# Total GULP energy -347053.022214 kJ/mol
# GULP energy per Si atom -12394.750793 kJ/mol
# Density = 1.958605 g / cm^3
# Si number density = 19.630732 Si / 1000 Ang^3
#
#
#
# Elastic Constant Matrix: (Units=GPa)
#
#
# Indices 1 2 3 4 5 6 
#
# 1 104.8942 33.1651 47.3038 0.0000 0.0000 0.0000
# 2 33.1651 55.9254 23.3285 0.0000 0.0000 0.0000
# 3 47.3038 23.3285 119.0960 0.0000 0.0000 0.0000
# 4 0.0000 0.0000 0.0000 16.5951 0.0000 0.0000
# 5 0.0000 0.0000 0.0000 0.0000 11.7698 0.0000
# 6 0.0000 0.0000 0.0000 0.0000 0.0000 28.7208
#
#
#
# Elastic Compliance Matrix: (Units=1/GPa)
#
#
# Indices 1 2 3 4 5 6 
#
# 1 0.013336 -0.006206 -0.004081 0.000000 0.000000 0.000000
# 2 -0.006206 0.022360 -0.001915 0.000000 0.000000 0.000000
# 3 -0.004081 -0.001915 0.010393 0.000000 0.000000 0.000000
# 4 0.000000 0.000000 0.000000 0.060259 0.000000 0.000000
# 5 0.000000 0.000000 0.000000 0.000000 0.084964 0.000000
# 6 0.000000 0.000000 0.000000 0.000000 0.000000 0.034818
#
#
# Mechanical properties :
#
#
# Convention : Reuss Voigt Hill
#
# Bulk Modulus (GPa) = 46.11636 54.16782 50.14209
# Shear Modulus (GPa) = 19.39771 23.15833 21.27802
#
# Velocity S-wave (km/s) = 3.14686 3.43840 3.29586
# Velocity P-wave (km/s) = 6.06190 6.58914 6.33101
#
# Compressibility (1/GPa) = 0.02168428
#
# Stress axis : x y z
#
# Youngs Moduli (GPa) = 74.98359 44.72239 96.22092
#
# Poissons Ratio (x) = 0.27756 0.39271
# Poissons Ratio (y) = 0.46537 0.18425
# Poissons Ratio (z) = 0.30604 0.08564
#
# Static dielectric constant tensor:
#      x y z
#    x 3.542830 0.000000 0.000000 
#    y 0.000000 3.227790 0.000000 
#    z 0.000000 0.000000 3.669150 
# 
# 
# High freq. dielectric constant tensor:
#      x y z
#    x 1.753350 0.000000 0.000000 
#    y 0.000000 1.728450 0.000000 
#    z 0.000000 0.000000 1.763820 
# 
# From -- ./inp_files/14780.got.cif
#   From: 2010.03.12/outbox.cif.g09.slc.cpg/sg39_8_cif.got.tgz:14780.got - 2010.04.14 02:53:20.
