data_PCOD8182316
_publ_section_title
;
Structure prediction by ZEFSAII (Michael W. Deem and Ramdas Pophale) SiO2 
 PCOD8182316
Probable space group: A B M 2
;
_chemical_formula_sum "Si O2"
_cell_formula_units_Z 40
_cell_length_a 4.933871
_cell_length_b 27.086698
_cell_length_c 11.679392
_cell_angle_alpha 90.000000
_cell_angle_beta 90.000000
_cell_angle_gamma 90.000000
_cell_volume 1560.860503
_symmetry_space_group_name_H-M "A B M 2"
_symmetry_group_IT_number 39
_symmetry_cell_setting 'orthorhombic'
loop_
_space_group_symop_operation_xyz
x,y,z
-x,-y,z
-x,1/2+y,z
x,1/2-y,z
x,1/2+y,1/2+z
-x,1/2-y,1/2+z
-x,y,1/2+z
x,-y,1/2+z
loop_
_atom_site_type_symbol
_atom_site_label
_atom_site_fract_x
_atom_site_fract_y
_atom_site_fract_z
Si Si1 0.026510 0.855340 0.844320
Si Si2 0.438085 0.250000 0.589297
Si Si3 0.500000 0.500000 0.832319
Si Si4 0.257839 0.922337 0.167979
Si Si5 0.000000 0.500000 0.003306
Si Si6 0.524898 0.354984 0.488792
Si Si7 0.060114 0.250000 0.241023
O O1 0.952703 0.888878 0.737219
O O2 0.830358 0.866864 0.951530
O O3 0.998543 0.797828 0.815920
O O4 0.328834 0.869615 0.883192
O O5 0.490656 0.297326 0.512052
O O6 0.126967 0.250000 0.628576
O O7 0.628548 0.250000 0.701065
O O8 0.461539 0.453621 0.747948
O O9 0.248809 0.496659 0.917212
O O10 0.461782 0.887256 0.099353
O O11 0.061844 0.954177 0.086229
#
# Coordination Sequence:
#
# PCOD8182316 Si02
#       7
#     8   4   4   8   4   8   4
#     4  12  27  47  77 115 155 204 256 310 382 456
#     4  12  24  48  76 109 159 204 246 312 382 452
#     4  12  28  52  78 110 152 202 258 322 400 460
#     4  12  28  51  82 112 160 201 264 330 384 466
#     4  12  28  52  78 110 152 202 258 322 400 460
#     4  12  27  47  77 115 155 204 256 310 382 456
#     4  12  24  48  76 109 159 204 246 312 382 452
#
# _framework density 25.626888999999998
#
# number of rings (size 3 to 8) (size 9 to 14) (size 15 to 20)
#    0.000    0.000    2.000    7.200    0.000    6.400 
#    0.000    0.000    0.000    0.000    0.000    0.000 
#    0.000    0.000    0.000    0.000    0.000    0.000 
#
# Total GULP energy -248084.392381 kJ/mol
# GULP energy per Si atom -12404.219619 kJ/mol
# Density = 2.556856 g / cm^3
# Si number density = 25.626889 Si / 1000 Ang^3
#
#
#
# Elastic Constant Matrix: (Units=GPa)
#
#
# Indices 1 2 3 4 5 6 
#
# 1 79.4824 5.0380 15.8445 0.0000 0.0000 0.0000
# 2 5.0380 136.7677 52.9053 0.0000 0.0000 0.0000
# 3 15.8445 52.9053 126.3716 0.0000 0.0000 0.0000
# 4 0.0000 0.0000 0.0000 -55.1485 0.0000 0.0000
# 5 0.0000 0.0000 0.0000 0.0000 43.7049 0.0000
# 6 0.0000 0.0000 0.0000 0.0000 0.0000 20.4602
#
#
#
# Elastic Compliance Matrix: (Units=1/GPa)
#
#
# Indices 1 2 3 4 5 6 
#
# 1 0.012908 0.000180 -0.001694 0.000000 0.000000 0.000000
# 2 0.000180 0.008727 -0.003676 0.000000 0.000000 0.000000
# 3 -0.001694 -0.003676 0.009665 0.000000 0.000000 0.000000
# 4 0.000000 0.000000 0.000000 -0.018133 0.000000 0.000000
# 5 0.000000 0.000000 0.000000 0.000000 0.022881 0.000000
# 6 0.000000 0.000000 0.000000 0.000000 0.000000 0.048875
#
#
# Mechanical properties :
#
#
# Convention : Reuss Voigt Hill
#
# Bulk Modulus (GPa) = 47.80309 54.46636 51.13472
# Shear Modulus (GPa) = 48.88750 19.72557 34.30654
#
# Velocity S-wave (km/s) = 4.37242 2.77740 3.66278
# Velocity P-wave (km/s) = 6.64716 5.62005 6.15507
#
# Compressibility (1/GPa) = 0.02091915
#
# Stress axis : x y z
#
# Youngs Moduli (GPa) = 77.47362 114.58613 103.47141
#
# Poissons Ratio (x) = -0.02059 0.17524
# Poissons Ratio (y) = -0.01392 0.38037
# Poissons Ratio (z) = 0.13121 0.42123
#
# Static dielectric constant tensor:
#      x y z
#    x 4.666690 0.000000 0.000000 
#    y 0.000000 4.929190 0.000000 
#    z 0.000000 0.000000 4.996230 
# 
# 
# High freq. dielectric constant tensor:
#      x y z
#    x 2.035010 0.000000 0.000000 
#    y 0.000000 2.042720 0.000000 
#    z 0.000000 0.000000 2.041740 
# 
# From -- ./inp_files/4579.got.cif
#   From: 2010.03.12/outbox.cif.g09.slc.cpg/sg39_3_cif.got.tgz:4579.got - 2010.04.14 02:53:20.
