data_PCOD8182962
_publ_section_title
;
Structure prediction by ZEFSAII (Michael W. Deem and Ramdas Pophale) SiO2 
 PCOD8182962
Probable space group: A M A 2
;
_chemical_formula_sum "Si O2"
_cell_formula_units_Z 64
_cell_length_a 14.251766
_cell_length_b 8.913752
_cell_length_c 28.107779
_cell_angle_alpha 90.000000
_cell_angle_beta 90.000000
_cell_angle_gamma 90.000000
_cell_volume 3570.719705
_symmetry_space_group_name_H-M "A M A 2"
_symmetry_group_IT_number 40
_symmetry_cell_setting 'orthorhombic'
loop_
_space_group_symop_operation_xyz
x,y,z
-x,-y,z
1/2-x,y,z
1/2+x,-y,z
x,1/2+y,1/2+z
-x,1/2-y,1/2+z
1/2-x,1/2+y,1/2+z
1/2+x,1/2-y,1/2+z
loop_
_atom_site_type_symbol
_atom_site_label
_atom_site_fract_x
_atom_site_fract_y
_atom_site_fract_z
Si Si1 1.000000 0.177924 0.338440
Si Si2 0.643051 0.677482 0.022719
Si Si3 0.642866 0.674226 0.270816
Si Si4 1.000000 0.323508 0.590565
Si Si5 0.357134 0.174227 0.770816
Si Si6 1.000000 0.671751 0.189564
Si Si7 0.356949 0.677483 0.022719
Si Si8 0.500000 0.323413 0.944613
O O1 0.906038 0.233584 0.312751
O O2 1.000000 0.246553 0.391906
O O3 0.093961 0.233585 0.312751
O O4 0.000000 0.000000 0.338494
O O5 0.750000 0.731603 0.020056
O O6 0.593703 0.755607 0.067364
O O7 0.634646 0.500000 0.030225
O O8 0.592306 0.727792 0.973824
O O9 0.750000 0.727277 0.266316
O O10 0.634303 0.500000 0.284117
O O11 0.592413 0.705500 0.220714
O O12 0.093703 0.255608 0.567363
O O13 0.000000 0.500000 0.583392
O O14 1.000000 0.285053 0.646007
O O15 0.250000 0.227276 0.766315
O O16 0.407588 0.205501 0.720714
O O17 0.000000 0.500000 0.171406
O O18 0.250000 0.731604 0.020056
O O19 0.407693 0.727792 0.973824
O O20 0.500000 0.500000 0.939099
#
# Coordination Sequence:
#
# PCOD8182962 Si02
#       8
#     8   8   8   8   8   8   8   8
#     4  10  19  31  51  79 108 134 162 204 256 301
#     4   9  18  35  57  75  95 131 177 214 242 285
#     4   9  19  36  55  74  99 133 172 210 246 291
#     4  11  22  34  50  76 109 134 156 200 261 312
#     4   9  19  36  55  74  99 133 172 210 246 291
#     4   9  18  34  54  74  97 130 174 212 243 290
#     4   9  18  35  57  75  95 131 177 214 242 285
#     4   8  16  31  51  77 104 130 166 210 250 289
#
# _framework density 17.923556999999999
#
# number of rings (size 3 to 8) (size 9 to 14) (size 15 to 20)
#    0.000    2.750    0.000    3.000    0.000    5.000 
#    0.000   10.000    0.000    0.000    0.000    0.000 
#    0.000    0.000    0.000    0.000    0.000    0.000 
#
# Total GULP energy -396800.930013 kJ/mol
# GULP energy per Si atom -12400.029063 kJ/mol
# Density = 1.788276 g / cm^3
# Si number density = 17.923557 Si / 1000 Ang^3
#
#
#
# Elastic Constant Matrix: (Units=GPa)
#
#
# Indices 1 2 3 4 5 6 
#
# 1 184.7283 42.8048 75.0577 0.0000 0.0000 0.0000
# 2 42.8048 54.2161 43.1561 0.0000 0.0000 0.0000
# 3 75.0577 43.1561 138.9816 0.0000 0.0000 0.0000
# 4 0.0000 0.0000 0.0000 25.0371 0.0000 0.0000
# 5 0.0000 0.0000 0.0000 0.0000 11.9829 0.0000
# 6 0.0000 0.0000 0.0000 0.0000 0.0000 19.7645
#
#
#
# Elastic Compliance Matrix: (Units=1/GPa)
#
#
# Indices 1 2 3 4 5 6 
#
# 1 0.007414 -0.003542 -0.002904 0.000000 0.000000 0.000000
# 2 -0.003542 0.026193 -0.006220 0.000000 0.000000 0.000000
# 3 -0.002904 -0.006220 0.010695 0.000000 0.000000 0.000000
# 4 0.000000 0.000000 0.000000 0.039941 0.000000 0.000000
# 5 0.000000 0.000000 0.000000 0.000000 0.083453 0.000000
# 6 0.000000 0.000000 0.000000 0.000000 0.000000 0.050596
#
#
# Mechanical properties :
#
#
# Convention : Reuss Voigt Hill
#
# Bulk Modulus (GPa) = 52.71802 77.77369 65.24586
# Shear Modulus (GPa) = 20.00427 25.81740 22.91084
#
# Velocity S-wave (km/s) = 3.34442 3.79940 3.57914
# Velocity P-wave (km/s) = 6.66258 7.92044 7.31859
#
# Compressibility (1/GPa) = 0.01896884
#
# Stress axis : x y z
#
# Youngs Moduli (GPa) = 134.87849 38.17878 93.50002
#
# Poissons Ratio (x) = 0.13522 0.27154
# Poissons Ratio (y) = 0.47772 0.58161
# Poissons Ratio (z) = 0.39172 0.23749
#
# Static dielectric constant tensor:
#      x y z
#    x 3.580640 0.000000 0.000000 
#    y 0.000000 3.093210 0.000000 
#    z 0.000000 0.000000 3.380810 
# 
# 
# High freq. dielectric constant tensor:
#      x y z
#    x 1.699770 0.000000 0.000000 
#    y 0.000000 1.674990 0.000000 
#    z 0.000000 0.000000 1.695170 
# 
# From -- ./inp_files/26671.got.cif
#   From: 2010.03.12/outbox.cif.g09.slc.cpg/sg40_14_cif.got.tgz:26671.got - 2010.04.14 01:38:03.
