data_PCOD8182010
_publ_section_title
;
Structure prediction by ZEFSAII (Michael W. Deem and Ramdas Pophale) SiO2 
 PCOD8182010
Probable space group: A B M 2
;
_chemical_formula_sum "Si O2"
_cell_formula_units_Z 52
_cell_length_a 10.969070
_cell_length_b 14.935187
_cell_length_c 14.680524
_cell_angle_alpha 90.000000
_cell_angle_beta 90.000000
_cell_angle_gamma 90.000000
_cell_volume 2405.038484
_symmetry_space_group_name_H-M "A B M 2"
_symmetry_group_IT_number 39
_symmetry_cell_setting 'orthorhombic'
loop_
_space_group_symop_operation_xyz
x,y,z
-x,-y,z
-x,1/2+y,z
x,1/2-y,z
x,1/2+y,1/2+z
-x,1/2-y,1/2+z
-x,y,1/2+z
x,-y,1/2+z
loop_
_atom_site_type_symbol
_atom_site_label
_atom_site_fract_x
_atom_site_fract_y
_atom_site_fract_z
Si Si1 0.663361 0.750000 0.846421
Si Si2 0.410095 0.750000 0.741449
Si Si3 0.832844 0.590537 0.791062
Si Si4 0.162542 0.355144 0.596303
Si Si5 0.544574 0.250000 0.529900
Si Si6 0.726942 0.591024 0.332824
Si Si7 0.031804 0.649594 0.919865
Si Si8 0.400053 0.072267 0.514452
O O1 0.539939 0.750000 0.789015
O O2 0.730081 0.659961 0.818554
O O3 0.653560 0.750000 0.956247
O O4 0.409807 0.750000 0.632593
O O5 0.345039 0.842134 0.767908
O O6 0.891557 0.622423 0.695597
O O7 0.776480 0.492761 0.775529
O O8 0.936527 0.584344 0.869473
O O9 0.197756 0.250000 0.587696
O O10 0.053881 0.378616 0.525170
O O11 0.283242 0.416807 0.581152
O O12 0.462953 0.166477 0.506764
O O13 0.836298 0.648766 0.373992
O O14 0.644672 0.548009 0.413004
O O15 0.977956 0.750000 0.912485
O O16 0.500000 0.000000 0.550099
#
# Coordination Sequence:
#
# PCOD8182010 Si02
#       8
#     4   4   8   8   4   8   8   8
#     4  12  24  43  68 101 147 175 222 291 336 402
#     4  12  26  45  67  98 137 187 229 273 345 417
#     4  12  24  44  68 108 138 174 229 290 342 405
#     4  10  21  42  72  99 131 189 227 271 351 412
#     4  12  24  42  63  95 138 180 225 278 327 399
#     4  11  24  44  70  95 135 184 227 280 346 404
#     4  10  21  45  72  94 131 182 227 281 343 410
#     4  11  22  42  66  95 136 182 229 276 336 407
#
# _framework density 21.621275000000001
#
# number of rings (size 3 to 8) (size 9 to 14) (size 15 to 20)
#    0.000    0.923    4.615    2.308    2.154    0.000 
#    2.769    3.077    0.000    0.000    0.000    0.000 
#    0.000    0.000    0.000    0.000    0.000    0.000 
#
# Total GULP energy -322395.936214 kJ/mol
# GULP energy per Si atom -12399.843701 kJ/mol
# Density = 2.157206 g / cm^3
# Si number density = 21.621275 Si / 1000 Ang^3
#
#
#
# Elastic Constant Matrix: (Units=GPa)
#
#
# Indices 1 2 3 4 5 6 
#
# 1 97.1551 46.4352 56.7792 0.0000 0.0000 0.0000
# 2 46.4352 102.9537 34.7818 0.0000 0.0000 0.0000
# 3 56.7792 34.7818 167.4536 0.0000 0.0000 0.0000
# 4 0.0000 0.0000 0.0000 24.8682 0.0000 0.0000
# 5 0.0000 0.0000 0.0000 0.0000 27.8687 0.0000
# 6 0.0000 0.0000 0.0000 0.0000 0.0000 30.5103
#
#
#
# Elastic Compliance Matrix: (Units=1/GPa)
#
#
# Indices 1 2 3 4 5 6 
#
# 1 0.015298 -0.005536 -0.004037 0.000000 0.000000 0.000000
# 2 -0.005536 0.012449 -0.000709 0.000000 0.000000 0.000000
# 3 -0.004037 -0.000709 0.007488 0.000000 0.000000 0.000000
# 4 0.000000 0.000000 0.000000 0.040212 0.000000 0.000000
# 5 0.000000 0.000000 0.000000 0.000000 0.035883 0.000000
# 6 0.000000 0.000000 0.000000 0.000000 0.000000 0.032776
#
#
# Mechanical properties :
#
#
# Convention : Reuss Voigt Hill
#
# Bulk Modulus (GPa) = 68.15957 71.50609 69.83283
# Shear Modulus (GPa) = 29.48795 31.95385 30.72090
#
# Velocity S-wave (km/s) = 3.69703 3.84850 3.77352
# Velocity P-wave (km/s) = 7.05810 7.27268 7.16619
#
# Compressibility (1/GPa) = 0.01467145
#
# Stress axis : x y z
#
# Youngs Moduli (GPa) = 65.36705 80.32491 133.54732
#
# Poissons Ratio (x) = 0.44468 0.53918
# Poissons Ratio (y) = 0.36187 0.09465
# Poissons Ratio (z) = 0.26391 0.05693
#
# Static dielectric constant tensor:
#      x y z
#    x 3.866170 0.000000 0.000000 
#    y 0.000000 3.769930 0.000000 
#    z 0.000000 0.000000 4.116780 
# 
# 
# High freq. dielectric constant tensor:
#      x y z
#    x 1.842700 0.000000 0.000000 
#    y 0.000000 1.857020 0.000000 
#    z 0.000000 0.000000 1.849820 
# 
# From -- ./inp_files/9324.got.cif
#   From: 2010.03.12/outbox.cif.g09.slc.cpg/sg39_5_cif.got.tgz:9324.got - 2010.04.14 02:53:20.
