data_PCOD8182966
_publ_section_title
;
Structure prediction by ZEFSAII (Michael W. Deem and Ramdas Pophale) SiO2 
 PCOD8182966
Probable space group: A M A 2
;
_chemical_formula_sum "Si O2"
_cell_formula_units_Z 56
_cell_length_a 9.045186
_cell_length_b 23.728152
_cell_length_c 13.443007
_cell_angle_alpha 90.000000
_cell_angle_beta 90.000000
_cell_angle_gamma 90.000000
_cell_volume 2885.212748
_symmetry_space_group_name_H-M "A M A 2"
_symmetry_group_IT_number 40
_symmetry_cell_setting 'orthorhombic'
loop_
_space_group_symop_operation_xyz
x,y,z
-x,-y,z
1/2-x,y,z
1/2+x,-y,z
x,1/2+y,1/2+z
-x,1/2-y,1/2+z
1/2-x,1/2+y,1/2+z
1/2+x,1/2-y,1/2+z
loop_
_atom_site_type_symbol
_atom_site_label
_atom_site_fract_x
_atom_site_fract_y
_atom_site_fract_z
Si Si1 0.421292 0.556410 0.184930
Si Si2 0.577061 0.730516 0.464227
Si Si3 0.921370 0.164878 0.377023
Si Si4 0.921223 0.940791 0.054839
Si Si5 0.419017 0.841231 0.151540
Si Si6 0.075365 0.558208 0.958047
Si Si7 0.920823 0.368506 0.364111
O O1 0.500000 0.500000 0.221398
O O2 0.250000 0.543320 0.195582
O O3 0.466402 0.608045 0.256082
O O4 0.464188 0.572380 0.072542
O O5 0.750000 0.741669 0.450009
O O6 0.491413 0.788632 0.448916
O O7 0.537654 0.708372 0.574689
O O8 0.523482 0.685124 0.383336
O O9 0.750000 0.157342 0.404648
O O10 0.942409 0.182954 0.262108
O O11 0.005951 0.106373 0.390554
O O12 0.750000 0.949891 0.076505
O O13 0.981639 0.896307 0.135166
O O14 0.951031 0.917419 0.944348
O O15 0.000000 0.000000 0.068690
O O16 0.250000 0.859559 0.133140
O O17 0.250000 0.554178 0.940229
O O18 0.000000 0.500000 0.925445
O O19 0.750000 0.349027 0.367863
#
# Coordination Sequence:
#
# PCOD8182966 Si02
#       7
#     8   8   8   8   8   8   8
#     4   9  18  32  52  78 111 147 182 221 267 317
#     4  10  21  38  58  81 108 139 177 223 268 316
#     4  11  23  40  61  82 106 141 179 218 266 320
#     4  10  19  31  52  80 111 145 182 224 269 316
#     4   9  21  40  58  77 106 142 180 220 265 317
#     4  10  21  38  58  82 111 143 180 223 267 315
#     4   9  18  33  52  78 111 147 183 221 266 317
#
# _framework density 19.409313000000001
#
# number of rings (size 3 to 8) (size 9 to 14) (size 15 to 20)
#    0.000    2.286    0.000    2.143    0.000    5.143 
#    0.000    5.714    0.000    0.000    0.000    0.000 
#    0.000    0.000    0.000    0.000    0.000    0.000 
#
# Total GULP energy -347302.368323 kJ/mol
# GULP energy per Si atom -12403.656012 kJ/mol
# Density = 1.936514 g / cm^3
# Si number density = 19.409313 Si / 1000 Ang^3
#
#
#
# Elastic Constant Matrix: (Units=GPa)
#
#
# Indices 1 2 3 4 5 6 
#
# 1 101.1970 64.3249 36.8824 0.0000 0.0000 0.0000
# 2 64.3249 125.7690 46.7617 0.0000 0.0000 0.0000
# 3 36.8824 46.7617 76.1074 0.0000 0.0000 0.0000
# 4 0.0000 0.0000 0.0000 22.8996 0.0000 0.0000
# 5 0.0000 0.0000 0.0000 0.0000 17.9586 0.0000
# 6 0.0000 0.0000 0.0000 0.0000 0.0000 42.0494
#
#
#
# Elastic Compliance Matrix: (Units=1/GPa)
#
#
# Indices 1 2 3 4 5 6 
#
# 1 0.015282 -0.006562 -0.003374 0.000000 0.000000 0.000000
# 2 -0.006562 0.013123 -0.004883 0.000000 0.000000 0.000000
# 3 -0.003374 -0.004883 0.017775 0.000000 0.000000 0.000000
# 4 0.000000 0.000000 0.000000 0.043669 0.000000 0.000000
# 5 0.000000 0.000000 0.000000 0.000000 0.055683 0.000000
# 6 0.000000 0.000000 0.000000 0.000000 0.000000 0.023782
#
#
# Mechanical properties :
#
#
# Convention : Reuss Voigt Hill
#
# Bulk Modulus (GPa) = 60.45286 66.55683 63.50485
# Shear Modulus (GPa) = 24.45402 26.92182 25.68792
#
# Velocity S-wave (km/s) = 3.55337 3.72836 3.64192
# Velocity P-wave (km/s) = 6.93175 7.27323 7.10454
#
# Compressibility (1/GPa) = 0.01654181
#
# Stress axis : x y z
#
# Youngs Moduli (GPa) = 65.43489 76.20488 56.25954
#
# Poissons Ratio (x) = 0.50002 0.18984
# Poissons Ratio (y) = 0.42936 0.27471
# Poissons Ratio (z) = 0.22081 0.37210
#
# Static dielectric constant tensor:
#      x y z
#    x 3.595950 0.000000 0.000000 
#    y 0.000000 3.442400 0.000000 
#    z 0.000000 0.000000 3.583500 
# 
# 
# High freq. dielectric constant tensor:
#      x y z
#    x 1.762160 0.000000 0.000000 
#    y 0.000000 1.751390 0.000000 
#    z 0.000000 0.000000 1.753120 
# 
# From -- ./inp_files/15305.got.cif
#   From: 2010.03.12/outbox.cif.g09.slc.cpg/sg40_8_cif.got.tgz:15305.got - 2010.04.14 01:38:03.
