data_PCOD8182861
_publ_section_title
;
Structure prediction by ZEFSAII (Michael W. Deem and Ramdas Pophale) SiO2 
 PCOD8182861
Probable space group: A M A 2
;
_chemical_formula_sum "Si O2"
_cell_formula_units_Z 56
_cell_length_a 9.240559
_cell_length_b 18.999209
_cell_length_c 17.563251
_cell_angle_alpha 90.000000
_cell_angle_beta 90.000000
_cell_angle_gamma 90.000000
_cell_volume 3083.462510
_symmetry_space_group_name_H-M "A M A 2"
_symmetry_group_IT_number 40
_symmetry_cell_setting 'orthorhombic'
loop_
_space_group_symop_operation_xyz
x,y,z
-x,-y,z
1/2-x,y,z
1/2+x,-y,z
x,1/2+y,1/2+z
-x,1/2-y,1/2+z
1/2-x,1/2+y,1/2+z
1/2+x,1/2-y,1/2+z
loop_
_atom_site_type_symbol
_atom_site_label
_atom_site_fract_x
_atom_site_fract_y
_atom_site_fract_z
Si Si1 0.079465 0.426278 0.686480
Si Si2 0.911182 0.065319 0.630025
Si Si3 0.412031 0.700196 0.137776
Si Si4 0.411954 0.434737 0.309815
Si Si5 0.419441 0.183292 0.888771
Si Si6 0.919088 0.706963 0.772358
Si Si7 0.089193 0.335657 0.540664
O O1 0.250000 0.440087 0.692240
O O2 0.024409 0.372269 0.753764
O O3 0.039270 0.391548 0.604930
O O4 0.000000 0.500000 0.697306
O O5 0.750000 0.065534 0.594841
O O6 0.903225 0.057043 0.720065
O O7 0.988869 0.137457 0.607329
O O8 0.000000 0.000000 0.594596
O O9 0.250000 0.671078 0.154835
O O10 0.483531 0.736165 0.212591
O O11 0.406633 0.757185 0.071604
O O12 0.500000 0.500000 0.346117
O O13 0.250000 0.432716 0.344796
O O14 0.499424 0.364704 0.328022
O O15 0.250000 0.166772 0.886963
O O16 0.448514 0.264177 0.858436
O O17 0.476448 0.165389 0.972030
O O18 0.750000 0.704384 0.752565
O O19 0.250000 0.356214 0.511334
#
# Coordination Sequence:
#
# PCOD8182861 Si02
#       7
#     8   8   8   8   8   8   8
#     4   9  18  35  56  77 102 134 172 214 259 309
#     4  10  19  29  46  72  99 126 158 201 245 292
#     4   9  16  32  53  69  93 130 169 209 251 301
#     4  10  20  32  46  69 101 133 164 199 241 292
#     4  11  20  32  52  75 102 136 173 213 255 307
#     4   8  16  31  52  74  97 130 169 209 258 304
#     4   9  20  35  51  72 103 139 169 205 258 315
#
# _framework density 18.161401000000001
#
# number of rings (size 3 to 8) (size 9 to 14) (size 15 to 20)
#    0.000    2.571    1.429    3.000    0.000    2.857 
#    0.000    5.000    0.000    0.857    0.000    4.000 
#    0.000    0.000    0.000    0.000    0.000    0.000 
#
# Total GULP energy -346966.747984 kJ/mol
# GULP energy per Si atom -12391.669571 kJ/mol
# Density = 1.812006 g / cm^3
# Si number density = 18.161401 Si / 1000 Ang^3
#
#
#
# Elastic Constant Matrix: (Units=GPa)
#
#
# Indices 1 2 3 4 5 6 
#
# 1 102.9428 52.3971 19.6219 0.0000 0.0000 0.0000
# 2 52.3971 130.3861 18.3713 0.0000 0.0000 0.0000
# 3 19.6219 18.3713 34.6061 0.0000 0.0000 0.0000
# 4 0.0000 0.0000 0.0000 14.9692 0.0000 0.0000
# 5 0.0000 0.0000 0.0000 0.0000 -1.7739 0.0000
# 6 0.0000 0.0000 0.0000 0.0000 0.0000 33.6076
#
#
#
# Elastic Compliance Matrix: (Units=1/GPa)
#
#
# Indices 1 2 3 4 5 6 
#
# 1 0.012952 -0.004507 -0.004951 0.000000 0.000000 0.000000
# 2 -0.004507 0.009858 -0.002678 0.000000 0.000000 0.000000
# 3 -0.004951 -0.002678 0.033125 0.000000 0.000000 0.000000
# 4 0.000000 0.000000 0.000000 0.066804 0.000000 0.000000
# 5 0.000000 0.000000 0.000000 0.000000 -0.563738 0.000000
# 6 0.000000 0.000000 0.000000 0.000000 0.000000 0.029755
#
#
# Mechanical properties :
#
#
# Convention : Reuss Voigt Hill
#
# Bulk Modulus (GPa) = 31.58219 49.85726 40.71972
# Shear Modulus (GPa) = -13.28315 21.19691 3.95688
#
# Velocity S-wave (km/s) = -2.70736 3.42005 1.47765
# Velocity P-wave (km/s) = 2.76666 6.56564 5.03795
#
# Compressibility (1/GPa) = 0.03166342
#
# Stress axis : x y z
#
# Youngs Moduli (GPa) = 77.20783 101.43914 30.18826
#
# Poissons Ratio (x) = 0.45722 0.14947
# Poissons Ratio (y) = 0.34800 0.08083
# Poissons Ratio (z) = 0.38226 0.27162
#
# Static dielectric constant tensor:
#      x y z
#    x 3.379050 0.000000 0.000000 
#    y 0.000000 3.436840 0.000000 
#    z 0.000000 0.000000 3.011500 
# 
# 
# High freq. dielectric constant tensor:
#      x y z
#    x 1.696660 0.000000 0.000000 
#    y 0.000000 1.706870 0.000000 
#    z 0.000000 0.000000 1.663950 
# 
# From -- ./inp_files/19497.got.cif
#   From: 2010.03.12/outbox.cif.g09.slc.cpg/sg40_10_cif.got.tgz:19497.got - 2010.04.14 01:38:03.
