data_PCOD8182770
_publ_section_title
;
Structure prediction by ZEFSAII (Michael W. Deem and Ramdas Pophale) SiO2 
 PCOD8182770
Probable space group: A M A 2
;
_chemical_formula_sum "Si O2"
_cell_formula_units_Z 48
_cell_length_a 16.621339
_cell_length_b 9.190112
_cell_length_c 16.092888
_cell_angle_alpha 90.000000
_cell_angle_beta 90.000000
_cell_angle_gamma 90.000000
_cell_volume 2458.220297
_symmetry_space_group_name_H-M "A M A 2"
_symmetry_group_IT_number 40
_symmetry_cell_setting 'orthorhombic'
loop_
_space_group_symop_operation_xyz
x,y,z
-x,-y,z
1/2-x,y,z
1/2+x,-y,z
x,1/2+y,1/2+z
-x,1/2-y,1/2+z
1/2-x,1/2+y,1/2+z
1/2+x,1/2-y,1/2+z
loop_
_atom_site_type_symbol
_atom_site_label
_atom_site_fract_x
_atom_site_fract_y
_atom_site_fract_z
Si Si1 0.092256 0.027922 0.875000
Si Si2 0.157323 0.292909 0.475889
Si Si3 0.409648 0.952517 0.129426
Si Si4 0.656201 0.806947 0.031019
Si Si5 0.155271 0.688648 0.215019
Si Si6 0.157047 0.011313 0.558811
O O1 0.134296 0.868326 0.888081
O O2 0.133013 0.116227 0.801461
O O3 0.000000 0.000000 0.854143
O O4 0.103969 0.121526 0.958045
O O5 0.250000 0.330342 0.498688
O O6 0.098809 0.358525 0.545630
O O7 0.145029 0.117674 0.478310
O O8 0.380429 0.852618 0.206678
O O9 0.500000 0.000000 0.146704
O O10 0.356746 0.099831 0.115809
O O11 0.750000 0.804013 0.006006
O O12 0.617995 0.645992 0.042608
O O13 0.250000 0.704658 0.206763
O O14 0.120429 0.586817 0.141091
O O15 0.250000 0.981030 0.576096
#
# Coordination Sequence:
#
# PCOD8182770 Si02
#       6
#     8   8   8   8   8   8
#     4  11  22  35  52  78 109 142 184 233 283 331
#     4   9  16  33  57  80 105 142 184 223 271 341
#     4  10  19  32  53  80 109 140 180 227 274 326
#     4  10  18  34  57  81 106 140 181 224 274 341
#     4  10  20  38  58  78 107 150 191 228 278 343
#     4   8  17  32  56  83 104 130 178 227 265 320
#
# _framework density 19.526322
#
# number of rings (size 3 to 8) (size 9 to 14) (size 15 to 20)
#    0.000    2.333    0.000    7.000    0.000    1.333 
#    0.000   10.000    0.000    4.000    0.000    0.000 
#    0.000    0.000    0.000    0.000    0.000    0.000 
#
# Total GULP energy -297383.718489 kJ/mol
# GULP energy per Si atom -12390.988270 kJ/mol
# Density = 1.948188 g / cm^3
# Si number density = 19.526322 Si / 1000 Ang^3
#
#
#
# Elastic Constant Matrix: (Units=GPa)
#
#
# Indices 1 2 3 4 5 6 
#
# 1 59.4011 15.6199 7.2546 0.0000 0.0000 0.0000
# 2 15.6199 159.7685 43.6391 0.0000 0.0000 0.0000
# 3 7.2546 43.6391 68.4354 0.0000 0.0000 0.0000
# 4 0.0000 0.0000 0.0000 33.1621 0.0000 0.0000
# 5 0.0000 0.0000 0.0000 0.0000 9.5348 0.0000
# 6 0.0000 0.0000 0.0000 0.0000 0.0000 19.5098
#
#
#
# Elastic Compliance Matrix: (Units=1/GPa)
#
#
# Indices 1 2 3 4 5 6 
#
# 1 0.017326 -0.001444 -0.000916 0.000000 0.000000 0.000000
# 2 -0.001444 0.007699 -0.004757 0.000000 0.000000 0.000000
# 3 -0.000916 -0.004757 0.017743 0.000000 0.000000 0.000000
# 4 0.000000 0.000000 0.000000 0.030155 0.000000 0.000000
# 5 0.000000 0.000000 0.000000 0.000000 0.104879 0.000000
# 6 0.000000 0.000000 0.000000 0.000000 0.000000 0.051256
#
#
# Mechanical properties :
#
#
# Convention : Reuss Voigt Hill
#
# Bulk Modulus (GPa) = 35.04422 46.73693 40.89058
# Shear Modulus (GPa) = 19.77824 27.18075 23.47949
#
# Velocity S-wave (km/s) = 3.18606 3.73501 3.47140
# Velocity P-wave (km/s) = 5.61434 6.52592 6.08722
#
# Compressibility (1/GPa) = 0.02853537
#
# Stress axis : x y z
#
# Youngs Moduli (GPa) = 57.71600 129.87972 56.36151
#
# Poissons Ratio (x) = 0.18751 0.05163
# Poissons Ratio (y) = 0.08332 0.26809
# Poissons Ratio (z) = 0.05287 0.61779
#
# Static dielectric constant tensor:
#      x y z
#    x 3.392280 0.000000 0.000000 
#    y 0.000000 4.152340 0.000000 
#    z 0.000000 0.000000 3.342490 
# 
# 
# High freq. dielectric constant tensor:
#      x y z
#    x 1.750690 0.000000 0.000000 
#    y 0.000000 1.777540 0.000000 
#    z 0.000000 0.000000 1.718590 
# 
# From -- ./inp_files/20573.got.cif
#   From: 2010.03.12/outbox.cif.g09.slc.cpg/sg40_11_cif.got.tgz:20573.got - 2010.04.14 01:38:03.
