data_PCOD8182797
_publ_section_title
;
Structure prediction by ZEFSAII (Michael W. Deem and Ramdas Pophale) SiO2 
 PCOD8182797
Probable space group: A M A 2
;
_chemical_formula_sum "Si O2"
_cell_formula_units_Z 64
_cell_length_a 8.893286
_cell_length_b 31.004646
_cell_length_c 11.951526
_cell_angle_alpha 90.000000
_cell_angle_beta 90.000000
_cell_angle_gamma 90.000000
_cell_volume 3295.432320
_symmetry_space_group_name_H-M "A M A 2"
_symmetry_group_IT_number 40
_symmetry_cell_setting 'orthorhombic'
loop_
_space_group_symop_operation_xyz
x,y,z
-x,-y,z
1/2-x,y,z
1/2+x,-y,z
x,1/2+y,1/2+z
-x,1/2-y,1/2+z
1/2-x,1/2+y,1/2+z
1/2+x,1/2-y,1/2+z
loop_
_atom_site_type_symbol
_atom_site_label
_atom_site_fract_x
_atom_site_fract_y
_atom_site_fract_z
Si Si1 0.572776 0.043368 0.609030
Si Si2 0.073362 0.429004 0.867147
Si Si3 0.572345 0.376824 0.235680
Si Si4 0.072597 0.703893 0.087167
Si Si5 0.572339 0.625310 0.476767
Si Si6 0.427357 0.956486 0.127437
Si Si7 0.428184 0.799189 0.138167
Si Si8 0.571152 0.166947 0.373056
O O1 0.750000 0.043044 0.630100
O O2 0.532346 0.043633 0.476901
O O3 0.505263 0.084661 0.669149
O O4 0.500000 0.000000 0.660037
O O5 0.250000 0.424579 0.849612
O O6 0.006781 0.449655 0.753515
O O7 0.007709 0.381322 0.886058
O O8 0.750000 0.383695 0.231796
O O9 0.524082 0.331665 0.178732
O O10 0.517161 0.376907 0.362074
O O11 0.250000 0.703948 0.071226
O O12 0.011629 0.750764 0.122836
O O13 0.996593 0.695927 0.969290
O O14 0.750000 0.625828 0.452930
O O15 0.526996 0.583961 0.551001
O O16 0.517730 0.668597 0.540137
O O17 0.250000 0.962444 0.128836
O O18 0.500000 0.000000 0.077464
O O19 0.250000 0.800359 0.141483
O O20 0.491529 0.815479 0.255992
O O21 0.750000 0.168915 0.380613
#
# Coordination Sequence:
#
# PCOD8182797 Si02
#       8
#     8   8   8   8   8   8   8   8
#     4  11  22  38  61  88 116 150 192 236 284 343
#     4   9  17  33  58  87 115 143 183 229 278 336
#     4  11  24  40  57  82 119 154 190 239 290 340
#     4  10  22  38  56  85 120 151 186 238 294 338
#     4  10  21  39  61  81 109 152 197 236 281 343
#     4  10  20  36  58  85 113 144 182 229 281 336
#     4   9  19  37  61  85 114 151 191 237 291 344
#     4  10  18  35  63  87 111 150 193 233 280 342
#
# _framework density 19.420819999999999
#
# number of rings (size 3 to 8) (size 9 to 14) (size 15 to 20)
#    0.000    2.000    2.500    1.125    1.750    1.500 
#    0.000    3.750    0.000    0.000    0.000    0.000 
#    0.000    0.000    0.000    0.000    0.000    0.000 
#
# Total GULP energy -396797.702912 kJ/mol
# GULP energy per Si atom -12399.928216 kJ/mol
# Density = 1.937662 g / cm^3
# Si number density = 19.420820 Si / 1000 Ang^3
#
#
#
# Elastic Constant Matrix: (Units=GPa)
#
#
# Indices 1 2 3 4 5 6 
#
# 1 41.4857 47.5593 43.2735 0.0000 0.0000 0.0000
# 2 47.5593 170.3150 55.1853 0.0000 0.0000 0.0000
# 3 43.2735 55.1853 121.3246 0.0000 0.0000 0.0000
# 4 0.0000 0.0000 0.0000 22.5580 0.0000 0.0000
# 5 0.0000 0.0000 0.0000 0.0000 26.1290 0.0000
# 6 0.0000 0.0000 0.0000 0.0000 0.0000 25.9443
#
#
#
# Elastic Compliance Matrix: (Units=1/GPa)
#
#
# Indices 1 2 3 4 5 6 
#
# 1 0.048309 -0.009274 -0.013013 0.000000 0.000000 0.000000
# 2 -0.009274 0.008667 -0.000634 0.000000 0.000000 0.000000
# 3 -0.013013 -0.000634 0.013172 0.000000 0.000000 0.000000
# 4 0.000000 0.000000 0.000000 0.044330 0.000000 0.000000
# 5 0.000000 0.000000 0.000000 0.000000 0.038272 0.000000
# 6 0.000000 0.000000 0.000000 0.000000 0.000000 0.038544
#
#
# Mechanical properties :
#
#
# Convention : Reuss Voigt Hill
#
# Bulk Modulus (GPa) = 41.14058 69.46237 55.30148
# Shear Modulus (GPa) = 20.38836 27.40007 23.89421
#
# Velocity S-wave (km/s) = 3.24361 3.76022 3.51143
# Velocity P-wave (km/s) = 5.93782 7.39574 6.70651
#
# Compressibility (1/GPa) = 0.02430690
#
# Stress axis : x y z
#
# Youngs Moduli (GPa) = 20.69987 115.38468 75.91778
#
# Poissons Ratio (x) = 1.07005 0.98788
# Poissons Ratio (y) = 0.19197 0.04816
# Poissons Ratio (z) = 0.26936 0.07320
#
# Static dielectric constant tensor:
#      x y z
#    x 3.205850 0.000000 0.000000 
#    y 0.000000 3.827230 0.000000 
#    z 0.000000 0.000000 3.636700 
# 
# 
# High freq. dielectric constant tensor:
#      x y z
#    x 1.725940 0.000000 0.000000 
#    y 0.000000 1.773760 0.000000 
#    z 0.000000 0.000000 1.762580 
# 
# From -- ./inp_files/10669.got.cif
#   From: 2010.03.12/outbox.cif.g09.slc.cpg/sg40_6_cif.got.tgz:10669.got - 2010.04.14 01:38:03.
