data_PCOD8182376
_publ_section_title
;
Structure prediction by ZEFSAII (Michael W. Deem and Ramdas Pophale) SiO2 
 PCOD8182376
Probable space group: A M A 2
;
_chemical_formula_sum "Si O2"
_cell_formula_units_Z 48
_cell_length_a 8.759740
_cell_length_b 31.031864
_cell_length_c 9.073376
_cell_angle_alpha 90.000000
_cell_angle_beta 90.000000
_cell_angle_gamma 90.000000
_cell_volume 2466.425419
_symmetry_space_group_name_H-M "A M A 2"
_symmetry_group_IT_number 40
_symmetry_cell_setting 'orthorhombic'
loop_
_space_group_symop_operation_xyz
x,y,z
-x,-y,z
1/2-x,y,z
1/2+x,-y,z
x,1/2+y,1/2+z
-x,1/2-y,1/2+z
1/2-x,1/2+y,1/2+z
1/2+x,1/2-y,1/2+z
loop_
_atom_site_type_symbol
_atom_site_label
_atom_site_fract_x
_atom_site_fract_y
_atom_site_fract_z
Si Si1 0.428280 0.629758 0.388470
Si Si2 0.073659 0.787715 0.391285
Si Si3 0.926533 0.708746 0.548586
Si Si4 0.929074 0.542798 0.387040
Si Si5 0.925112 0.364424 0.048556
Si Si6 0.073317 0.040593 0.568207
O O1 0.250000 0.620953 0.397612
O O2 0.471251 0.670759 0.484650
O O3 0.509814 0.587472 0.456802
O O4 0.475988 0.638312 0.219179
O O5 0.250000 0.776905 0.422040
O O6 0.035979 0.786276 0.219630
O O7 0.967337 0.753387 0.471321
O O8 0.035651 0.834936 0.452640
O O9 0.750000 0.697973 0.520407
O O10 0.750000 0.540988 0.406776
O O11 0.000000 0.500000 0.464817
O O12 0.977213 0.543071 0.217294
O O13 0.750000 0.349089 0.031426
O O14 0.944198 0.413440 0.986743
O O15 0.250000 0.031782 0.605311
O O16 0.000000 0.000000 0.476767
#
# Coordination Sequence:
#
# PCOD8182376 Si02
#       6
#     8   8   8   8   8   8
#     4  10  20  35  55  81 110 141 180 223 267 316
#     4  11  24  39  57  81 107 138 177 219 264 319
#     4  11  24  40  57  80 108 137 174 219 266 320
#     4  10  17  27  46  74 108 144 180 220 265 310
#     4   9  19  34  53  79 110 141 177 221 265 314
#     4   9  16  27  45  73 107 141 179 222 265 311
#
# _framework density 19.461364
#
# number of rings (size 3 to 8) (size 9 to 14) (size 15 to 20)
#    0.000    2.000    0.000    6.500    0.000   10.667 
#    0.000    0.000    0.000    1.000    0.000    2.333 
#    0.000    0.000    0.000    0.000    0.000    0.000 
#
# Total GULP energy -297552.301334 kJ/mol
# GULP energy per Si atom -12398.012556 kJ/mol
# Density = 1.941707 g / cm^3
# Si number density = 19.461364 Si / 1000 Ang^3
#
#
#
# Elastic Constant Matrix: (Units=GPa)
#
#
# Indices 1 2 3 4 5 6 
#
# 1 94.2058 44.0926 37.0629 0.0000 0.0000 0.0000
# 2 44.0926 141.5301 38.7108 0.0000 0.0000 0.0000
# 3 37.0629 38.7108 64.6435 0.0000 0.0000 0.0000
# 4 0.0000 0.0000 0.0000 19.6137 0.0000 0.0000
# 5 0.0000 0.0000 0.0000 0.0000 21.9268 0.0000
# 6 0.0000 0.0000 0.0000 0.0000 0.0000 42.1269
#
#
#
# Elastic Compliance Matrix: (Units=1/GPa)
#
#
# Indices 1 2 3 4 5 6 
#
# 1 0.014513 -0.002685 -0.006713 0.000000 0.000000 0.000000
# 2 -0.002685 0.008946 -0.003818 0.000000 0.000000 0.000000
# 3 -0.006713 -0.003818 0.021604 0.000000 0.000000 0.000000
# 4 0.000000 0.000000 0.000000 0.050985 0.000000 0.000000
# 5 0.000000 0.000000 0.000000 0.000000 0.045606 0.000000
# 6 0.000000 0.000000 0.000000 0.000000 0.000000 0.023738
#
#
# Mechanical properties :
#
#
# Convention : Reuss Voigt Hill
#
# Bulk Modulus (GPa) = 53.67147 60.01248 56.84198
# Shear Modulus (GPa) = 25.24804 28.76770 27.00787
#
# Velocity S-wave (km/s) = 3.60577 3.84890 3.72932
# Velocity P-wave (km/s) = 6.70625 7.11728 6.91482
#
# Compressibility (1/GPa) = 0.01863187
#
# Stress axis : x y z
#
# Youngs Moduli (GPa) = 68.90422 111.77591 46.28667
#
# Poissons Ratio (x) = 0.30015 0.31071
# Poissons Ratio (y) = 0.18503 0.17672
# Poissons Ratio (z) = 0.46254 0.42674
#
# Static dielectric constant tensor:
#      x y z
#    x 3.612040 0.000000 0.000000 
#    y 0.000000 4.289860 0.000000 
#    z 0.000000 0.000000 3.125790 
# 
# 
# High freq. dielectric constant tensor:
#      x y z
#    x 1.769430 0.000000 0.000000 
#    y 0.000000 1.786840 0.000000 
#    z 0.000000 0.000000 1.702480 
# 
# From -- ./inp_files/4638.got.cif
#   From: 2010.03.12/outbox.cif.g09.slc.cpg/sg40_3_cif.got.tgz:4638.got - 2010.04.14 01:38:03.
