data_PCOD8182814
_publ_section_title
;
Structure prediction by ZEFSAII (Michael W. Deem and Ramdas Pophale) SiO2 
 PCOD8182814
Probable space group: A M A 2
;
_chemical_formula_sum "Si O2"
_cell_formula_units_Z 48
_cell_length_a 16.999756
_cell_length_b 9.814821
_cell_length_c 15.601832
_cell_angle_alpha 90.000000
_cell_angle_beta 90.000000
_cell_angle_gamma 90.000000
_cell_volume 2603.158838
_symmetry_space_group_name_H-M "A M A 2"
_symmetry_group_IT_number 40
_symmetry_cell_setting 'orthorhombic'
loop_
_space_group_symop_operation_xyz
x,y,z
-x,-y,z
1/2-x,y,z
1/2+x,-y,z
x,1/2+y,1/2+z
-x,1/2-y,1/2+z
1/2-x,1/2+y,1/2+z
1/2+x,1/2-y,1/2+z
loop_
_atom_site_type_symbol
_atom_site_label
_atom_site_fract_x
_atom_site_fract_y
_atom_site_fract_z
Si Si1 0.011448 0.350210 0.102890
Si Si2 0.592226 0.250744 0.963228
Si Si3 0.427693 0.094321 0.182480
Si Si4 0.658615 0.967610 0.006822
Si Si5 0.340268 0.023477 0.347228
Si Si6 0.578893 0.718657 0.933371
O O1 0.042054 0.250124 0.176980
O O2 0.000000 0.500000 0.143197
O O3 0.076024 0.358415 0.025854
O O4 0.929857 0.292627 0.061434
O O5 0.645759 0.366303 0.921199
O O6 0.510415 0.235525 0.909126
O O7 0.640514 0.111123 0.962098
O O8 0.393608 0.046606 0.091634
O O9 0.361920 0.086390 0.255334
O O10 0.500000 0.000000 0.208757
O O11 0.750000 0.956610 0.030270
O O12 0.635444 0.849809 0.939314
O O13 0.250000 0.981074 0.346975
O O14 0.389970 0.886089 0.362683
#
# Coordination Sequence:
#
# PCOD8182814 Si02
#       6
#     8   8   8   8   8   8
#     4   9  17  35  62  84 104 146 207 238 269 340
#     4  10  18  37  58  85 108 154 195 236 284 352
#     4  11  21  37  58  82 116 157 195 236 288 359
#     4  11  20  34  57  88 118 149 193 248 291 339
#     4  12  23  36  56  88 121 149 187 252 304 335
#     4   9  18  35  58  81 110 151 200 229 282 349
#
# _framework density 18.439136999999999
#
# number of rings (size 3 to 8) (size 9 to 14) (size 15 to 20)
#    1.000    0.667    3.333    3.500    0.000    0.000 
#    0.000    3.333    0.000    0.000    0.000    0.000 
#    0.000    0.000    0.000    0.000    0.000    0.000 
#
# Total GULP energy -297532.082401 kJ/mol
# GULP energy per Si atom -12397.170100 kJ/mol
# Density = 1.839717 g / cm^3
# Si number density = 18.439137 Si / 1000 Ang^3
#
#
#
# Elastic Constant Matrix: (Units=GPa)
#
#
# Indices 1 2 3 4 5 6 
#
# 1 81.9880 22.5819 4.9338 0.0000 0.0000 0.0000
# 2 22.5819 122.1847 20.7689 0.0000 0.0000 0.0000
# 3 4.9338 20.7689 48.0169 0.0000 0.0000 0.0000
# 4 0.0000 0.0000 0.0000 17.9490 0.0000 0.0000
# 5 0.0000 0.0000 0.0000 0.0000 26.3136 0.0000
# 6 0.0000 0.0000 0.0000 0.0000 0.0000 29.4179
#
#
#
# Elastic Compliance Matrix: (Units=1/GPa)
#
#
# Indices 1 2 3 4 5 6 
#
# 1 0.012856 -0.002322 -0.000317 0.000000 0.000000 0.000000
# 2 -0.002322 0.009253 -0.003764 0.000000 0.000000 0.000000
# 3 -0.000317 -0.003764 0.022486 0.000000 0.000000 0.000000
# 4 0.000000 0.000000 0.000000 0.055714 0.000000 0.000000
# 5 0.000000 0.000000 0.000000 0.000000 0.038003 0.000000
# 6 0.000000 0.000000 0.000000 0.000000 0.000000 0.033993
#
#
# Mechanical properties :
#
#
# Convention : Reuss Voigt Hill
#
# Bulk Modulus (GPa) = 31.45597 38.75098 35.10347
# Shear Modulus (GPa) = 25.54846 28.32975 26.93911
#
# Velocity S-wave (km/s) = 3.72634 3.92394 3.82642
# Velocity P-wave (km/s) = 5.96746 6.44910 6.21295
#
# Compressibility (1/GPa) = 0.03179047
#
# Stress axis : x y z
#
# Youngs Moduli (GPa) = 77.78747 108.07001 44.47122
#
# Poissons Ratio (x) = 0.25095 0.01408
# Poissons Ratio (y) = 0.18063 0.16738
# Poissons Ratio (z) = 0.02462 0.40675
#
# Static dielectric constant tensor:
#      x y z
#    x 3.242680 0.000000 0.000000 
#    y 0.000000 3.379610 0.000000 
#    z 0.000000 0.000000 3.006740 
# 
# 
# High freq. dielectric constant tensor:
#      x y z
#    x 1.706190 0.000000 0.000000 
#    y 0.000000 1.722920 0.000000 
#    z 0.000000 0.000000 1.681910 
# 
# From -- ./inp_files/21297.got.cif
#   From: 2010.03.12/outbox.cif.g09.slc.cpg/sg40_11_cif.got.tgz:21297.got - 2010.04.14 01:38:03.
