data_PCOD8182258
_publ_section_title
;
Structure prediction by ZEFSAII (Michael W. Deem and Ramdas Pophale) SiO2 
 PCOD8182258
Probable space group: A B M 2
;
_chemical_formula_sum "Si O2"
_cell_formula_units_Z 40
_cell_length_a 4.938465
_cell_length_b 24.452917
_cell_length_c 14.476141
_cell_angle_alpha 90.000000
_cell_angle_beta 90.000000
_cell_angle_gamma 90.000000
_cell_volume 1748.136974
_symmetry_space_group_name_H-M "A B M 2"
_symmetry_group_IT_number 39
_symmetry_cell_setting 'orthorhombic'
loop_
_space_group_symop_operation_xyz
x,y,z
-x,-y,z
-x,1/2+y,z
x,1/2-y,z
x,1/2+y,1/2+z
-x,1/2-y,1/2+z
-x,y,1/2+z
x,-y,1/2+z
loop_
_atom_site_type_symbol
_atom_site_label
_atom_site_fract_x
_atom_site_fract_y
_atom_site_fract_z
Si Si1 0.240785 0.037959 0.955950
Si Si2 0.399457 0.688750 0.856557
Si Si3 0.086065 0.380149 0.112310
Si Si4 0.574720 0.188145 0.065710
Si Si5 0.877096 0.375841 0.307191
O O1 0.275102 0.080416 0.872376
O O2 0.500000 0.000000 0.970926
O O3 0.000000 0.000000 0.923833
O O4 0.169733 0.067743 0.051802
O O5 0.314336 0.750000 0.827527
O O6 0.641687 0.669036 0.788482
O O7 0.135857 0.650728 0.855781
O O8 0.525395 0.687582 0.959643
O O9 0.856741 0.343785 0.065182
O O10 0.975101 0.401887 0.210574
O O11 0.347984 0.341712 0.127940
O O12 0.615410 0.250000 0.101787
#
# Coordination Sequence:
#
# PCOD8182258 Si02
#       5
#     8   8   8   8   8
#     4  12  26  48  73  94 133 180 228 296 358 402
#     4  11  22  41  69 102 145 189 224 269 339 417
#     4  12  25  44  70 103 138 178 234 285 342 413
#     4  11  22  41  69 102 145 189 224 269 339 417
#     4  12  25  44  70 103 138 178 234 285 342 413
#
# _framework density 22.881499999999999
#
# number of rings (size 3 to 8) (size 9 to 14) (size 15 to 20)
#    0.000    0.400    4.000    4.800    0.000    8.800 
#    0.000    2.000    0.000    0.000    0.000    0.000 
#    0.000    0.000    0.000    0.000    0.000    0.000 
#
# Total GULP energy -248065.134461 kJ/mol
# GULP energy per Si atom -12403.256723 kJ/mol
# Density = 2.282942 g / cm^3
# Si number density = 22.881500 Si / 1000 Ang^3
#
#
#
# Elastic Constant Matrix: (Units=GPa)
#
#
# Indices 1 2 3 4 5 6 
#
# 1 141.7287 47.7588 19.8386 0.0000 0.0000 0.0000
# 2 47.7588 118.0702 46.9947 0.0000 0.0000 0.0000
# 3 19.8386 46.9947 112.2828 0.0000 0.0000 0.0000
# 4 0.0000 0.0000 0.0000 20.0218 0.0000 0.0000
# 5 0.0000 0.0000 0.0000 0.0000 38.9585 0.0000
# 6 0.0000 0.0000 0.0000 0.0000 0.0000 49.4069
#
#
#
# Elastic Compliance Matrix: (Units=1/GPa)
#
#
# Indices 1 2 3 4 5 6 
#
# 1 0.008170 -0.003276 -0.000072 0.000000 0.000000 0.000000
# 2 -0.003276 0.011476 -0.004224 0.000000 0.000000 0.000000
# 3 -0.000072 -0.004224 0.010687 0.000000 0.000000 0.000000
# 4 0.000000 0.000000 0.000000 0.049946 0.000000 0.000000
# 5 0.000000 0.000000 0.000000 0.000000 0.025668 0.000000
# 6 0.000000 0.000000 0.000000 0.000000 0.000000 0.020240
#
#
# Mechanical properties :
#
#
# Convention : Reuss Voigt Hill
#
# Bulk Modulus (GPa) = 65.84361 66.80733 66.32547
# Shear Modulus (GPa) = 34.15436 38.84342 36.49889
#
# Velocity S-wave (km/s) = 3.86769 4.12465 3.99824
# Velocity P-wave (km/s) = 6.98454 7.20723 7.09676
#
# Compressibility (1/GPa) = 0.01518750
#
# Stress axis : x y z
#
# Youngs Moduli (GPa) = 122.40312 87.13863 93.57221
#
# Poissons Ratio (x) = 0.28545 0.00678
# Poissons Ratio (y) = 0.40097 0.39528
# Poissons Ratio (z) = 0.00886 0.36810
#
# Static dielectric constant tensor:
#      x y z
#    x 4.076210 0.000000 0.000000 
#    y 0.000000 4.127370 0.000000 
#    z 0.000000 0.000000 4.013880 
# 
# 
# High freq. dielectric constant tensor:
#      x y z
#    x 1.918370 0.000000 0.000000 
#    y 0.000000 1.897210 0.000000 
#    z 0.000000 0.000000 1.906960 
# 
# From -- ./inp_files/7401.got.cif
#   From: 2010.03.12/outbox.cif.g09.slc.cpg/sg39_4_cif.got.tgz:7401.got - 2010.04.14 02:53:20.
