data_PCOD8182440
_publ_section_title
;
Structure prediction by ZEFSAII (Michael W. Deem and Ramdas Pophale) SiO2 
 PCOD8182440
Probable space group: A M A 2
;
_chemical_formula_sum "Si O2"
_cell_formula_units_Z 64
_cell_length_a 9.064250
_cell_length_b 26.370209
_cell_length_c 18.184896
_cell_angle_alpha 90.000000
_cell_angle_beta 90.000000
_cell_angle_gamma 90.000000
_cell_volume 4346.665987
_symmetry_space_group_name_H-M "A M A 2"
_symmetry_group_IT_number 40
_symmetry_cell_setting 'orthorhombic'
loop_
_space_group_symop_operation_xyz
x,y,z
-x,-y,z
1/2-x,y,z
1/2+x,-y,z
x,1/2+y,1/2+z
-x,1/2-y,1/2+z
1/2-x,1/2+y,1/2+z
1/2+x,1/2-y,1/2+z
loop_
_atom_site_type_symbol
_atom_site_label
_atom_site_fract_x
_atom_site_fract_y
_atom_site_fract_z
Si Si1 0.577833 0.149198 0.297600
Si Si2 0.076514 0.949204 0.383530
Si Si3 0.082943 0.142933 0.620456
Si Si4 0.916692 0.791686 0.750039
Si Si5 0.416661 0.253367 0.896180
Si Si6 0.577020 0.550933 0.051850
Si Si7 0.421951 0.249563 0.545806
Si Si8 0.076690 0.203123 0.174780
O O1 0.750000 0.146161 0.279576
O O2 0.520098 0.097668 0.334958
O O3 0.544272 0.194889 0.353687
O O4 0.491102 0.156146 0.220786
O O5 0.250000 0.956471 0.377027
O O6 0.030165 0.938594 0.467756
O O7 0.000000 0.000000 0.353640
O O8 0.250000 0.126324 0.601843
O O9 0.065423 0.154511 0.708314
O O10 0.039904 0.193308 0.574944
O O11 0.972801 0.098159 0.600817
O O12 0.750000 0.770407 0.732209
O O13 0.934557 0.793875 0.838549
O O14 0.039272 0.754164 0.718669
O O15 0.250000 0.255845 0.927325
O O16 0.529082 0.245089 0.961868
O O17 0.500000 0.500000 0.081325
O O18 0.750000 0.543949 0.060732
O O19 0.250000 0.260835 0.551455
O O20 0.506092 0.292292 0.593593
O O21 0.250000 0.195548 0.167121
#
# Coordination Sequence:
#
# PCOD8182440 Si02
#       8
#     8   8   8   8   8   8   8   8
#     4   9  17  30  44  58  82 113 139 168 211 250
#     4   9  18  30  43  59  81 109 139 172 208 243
#     4   9  17  29  43  58  79 110 142 169 203 244
#     4   8  16  30  43  57  82 111 135 166 209 248
#     4   9  16  27  43  61  82 109 141 172 202 243
#     4  10  19  30  43  60  82 108 139 174 208 240
#     4  10  19  29  41  59  85 113 139 170 208 246
#     4  10  18  27  41  60  80 105 140 175 203 240
#
# _framework density 14.723929
#
# number of rings (size 3 to 8) (size 9 to 14) (size 15 to 20)
#    0.000    2.750    0.000    4.125    0.000    6.500 
#    0.000    0.000    0.000    0.000    0.000    0.000 
#    0.000    1.000    0.000    7.250    0.000    3.500 
#
# Total GULP energy -396663.190698 kJ/mol
# GULP energy per Si atom -12395.724709 kJ/mol
# Density = 1.469042 g / cm^3
# Si number density = 14.723929 Si / 1000 Ang^3
#
#
#
# Elastic Constant Matrix: (Units=GPa)
#
#
# Indices 1 2 3 4 5 6 
#
# 1 70.0158 36.6745 44.8398 0.0000 0.0000 0.0000
# 2 36.6745 78.9732 48.6215 0.0000 0.0000 0.0000
# 3 44.8398 48.6215 92.9683 0.0000 0.0000 0.0000
# 4 0.0000 0.0000 0.0000 24.3562 0.0000 0.0000
# 5 0.0000 0.0000 0.0000 0.0000 24.9212 0.0000
# 6 0.0000 0.0000 0.0000 0.0000 0.0000 22.0107
#
#
#
# Elastic Compliance Matrix: (Units=1/GPa)
#
#
# Indices 1 2 3 4 5 6 
#
# 1 0.022162 -0.005473 -0.007826 0.000000 0.000000 0.000000
# 2 -0.005473 0.020028 -0.007834 0.000000 0.000000 0.000000
# 3 -0.007826 -0.007834 0.018628 0.000000 0.000000 0.000000
# 4 0.000000 0.000000 0.000000 0.041057 0.000000 0.000000
# 5 0.000000 0.000000 0.000000 0.000000 0.040127 0.000000
# 6 0.000000 0.000000 0.000000 0.000000 0.000000 0.045433
#
#
# Mechanical properties :
#
#
# Convention : Reuss Voigt Hill
#
# Bulk Modulus (GPa) = 53.90947 55.80321 54.85634
# Shear Modulus (GPa) = 21.19674 21.71238 21.45456
#
# Velocity S-wave (km/s) = 3.79834 3.84426 3.82137
# Velocity P-wave (km/s) = 7.47860 7.59516 7.53710
#
# Compressibility (1/GPa) = 0.01854962
#
# Stress axis : x y z
#
# Youngs Moduli (GPa) = 45.12317 49.93088 53.68125
#
# Poissons Ratio (x) = 0.27328 0.42013
# Poissons Ratio (y) = 0.24697 0.42057
# Poissons Ratio (z) = 0.35315 0.39118
#
# Static dielectric constant tensor:
#      x y z
#    x 2.814150 0.000000 0.000000 
#    y 0.000000 2.710730 0.000000 
#    z 0.000000 0.000000 2.949830 
# 
# 
# High freq. dielectric constant tensor:
#      x y z
#    x 1.569360 0.000000 0.000000 
#    y 0.000000 1.527270 0.000000 
#    z 0.000000 0.000000 1.552760 
# 
# From -- ./inp_files/19703.got.cif
#   From: 2010.03.12/outbox.cif.g09.slc.cpg/sg40_10_cif.got.tgz:19703.got - 2010.04.14 01:38:03.
