data_PCOD8182151
_publ_section_title
;
Structure prediction by ZEFSAII (Michael W. Deem and Ramdas Pophale) SiO2 
 PCOD8182151
Probable space group: A B M 2
;
_chemical_formula_sum "Si O2"
_cell_formula_units_Z 44
_cell_length_a 5.341639
_cell_length_b 15.003756
_cell_length_c 25.431834
_cell_angle_alpha 90.000000
_cell_angle_beta 90.000000
_cell_angle_gamma 90.000000
_cell_volume 2038.225389
_symmetry_space_group_name_H-M "A B M 2"
_symmetry_group_IT_number 39
_symmetry_cell_setting 'orthorhombic'
loop_
_space_group_symop_operation_xyz
x,y,z
-x,-y,z
-x,1/2+y,z
x,1/2-y,z
x,1/2+y,1/2+z
-x,1/2-y,1/2+z
-x,y,1/2+z
x,-y,1/2+z
loop_
_atom_site_type_symbol
_atom_site_label
_atom_site_fract_x
_atom_site_fract_y
_atom_site_fract_z
Si Si1 0.373475 0.750000 0.250000
Si Si2 0.120164 0.750000 0.817723
Si Si3 0.000000 0.000000 0.602538
Si Si4 0.609595 0.405287 0.167543
Si Si5 0.045106 0.597319 0.900320
Si Si6 0.528254 0.849654 0.954801
Si Si7 0.312189 0.347773 0.068292
O O1 0.610946 0.750000 0.288816
O O2 0.372347 0.659651 0.216591
O O3 0.108196 0.750000 0.277922
O O4 0.093867 0.662003 0.852097
O O5 0.849070 0.062624 0.562820
O O6 0.128200 0.072013 0.640696
O O7 0.500000 0.500000 0.186450
O O8 0.451310 0.354660 0.123532
O O9 0.300400 0.590024 0.934404
O O10 0.000000 0.500000 0.876075
O O11 0.806466 0.624568 0.935530
O O12 0.473710 0.750000 0.933985
O O13 0.507278 0.852829 0.017975
O O14 0.174144 0.250000 0.067380
#
# Coordination Sequence:
#
# PCOD8182151 Si02
#       7
#     4   4   4   8   8   8   8
#     4  12  28  46  80  95 137 182 234 294 368 410
#     4  12  28  50  72 103 135 174 240 308 352 416
#     4  10  24  40  66  98 156 174 238 284 332 420
#     4  10  24  43  67 104 142 181 232 285 342 423
#     4  12  26  47  75 102 141 182 235 293 355 416
#     4  11  23  44  73 106 146 189 230 277 345 425
#     4  10  23  40  68 105 147 190 227 275 343 421
#
# _framework density 21.587405
#
# number of rings (size 3 to 8) (size 9 to 14) (size 15 to 20)
#    0.000    1.091    2.727    1.636   10.182    4.364 
#    0.000    0.000    0.000    0.000    0.000    0.000 
#    0.000    0.000    0.000    0.000    0.000    0.000 
#
# Total GULP energy -272630.346468 kJ/mol
# GULP energy per Si atom -12392.288476 kJ/mol
# Density = 2.153827 g / cm^3
# Si number density = 21.587405 Si / 1000 Ang^3
#
#
#
# Elastic Constant Matrix: (Units=GPa)
#
#
# Indices 1 2 3 4 5 6 
#
# 1 71.0391 6.1256 -3.9383 0.0000 0.0000 0.0000
# 2 6.1256 141.9670 50.0494 0.0000 0.0000 0.0000
# 3 -3.9383 50.0494 69.3975 0.0000 0.0000 0.0000
# 4 0.0000 0.0000 0.0000 1267.8707 0.0000 0.0000
# 5 0.0000 0.0000 0.0000 0.0000 10.2634 0.0000
# 6 0.0000 0.0000 0.0000 0.0000 0.0000 -2.6985
#
#
#
# Elastic Compliance Matrix: (Units=1/GPa)
#
#
# Indices 1 2 3 4 5 6 
#
# 1 0.014274 -0.001209 0.001682 0.000000 0.000000 0.000000
# 2 -0.001209 0.009548 -0.006954 0.000000 0.000000 0.000000
# 3 0.001682 -0.006954 0.019521 0.000000 0.000000 0.000000
# 4 0.000000 0.000000 0.000000 0.000789 0.000000 0.000000
# 5 0.000000 0.000000 0.000000 0.000000 0.097433 0.000000
# 6 0.000000 0.000000 0.000000 0.000000 0.000000 -0.370583
#
#
# Mechanical properties :
#
#
# Convention : Reuss Voigt Hill
#
# Bulk Modulus (GPa) = 32.91649 42.98634 37.95141
# Shear Modulus (GPa) = -24.28030 270.43160 123.07565
#
# Velocity S-wave (km/s) = -3.35736 11.20468 7.55887
# Velocity P-wave (km/s) = 0.50196 13.68755 9.68507
#
# Compressibility (1/GPa) = 0.03037991
#
# Stress axis : x y z
#
# Youngs Moduli (GPa) = 70.05635 104.73627 51.22755
#
# Poissons Ratio (x) = 0.12661 -0.08616
# Poissons Ratio (y) = 0.08469 0.35626
# Poissons Ratio (z) = -0.11783 0.72838
#
# Static dielectric constant tensor:
#      x y z
#    x 4.142440 0.000000 0.000000 
#    y 0.000000 3.537790 0.000000 
#    z 0.000000 0.000000 3.777180 
# 
# 
# High freq. dielectric constant tensor:
#      x y z
#    x 1.847140 0.000000 0.000000 
#    y 0.000000 1.874500 0.000000 
#    z 0.000000 0.000000 1.841590 
# 
# From -- ./inp_files/16475.got.cif
#   From: 2010.03.12/outbox.cif.g09.slc.cpg/sg39_9_cif.got.tgz:16475.got - 2010.04.14 02:53:20.
