data_PCOD8182904
_publ_section_title
;
Structure prediction by ZEFSAII (Michael W. Deem and Ramdas Pophale) SiO2 
 PCOD8182904
Probable space group: A M A 2
;
_chemical_formula_sum "Si O2"
_cell_formula_units_Z 64
_cell_length_a 9.034785
_cell_length_b 24.760228
_cell_length_c 15.138431
_cell_angle_alpha 90.000000
_cell_angle_beta 90.000000
_cell_angle_gamma 90.000000
_cell_volume 3386.517525
_symmetry_space_group_name_H-M "A M A 2"
_symmetry_group_IT_number 40
_symmetry_cell_setting 'orthorhombic'
loop_
_space_group_symop_operation_xyz
x,y,z
-x,-y,z
1/2-x,y,z
1/2+x,-y,z
x,1/2+y,1/2+z
-x,1/2-y,1/2+z
1/2-x,1/2+y,1/2+z
1/2+x,1/2-y,1/2+z
loop_
_atom_site_type_symbol
_atom_site_label
_atom_site_fract_x
_atom_site_fract_y
_atom_site_fract_z
Si Si1 0.575893 0.056794 0.232320
Si Si2 0.425127 0.054832 0.593928
Si Si3 0.582130 0.260921 0.701045
Si Si4 0.075475 0.167651 0.913046
Si Si5 0.921748 0.714759 0.873783
Si Si6 0.420996 0.401751 0.925622
Si Si7 0.425313 0.152381 0.716940
Si Si8 0.419519 0.633844 0.596913
O O1 0.750000 0.049818 0.223771
O O2 0.531313 0.079129 0.328329
O O3 0.523465 0.097892 0.157381
O O4 0.500000 0.000000 0.215011
O O5 0.250000 0.048034 0.594687
O O6 0.476573 0.067436 0.494720
O O7 0.479665 0.101538 0.660195
O O8 0.500000 0.000000 0.627762
O O9 0.750000 0.244253 0.721784
O O10 0.514551 0.291760 0.784811
O O11 0.494010 0.206650 0.675912
O O12 0.573037 0.302884 0.621022
O O13 0.250000 0.164232 0.917124
O O14 0.027772 0.230603 0.923294
O O15 0.019306 0.144827 0.818552
O O16 0.017226 0.132142 0.995790
O O17 0.750000 0.717613 0.845636
O O18 0.950012 0.662526 0.934907
O O19 0.250000 0.415951 0.944894
O O20 0.250000 0.158705 0.713012
O O21 0.250000 0.612958 0.604528
#
# Coordination Sequence:
#
# PCOD8182904 Si02
#       8
#     8   8   8   8   8   8   8   8
#     4  11  23  39  58  81 111 151 190 230 278 332
#     4  11  24  40  59  83 110 146 192 243 291 339
#     4  10  19  30  52  85 117 146 183 230 276 326
#     4   8  16  33  57  80 110 149 186 222 271 333
#     4   9  17  33  55  79 113 153 187 218 269 336
#     4  10  21  36  58  85 114 151 187 226 280 341
#     4   9  20  39  59  79 110 152 192 232 284 340
#     4  10  20  34  55  84 114 148 187 231 276 327
#
# _framework density 18.898468999999999
#
# number of rings (size 3 to 8) (size 9 to 14) (size 15 to 20)
#    0.000    2.250    1.250    2.250    1.750    4.000 
#    0.000    3.125    0.000    1.500    0.000    0.000 
#    0.000    0.000    0.000    0.000    0.000    0.000 
#
# Total GULP energy -396742.757517 kJ/mol
# GULP energy per Si atom -12398.211172 kJ/mol
# Density = 1.885546 g / cm^3
# Si number density = 18.898469 Si / 1000 Ang^3
#
#
#
# Elastic Constant Matrix: (Units=GPa)
#
#
# Indices 1 2 3 4 5 6 
#
# 1 57.5208 37.6974 31.3701 0.0000 0.0000 0.0000
# 2 37.6974 114.8520 50.8447 0.0000 0.0000 0.0000
# 3 31.3701 50.8447 100.4175 0.0000 0.0000 0.0000
# 4 0.0000 0.0000 0.0000 27.9100 0.0000 0.0000
# 5 0.0000 0.0000 0.0000 0.0000 17.7611 0.0000
# 6 0.0000 0.0000 0.0000 0.0000 0.0000 30.6517
#
#
#
# Elastic Compliance Matrix: (Units=1/GPa)
#
#
# Indices 1 2 3 4 5 6 
#
# 1 0.023596 -0.005776 -0.004446 0.000000 0.000000 0.000000
# 2 -0.005776 0.012636 -0.004594 0.000000 0.000000 0.000000
# 3 -0.004446 -0.004594 0.013673 0.000000 0.000000 0.000000
# 4 0.000000 0.000000 0.000000 0.035830 0.000000 0.000000
# 5 0.000000 0.000000 0.000000 0.000000 0.056303 0.000000
# 6 0.000000 0.000000 0.000000 0.000000 0.000000 0.032625
#
#
# Mechanical properties :
#
#
# Convention : Reuss Voigt Hill
#
# Bulk Modulus (GPa) = 49.32790 56.95718 53.14254
# Shear Modulus (GPa) = 23.69078 25.45645 24.57361
#
# Velocity S-wave (km/s) = 3.54444 3.67415 3.60987
# Velocity P-wave (km/s) = 6.55049 6.94284 6.74952
#
# Compressibility (1/GPa) = 0.02027250
#
# Stress axis : x y z
#
# Youngs Moduli (GPa) = 42.38090 79.13643 73.13444
#
# Poissons Ratio (x) = 0.45711 0.32519
# Poissons Ratio (y) = 0.24480 0.33596
# Poissons Ratio (z) = 0.18845 0.36353
#
# Static dielectric constant tensor:
#      x y z
#    x 3.333180 0.000000 0.000000 
#    y 0.000000 3.548230 0.000000 
#    z 0.000000 0.000000 3.610290 
# 
# 
# High freq. dielectric constant tensor:
#      x y z
#    x 1.721070 0.000000 0.000000 
#    y 0.000000 1.732020 0.000000 
#    z 0.000000 0.000000 1.731300 
# 
# From -- ./inp_files/15567.got.cif
#   From: 2010.03.12/outbox.cif.g09.slc.cpg/sg40_8_cif.got.tgz:15567.got - 2010.04.14 01:38:03.
