data_PCOD8182030
_publ_section_title
;
Structure prediction by ZEFSAII (Michael W. Deem and Ramdas Pophale) SiO2 
 PCOD8182030
Probable space group: A B M 2
;
_chemical_formula_sum "Si O2"
_cell_formula_units_Z 40
_cell_length_a 15.642073
_cell_length_b 22.184522
_cell_length_c 5.046359
_cell_angle_alpha 90.000000
_cell_angle_beta 90.000000
_cell_angle_gamma 90.000000
_cell_volume 1751.146688
_symmetry_space_group_name_H-M "A B M 2"
_symmetry_group_IT_number 39
_symmetry_cell_setting 'orthorhombic'
loop_
_space_group_symop_operation_xyz
x,y,z
-x,-y,z
-x,1/2+y,z
x,1/2-y,z
x,1/2+y,1/2+z
-x,1/2-y,1/2+z
-x,y,1/2+z
x,-y,1/2+z
loop_
_atom_site_type_symbol
_atom_site_label
_atom_site_fract_x
_atom_site_fract_y
_atom_site_fract_z
Si Si1 0.762794 0.317852 0.392310
Si Si2 0.461431 0.933073 0.971712
Si Si3 0.887387 0.961770 0.242251
Si Si4 0.049317 0.838461 0.597283
Si Si5 0.277457 0.891274 0.863874
O O1 0.733457 0.250000 0.322377
O O2 0.858198 0.315419 0.512381
O O3 0.702374 0.343517 0.628386
O O4 0.758122 0.358370 0.127303
O O5 0.487020 0.898524 0.240538
O O6 0.500000 0.000000 0.024555
O O7 0.360157 0.931399 0.929995
O O8 0.951793 0.910598 0.139640
O O9 0.790861 0.936793 0.236544
O O10 0.902666 0.982547 0.543924
O O11 0.980108 0.814116 0.384644
#
# Coordination Sequence:
#
# PCOD8182030 Si02
#       5
#     8   8   8   8   8
#     4  11  24  44  68  93 122 176 226 272 336 379
#     4  10  22  37  62  98 132 169 198 258 327 385
#     4  11  23  36  59  89 126 179 209 247 315 397
#     4  11  23  40  60  90 127 161 218 278 321 373
#     4  11  23  41  65  94 137 165 217 271 316 394
#
# _framework density 22.842175999999998
#
# number of rings (size 3 to 8) (size 9 to 14) (size 15 to 20)
#    0.000    1.200    0.000    7.800    5.600    3.200 
#    0.000    0.000    0.000   12.000    0.000    0.000 
#    0.000    0.000    0.000    0.000    0.000    0.000 
#
# Total GULP energy -247813.743761 kJ/mol
# GULP energy per Si atom -12390.687188 kJ/mol
# Density = 2.279019 g / cm^3
# Si number density = 22.842176 Si / 1000 Ang^3
#
#
#
# Elastic Constant Matrix: (Units=GPa)
#
#
# Indices 1 2 3 4 5 6 
#
# 1 77.9132 17.9298 14.3234 0.0000 0.0000 0.0000
# 2 17.9298 87.2805 19.6854 0.0000 0.0000 0.0000
# 3 14.3234 19.6854 157.5434 0.0000 0.0000 0.0000
# 4 0.0000 0.0000 0.0000 10.2688 0.0000 0.0000
# 5 0.0000 0.0000 0.0000 0.0000 38.3533 0.0000
# 6 0.0000 0.0000 0.0000 0.0000 0.0000 12.7411
#
#
#
# Elastic Compliance Matrix: (Units=1/GPa)
#
#
# Indices 1 2 3 4 5 6 
#
# 1 0.013598 -0.002588 -0.000913 0.000000 0.000000 0.000000
# 2 -0.002588 0.012282 -0.001299 0.000000 0.000000 0.000000
# 3 -0.000913 -0.001299 0.006593 0.000000 0.000000 0.000000
# 4 0.000000 0.000000 0.000000 0.097383 0.000000 0.000000
# 5 0.000000 0.000000 0.000000 0.000000 0.026073 0.000000
# 6 0.000000 0.000000 0.000000 0.000000 0.000000 0.078486
#
#
# Mechanical properties :
#
#
# Convention : Reuss Voigt Hill
#
# Bulk Modulus (GPa) = 43.71956 47.40158 45.56057
# Shear Modulus (GPa) = 19.86970 30.32585 25.09778
#
# Velocity S-wave (km/s) = 2.95255 3.64761 3.31833
# Velocity P-wave (km/s) = 5.55021 6.20781 5.88820
#
# Compressibility (1/GPa) = 0.02287306
#
# Stress axis : x y z
#
# Youngs Moduli (GPa) = 73.53977 81.42039 151.68001
#
# Poissons Ratio (x) = 0.21068 0.13848
# Poissons Ratio (y) = 0.19028 0.19709
# Poissons Ratio (z) = 0.06714 0.10580
#
# Static dielectric constant tensor:
#      x y z
#    x 3.891740 0.000000 0.000000 
#    y 0.000000 4.018800 0.000000 
#    z 0.000000 0.000000 4.914960 
# 
# 
# High freq. dielectric constant tensor:
#      x y z
#    x 1.882470 0.000000 0.000000 
#    y 0.000000 1.874850 0.000000 
#    z 0.000000 0.000000 1.937560 
# 
# From -- ./inp_files/527.got.cif
#   From: 2010.03.12/outbox.cif.g09.slc.cpg/sg39_1_cif.got.tgz:527.got - 2010.04.14 02:53:20.
