data_PCOD8182110
_publ_section_title
;
Structure prediction by ZEFSAII (Michael W. Deem and Ramdas Pophale) SiO2 
 PCOD8182110
Probable space group: A B M 2
;
_chemical_formula_sum "Si O2"
_cell_formula_units_Z 64
_cell_length_a 11.494001
_cell_length_b 18.342413
_cell_length_c 14.693448
_cell_angle_alpha 90.000000
_cell_angle_beta 90.000000
_cell_angle_gamma 90.000000
_cell_volume 3097.786043
_symmetry_space_group_name_H-M "A B M 2"
_symmetry_group_IT_number 39
_symmetry_cell_setting 'orthorhombic'
loop_
_space_group_symop_operation_xyz
x,y,z
-x,-y,z
-x,1/2+y,z
x,1/2-y,z
x,1/2+y,1/2+z
-x,1/2-y,1/2+z
-x,y,1/2+z
x,-y,1/2+z
loop_
_atom_site_type_symbol
_atom_site_label
_atom_site_fract_x
_atom_site_fract_y
_atom_site_fract_z
Si Si1 0.486938 0.335505 0.125000
Si Si2 0.662314 0.603627 0.958619
Si Si3 0.909314 0.333887 0.450014
Si Si4 0.515018 0.916948 0.307366
Si Si5 0.948985 0.575138 0.305986
Si Si6 0.005352 0.667125 0.142905
Si Si7 0.269712 0.442701 0.425455
Si Si8 0.749527 0.832809 0.580632
O O1 0.457809 0.250000 0.119749
O O2 0.447996 0.367062 0.222341
O O3 0.624982 0.351181 0.123460
O O4 0.422718 0.376448 0.042479
O O5 0.770398 0.658318 0.956571
O O6 0.599556 0.611228 0.860390
O O7 0.707384 0.520978 0.971873
O O8 0.939823 0.250000 0.427674
O O9 0.961997 0.385240 0.373268
O O10 0.966677 0.359918 0.543842
O O11 0.613341 0.910871 0.383452
O O12 0.500000 0.000000 0.272932
O O13 0.825469 0.554491 0.347201
O O14 0.000000 0.500000 0.270794
O O15 0.931775 0.623569 0.216811
O O16 0.967774 0.750000 0.156360
O O17 0.145761 0.657032 0.153782
O O18 0.222026 0.386640 0.499026
O O19 0.751741 0.750000 0.542880
#
# Coordination Sequence:
#
# PCOD8182110 Si02
#       8
#     8   8   8   8   8   8   8   8
#     4  11  25  42  67  99 131 175 224 271 332 399
#     4  11  24  44  66  96 134 176 221 272 335 396
#     4  11  24  44  67  94 131 173 218 273 333 393
#     4  10  25  42  64  98 133 175 220 271 333 397
#     4  12  25  42  66  98 129 169 222 269 330 399
#     4  10  24  43  65  96 130 171 219 272 335 394
#     4  11  23  44  68  93 133 175 220 276 333 395
#     4  10  22  41  66  95 129 175 222 270 331 396
#
# _framework density 20.659918000000001
#
# number of rings (size 3 to 8) (size 9 to 14) (size 15 to 20)
#    0.000    1.250    3.750    0.750    5.250    3.500 
#    0.000    0.000    0.000    0.000    0.000    0.000 
#    0.000    0.000    0.000    0.000    0.000    0.000 
#
# Total GULP energy -396876.979530 kJ/mol
# GULP energy per Si atom -12402.405610 kJ/mol
# Density = 2.061289 g / cm^3
# Si number density = 20.659918 Si / 1000 Ang^3
#
#
#
# Elastic Constant Matrix: (Units=GPa)
#
#
# Indices 1 2 3 4 5 6 
#
# 1 84.9276 24.1561 9.1640 0.0000 0.0000 0.0000
# 2 24.1561 93.7829 58.0922 0.0000 0.0000 0.0000
# 3 9.1640 58.0922 94.3320 0.0000 0.0000 0.0000
# 4 0.0000 0.0000 0.0000 35.4959 0.0000 0.0000
# 5 0.0000 0.0000 0.0000 0.0000 19.9135 0.0000
# 6 0.0000 0.0000 0.0000 0.0000 0.0000 33.7649
#
#
#
# Elastic Compliance Matrix: (Units=1/GPa)
#
#
# Indices 1 2 3 4 5 6 
#
# 1 0.012799 -0.004085 0.001272 0.000000 0.000000 0.000000
# 2 -0.004085 0.018543 -0.011022 0.000000 0.000000 0.000000
# 3 0.001272 -0.011022 0.017265 0.000000 0.000000 0.000000
# 4 0.000000 0.000000 0.000000 0.028172 0.000000 0.000000
# 5 0.000000 0.000000 0.000000 0.000000 0.050217 0.000000
# 6 0.000000 0.000000 0.000000 0.000000 0.000000 0.029617
#
#
# Mechanical properties :
#
#
# Convention : Reuss Voigt Hill
#
# Bulk Modulus (GPa) = 47.76187 50.65190 49.20689
# Shear Modulus (GPa) = 26.14219 29.94353 28.04286
#
# Velocity S-wave (km/s) = 3.56105 3.81117 3.68823
# Velocity P-wave (km/s) = 6.33059 6.62849 6.48125
#
# Compressibility (1/GPa) = 0.02093720
#
# Stress axis : x y z
#
# Youngs Moduli (GPa) = 78.12923 53.92995 57.92048
#
# Poissons Ratio (x) = 0.22029 -0.07368
# Poissons Ratio (y) = 0.31914 0.63841
# Poissons Ratio (z) = -0.09939 0.59443
#
# Static dielectric constant tensor:
#      x y z
#    x 3.903990 0.000000 0.000000 
#    y 0.000000 3.808540 0.000000 
#    z 0.000000 0.000000 3.553880 
# 
# 
# High freq. dielectric constant tensor:
#      x y z
#    x 1.820710 0.000000 0.000000 
#    y 0.000000 1.814400 0.000000 
#    z 0.000000 0.000000 1.800750 
# 
# From -- ./inp_files/9426.got.cif
#   From: 2010.03.12/outbox.cif.g09.slc.cpg/sg39_5_cif.got.tgz:9426.got - 2010.04.14 02:53:20.
