data_PCOD8182515
_publ_section_title
;
Structure prediction by ZEFSAII (Michael W. Deem and Ramdas Pophale) SiO2 
 PCOD8182515
Probable space group: A M A 2
;
_chemical_formula_sum "Si O2"
_cell_formula_units_Z 64
_cell_length_a 8.739621
_cell_length_b 23.516629
_cell_length_c 19.237294
_cell_angle_alpha 90.000000
_cell_angle_beta 90.000000
_cell_angle_gamma 90.000000
_cell_volume 3953.772256
_symmetry_space_group_name_H-M "A M A 2"
_symmetry_group_IT_number 40
_symmetry_cell_setting 'orthorhombic'
loop_
_space_group_symop_operation_xyz
x,y,z
-x,-y,z
1/2-x,y,z
1/2+x,-y,z
x,1/2+y,1/2+z
-x,1/2-y,1/2+z
1/2-x,1/2+y,1/2+z
1/2+x,1/2-y,1/2+z
loop_
_atom_site_type_symbol
_atom_site_label
_atom_site_fract_x
_atom_site_fract_y
_atom_site_fract_z
Si Si1 0.069244 0.228337 0.465470
Si Si2 0.569360 0.242358 0.112305
Si Si3 0.070179 0.731686 0.263331
Si Si4 0.930790 0.560429 0.470393
Si Si5 0.430972 0.160893 0.337081
Si Si6 0.069102 0.439367 0.755938
Si Si7 0.567737 0.614398 0.612920
Si Si8 0.069708 0.835705 0.877910
O O1 0.250000 0.228978 0.468085
O O2 0.002758 0.224593 0.544228
O O3 0.017482 0.175802 0.416579
O O4 0.014365 0.287781 0.432150
O O5 0.750000 0.236620 0.104351
O O6 0.527879 0.277056 0.182009
O O7 0.501598 0.178412 0.115086
O O8 0.250000 0.742484 0.273345
O O9 0.979644 0.787068 0.288313
O O10 0.016356 0.675475 0.304765
O O11 0.750000 0.555500 0.474802
O O12 0.995355 0.582434 0.544447
O O13 0.979230 0.603581 0.409020
O O14 0.000000 0.500000 0.450996
O O15 0.250000 0.152252 0.330717
O O16 0.516527 0.103761 0.315747
O O17 0.250000 0.443275 0.756205
O O18 0.007142 0.418677 0.680903
O O19 0.000000 0.500000 0.774285
O O20 0.750000 0.615739 0.612279
O O21 0.250000 0.832121 0.864450
#
# Coordination Sequence:
#
# PCOD8182515 Si02
#       8
#     8   8   8   8   8   8   8   8
#     4   8  14  26  46  66  87 116 153 188 222 272
#     4   9  14  25  46  70  91 119 154 185 224 274
#     4  10  18  28  47  70  93 120 151 192 234 273
#     4  10  19  31  48  66  90 126 163 196 229 267
#     4  10  19  31  47  68  92 122 156 192 231 274
#     4  11  21  33  48  67  93 127 161 196 229 267
#     4   9  16  28  45  65  93 126 160 190 221 265
#     4   9  17  30  46  64  89 123 155 188 229 274
#
# _framework density 16.187073999999999
#
# number of rings (size 3 to 8) (size 9 to 14) (size 15 to 20)
#    0.000    2.500    2.500    2.250    0.000    0.500 
#    0.000    0.625    0.000    7.500    0.000    0.875 
#    0.000    2.000    0.000    0.000    0.000    0.000 
#
# Total GULP energy -396638.776979 kJ/mol
# GULP energy per Si atom -12394.961781 kJ/mol
# Density = 1.615023 g / cm^3
# Si number density = 16.187074 Si / 1000 Ang^3
#
#
#
# Elastic Constant Matrix: (Units=GPa)
#
#
# Indices 1 2 3 4 5 6 
#
# 1 30.2800 22.8259 23.7493 0.0000 0.0000 0.0000
# 2 22.8259 107.8584 74.2321 0.0000 0.0000 0.0000
# 3 23.7493 74.2321 140.5180 0.0000 0.0000 0.0000
# 4 0.0000 0.0000 0.0000 19.9474 0.0000 0.0000
# 5 0.0000 0.0000 0.0000 0.0000 18.3259 0.0000
# 6 0.0000 0.0000 0.0000 0.0000 0.0000 22.9672
#
#
#
# Elastic Compliance Matrix: (Units=1/GPa)
#
#
# Indices 1 2 3 4 5 6 
#
# 1 0.040442 -0.006056 -0.003636 0.000000 0.000000 0.000000
# 2 -0.006056 0.015475 -0.007151 0.000000 0.000000 0.000000
# 3 -0.003636 -0.007151 0.011509 0.000000 0.000000 0.000000
# 4 0.000000 0.000000 0.000000 0.050132 0.000000 0.000000
# 5 0.000000 0.000000 0.000000 0.000000 0.054568 0.000000
# 6 0.000000 0.000000 0.000000 0.000000 0.000000 0.043540
#
#
# Mechanical properties :
#
#
# Convention : Reuss Voigt Hill
#
# Bulk Modulus (GPa) = 29.63938 57.80791 43.72365
# Shear Modulus (GPa) = 19.18649 22.77135 20.97892
#
# Velocity S-wave (km/s) = 3.44655 3.75475 3.60395
# Velocity P-wave (km/s) = 5.84710 7.38833 6.66243
#
# Compressibility (1/GPa) = 0.03373890
#
# Stress axis : x y z
#
# Youngs Moduli (GPa) = 24.72656 64.62028 86.88887
#
# Poissons Ratio (x) = 0.39137 0.31591
# Poissons Ratio (y) = 0.14976 0.62138
# Poissons Ratio (z) = 0.08990 0.46213
#
# Static dielectric constant tensor:
#      x y z
#    x 2.812260 0.000000 0.000000 
#    y 0.000000 2.980010 0.000000 
#    z 0.000000 0.000000 3.453380 
# 
# 
# High freq. dielectric constant tensor:
#      x y z
#    x 1.598260 0.000000 0.000000 
#    y 0.000000 1.596900 0.000000 
#    z 0.000000 0.000000 1.623860 
# 
# From -- ./inp_files/19731.got.cif
#   From: 2010.03.12/outbox.cif.g09.slc.cpg/sg40_10_cif.got.tgz:19731.got - 2010.04.14 01:38:03.
