data_PCOD8182118
_publ_section_title
;
Structure prediction by ZEFSAII (Michael W. Deem and Ramdas Pophale) SiO2 
 PCOD8182118
Probable space group: A B M 2
;
_chemical_formula_sum "Si O2"
_cell_formula_units_Z 48
_cell_length_a 7.682071
_cell_length_b 9.623364
_cell_length_c 30.470526
_cell_angle_alpha 90.000000
_cell_angle_beta 90.000000
_cell_angle_gamma 90.000000
_cell_volume 2252.605713
_symmetry_space_group_name_H-M "A B M 2"
_symmetry_group_IT_number 39
_symmetry_cell_setting 'orthorhombic'
loop_
_space_group_symop_operation_xyz
x,y,z
-x,-y,z
-x,1/2+y,z
x,1/2-y,z
x,1/2+y,1/2+z
-x,1/2-y,1/2+z
-x,y,1/2+z
x,-y,1/2+z
loop_
_atom_site_type_symbol
_atom_site_label
_atom_site_fract_x
_atom_site_fract_y
_atom_site_fract_z
Si Si1 0.841911 0.412549 0.840760
Si Si2 0.688792 0.250000 0.996994
Si Si3 0.000000 0.500000 0.111229
Si Si4 0.306674 0.250000 0.976902
Si Si5 0.668765 0.909424 0.666904
Si Si6 0.669386 0.086787 0.268422
Si Si7 0.206052 0.516164 0.932022
Si Si8 0.018848 0.750000 0.550732
O O1 0.872871 0.250000 0.827848
O O2 0.806946 0.505639 0.797878
O O3 0.722541 0.424121 0.884546
O O4 0.000000 0.500000 0.861002
O O5 0.734410 0.384656 0.970274
O O6 0.481000 0.250000 0.007386
O O7 0.810530 0.250000 0.040596
O O8 0.161327 0.546453 0.140848
O O9 0.929633 0.619819 0.080175
O O10 0.135394 0.250000 0.007211
O O11 0.305703 0.375009 0.942438
O O12 0.620405 0.750000 0.657128
O O13 0.718865 0.929360 0.717818
O O14 0.500000 0.000000 0.654074
O O15 0.649605 0.250000 0.281649
O O16 0.500000 0.000000 0.280191
O O17 0.000000 0.500000 0.936779
#
# Coordination Sequence:
#
# PCOD8182118 Si02
#       8
#     8   4   4   4   8   8   8   4
#     4  11  24  40  64  99 136 183 230 280 333 396
#     4  12  24  46  68  99 133 176 227 275 340 414
#     4  12  26  46  74 100 136 182 222 286 354 422
#     4  12  26  42  74  99 129 184 225 283 342 410
#     4  10  24  46  73 106 140 182 230 280 343 415
#     4  10  22  42  66  98 141 181 222 279 334 398
#     4  11  22  43  68  94 139 181 224 282 338 397
#     4  12  26  46  70 102 136 172 226 290 352 412
#
# _framework density 21.308655000000002
#
# number of rings (size 3 to 8) (size 9 to 14) (size 15 to 20)
#    0.000    1.000    3.333    2.500    7.000    3.333 
#    0.000    0.000    0.000    0.000    0.000    0.000 
#    0.000    0.000    0.000    0.000    0.000    0.000 
#
# Total GULP energy -297357.036517 kJ/mol
# GULP energy per Si atom -12389.876522 kJ/mol
# Density = 2.126016 g / cm^3
# Si number density = 21.308655 Si / 1000 Ang^3
#
#
#
# Elastic Constant Matrix: (Units=GPa)
#
#
# Indices 1 2 3 4 5 6 
#
# 1 93.4039 31.5792 29.0823 0.0000 0.0000 0.0000
# 2 31.5792 188.8217 50.0367 0.0000 0.0000 0.0000
# 3 29.0823 50.0367 78.0350 0.0000 0.0000 0.0000
# 4 0.0000 0.0000 0.0000 233.7195 0.0000 0.0000
# 5 0.0000 0.0000 0.0000 0.0000 17.3039 0.0000
# 6 0.0000 0.0000 0.0000 0.0000 0.0000 35.9605
#
#
#
# Elastic Compliance Matrix: (Units=1/GPa)
#
#
# Indices 1 2 3 4 5 6 
#
# 1 0.012270 -0.001012 -0.003924 0.000000 0.000000 0.000000
# 2 -0.001012 0.006464 -0.003767 0.000000 0.000000 0.000000
# 3 -0.003924 -0.003767 0.016693 0.000000 0.000000 0.000000
# 4 0.000000 0.000000 0.000000 0.004279 0.000000 0.000000
# 5 0.000000 0.000000 0.000000 0.000000 0.057791 0.000000
# 6 0.000000 0.000000 0.000000 0.000000 0.000000 0.027808
#
#
# Mechanical properties :
#
#
# Convention : Reuss Voigt Hill
#
# Bulk Modulus (GPa) = 55.49459 64.62854 60.06156
# Shear Modulus (GPa) = 33.62086 74.03425 53.82756
#
# Velocity S-wave (km/s) = 3.97647 5.90078 5.03147
# Velocity P-wave (km/s) = 6.86897 8.76477 7.87413
#
# Compressibility (1/GPa) = 0.01801977
#
# Stress axis : x y z
#
# Youngs Moduli (GPa) = 81.49853 154.71238 59.90656
#
# Poissons Ratio (x) = 0.15662 0.23506
# Poissons Ratio (y) = 0.08250 0.22568
# Poissons Ratio (z) = 0.31978 0.58284
#
# Static dielectric constant tensor:
#      x y z
#    x 3.631420 0.000000 0.000000 
#    y 0.000000 -0.114140 0.000000 
#    z 0.000000 0.000000 3.896170 
# 
# 
# High freq. dielectric constant tensor:
#      x y z
#    x 1.824500 0.000000 0.000000 
#    y 0.000000 1.856890 0.000000 
#    z 0.000000 0.000000 1.844850 
# 
# From -- ./inp_files/17704.got.cif
#   From: 2010.03.12/outbox.cif.g09.slc.cpg/sg39_9_cif.got.tgz:17704.got - 2010.04.14 02:53:20.
