data_PCOD8182677
_publ_section_title
;
Structure prediction by ZEFSAII (Michael W. Deem and Ramdas Pophale) SiO2 
 PCOD8182677
Probable space group: A M A 2
;
_chemical_formula_sum "Si O2"
_cell_formula_units_Z 44
_cell_length_a 23.982989
_cell_length_b 7.485532
_cell_length_c 13.391334
_cell_angle_alpha 90.000000
_cell_angle_beta 90.000000
_cell_angle_gamma 90.000000
_cell_volume 2404.085016
_symmetry_space_group_name_H-M "A M A 2"
_symmetry_group_IT_number 40
_symmetry_cell_setting 'orthorhombic'
loop_
_space_group_symop_operation_xyz
x,y,z
-x,-y,z
1/2-x,y,z
1/2+x,-y,z
x,1/2+y,1/2+z
-x,1/2-y,1/2+z
1/2-x,1/2+y,1/2+z
1/2+x,1/2-y,1/2+z
loop_
_atom_site_type_symbol
_atom_site_label
_atom_site_fract_x
_atom_site_fract_y
_atom_site_fract_z
Si Si1 0.862706 0.313601 0.748480
Si Si2 0.861493 0.633788 0.057309
Si Si3 0.750000 0.812730 0.333256
Si Si4 0.434328 0.499130 0.220438
Si Si5 0.368552 0.792112 0.332127
Si Si6 0.750000 0.908142 0.554793
Si Si7 0.750000 0.717552 0.762842
O O1 0.855642 0.310114 0.627600
O O2 0.806833 0.221980 0.795205
O O3 0.913458 0.180185 0.778766
O O4 0.874134 0.511241 0.785681
O O5 0.906997 0.500908 0.109006
O O6 0.803296 0.533438 0.053178
O O7 0.881552 0.696120 0.949196
O O8 0.750000 0.799374 0.452242
O O9 0.750000 0.007233 0.281513
O O10 0.500000 0.500000 0.210514
O O11 0.415522 0.672893 0.281264
O O12 0.306757 0.707833 0.313649
O O13 0.750000 0.768858 0.646093
#
# Coordination Sequence:
#
# PCOD8182677 Si02
#       7
#     8   8   4   8   8   4   4
#     4   9  21  39  60  90 121 156 203 248 306 364
#     4  10  21  39  62  90 123 158 203 245 310 363
#     4  10  19  36  56  94 130 152 199 239 320 378
#     4  10  24  44  59  88 124 163 218 254 291 355
#     4  11  20  42  63  90 128 156 201 255 310 363
#     4  12  17  35  66  91 129 162 184 256 312 377
#     4  10  18  31  62  95 115 162 185 239 316 371
#
# _framework density 18.30218
#
# number of rings (size 3 to 8) (size 9 to 14) (size 15 to 20)
#    1.091    0.727    5.455    0.545    0.000    1.455 
#   13.091    0.000    0.000    0.000    0.000    0.000 
#    0.000    0.000    0.000    0.000    0.000    0.000 
#
# Total GULP energy -272562.587097 kJ/mol
# GULP energy per Si atom -12389.208504 kJ/mol
# Density = 1.826052 g / cm^3
# Si number density = 18.302180 Si / 1000 Ang^3
#
#
#
# Elastic Constant Matrix: (Units=GPa)
#
#
# Indices 1 2 3 4 5 6 
#
# 1 157.7889 35.8860 45.6898 0.0000 0.0000 0.0000
# 2 35.8860 59.8528 46.2336 0.0000 0.0000 0.0000
# 3 45.6898 46.2336 170.8505 0.0000 0.0000 0.0000
# 4 0.0000 0.0000 0.0000 34.1824 0.0000 0.0000
# 5 0.0000 0.0000 0.0000 0.0000 4168.6614 0.0000
# 6 0.0000 0.0000 0.0000 0.0000 0.0000 26.9358
#
#
#
# Elastic Compliance Matrix: (Units=1/GPa)
#
#
# Indices 1 2 3 4 5 6 
#
# 1 0.007469 -0.003711 -0.000993 0.000000 0.000000 0.000000
# 2 -0.003711 0.022967 -0.005223 0.000000 0.000000 0.000000
# 3 -0.000993 -0.005223 0.007532 0.000000 0.000000 0.000000
# 4 0.000000 0.000000 0.000000 0.029255 0.000000 0.000000
# 5 0.000000 0.000000 0.000000 0.000000 0.000240 0.000000
# 6 0.000000 0.000000 0.000000 0.000000 0.000000 0.037125
#
#
# Mechanical properties :
#
#
# Convention : Reuss Voigt Hill
#
# Bulk Modulus (GPa) = 55.20508 71.56791 63.38649
# Shear Modulus (GPa) = 38.32003 863.33478 450.82741
#
# Velocity S-wave (km/s) = 4.58071 21.74248 15.71175
# Velocity P-wave (km/s) = 7.62927 25.87474 19.07496
#
# Compressibility (1/GPa) = 0.01811428
#
# Stress axis : x y z
#
# Youngs Moduli (GPa) = 133.88323 43.54079 132.76759
#
# Poissons Ratio (x) = 0.16159 0.13186
# Poissons Ratio (y) = 0.49686 0.69339
# Poissons Ratio (z) = 0.13297 0.22740
#
# Static dielectric constant tensor:
#      x y z
#    x -3.547550 0.000000 0.000000 
#    y 0.000000 3.108070 0.000000 
#    z 0.000000 0.000000 3.640640 
# 
# 
# High freq. dielectric constant tensor:
#      x y z
#    x 1.704400 0.000000 0.000000 
#    y 0.000000 1.692230 0.000000 
#    z 0.000000 0.000000 1.710480 
# 
# From -- ./inp_files/13895.got.cif
#   From: 2010.03.12/outbox.cif.g09.slc.cpg/sg40_7_cif.got.tgz:13895.got - 2010.04.14 01:38:03.
