data_PCOD8182788
_publ_section_title
;
Structure prediction by ZEFSAII (Michael W. Deem and Ramdas Pophale) SiO2 
 PCOD8182788
Probable space group: A M A 2
;
_chemical_formula_sum "Si O2"
_cell_formula_units_Z 56
_cell_length_a 19.011022
_cell_length_b 16.544895
_cell_length_c 9.443262
_cell_angle_alpha 90.000000
_cell_angle_beta 90.000000
_cell_angle_gamma 90.000000
_cell_volume 2970.239839
_symmetry_space_group_name_H-M "A M A 2"
_symmetry_group_IT_number 40
_symmetry_cell_setting 'orthorhombic'
loop_
_space_group_symop_operation_xyz
x,y,z
-x,-y,z
1/2-x,y,z
1/2+x,-y,z
x,1/2+y,1/2+z
-x,1/2-y,1/2+z
1/2-x,1/2+y,1/2+z
1/2+x,1/2-y,1/2+z
loop_
_atom_site_type_symbol
_atom_site_label
_atom_site_fract_x
_atom_site_fract_y
_atom_site_fract_z
Si Si1 0.553073 0.894959 0.414870
Si Si2 0.328750 0.875387 0.213860
Si Si3 0.403339 0.431444 0.980554
Si Si4 0.593605 0.722557 0.481718
Si Si5 0.667246 0.105883 0.772923
Si Si6 0.516487 0.382883 0.587786
Si Si7 0.616304 0.506235 0.514180
O O1 0.483832 0.906585 0.512170
O O2 0.598709 0.818651 0.464827
O O3 0.525978 0.880820 0.255730
O O4 0.601376 0.974346 0.432895
O O5 0.250000 0.853318 0.256051
O O6 0.374429 0.876066 0.354848
O O7 0.357721 0.805098 0.111658
O O8 0.329350 0.963273 0.134522
O O9 0.355254 0.412849 0.114433
O O10 0.622712 0.680510 0.338113
O O11 0.510906 0.701087 0.518092
O O12 0.750000 0.125903 0.779833
O O13 0.649263 0.024512 0.861187
O O14 0.591774 0.412375 0.522187
O O15 0.453707 0.442892 0.547171
#
# Coordination Sequence:
#
# PCOD8182788 Si02
#       7
#     8   8   8   8   8   8   8
#     4  11  21  37  58  92 118 137 193 248 292 339
#     4  10  18  35  58  81 108 157 197 218 275 349
#     4  11  21  36  61  86 118 148 186 246 288 331
#     4  10  22  36  62  82 115 154 182 241 292 343
#     4  10  22  38  55  84 118 152 193 232 283 349
#     4   9  16  33  56  84 111 139 190 238 282 343
#     4   9  15  33  58  79 107 148 187 235 274 335
#
# _framework density 18.853697
#
# number of rings (size 3 to 8) (size 9 to 14) (size 15 to 20)
#    0.000    2.286    4.286    3.000    2.000    4.571 
#    0.000    2.857    0.000    0.000    0.000    0.000 
#    0.000    0.000    0.000    0.000    0.000    0.000 
#
# Total GULP energy -346903.954033 kJ/mol
# GULP energy per Si atom -12389.426930 kJ/mol
# Density = 1.881079 g / cm^3
# Si number density = 18.853697 Si / 1000 Ang^3
#
#
#
# Elastic Constant Matrix: (Units=GPa)
#
#
# Indices 1 2 3 4 5 6 
#
# 1 73.9540 38.9759 29.0039 0.0000 0.0000 0.0000
# 2 38.9759 87.9334 29.0403 0.0000 0.0000 0.0000
# 3 29.0039 29.0403 105.0584 0.0000 0.0000 0.0000
# 4 0.0000 0.0000 0.0000 11.8489 0.0000 0.0000
# 5 0.0000 0.0000 0.0000 0.0000 26.4348 0.0000
# 6 0.0000 0.0000 0.0000 0.0000 0.0000 10.3492
#
#
#
# Elastic Compliance Matrix: (Units=1/GPa)
#
#
# Indices 1 2 3 4 5 6 
#
# 1 0.018535 -0.007181 -0.003132 0.000000 0.000000 0.000000
# 2 -0.007181 0.015297 -0.002246 0.000000 0.000000 0.000000
# 3 -0.003132 -0.002246 0.011004 0.000000 0.000000 0.000000
# 4 0.000000 0.000000 0.000000 0.084396 0.000000 0.000000
# 5 0.000000 0.000000 0.000000 0.000000 0.037829 0.000000
# 6 0.000000 0.000000 0.000000 0.000000 0.000000 0.096626
#
#
# Mechanical properties :
#
#
# Convention : Reuss Voigt Hill
#
# Bulk Modulus (GPa) = 50.71545 51.22065 50.96805
# Shear Modulus (GPa) = 16.92750 21.05497 18.99124
#
# Velocity S-wave (km/s) = 2.99964 3.34541 3.17723
# Velocity P-wave (km/s) = 6.24139 6.49221 6.36804
#
# Compressibility (1/GPa) = 0.01971786
#
# Stress axis : x y z
#
# Youngs Moduli (GPa) = 53.95231 65.37263 90.87620
#
# Poissons Ratio (x) = 0.46945 0.28462
# Poissons Ratio (y) = 0.38744 0.20410
# Poissons Ratio (z) = 0.16898 0.14682
#
# Static dielectric constant tensor:
#      x y z
#    x 3.682640 0.000000 0.000000 
#    y 0.000000 3.642900 0.000000 
#    z 0.000000 0.000000 3.401690 
# 
# 
# High freq. dielectric constant tensor:
#      x y z
#    x 1.721750 0.000000 0.000000 
#    y 0.000000 1.701470 0.000000 
#    z 0.000000 0.000000 1.732230 
# 
# From -- ./inp_files/8403.got.cif
#   From: 2010.03.12/outbox.cif.g09.slc.cpg/sg40_5_cif.got.tgz:8403.got - 2010.04.14 01:38:03.
