data_PCOD8182248
_publ_section_title
;
Structure prediction by ZEFSAII (Michael W. Deem and Ramdas Pophale) SiO2 
 PCOD8182248
Probable space group: A B M 2
;
_chemical_formula_sum "Si O2"
_cell_formula_units_Z 64
_cell_length_a 20.602859
_cell_length_b 19.251530
_cell_length_c 9.014142
_cell_angle_alpha 90.000000
_cell_angle_beta 90.000000
_cell_angle_gamma 90.000000
_cell_volume 3575.338257
_symmetry_space_group_name_H-M "A B M 2"
_symmetry_group_IT_number 39
_symmetry_cell_setting 'orthorhombic'
loop_
_space_group_symop_operation_xyz
x,y,z
-x,-y,z
-x,1/2+y,z
x,1/2-y,z
x,1/2+y,1/2+z
-x,1/2-y,1/2+z
-x,y,1/2+z
x,-y,1/2+z
loop_
_atom_site_type_symbol
_atom_site_label
_atom_site_fract_x
_atom_site_fract_y
_atom_site_fract_z
Si Si1 0.831441 0.331480 0.222210
Si Si2 0.437068 0.832904 0.715795
Si Si3 0.168559 0.331480 0.378386
Si Si4 0.067749 0.427508 0.873009
Si Si5 0.562932 0.167096 0.384802
Si Si6 0.686631 0.332491 0.886139
Si Si7 0.313370 0.167509 0.714457
Si Si8 0.067749 0.072492 0.227588
O O1 0.842011 0.250000 0.245187
O O2 0.879303 0.370116 0.333485
O O3 0.758414 0.353840 0.269753
O O4 0.844314 0.351456 0.050298
O O5 0.436337 0.750000 0.721969
O O6 0.441807 0.861148 0.550298
O O7 0.500000 0.862110 0.800298
O O8 0.370172 0.863206 0.783105
O O9 0.157990 0.250000 0.355410
O O10 0.241586 0.353841 0.330844
O O11 0.120697 0.370116 0.267112
O O12 0.089855 0.500000 0.800298
O O13 0.000000 0.403822 0.800298
O O14 0.060651 0.434744 0.050298
O O15 0.563663 0.250000 0.378628
O O16 0.629828 0.136794 0.317491
O O17 0.682497 0.250000 0.890760
O O18 0.674826 0.362391 0.050298
O O19 0.317503 0.250000 0.709836
#
# Coordination Sequence:
#
# PCOD8182248 Si02
#       8
#     8   8   8   8   8   8   8   8
#     4   9  18  33  52  74 101 131 162 198 242 291
#     4   9  15  21  31  49  76 112 153 193 231 275
#     4   9  18  33  52  74 101 131 162 198 242 291
#     4  11  22  37  56  75  98 127 161 200 242 289
#     4   9  15  21  31  49  76 112 153 193 231 275
#     4   8  14  25  40  58  84 118 152 188 232 279
#     4   8  14  25  40  58  84 118 152 188 232 279
#     4  11  22  37  56  75  98 127 161 200 242 289
#
# _framework density 17.900404000000002
#
# number of rings (size 3 to 8) (size 9 to 14) (size 15 to 20)
#    0.000    2.750    0.000    5.250    0.000    5.000 
#    0.000    2.500    0.000    0.000    0.000    0.000 
#    0.000    1.000    0.000   10.500    0.000   14.500 
#
# Total GULP energy -396639.667025 kJ/mol
# GULP energy per Si atom -12394.989595 kJ/mol
# Density = 1.785966 g / cm^3
# Si number density = 17.900404 Si / 1000 Ang^3
#
#
#
# Elastic Constant Matrix: (Units=GPa)
#
#
# Indices 1 2 3 4 5 6 
#
# 1 147.8802 42.1235 84.9527 0.0000 0.0000 0.0000
# 2 42.1235 28.0682 32.3878 0.0000 0.0000 0.0000
# 3 84.9527 32.3878 148.4487 0.0000 0.0000 0.0000
# 4 0.0000 0.0000 0.0000 17.4817 0.0000 0.0000
# 5 0.0000 0.0000 0.0000 0.0000 37.9087 0.0000
# 6 0.0000 0.0000 0.0000 0.0000 0.0000 -2.2101
#
#
#
# Elastic Compliance Matrix: (Units=1/GPa)
#
#
# Indices 1 2 3 4 5 6 
#
# 1 0.013742 -0.015435 -0.004497 0.000000 0.000000 0.000000
# 2 -0.015435 0.064950 -0.005338 0.000000 0.000000 0.000000
# 3 -0.004497 -0.005338 0.010474 0.000000 0.000000 0.000000
# 4 0.000000 0.000000 0.000000 0.057203 0.000000 0.000000
# 5 0.000000 0.000000 0.000000 0.000000 0.026379 0.000000
# 6 0.000000 0.000000 0.000000 0.000000 0.000000 -0.452472
#
#
# Mechanical properties :
#
#
# Convention : Reuss Voigt Hill
#
# Bulk Modulus (GPa) = 25.88768 71.48058 48.68413
# Shear Modulus (GPa) = -23.11504 21.63161 -0.74171
#
# Velocity S-wave (km/s) = -3.59738 3.48004 -0.64440
# Velocity P-wave (km/s) = 1.66176 7.49444 5.16746
#
# Compressibility (1/GPa) = 0.03862841
#
# Stress axis : x y z
#
# Youngs Moduli (GPa) = 72.76980 15.39636 95.47267
#
# Poissons Ratio (x) = 0.23764 0.42931
# Poissons Ratio (y) = 1.12318 0.50961
# Poissons Ratio (z) = 0.32722 0.08218
#
# Static dielectric constant tensor:
#      x y z
#    x 3.576230 0.000000 0.000000 
#    y 0.000000 2.700860 0.000000 
#    z 0.000000 0.000000 3.452930 
# 
# 
# High freq. dielectric constant tensor:
#      x y z
#    x 1.711280 0.000000 0.000000 
#    y 0.000000 1.624220 0.000000 
#    z 0.000000 0.000000 1.698250 
# 
# From -- ./inp_files/3851.got.cif
#   From: 2010.03.12/outbox.cif.g09.slc.cpg/sg39_2_cif.got.tgz:3851.got - 2010.04.14 02:53:20.
