data_PCOD8182411
_publ_section_title
;
Structure prediction by ZEFSAII (Michael W. Deem and Ramdas Pophale) SiO2 
 PCOD8182411
Probable space group: A M A 2
;
_chemical_formula_sum "Si O2"
_cell_formula_units_Z 64
_cell_length_a 22.912008
_cell_length_b 9.622212
_cell_length_c 15.011376
_cell_angle_alpha 90.000000
_cell_angle_beta 90.000000
_cell_angle_gamma 90.000000
_cell_volume 3309.470976
_symmetry_space_group_name_H-M "A M A 2"
_symmetry_group_IT_number 40
_symmetry_cell_setting 'orthorhombic'
loop_
_space_group_symop_operation_xyz
x,y,z
-x,-y,z
1/2-x,y,z
1/2+x,-y,z
x,1/2+y,1/2+z
-x,1/2-y,1/2+z
1/2-x,1/2+y,1/2+z
1/2+x,1/2-y,1/2+z
loop_
_atom_site_type_symbol
_atom_site_label
_atom_site_fract_x
_atom_site_fract_y
_atom_site_fract_z
Si Si1 0.024772 0.643882 0.960820
Si Si2 0.816582 0.510982 0.747291
Si Si3 0.859164 0.467163 0.937891
Si Si4 0.616911 0.790087 0.132007
Si Si5 0.316245 0.990314 0.625954
Si Si6 0.879454 0.798114 0.749705
Si Si7 0.088176 0.228817 0.939706
Si Si8 0.495636 0.655306 0.167520
O O1 0.092232 0.656308 0.928844
O O2 0.000000 0.500000 0.921794
O O3 0.982881 0.769904 0.927586
O O4 0.025761 0.641281 0.067109
O O5 0.750000 0.498003 0.714501
O O6 0.818938 0.466645 0.850865
O O7 0.858789 0.415823 0.689428
O O8 0.837297 0.668294 0.733995
O O9 0.893328 0.611084 0.951165
O O10 0.820812 0.444879 0.026668
O O11 0.664940 0.669563 0.128884
O O12 0.556691 0.736505 0.175744
O O13 0.605779 0.848179 0.031435
O O14 0.250000 0.001434 0.658513
O O15 0.356789 0.071499 0.694885
O O16 0.880366 0.839665 0.854784
O O17 0.945690 0.760292 0.721065
O O18 0.500000 0.500000 0.208586
#
# Coordination Sequence:
#
# PCOD8182411 Si02
#       8
#     8   8   8   8   8   8   8   8
#     4   8  13  28  52  82 111 139 177 230 280 334
#     4  11  24  39  54  83 122 153 192 240 286 342
#     4   9  17  33  55  83 108 146 192 237 279 335
#     4  10  21  39  60  83 114 155 193 234 288 346
#     4  11  20  36  61  84 108 152 201 236 278 341
#     4  11  21  36  60  88 116 149 190 243 295 334
#     4   8  18  32  56  82 113 148 189 227 285 356
#     4  10  17  34  61  89 114 139 187 246 289 337
#
# _framework density 19.338438
#
# number of rings (size 3 to 8) (size 9 to 14) (size 15 to 20)
#    0.000    2.250    2.500    2.625    1.750    0.500 
#    0.000    3.125    5.500    0.000    0.000    0.000 
#    0.000    0.000    0.000    0.000    0.000    0.000 
#
# Total GULP energy -396648.244708 kJ/mol
# GULP energy per Si atom -12395.257647 kJ/mol
# Density = 1.929442 g / cm^3
# Si number density = 19.338438 Si / 1000 Ang^3
#
#
#
# Elastic Constant Matrix: (Units=GPa)
#
#
# Indices 1 2 3 4 5 6 
#
# 1 100.7382 4.6087 11.0085 0.0000 0.0000 0.0000
# 2 4.6087 25.4253 14.1939 0.0000 0.0000 0.0000
# 3 11.0085 14.1939 72.4224 0.0000 0.0000 0.0000
# 4 0.0000 0.0000 0.0000 23.6176 0.0000 0.0000
# 5 0.0000 0.0000 0.0000 0.0000 24.4572 0.0000
# 6 0.0000 0.0000 0.0000 0.0000 0.0000 26.2106
#
#
#
# Elastic Compliance Matrix: (Units=1/GPa)
#
#
# Indices 1 2 3 4 5 6 
#
# 1 0.010122 -0.001096 -0.001324 0.000000 0.000000 0.000000
# 2 -0.001096 0.044281 -0.008512 0.000000 0.000000 0.000000
# 3 -0.001324 -0.008512 0.015677 0.000000 0.000000 0.000000
# 4 0.000000 0.000000 0.000000 0.042341 0.000000 0.000000
# 5 0.000000 0.000000 0.000000 0.000000 0.040888 0.000000
# 6 0.000000 0.000000 0.000000 0.000000 0.000000 0.038152
#
#
# Mechanical properties :
#
#
# Convention : Reuss Voigt Hill
#
# Bulk Modulus (GPa) = 20.73947 28.68980 24.71463
# Shear Modulus (GPa) = 21.79626 26.10874 23.95250
#
# Velocity S-wave (km/s) = 3.36087 3.67835 3.52319
# Velocity P-wave (km/s) = 5.08019 5.73657 5.41833
#
# Compressibility (1/GPa) = 0.04821725
#
# Stress axis : x y z
#
# Youngs Moduli (GPa) = 98.79952 22.58286 63.78623
#
# Poissons Ratio (x) = 0.02474 0.08444
# Poissons Ratio (y) = 0.10825 0.54295
# Poissons Ratio (z) = 0.13079 0.19223
#
# Static dielectric constant tensor:
#      x y z
#    x 3.592330 0.000000 0.000000 
#    y 0.000000 3.079090 0.000000 
#    z 0.000000 0.000000 3.553770 
# 
# 
# High freq. dielectric constant tensor:
#      x y z
#    x 1.761720 0.000000 0.000000 
#    y 0.000000 1.705270 0.000000 
#    z 0.000000 0.000000 1.752550 
# 
# From -- ./inp_files/18507.got.cif
#   From: 2010.03.12/outbox.cif.g09.slc.cpg/sg40_10_cif.got.tgz:18507.got - 2010.04.14 01:38:03.
