data_PCOD8182661
_publ_section_title
;
Structure prediction by ZEFSAII (Michael W. Deem and Ramdas Pophale) SiO2 
 PCOD8182661
Probable space group: A M A 2
;
_chemical_formula_sum "Si O2"
_cell_formula_units_Z 56
_cell_length_a 18.223515
_cell_length_b 9.337145
_cell_length_c 17.324256
_cell_angle_alpha 90.000000
_cell_angle_beta 90.000000
_cell_angle_gamma 90.000000
_cell_volume 2947.819208
_symmetry_space_group_name_H-M "A M A 2"
_symmetry_group_IT_number 40
_symmetry_cell_setting 'orthorhombic'
loop_
_space_group_symop_operation_xyz
x,y,z
-x,-y,z
1/2-x,y,z
1/2+x,-y,z
x,1/2+y,1/2+z
-x,1/2-y,1/2+z
1/2-x,1/2+y,1/2+z
1/2+x,1/2-y,1/2+z
loop_
_atom_site_type_symbol
_atom_site_label
_atom_site_fract_x
_atom_site_fract_y
_atom_site_fract_z
Si Si1 0.914205 0.488422 0.104750
Si Si2 0.165326 0.521791 0.689664
Si Si3 0.664439 0.709194 0.891439
Si Si4 0.666819 0.267687 0.560590
Si Si5 0.044515 0.149016 0.287271
Si Si6 0.421975 0.561089 0.939735
Si Si7 0.402174 0.725372 0.235342
O O1 0.882692 0.648427 0.101620
O O2 0.881860 0.404903 0.178756
O O3 0.000000 0.500000 0.116992
O O4 0.889490 0.403018 0.025035
O O5 0.250000 0.518740 0.717240
O O6 0.158178 0.578876 0.601962
O O7 0.120075 0.635531 0.740846
O O8 0.129834 0.366308 0.694312
O O9 0.750000 0.685892 0.879718
O O10 0.627322 0.553289 0.892858
O O11 0.634230 0.799833 0.819044
O O12 0.644937 0.791241 0.970966
O O13 0.750000 0.211145 0.566047
O O14 0.065871 0.189343 0.377135
O O15 0.990670 0.264646 0.247782
O O16 0.000000 0.000000 0.291544
O O17 0.500000 0.500000 0.964742
#
# Coordination Sequence:
#
# PCOD8182661 Si02
#       7
#     8   8   8   8   8   8   8
#     4  10  21  34  55  80 108 140 175 222 269 314
#     4  10  19  33  56  81 104 137 177 218 261 314
#     4  10  18  31  53  77 103 142 183 214 257 322
#     4   9  20  36  54  76 108 145 179 212 266 328
#     4   9  16  29  49  77 105 129 167 217 259 300
#     4   9  15  31  52  74 101 135 175 216 256 305
#     4  11  20  32  55  83 107 133 180 228 262 304
#
# _framework density 18.997093
#
# number of rings (size 3 to 8) (size 9 to 14) (size 15 to 20)
#    0.000    2.286    4.286    1.286    0.000    1.143 
#    0.000    0.000    6.286    0.000    0.000    0.000 
#    0.000    0.000    0.000    0.000    0.000    0.000 
#
# Total GULP energy -346894.129017 kJ/mol
# GULP energy per Si atom -12389.076036 kJ/mol
# Density = 1.895386 g / cm^3
# Si number density = 18.997093 Si / 1000 Ang^3
#
#
#
# Elastic Constant Matrix: (Units=GPa)
#
#
# Indices 1 2 3 4 5 6 
#
# 1 84.7697 14.1192 32.8553 0.0000 0.0000 0.0000
# 2 14.1192 38.4469 45.1406 0.0000 0.0000 0.0000
# 3 32.8553 45.1406 151.4691 0.0000 0.0000 0.0000
# 4 0.0000 0.0000 0.0000 -70.6617 0.0000 0.0000
# 5 0.0000 0.0000 0.0000 0.0000 103.7805 0.0000
# 6 0.0000 0.0000 0.0000 0.0000 0.0000 13.2964
#
#
#
# Elastic Compliance Matrix: (Units=1/GPa)
#
#
# Indices 1 2 3 4 5 6 
#
# 1 0.013005 -0.002252 -0.002150 0.000000 0.000000 0.000000
# 2 -0.002252 0.040399 -0.011551 0.000000 0.000000 0.000000
# 3 -0.002150 -0.011551 0.010511 0.000000 0.000000 0.000000
# 4 0.000000 0.000000 0.000000 -0.014152 0.000000 0.000000
# 5 0.000000 0.000000 0.000000 0.000000 0.009636 0.000000
# 6 0.000000 0.000000 0.000000 0.000000 0.000000 0.075209
#
#
# Mechanical properties :
#
#
# Convention : Reuss Voigt Hill
#
# Bulk Modulus (GPa) = 31.24104 50.99067 41.11586
# Shear Modulus (GPa) = 28.21941 21.45440 24.83691
#
# Velocity S-wave (km/s) = 3.85835 3.36423 3.61973
# Velocity P-wave (km/s) = 6.02744 6.47999 6.25781
#
# Compressibility (1/GPa) = 0.03200918
#
# Stress axis : x y z
#
# Youngs Moduli (GPa) = 76.89364 24.75294 95.14003
#
# Poissons Ratio (x) = 0.05574 0.20454
# Poissons Ratio (y) = 0.17315 1.09899
# Poissons Ratio (z) = 0.16531 0.28593
#
# Static dielectric constant tensor:
#      x y z
#    x 2.529860 0.000000 0.000000 
#    y 0.000000 2.930400 0.000000 
#    z 0.000000 0.000000 3.910590 
# 
# 
# High freq. dielectric constant tensor:
#      x y z
#    x 1.746020 0.000000 0.000000 
#    y 0.000000 1.669240 0.000000 
#    z 0.000000 0.000000 1.763520 
# 
# From -- ./inp_files/21157.got.cif
#   From: 2010.03.12/outbox.cif.g09.slc.cpg/sg40_11_cif.got.tgz:21157.got - 2010.04.14 01:38:03.
