data_PCOD8182757
_publ_section_title
;
Structure prediction by ZEFSAII (Michael W. Deem and Ramdas Pophale) SiO2 
 PCOD8182757
Probable space group: A M A 2
;
_chemical_formula_sum "Si O2"
_cell_formula_units_Z 56
_cell_length_a 14.181548
_cell_length_b 12.288633
_cell_length_c 15.122013
_cell_angle_alpha 90.000000
_cell_angle_beta 90.000000
_cell_angle_gamma 90.000000
_cell_volume 2635.341011
_symmetry_space_group_name_H-M "A M A 2"
_symmetry_group_IT_number 40
_symmetry_cell_setting 'orthorhombic'
loop_
_space_group_symop_operation_xyz
x,y,z
-x,-y,z
1/2-x,y,z
1/2+x,-y,z
x,1/2+y,1/2+z
-x,1/2-y,1/2+z
1/2-x,1/2+y,1/2+z
1/2+x,1/2-y,1/2+z
loop_
_atom_site_type_symbol
_atom_site_label
_atom_site_fract_x
_atom_site_fract_y
_atom_site_fract_z
Si Si1 0.446230 0.333855 0.224300
Si Si2 0.138484 0.100040 0.237755
Si Si3 0.862163 0.171846 0.542992
Si Si4 0.360120 0.415532 0.863023
Si Si5 0.852938 0.805927 0.763988
Si Si6 0.139360 0.083546 0.041947
Si Si7 0.145075 0.980311 0.870022
O O1 0.412207 0.214362 0.250581
O O2 0.395723 0.378666 0.136340
O O3 0.558389 0.335458 0.201617
O O4 0.424748 0.411578 0.307969
O O5 0.250000 0.120037 0.246169
O O6 0.116245 0.045354 0.141991
O O7 0.096109 0.019657 0.312489
O O8 0.750000 0.173909 0.544132
O O9 0.901014 0.097502 0.462476
O O10 0.902581 0.294285 0.531161
O O11 0.250000 0.436850 0.869367
O O12 0.380032 0.307397 0.808388
O O13 0.750000 0.798831 0.714396
O O14 0.845084 0.895642 0.839413
O O15 0.250000 0.090585 0.024797
O O16 0.101877 0.994193 0.970055
O O17 0.250000 0.925841 0.869332
#
# Coordination Sequence:
#
# PCOD8182757 Si02
#       7
#     8   8   8   8   8   8   8
#     4  11  21  33  57  90 119 146 193 249 292 332
#     4   9  18  33  58  91 122 151 188 235 289 342
#     4   9  16  32  59  89 115 154 201 231 271 349
#     4   9  17  34  61  84 114 158 196 230 277 345
#     4  10  21  37  58  81 111 156 201 235 283 344
#     4   8  14  28  54  86 115 149 190 228 274 343
#     4  10  18  33  59  87 117 148 187 239 290 343
#
# _framework density 21.249621000000001
#
# number of rings (size 3 to 8) (size 9 to 14) (size 15 to 20)
#    0.000    2.571    1.429    2.571    0.000    0.571 
#    0.000    1.429   12.571    0.000    0.000    1.000 
#    0.000    0.000    0.000    0.000    0.000    0.000 
#
# Total GULP energy -346910.502055 kJ/mol
# GULP energy per Si atom -12389.660788 kJ/mol
# Density = 2.120126 g / cm^3
# Si number density = 21.249621 Si / 1000 Ang^3
#
#
#
# Elastic Constant Matrix: (Units=GPa)
#
#
# Indices 1 2 3 4 5 6 
#
# 1 72.8395 17.5397 24.9562 0.0000 0.0000 0.0000
# 2 17.5397 83.7592 57.5081 0.0000 0.0000 0.0000
# 3 24.9562 57.5081 149.1635 0.0000 0.0000 0.0000
# 4 0.0000 0.0000 0.0000 35.1046 0.0000 0.0000
# 5 0.0000 0.0000 0.0000 0.0000 8.7301 0.0000
# 6 0.0000 0.0000 0.0000 0.0000 0.0000 9.2710
#
#
#
# Elastic Compliance Matrix: (Units=1/GPa)
#
#
# Indices 1 2 3 4 5 6 
#
# 1 0.014783 -0.001901 -0.001741 0.000000 0.000000 0.000000
# 2 -0.001901 0.016481 -0.006036 0.000000 0.000000 0.000000
# 3 -0.001741 -0.006036 0.009322 0.000000 0.000000 0.000000
# 4 0.000000 0.000000 0.000000 0.028486 0.000000 0.000000
# 5 0.000000 0.000000 0.000000 0.000000 0.114547 0.000000
# 6 0.000000 0.000000 0.000000 0.000000 0.000000 0.107863
#
#
# Mechanical properties :
#
#
# Convention : Reuss Voigt Hill
#
# Bulk Modulus (GPa) = 47.09875 56.19668 51.64772
# Shear Modulus (GPa) = 15.72749 24.33834 20.03291
#
# Velocity S-wave (km/s) = 2.72348 3.38798 3.07374
# Velocity P-wave (km/s) = 5.66590 6.46590 6.07908
#
# Compressibility (1/GPa) = 0.02123198
#
# Stress axis : x y z
#
# Youngs Moduli (GPa) = 67.64611 60.67455 107.26807
#
# Poissons Ratio (x) = 0.11532 0.18670
# Poissons Ratio (y) = 0.12857 0.64749
# Poissons Ratio (z) = 0.11774 0.36624
#
# Static dielectric constant tensor:
#      x y z
#    x 3.765000 0.000000 0.000000 
#    y 0.000000 3.733300 0.000000 
#    z 0.000000 0.000000 3.993920 
# 
# 
# High freq. dielectric constant tensor:
#      x y z
#    x 1.822660 0.000000 0.000000 
#    y 0.000000 1.815180 0.000000 
#    z 0.000000 0.000000 1.820200 
# 
# From -- ./inp_files/17058.got.cif
#   From: 2010.03.12/outbox.cif.g09.slc.cpg/sg40_9_cif.got.tgz:17058.got - 2010.04.14 01:38:03.
