data_PCOD8182547
_publ_section_title
;
Structure prediction by ZEFSAII (Michael W. Deem and Ramdas Pophale) SiO2 
 PCOD8182547
Probable space group: A M A 2
;
_chemical_formula_sum "Si O2"
_cell_formula_units_Z 48
_cell_length_a 8.752048
_cell_length_b 23.942697
_cell_length_c 13.770102
_cell_angle_alpha 90.000000
_cell_angle_beta 90.000000
_cell_angle_gamma 90.000000
_cell_volume 2885.492286
_symmetry_space_group_name_H-M "A M A 2"
_symmetry_group_IT_number 40
_symmetry_cell_setting 'orthorhombic'
loop_
_space_group_symop_operation_xyz
x,y,z
-x,-y,z
1/2-x,y,z
1/2+x,-y,z
x,1/2+y,1/2+z
-x,1/2-y,1/2+z
1/2-x,1/2+y,1/2+z
1/2+x,1/2-y,1/2+z
loop_
_atom_site_type_symbol
_atom_site_label
_atom_site_fract_x
_atom_site_fract_y
_atom_site_fract_z
Si Si1 0.931351 0.336646 0.009810
Si Si2 0.429806 0.829847 0.929051
Si Si3 0.568915 0.723440 0.835691
Si Si4 0.928761 0.728509 0.619957
Si Si5 0.430609 0.441940 0.110399
Si Si6 0.429363 0.942703 0.831366
O O1 0.750000 0.341503 0.012184
O O2 0.994451 0.287297 0.079771
O O3 0.005075 0.394236 0.041661
O O4 0.984789 0.322751 0.900730
O O5 0.250000 0.820479 0.908502
O O6 0.523988 0.786084 0.865343
O O7 0.483809 0.891713 0.899256
O O8 0.467351 0.820721 0.043184
O O9 0.750000 0.715639 0.844636
O O10 0.506232 0.713751 0.725945
O O11 0.750000 0.736888 0.630234
O O12 0.500000 0.500000 0.072872
O O13 0.250000 0.444032 0.101392
O O14 0.484066 0.430923 0.221247
O O15 0.250000 0.949801 0.835289
O O16 0.500000 0.000000 0.872102
#
# Coordination Sequence:
#
# PCOD8182547 Si02
#       6
#     8   8   8   8   8   8
#     4  10  19  32  48  68  94 124 153 188 230 273
#     4   9  17  31  47  66  92 123 153 187 230 274
#     4  10  18  29  46  69  92 119 153 189 227 274
#     4   8  16  29  46  66  91 121 152 184 227 273
#     4  10  19  31  47  70  95 122 153 188 228 273
#     4   9  18  30  47  69  95 123 153 188 229 273
#
# _framework density 16.634941999999999
#
# number of rings (size 3 to 8) (size 9 to 14) (size 15 to 20)
#    0.000    2.667    0.000    3.500    0.000    1.333 
#    0.000    7.500    0.000    1.000    0.000    2.333 
#    0.000    0.000    0.000    0.000    0.000    0.000 
#
# Total GULP energy -297557.010660 kJ/mol
# GULP energy per Si atom -12398.208777 kJ/mol
# Density = 1.659708 g / cm^3
# Si number density = 16.634942 Si / 1000 Ang^3
#
#
#
# Elastic Constant Matrix: (Units=GPa)
#
#
# Indices 1 2 3 4 5 6 
#
# 1 46.2083 32.8460 26.2733 0.0000 0.0000 0.0000
# 2 32.8460 143.1617 72.9614 0.0000 0.0000 0.0000
# 3 26.2733 72.9614 126.3407 0.0000 0.0000 0.0000
# 4 0.0000 0.0000 0.0000 260.7831 0.0000 0.0000
# 5 0.0000 0.0000 0.0000 0.0000 20.5368 0.0000
# 6 0.0000 0.0000 0.0000 0.0000 0.0000 28.6777
#
#
#
# Elastic Compliance Matrix: (Units=1/GPa)
#
#
# Indices 1 2 3 4 5 6 
#
# 1 0.026558 -0.004646 -0.002840 0.000000 0.000000 0.000000
# 2 -0.004646 0.010711 -0.005219 0.000000 0.000000 0.000000
# 3 -0.002840 -0.005219 0.011520 0.000000 0.000000 0.000000
# 4 0.000000 0.000000 0.000000 0.003835 0.000000 0.000000
# 5 0.000000 0.000000 0.000000 0.000000 0.048693 0.000000
# 6 0.000000 0.000000 0.000000 0.000000 0.000000 0.034870
#
#
# Mechanical properties :
#
#
# Convention : Reuss Voigt Hill
#
# Bulk Modulus (GPa) = 42.77418 64.43022 53.60220
# Shear Modulus (GPa) = 29.51750 74.24151 51.87950
#
# Velocity S-wave (km/s) = 4.21697 6.68781 5.59060
# Velocity P-wave (km/s) = 7.03418 9.92228 8.60033
#
# Compressibility (1/GPa) = 0.02337859
#
# Stress axis : x y z
#
# Youngs Moduli (GPa) = 37.65294 93.36075 86.80619
#
# Poissons Ratio (x) = 0.43376 0.24652
# Poissons Ratio (y) = 0.17494 0.45308
# Poissons Ratio (z) = 0.10693 0.48729
#
# Static dielectric constant tensor:
#      x y z
#    x 3.022010 0.000000 0.000000 
#    y 0.000000 2.876220 0.000000 
#    z 0.000000 0.000000 3.339810 
# 
# 
# High freq. dielectric constant tensor:
#      x y z
#    x 1.635730 0.000000 0.000000 
#    y 0.000000 1.631960 0.000000 
#    z 0.000000 0.000000 1.633060 
# 
# From -- ./inp_files/10262.got.cif
#   From: 2010.03.12/outbox.cif.g09.slc.cpg/sg40_6_cif.got.tgz:10262.got - 2010.04.14 01:38:03.
