data_PCOD8182845
_publ_section_title
;
Structure prediction by ZEFSAII (Michael W. Deem and Ramdas Pophale) SiO2 
 PCOD8182845
Probable space group: A M A 2
;
_chemical_formula_sum "Si O2"
_cell_formula_units_Z 64
_cell_length_a 8.772114
_cell_length_b 26.366618
_cell_length_c 18.135941
_cell_angle_alpha 90.000000
_cell_angle_beta 90.000000
_cell_angle_gamma 90.000000
_cell_volume 4194.679547
_symmetry_space_group_name_H-M "A M A 2"
_symmetry_group_IT_number 40
_symmetry_cell_setting 'orthorhombic'
loop_
_space_group_symop_operation_xyz
x,y,z
-x,-y,z
1/2-x,y,z
1/2+x,-y,z
x,1/2+y,1/2+z
-x,1/2-y,1/2+z
1/2-x,1/2+y,1/2+z
1/2+x,1/2-y,1/2+z
loop_
_atom_site_type_symbol
_atom_site_label
_atom_site_fract_x
_atom_site_fract_y
_atom_site_fract_z
Si Si1 0.081163 0.797529 0.736470
Si Si2 0.074553 0.255748 0.860437
Si Si3 0.420387 0.696825 0.640545
Si Si4 0.430470 0.053447 0.353103
Si Si5 0.071649 0.745426 0.016227
Si Si6 0.070949 0.947580 0.509483
Si Si7 0.927403 0.643733 0.768587
Si Si8 0.572150 0.151809 0.594145
O O1 0.250000 0.807829 0.768989
O O2 0.084209 0.748519 0.685341
O O3 0.029357 0.842886 0.681210
O O4 0.963863 0.789905 0.803490
O O5 0.250000 0.251953 0.883548
O O6 0.036659 0.309390 0.822680
O O7 0.969634 0.248850 0.930991
O O8 0.250000 0.675079 0.629558
O O9 0.493438 0.708646 0.561111
O O10 0.521521 0.656242 0.685201
O O11 0.250000 0.048689 0.358308
O O12 0.496562 0.069133 0.432499
O O13 0.475649 0.095790 0.294302
O O14 0.500000 0.000000 0.327099
O O15 0.250000 0.750901 0.027282
O O16 0.021757 0.690062 0.043364
O O17 0.250000 0.954458 0.496534
O O18 0.033558 0.905270 0.570331
O O19 0.000000 0.000000 0.538643
O O20 0.750000 0.630098 0.769196
O O21 0.750000 0.164728 0.582078
#
# Coordination Sequence:
#
# PCOD8182845 Si02
#       8
#     8   8   8   8   8   8   8   8
#     4   8  15  28  43  59  80 107 139 173 208 248
#     4  10  19  29  42  61  86 114 142 174 211 251
#     4   9  17  30  45  61  84 112 141 174 212 253
#     4  11  21  32  45  62  85 114 147 183 220 254
#     4  11  20  28  42  63  86 113 145 178 210 249
#     4  10  19  31  45  62  85 113 145 182 220 255
#     4  10  19  31  46  64  86 113 146 180 215 256
#     4   9  18  31  45  60  83 114 144 176 215 256
#
# _framework density 15.257422999999999
#
# number of rings (size 3 to 8) (size 9 to 14) (size 15 to 20)
#    0.000    2.250    0.000    6.000    0.000    8.500 
#    0.000    0.000    0.000    0.000    0.000    0.000 
#    0.000    1.000    0.000    8.500    0.000    4.750 
#
# Total GULP energy -396779.355962 kJ/mol
# GULP energy per Si atom -12399.354874 kJ/mol
# Density = 1.522270 g / cm^3
# Si number density = 15.257423 Si / 1000 Ang^3
#
#
#
# Elastic Constant Matrix: (Units=GPa)
#
#
# Indices 1 2 3 4 5 6 
#
# 1 90.7971 32.7717 36.6322 0.0000 0.0000 0.0000
# 2 32.7717 73.1376 41.7235 0.0000 0.0000 0.0000
# 3 36.6322 41.7235 77.1058 0.0000 0.0000 0.0000
# 4 0.0000 0.0000 0.0000 26.3467 0.0000 0.0000
# 5 0.0000 0.0000 0.0000 0.0000 25.6106 0.0000
# 6 0.0000 0.0000 0.0000 0.0000 0.0000 19.8800
#
#
#
# Elastic Compliance Matrix: (Units=1/GPa)
#
#
# Indices 1 2 3 4 5 6 
#
# 1 0.014270 -0.003655 -0.004802 0.000000 0.000000 0.000000
# 2 -0.003655 0.020714 -0.009473 0.000000 0.000000 0.000000
# 3 -0.004802 -0.009473 0.020376 0.000000 0.000000 0.000000
# 4 0.000000 0.000000 0.000000 0.037955 0.000000 0.000000
# 5 0.000000 0.000000 0.000000 0.000000 0.039046 0.000000
# 6 0.000000 0.000000 0.000000 0.000000 0.000000 0.050302
#
#
# Mechanical properties :
#
#
# Convention : Reuss Voigt Hill
#
# Bulk Modulus (GPa) = 51.27622 51.47725 51.37674
# Shear Modulus (GPa) = 22.21988 23.02834 22.62411
#
# Velocity S-wave (km/s) = 3.82033 3.88921 3.85493
# Velocity P-wave (km/s) = 7.28974 7.34713 7.31849
#
# Compressibility (1/GPa) = 0.01950222
#
# Stress axis : x y z
#
# Youngs Moduli (GPa) = 70.07692 48.27548 49.07647
#
# Poissons Ratio (x) = 0.17644 0.23566
# Poissons Ratio (y) = 0.25612 0.46488
# Poissons Ratio (z) = 0.33650 0.45730
#
# Static dielectric constant tensor:
#      x y z
#    x 3.050560 0.000000 0.000000 
#    y 0.000000 2.819830 0.000000 
#    z 0.000000 0.000000 2.965440 
# 
# 
# High freq. dielectric constant tensor:
#      x y z
#    x 1.601040 0.000000 0.000000 
#    y 0.000000 1.550800 0.000000 
#    z 0.000000 0.000000 1.571970 
# 
# From -- ./inp_files/19764.got.cif
#   From: 2010.03.12/outbox.cif.g09.slc.cpg/sg40_10_cif.got.tgz:19764.got - 2010.04.14 01:38:03.
