data_PCOD8182634
_publ_section_title
;
Structure prediction by ZEFSAII (Michael W. Deem and Ramdas Pophale) SiO2 
 PCOD8182634
Probable space group: A M A 2
;
_chemical_formula_sum "Si O2"
_cell_formula_units_Z 48
_cell_length_a 8.540479
_cell_length_b 13.764614
_cell_length_c 23.889445
_cell_angle_alpha 90.000000
_cell_angle_beta 90.000000
_cell_angle_gamma 90.000000
_cell_volume 2808.357076
_symmetry_space_group_name_H-M "A M A 2"
_symmetry_group_IT_number 40
_symmetry_cell_setting 'orthorhombic'
loop_
_space_group_symop_operation_xyz
x,y,z
-x,-y,z
1/2-x,y,z
1/2+x,-y,z
x,1/2+y,1/2+z
-x,1/2-y,1/2+z
1/2-x,1/2+y,1/2+z
1/2+x,1/2-y,1/2+z
loop_
_atom_site_type_symbol
_atom_site_label
_atom_site_fract_x
_atom_site_fract_y
_atom_site_fract_z
Si Si1 0.435471 0.893053 0.529830
Si Si2 0.435078 0.210866 0.425007
Si Si3 0.563210 0.894092 0.648558
Si Si4 0.935607 0.895143 0.868566
Si Si5 0.065055 0.208739 0.758579
Si Si6 0.435239 0.396670 0.820566
O O1 0.250000 0.895617 0.526203
O O2 0.504693 0.817387 0.486047
O O3 0.489577 0.856359 0.590847
O O4 0.500000 0.000000 0.517259
O O5 0.250000 0.211005 0.423525
O O6 0.499005 0.318201 0.412976
O O7 0.496981 0.131897 0.380801
O O8 0.750000 0.897110 0.643371
O O9 0.502245 0.822459 0.697745
O O10 0.500000 0.000000 0.663720
O O11 0.750000 0.894386 0.872026
O O12 0.996080 0.864996 0.806592
O O13 0.000000 0.000000 0.884713
O O14 0.250000 0.203464 0.758128
O O15 0.010407 0.317953 0.773986
O O16 0.500000 0.500000 0.800838
O O17 0.250000 0.400183 0.826204
#
# Coordination Sequence:
#
# PCOD8182634 Si02
#       6
#     8   8   8   8   8   8
#     4  11  21  34  50  72  99 129 162 202 246 295
#     4  11  21  34  51  73  98 130 165 203 246 291
#     4  10  18  31  49  72  98 128 161 198 241 289
#     4  10  19  33  51  75 103 133 164 200 241 288
#     4   8  17  31  49  71 100 131 162 198 240 285
#     4  10  19  33  50  73 101 131 163 201 244 292
#
# _framework density 17.091843999999998
#
# number of rings (size 3 to 8) (size 9 to 14) (size 15 to 20)
#    0.000    2.000    0.000    7.500    0.000    0.000 
#    0.000    9.167    0.000    1.000    0.000    4.667 
#    0.000    0.000    0.000    0.000    0.000    0.000 
#
# Total GULP energy -297609.990706 kJ/mol
# GULP energy per Si atom -12400.416279 kJ/mol
# Density = 1.705294 g / cm^3
# Si number density = 17.091844 Si / 1000 Ang^3
#
#
#
# Elastic Constant Matrix: (Units=GPa)
#
#
# Indices 1 2 3 4 5 6 
#
# 1 106.5599 44.0039 32.8528 0.0000 0.0000 0.0000
# 2 44.0039 131.8766 80.8546 0.0000 0.0000 0.0000
# 3 32.8528 80.8546 123.6728 0.0000 0.0000 0.0000
# 4 0.0000 0.0000 0.0000 28.7140 0.0000 0.0000
# 5 0.0000 0.0000 0.0000 0.0000 19.6883 0.0000
# 6 0.0000 0.0000 0.0000 0.0000 0.0000 28.1805
#
#
#
# Elastic Compliance Matrix: (Units=1/GPa)
#
#
# Indices 1 2 3 4 5 6 
#
# 1 0.010940 -0.003119 -0.000867 0.000000 0.000000 0.000000
# 2 -0.003119 0.013545 -0.008027 0.000000 0.000000 0.000000
# 3 -0.000867 -0.008027 0.013564 0.000000 0.000000 0.000000
# 4 0.000000 0.000000 0.000000 0.034826 0.000000 0.000000
# 5 0.000000 0.000000 0.000000 0.000000 0.050791 0.000000
# 6 0.000000 0.000000 0.000000 0.000000 0.000000 0.035485
#
#
# Mechanical properties :
#
#
# Convention : Reuss Voigt Hill
#
# Bulk Modulus (GPa) = 71.31075 75.28134 73.29605
# Shear Modulus (GPa) = 26.61684 28.94311 27.77998
#
# Velocity S-wave (km/s) = 3.95052 4.11954 4.03592
# Velocity P-wave (km/s) = 7.91338 8.17119 8.04332
#
# Compressibility (1/GPa) = 0.01402313
#
# Stress axis : x y z
#
# Youngs Moduli (GPa) = 91.41133 73.82922 73.72470
#
# Poissons Ratio (x) = 0.23024 0.06393
# Poissons Ratio (y) = 0.28508 0.59178
# Poissons Ratio (z) = 0.07927 0.59262
#
# Static dielectric constant tensor:
#      x y z
#    x 3.224100 0.000000 0.000000 
#    y 0.000000 3.195640 0.000000 
#    z 0.000000 0.000000 3.400360 
# 
# 
# High freq. dielectric constant tensor:
#      x y z
#    x 1.668930 0.000000 0.000000 
#    y 0.000000 1.650920 0.000000 
#    z 0.000000 0.000000 1.653130 
# 
# From -- ./inp_files/22004.got.cif
#   From: 2010.03.12/outbox.cif.g09.slc.cpg/sg40_12_cif.got.tgz:22004.got - 2010.04.14 01:38:03.
