data_PCOD8182779
_publ_section_title
;
Structure prediction by ZEFSAII (Michael W. Deem and Ramdas Pophale) SiO2 
 PCOD8182779
Probable space group: A M A 2
;
_chemical_formula_sum "Si O2"
_cell_formula_units_Z 64
_cell_length_a 8.903216
_cell_length_b 23.905781
_cell_length_c 15.457096
_cell_angle_alpha 90.000000
_cell_angle_beta 90.000000
_cell_angle_gamma 90.000000
_cell_volume 3289.862529
_symmetry_space_group_name_H-M "A M A 2"
_symmetry_group_IT_number 40
_symmetry_cell_setting 'orthorhombic'
loop_
_space_group_symop_operation_xyz
x,y,z
-x,-y,z
1/2-x,y,z
1/2+x,-y,z
x,1/2+y,1/2+z
-x,1/2-y,1/2+z
1/2-x,1/2+y,1/2+z
1/2+x,1/2-y,1/2+z
loop_
_atom_site_type_symbol
_atom_site_label
_atom_site_fract_x
_atom_site_fract_y
_atom_site_fract_z
Si Si1 0.071747 0.060072 0.118220
Si Si2 0.425127 0.632242 0.781483
Si Si3 0.927795 0.749209 0.021923
Si Si4 0.927585 0.560247 0.121256
Si Si5 0.073923 0.633399 0.461375
Si Si6 0.574741 0.366562 0.267494
Si Si7 0.072060 0.868601 0.457507
Si Si8 0.074502 0.754892 0.720633
O O1 0.250000 0.054266 0.115756
O O2 0.018089 0.097214 0.199252
O O3 0.009028 0.089210 0.030653
O O4 0.000000 0.000000 0.127427
O O5 0.250000 0.622906 0.794917
O O6 0.508125 0.609567 0.866715
O O7 0.463882 0.697164 0.768014
O O8 0.750000 0.747819 0.013312
O O9 0.975226 0.750200 0.121584
O O10 0.996277 0.804625 0.976605
O O11 0.993864 0.693294 0.977494
O O12 0.750000 0.554283 0.124579
O O13 0.000000 0.500000 0.128018
O O14 0.977448 0.597086 0.202427
O O15 0.982062 0.589665 0.033069
O O16 0.250000 0.639279 0.478828
O O17 0.040415 0.611778 0.364740
O O18 0.750000 0.372179 0.244895
O O19 0.526488 0.302007 0.264933
O O20 0.250000 0.867808 0.453047
O O21 0.250000 0.770480 0.728189
#
# Coordination Sequence:
#
# PCOD8182779 Si02
#       8
#     8   8   8   8   8   8   8   8
#     4  10  21  39  59  80 109 149 193 235 281 336
#     4  10  21  36  59  86 115 151 190 235 285 341
#     4   9  15  31  58  83 110 148 186 223 276 343
#     4  11  24  43  63  83 112 154 198 242 292 344
#     4   9  18  34  58  84 112 149 190 228 279 343
#     4  11  22  36  59  90 120 151 189 237 286 342
#     4  10  21  37  60  85 113 149 186 231 288 347
#     4  10  18  34  59  85 116 154 190 229 285 347
#
# _framework density 19.453699
#
# number of rings (size 3 to 8) (size 9 to 14) (size 15 to 20)
#    0.000    2.000    2.500    1.500    0.000    4.000 
#    0.000    5.000    0.000    1.500    0.000    0.000 
#    0.000    0.000    0.000    0.000    0.000    0.000 
#
# Total GULP energy -396831.272278 kJ/mol
# GULP energy per Si atom -12400.977259 kJ/mol
# Density = 1.940942 g / cm^3
# Si number density = 19.453699 Si / 1000 Ang^3
#
#
#
# Elastic Constant Matrix: (Units=GPa)
#
#
# Indices 1 2 3 4 5 6 
#
# 1 32.3772 29.7373 33.8967 0.0000 0.0000 0.0000
# 2 29.7373 121.4638 54.1607 0.0000 0.0000 0.0000
# 3 33.8967 54.1607 141.1955 0.0000 0.0000 0.0000
# 4 0.0000 0.0000 0.0000 11.3354 0.0000 0.0000
# 5 0.0000 0.0000 0.0000 0.0000 24.4417 0.0000
# 6 0.0000 0.0000 0.0000 0.0000 0.0000 28.4883
#
#
#
# Elastic Compliance Matrix: (Units=1/GPa)
#
#
# Indices 1 2 3 4 5 6 
#
# 1 0.046602 -0.007746 -0.008217 0.000000 0.000000 0.000000
# 2 -0.007746 0.011219 -0.002444 0.000000 0.000000 0.000000
# 3 -0.008217 -0.002444 0.009992 0.000000 0.000000 0.000000
# 4 0.000000 0.000000 0.000000 0.088219 0.000000 0.000000
# 5 0.000000 0.000000 0.000000 0.000000 0.040914 0.000000
# 6 0.000000 0.000000 0.000000 0.000000 0.000000 0.035102
#
#
# Mechanical properties :
#
#
# Convention : Reuss Voigt Hill
#
# Bulk Modulus (GPa) = 32.25681 58.95844 45.60762
# Shear Modulus (GPa) = 17.90864 24.66920 21.28892
#
# Velocity S-wave (km/s) = 3.03739 3.56490 3.31167
# Velocity P-wave (km/s) = 5.37758 6.87877 6.17397
#
# Compressibility (1/GPa) = 0.03100121
#
# Stress axis : x y z
#
# Youngs Moduli (GPa) = 21.45821 89.13473 100.07583
#
# Poissons Ratio (x) = 0.69040 0.82229
# Poissons Ratio (y) = 0.16621 0.24458
# Poissons Ratio (z) = 0.17632 0.21784
#
# Static dielectric constant tensor:
#      x y z
#    x 3.183850 0.000000 0.000000 
#    y 0.000000 3.645110 0.000000 
#    z 0.000000 0.000000 3.712530 
# 
# 
# High freq. dielectric constant tensor:
#      x y z
#    x 1.724920 0.000000 0.000000 
#    y 0.000000 1.759450 0.000000 
#    z 0.000000 0.000000 1.773830 
# 
# From -- ./inp_files/15582.got.cif
#   From: 2010.03.12/outbox.cif.g09.slc.cpg/sg40_8_cif.got.tgz:15582.got - 2010.04.14 01:38:03.
