data_PCOD8182741
_publ_section_title
;
Structure prediction by ZEFSAII (Michael W. Deem and Ramdas Pophale) SiO2 
 PCOD8182741
Probable space group: A M A 2
;
_chemical_formula_sum "Si O2"
_cell_formula_units_Z 64
_cell_length_a 9.138978
_cell_length_b 19.820613
_cell_length_c 20.505583
_cell_angle_alpha 90.000000
_cell_angle_beta 90.000000
_cell_angle_gamma 90.000000
_cell_volume 3714.384302
_symmetry_space_group_name_H-M "A M A 2"
_symmetry_group_IT_number 40
_symmetry_cell_setting 'orthorhombic'
loop_
_space_group_symop_operation_xyz
x,y,z
-x,-y,z
1/2-x,y,z
1/2+x,-y,z
x,1/2+y,1/2+z
-x,1/2-y,1/2+z
1/2-x,1/2+y,1/2+z
1/2+x,1/2-y,1/2+z
loop_
_atom_site_type_symbol
_atom_site_label
_atom_site_fract_x
_atom_site_fract_y
_atom_site_fract_z
Si Si1 0.921663 0.566074 0.762890
Si Si2 0.420195 0.567650 0.522648
Si Si3 0.075758 0.708864 0.328059
Si Si4 0.582199 0.934167 0.869071
Si Si5 0.919360 0.065389 0.413099
Si Si6 0.077792 0.298267 0.563069
Si Si7 0.577622 0.211871 0.456071
Si Si8 0.421029 0.794699 0.209995
O O1 0.750000 0.556221 0.753326
O O2 0.964566 0.577238 0.838241
O O3 0.983737 0.630416 0.723438
O O4 0.000000 0.500000 0.734185
O O5 0.500000 0.500000 0.547383
O O6 0.250000 0.565103 0.542398
O O7 0.440049 0.576116 0.445706
O O8 0.498062 0.630482 0.556272
O O9 0.250000 0.706945 0.328367
O O10 0.016275 0.632360 0.334247
O O11 0.023235 0.753165 0.389499
O O12 0.011541 0.740827 0.261269
O O13 0.750000 0.944674 0.850968
O O14 0.500000 0.000000 0.842668
O O15 0.750000 0.049578 0.418673
O O16 0.959961 0.132496 0.453357
O O17 0.000000 0.000000 0.442906
O O18 0.250000 0.307772 0.549734
O O19 0.047190 0.271806 0.636385
O O20 0.011863 0.242225 0.515895
O O21 0.750000 0.224760 0.466887
O O22 0.250000 0.798677 0.225208
#
# Coordination Sequence:
#
# PCOD8182741 Si02
#       8
#     8   8   8   8   8   8   8   8
#     4   9  16  29  48  70  97 128 162 200 238 290
#     4  10  19  33  51  73 102 138 174 209 248 299
#     4   9  15  30  54  74  92 126 173 208 241 294
#     4   9  17  29  50  75  97 123 159 204 250 294
#     4   9  17  29  51  77 100 126 161 207 253 295
#     4  11  22  33  48  75 106 137 169 211 257 301
#     4  10  18  33  55  75  96 132 174 210 251 301
#     4   9  18  32  50  71  98 132 171 206 243 295
#
# _framework density 17.230312000000001
#
# number of rings (size 3 to 8) (size 9 to 14) (size 15 to 20)
#    0.000    2.500    2.500    0.750    0.000    1.500 
#    0.000    2.500    0.000    4.500    0.000    3.500 
#    0.000    0.000    0.000    0.000    0.000    0.000 
#
# Total GULP energy -396736.552462 kJ/mol
# GULP energy per Si atom -12398.017264 kJ/mol
# Density = 1.719109 g / cm^3
# Si number density = 17.230312 Si / 1000 Ang^3
#
#
#
# Elastic Constant Matrix: (Units=GPa)
#
#
# Indices 1 2 3 4 5 6 
#
# 1 57.4597 48.6118 38.3384 0.0000 0.0000 0.0000
# 2 48.6118 144.9613 64.8410 0.0000 0.0000 0.0000
# 3 38.3384 64.8410 88.9757 0.0000 0.0000 0.0000
# 4 0.0000 0.0000 0.0000 22.8692 0.0000 0.0000
# 5 0.0000 0.0000 0.0000 0.0000 17.3100 0.0000
# 6 0.0000 0.0000 0.0000 0.0000 0.0000 31.0430
#
#
#
# Elastic Compliance Matrix: (Units=1/GPa)
#
#
# Indices 1 2 3 4 5 6 
#
# 1 0.027348 -0.005786 -0.007567 0.000000 0.000000 0.000000
# 2 -0.005786 0.011459 -0.005857 0.000000 0.000000 0.000000
# 3 -0.007567 -0.005857 0.018768 0.000000 0.000000 0.000000
# 4 0.000000 0.000000 0.000000 0.043727 0.000000 0.000000
# 5 0.000000 0.000000 0.000000 0.000000 0.057770 0.000000
# 6 0.000000 0.000000 0.000000 0.000000 0.000000 0.032213
#
#
# Mechanical properties :
#
#
# Convention : Reuss Voigt Hill
#
# Bulk Modulus (GPa) = 52.21029 66.10878 59.15954
# Shear Modulus (GPa) = 21.17831 23.55145 22.36488
#
# Velocity S-wave (km/s) = 3.50970 3.70112 3.60668
# Velocity P-wave (km/s) = 6.84041 7.53096 7.19398
#
# Compressibility (1/GPa) = 0.01915331
#
# Stress axis : x y z
#
# Youngs Moduli (GPa) = 36.56632 87.26978 53.28168
#
# Poissons Ratio (x) = 0.50495 0.40319
# Poissons Ratio (y) = 0.21158 0.31209
# Poissons Ratio (z) = 0.27670 0.51117
#
# Static dielectric constant tensor:
#      x y z
#    x 3.017920 0.000000 0.000000 
#    y 0.000000 3.476170 0.000000 
#    z 0.000000 0.000000 3.069900 
# 
# 
# High freq. dielectric constant tensor:
#      x y z
#    x 1.641670 0.000000 0.000000 
#    y 0.000000 1.675350 0.000000 
#    z 0.000000 0.000000 1.640120 
# 
# From -- ./inp_files/19565.got.cif
#   From: 2010.03.12/outbox.cif.g09.slc.cpg/sg40_10_cif.got.tgz:19565.got - 2010.04.14 01:38:03.
