data_PCOD8182585
_publ_section_title
;
Structure prediction by ZEFSAII (Michael W. Deem and Ramdas Pophale) SiO2 
 PCOD8182585
Probable space group: A M A 2
;
_chemical_formula_sum "Si O2"
_cell_formula_units_Z 64
_cell_length_a 8.992026
_cell_length_b 23.390528
_cell_length_c 19.103723
_cell_angle_alpha 90.000000
_cell_angle_beta 90.000000
_cell_angle_gamma 90.000000
_cell_volume 4018.052358
_symmetry_space_group_name_H-M "A M A 2"
_symmetry_group_IT_number 40
_symmetry_cell_setting 'orthorhombic'
loop_
_space_group_symop_operation_xyz
x,y,z
-x,-y,z
1/2-x,y,z
1/2+x,-y,z
x,1/2+y,1/2+z
-x,1/2-y,1/2+z
1/2-x,1/2+y,1/2+z
1/2+x,1/2-y,1/2+z
loop_
_atom_site_type_symbol
_atom_site_label
_atom_site_fract_x
_atom_site_fract_y
_atom_site_fract_z
Si Si1 0.578036 0.225500 0.385900
Si Si2 0.423202 0.737060 0.236515
Si Si3 0.074084 0.831540 0.957095
Si Si4 0.575274 0.439826 0.097871
Si Si5 0.075174 0.766536 0.087193
Si Si6 0.923730 0.059005 0.876336
Si Si7 0.423439 0.160620 0.497558
Si Si8 0.925279 0.116736 0.731281
O O1 0.750000 0.228369 0.405798
O O2 0.553816 0.220624 0.302212
O O3 0.501426 0.283761 0.409816
O O4 0.506876 0.169888 0.423502
O O5 0.250000 0.719336 0.229182
O O6 0.482691 0.770522 0.167096
O O7 0.518650 0.680186 0.246602
O O8 0.250000 0.825269 0.945451
O O9 0.019165 0.893625 0.932117
O O10 0.029052 0.820924 0.038900
O O11 0.500000 0.500000 0.083051
O O12 0.750000 0.447844 0.110356
O O13 0.508466 0.410173 0.165791
O O14 0.542322 0.401409 0.029482
O O15 0.250000 0.762116 0.089858
O O16 0.014743 0.708272 0.051749
O O17 0.750000 0.049920 0.884172
O O18 0.965520 0.078028 0.798072
O O19 0.000000 0.000000 0.896079
O O20 0.250000 0.169323 0.483524
O O21 0.750000 0.117878 0.716912
#
# Coordination Sequence:
#
# PCOD8182585 Si02
#       8
#     8   8   8   8   8   8   8   8
#     4  10  19  28  46  72  97 120 152 200 240 275
#     4  10  18  30  47  71  98 127 157 192 239 284
#     4   9  17  32  48  64  89 122 159 193 233 287
#     4  11  22  36  51  69  94 129 167 202 240 282
#     4   8  14  28  49  66  86 119 155 187 227 285
#     4  10  21  33  46  65  91 126 163 196 232 273
#     4   9  18  33  50  65  91 129 160 190 234 289
#     4  11  21  32  46  68  98 131 164 199 230 275
#
# _framework density 15.928114000000001
#
# number of rings (size 3 to 8) (size 9 to 14) (size 15 to 20)
#    0.000    2.250    2.500    2.250    0.000    4.000 
#    0.000    0.000    0.000    0.000    0.000    0.875 
#    0.000    4.000    0.000    0.000    0.000    0.000 
#
# Total GULP energy -396657.395702 kJ/mol
# GULP energy per Si atom -12395.543616 kJ/mol
# Density = 1.589186 g / cm^3
# Si number density = 15.928114 Si / 1000 Ang^3
#
#
#
# Elastic Constant Matrix: (Units=GPa)
#
#
# Indices 1 2 3 4 5 6 
#
# 1 56.7442 41.4959 41.8819 0.0000 0.0000 0.0000
# 2 41.4959 78.9023 49.6701 0.0000 0.0000 0.0000
# 3 41.8819 49.6701 106.6951 0.0000 0.0000 0.0000
# 4 0.0000 0.0000 0.0000 24.8797 0.0000 0.0000
# 5 0.0000 0.0000 0.0000 0.0000 18.3927 0.0000
# 6 0.0000 0.0000 0.0000 0.0000 0.0000 23.3413
#
#
#
# Elastic Compliance Matrix: (Units=1/GPa)
#
#
# Indices 1 2 3 4 5 6 
#
# 1 0.031618 -0.012469 -0.006606 0.000000 0.000000 0.000000
# 2 -0.012469 0.022846 -0.005741 0.000000 0.000000 0.000000
# 3 -0.006606 -0.005741 0.014638 0.000000 0.000000 0.000000
# 4 0.000000 0.000000 0.000000 0.040193 0.000000 0.000000
# 5 0.000000 0.000000 0.000000 0.000000 0.054369 0.000000
# 6 0.000000 0.000000 0.000000 0.000000 0.000000 0.042843
#
#
# Mechanical properties :
#
#
# Convention : Reuss Voigt Hill
#
# Bulk Modulus (GPa) = 51.36437 56.49304 53.92871
# Shear Modulus (GPa) = 19.03828 20.60897 19.82362
#
# Velocity S-wave (km/s) = 3.46101 3.60095 3.53167
# Velocity P-wave (km/s) = 6.94903 7.26867 7.11065
#
# Compressibility (1/GPa) = 0.01946875
#
# Stress axis : x y z
#
# Youngs Moduli (GPa) = 31.62804 43.77210 68.31475
#
# Poissons Ratio (x) = 0.54582 0.45130
# Poissons Ratio (y) = 0.39439 0.39217
# Poissons Ratio (z) = 0.20894 0.25128
#
# Static dielectric constant tensor:
#      x y z
#    x 2.992350 0.000000 0.000000 
#    y 0.000000 3.007450 0.000000 
#    z 0.000000 0.000000 3.388580 
# 
# 
# High freq. dielectric constant tensor:
#      x y z
#    x 1.609020 0.000000 0.000000 
#    y 0.000000 1.584900 0.000000 
#    z 0.000000 0.000000 1.612290 
# 
# From -- ./inp_files/19709.got.cif
#   From: 2010.03.12/outbox.cif.g09.slc.cpg/sg40_10_cif.got.tgz:19709.got - 2010.04.14 01:38:03.
