data_PCOD8182235
_publ_section_title
;
Structure prediction by ZEFSAII (Michael W. Deem and Ramdas Pophale) SiO2 
 PCOD8182235
Probable space group: A B M 2
;
_chemical_formula_sum "Si O2"
_cell_formula_units_Z 64
_cell_length_a 19.984080
_cell_length_b 18.472853
_cell_length_c 9.789188
_cell_angle_alpha 90.000000
_cell_angle_beta 90.000000
_cell_angle_gamma 90.000000
_cell_volume 3613.805737
_symmetry_space_group_name_H-M "A B M 2"
_symmetry_group_IT_number 39
_symmetry_cell_setting 'orthorhombic'
loop_
_space_group_symop_operation_xyz
x,y,z
-x,-y,z
-x,1/2+y,z
x,1/2-y,z
x,1/2+y,1/2+z
-x,1/2-y,1/2+z
-x,y,1/2+z
x,-y,1/2+z
loop_
_atom_site_type_symbol
_atom_site_label
_atom_site_fract_x
_atom_site_fract_y
_atom_site_fract_z
Si Si1 0.050402 0.665111 0.317640
Si Si2 0.452912 0.666011 0.355038
Si Si3 0.180175 0.084774 0.797856
Si Si4 0.684508 0.939531 0.131035
Si Si5 0.570125 0.666131 0.164780
Si Si6 0.025415 0.582759 0.586936
Si Si7 0.328111 0.573189 0.320998
Si Si8 0.831567 0.461450 0.594079
O O1 0.035917 0.750000 0.336929
O O2 0.130640 0.653090 0.308894
O O3 0.018436 0.617837 0.438127
O O4 0.017020 0.635112 0.181569
O O5 0.445225 0.750000 0.322190
O O6 0.518196 0.635383 0.276911
O O7 0.461200 0.650595 0.515689
O O8 0.386596 0.630034 0.293444
O O9 0.256701 0.112853 0.795529
O O10 0.163669 0.041120 0.659569
O O11 0.170145 0.031441 0.928964
O O12 0.642095 0.871218 0.182709
O O13 0.763821 0.922418 0.148948
O O14 0.661836 0.007913 0.217592
O O15 0.668052 0.957808 0.974211
O O16 0.584390 0.750000 0.187696
O O17 0.102887 0.584214 0.636804
O O18 0.000000 0.500000 0.583927
#
# Coordination Sequence:
#
# PCOD8182235 Si02
#       8
#     8   8   8   8   8   8   8   8
#     4  11  23  36  52  81 113 138 172 226 274 311
#     4   9  18  32  50  71  96 130 169 205 249 308
#     4   9  18  33  52  74 100 133 169 211 255 308
#     4   9  18  33  50  75 101 129 166 212 254 296
#     4   9  18  33  51  71  98 132 169 209 254 303
#     4  11  21  36  58  79 103 144 185 214 261 328
#     4   9  18  32  51  74 100 130 165 208 254 297
#     4   9  18  32  53  78  96 129 179 212 243 308
#
# _framework density 17.709862000000001
#
# number of rings (size 3 to 8) (size 9 to 14) (size 15 to 20)
#    0.000    2.500    1.250    0.750    1.750    2.000 
#    0.000    9.375    0.000    0.000    0.000    7.875 
#    0.000    0.000    0.000    0.000    0.000    0.000 
#
# Total GULP energy -396688.501259 kJ/mol
# GULP energy per Si atom -12396.515664 kJ/mol
# Density = 1.766955 g / cm^3
# Si number density = 17.709862 Si / 1000 Ang^3
#
#
#
# Elastic Constant Matrix: (Units=GPa)
#
#
# Indices 1 2 3 4 5 6 
#
# 1 115.0932 48.3662 41.8100 0.0000 0.0000 0.0000
# 2 48.3662 72.2226 29.6953 0.0000 0.0000 0.0000
# 3 41.8100 29.6953 54.2670 0.0000 0.0000 0.0000
# 4 0.0000 0.0000 0.0000 23.4959 0.0000 0.0000
# 5 0.0000 0.0000 0.0000 0.0000 26.9134 0.0000
# 6 0.0000 0.0000 0.0000 0.0000 0.0000 25.4709
#
#
#
# Elastic Compliance Matrix: (Units=1/GPa)
#
#
# Indices 1 2 3 4 5 6 
#
# 1 0.014030 -0.006389 -0.007314 0.000000 0.000000 0.000000
# 2 -0.006389 0.020775 -0.006446 0.000000 0.000000 0.000000
# 3 -0.007314 -0.006446 0.027589 0.000000 0.000000 0.000000
# 4 0.000000 0.000000 0.000000 0.042561 0.000000 0.000000
# 5 0.000000 0.000000 0.000000 0.000000 0.037156 0.000000
# 6 0.000000 0.000000 0.000000 0.000000 0.000000 0.039260
#
#
# Mechanical properties :
#
#
# Convention : Reuss Voigt Hill
#
# Bulk Modulus (GPa) = 45.25313 53.48066 49.36689
# Shear Modulus (GPa) = 21.83078 23.29012 22.56045
#
# Velocity S-wave (km/s) = 3.51478 3.63036 3.57303
# Velocity P-wave (km/s) = 6.48687 6.91639 6.70507
#
# Compressibility (1/GPa) = 0.02209792
#
# Stress axis : x y z
#
# Youngs Moduli (GPa) = 71.27486 48.13522 36.24568
#
# Poissons Ratio (x) = 0.30752 0.26509
# Poissons Ratio (y) = 0.45535 0.23364
# Poissons Ratio (z) = 0.52128 0.31028
#
# Static dielectric constant tensor:
#      x y z
#    x 3.597830 0.000000 0.000000 
#    y 0.000000 2.996500 0.000000 
#    z 0.000000 0.000000 3.376270 
# 
# 
# High freq. dielectric constant tensor:
#      x y z
#    x 1.700460 0.000000 0.000000 
#    y 0.000000 1.653650 0.000000 
#    z 0.000000 0.000000 1.689430 
# 
# From -- ./inp_files/4019.got.cif
#   From: 2010.03.12/outbox.cif.g09.slc.cpg/sg39_3_cif.got.tgz:4019.got - 2010.04.14 02:53:20.
