data_PCOD8182940
_publ_section_title
;
Structure prediction by ZEFSAII (Michael W. Deem and Ramdas Pophale) SiO2 
 PCOD8182940
Probable space group: A M A 2
;
_chemical_formula_sum "Si O2"
_cell_formula_units_Z 56
_cell_length_a 8.929964
_cell_length_b 19.018721
_cell_length_c 17.779057
_cell_angle_alpha 90.000000
_cell_angle_beta 90.000000
_cell_angle_gamma 90.000000
_cell_volume 3019.532705
_symmetry_space_group_name_H-M "A M A 2"
_symmetry_group_IT_number 40
_symmetry_cell_setting 'orthorhombic'
loop_
_space_group_symop_operation_xyz
x,y,z
-x,-y,z
1/2-x,y,z
1/2+x,-y,z
x,1/2+y,1/2+z
-x,1/2-y,1/2+z
1/2-x,1/2+y,1/2+z
1/2+x,1/2-y,1/2+z
loop_
_atom_site_type_symbol
_atom_site_label
_atom_site_fract_x
_atom_site_fract_y
_atom_site_fract_z
Si Si1 0.574145 0.290440 0.375000
Si Si2 0.915921 0.066878 0.043277
Si Si3 0.076995 0.177769 0.282287
Si Si4 0.423629 0.074781 0.412404
Si Si5 0.423694 0.695579 0.610171
Si Si6 0.583194 0.067240 0.866940
Si Si7 0.072610 0.207705 0.506368
O O1 0.750000 0.291502 0.392091
O O2 0.536516 0.237837 0.307561
O O3 0.518538 0.366067 0.347797
O O4 0.484281 0.266630 0.448551
O O5 0.750000 0.073884 0.079461
O O6 0.012464 0.136003 0.056252
O O7 0.900820 0.055176 0.955213
O O8 0.000000 0.000000 0.080184
O O9 0.250000 0.199784 0.297856
O O10 0.041649 0.106495 0.329292
O O11 0.044717 0.168877 0.194405
O O12 0.250000 0.060939 0.422664
O O13 0.478302 0.130473 0.476713
O O14 0.500000 0.000000 0.423758
O O15 0.250000 0.705642 0.594622
O O16 0.502365 0.770354 0.587514
O O17 0.750000 0.075689 0.831842
O O18 0.500000 0.000000 0.830438
O O19 0.250000 0.212245 0.511184
#
# Coordination Sequence:
#
# PCOD8182940 Si02
#       7
#     8   8   8   8   8   8   8
#     4  11  20  32  53  78 102 134 178 222 261 316
#     4  10  20  32  48  71 105 142 173 210 254 305
#     4   9  21  38  53  75 109 144 175 218 275 326
#     4   9  19  36  57  79 107 141 179 223 273 325
#     4  11  21  34  54  79 108 143 183 224 269 325
#     4  10  19  31  49  73 103 136 168 210 257 305
#     4  10  20  35  54  77 107 142 177 223 277 322
#
# _framework density 18.545915000000001
#
# number of rings (size 3 to 8) (size 9 to 14) (size 15 to 20)
#    0.000    2.000    1.429    3.857    0.000    5.714 
#    0.000    1.429    0.000    0.857    0.000    2.000 
#    0.000    0.000    0.000    0.000    0.000    0.000 
#
# Total GULP energy -347088.450552 kJ/mol
# GULP energy per Si atom -12396.016091 kJ/mol
# Density = 1.850370 g / cm^3
# Si number density = 18.545915 Si / 1000 Ang^3
#
#
#
# Elastic Constant Matrix: (Units=GPa)
#
#
# Indices 1 2 3 4 5 6 
#
# 1 98.9608 50.3782 25.3841 0.0000 0.0000 0.0000
# 2 50.3782 141.9214 30.0352 0.0000 0.0000 0.0000
# 3 25.3841 30.0352 45.4371 0.0000 0.0000 0.0000
# 4 0.0000 0.0000 0.0000 15.3701 0.0000 0.0000
# 5 0.0000 0.0000 0.0000 0.0000 21.3573 0.0000
# 6 0.0000 0.0000 0.0000 0.0000 0.0000 37.9070
#
#
#
# Elastic Compliance Matrix: (Units=1/GPa)
#
#
# Indices 1 2 3 4 5 6 
#
# 1 0.013239 -0.003644 -0.004988 0.000000 0.000000 0.000000
# 2 -0.003644 0.009195 -0.004042 0.000000 0.000000 0.000000
# 3 -0.004988 -0.004042 0.027467 0.000000 0.000000 0.000000
# 4 0.000000 0.000000 0.000000 0.065061 0.000000 0.000000
# 5 0.000000 0.000000 0.000000 0.000000 0.046822 0.000000
# 6 0.000000 0.000000 0.000000 0.000000 0.000000 0.026380
#
#
# Mechanical properties :
#
#
# Convention : Reuss Voigt Hill
#
# Bulk Modulus (GPa) = 40.72752 55.32381 48.02566
# Shear Modulus (GPa) = 22.55314 26.96166 24.75740
#
# Velocity S-wave (km/s) = 3.49100 3.81698 3.65763
# Velocity P-wave (km/s) = 6.18527 7.02291 6.61736
#
# Compressibility (1/GPa) = 0.02455342
#
# Stress axis : x y z
#
# Youngs Moduli (GPa) = 75.53168 108.75200 36.40730
#
# Poissons Ratio (x) = 0.39631 0.18158
# Poissons Ratio (y) = 0.27525 0.14718
# Poissons Ratio (z) = 0.37672 0.43963
#
# Static dielectric constant tensor:
#      x y z
#    x 3.646790 0.000000 0.000000 
#    y 0.000000 3.485930 0.000000 
#    z 0.000000 0.000000 3.208570 
# 
# 
# High freq. dielectric constant tensor:
#      x y z
#    x 1.731860 0.000000 0.000000 
#    y 0.000000 1.719770 0.000000 
#    z 0.000000 0.000000 1.678850 
# 
# From -- ./inp_files/22182.got.cif
#   From: 2010.03.12/outbox.cif.g09.slc.cpg/sg40_12_cif.got.tgz:22182.got - 2010.04.14 01:38:03.
