data_PCOD8182818
_publ_section_title
;
Structure prediction by ZEFSAII (Michael W. Deem and Ramdas Pophale) SiO2 
 PCOD8182818
Probable space group: A M A 2
;
_chemical_formula_sum "Si O2"
_cell_formula_units_Z 48
_cell_length_a 14.566849
_cell_length_b 9.160842
_cell_length_c 18.377121
_cell_angle_alpha 90.000000
_cell_angle_beta 90.000000
_cell_angle_gamma 90.000000
_cell_volume 2452.327600
_symmetry_space_group_name_H-M "A M A 2"
_symmetry_group_IT_number 40
_symmetry_cell_setting 'orthorhombic'
loop_
_space_group_symop_operation_xyz
x,y,z
-x,-y,z
1/2-x,y,z
1/2+x,-y,z
x,1/2+y,1/2+z
-x,1/2-y,1/2+z
1/2-x,1/2+y,1/2+z
1/2+x,1/2-y,1/2+z
loop_
_atom_site_type_symbol
_atom_site_label
_atom_site_fract_x
_atom_site_fract_y
_atom_site_fract_z
Si Si1 0.060692 0.630431 0.587100
Si Si2 0.750000 0.522645 0.588436
Si Si3 0.055183 0.850156 0.464142
Si Si4 0.441994 0.358760 0.362192
Si Si5 0.750000 0.561402 0.746561
Si Si6 0.250000 0.796304 0.399534
Si Si7 0.567540 0.882891 0.249843
Si Si8 0.250000 0.452021 0.427789
O O1 0.165289 0.585217 0.588315
O O2 0.054451 0.783577 0.545251
O O3 0.027174 0.652211 0.669768
O O4 0.000000 0.500000 0.550207
O O5 0.750000 0.625180 0.662258
O O6 0.750000 0.608036 0.511498
O O7 0.158800 0.872360 0.433138
O O8 0.000713 0.732979 0.418098
O O9 0.000000 0.000000 0.465029
O O10 0.500000 0.500000 0.342372
O O11 0.430514 0.271436 0.288228
O O12 0.340875 0.391688 0.391029
O O13 0.750000 0.683497 0.810681
O O14 0.666090 0.453452 0.754058
O O15 0.250000 0.627153 0.421379
O O16 0.500000 0.000000 0.288847
#
# Coordination Sequence:
#
# PCOD8182818 Si02
#       8
#     8   4   8   8   4   4   8   4
#     4  10  20  39  63  88 118 163 207 249 313 376
#     4  10  18  38  61  85 115 158 200 250 303 373
#     4  12  24  39  64  91 130 161 208 263 312 372
#     4  12  23  38  60  90 123 163 209 253 308 372
#     4  10  21  36  62  86 118 155 206 250 307 383
#     4  12  22  40  61  95 126 164 208 257 330 355
#     4  10  22  39  62  89 121 159 206 257 307 371
#     4  12  23  38  66  90 125 165 212 263 304 379
#
# _framework density 19.573239999999998
#
# number of rings (size 3 to 8) (size 9 to 14) (size 15 to 20)
#    0.000    1.000    3.333    4.500    0.000    1.333 
#    0.000    0.833    3.667    0.000    0.000    0.000 
#    0.000    0.000    0.000    0.000    0.000    0.000 
#
# Total GULP energy -297482.832908 kJ/mol
# GULP energy per Si atom -12395.118038 kJ/mol
# Density = 1.952869 g / cm^3
# Si number density = 19.573240 Si / 1000 Ang^3
#
#
#
# Elastic Constant Matrix: (Units=GPa)
#
#
# Indices 1 2 3 4 5 6 
#
# 1 160.5651 57.5749 40.0516 0.0000 0.0000 0.0000
# 2 57.5749 95.6194 55.1415 0.0000 0.0000 0.0000
# 3 40.0516 55.1415 123.8522 0.0000 0.0000 0.0000
# 4 0.0000 0.0000 0.0000 45.8929 0.0000 0.0000
# 5 0.0000 0.0000 0.0000 0.0000 34.5465 0.0000
# 6 0.0000 0.0000 0.0000 0.0000 0.0000 26.8055
#
#
#
# Elastic Compliance Matrix: (Units=1/GPa)
#
#
# Indices 1 2 3 4 5 6 
#
# 1 0.007975 -0.004460 -0.000593 0.000000 0.000000 0.000000
# 2 -0.004460 0.016565 -0.005933 0.000000 0.000000 0.000000
# 3 -0.000593 -0.005933 0.010907 0.000000 0.000000 0.000000
# 4 0.000000 0.000000 0.000000 0.021790 0.000000 0.000000
# 5 0.000000 0.000000 0.000000 0.000000 0.028946 0.000000
# 6 0.000000 0.000000 0.000000 0.000000 0.000000 0.037306
#
#
# Mechanical properties :
#
#
# Convention : Reuss Voigt Hill
#
# Bulk Modulus (GPa) = 74.20941 76.17473 75.19207
# Shear Modulus (GPa) = 33.34367 36.60023 34.97195
#
# Velocity S-wave (km/s) = 4.13187 4.32894 4.23155
# Velocity P-wave (km/s) = 7.79481 7.99928 7.89771
#
# Compressibility (1/GPa) = 0.01347538
#
# Stress axis : x y z
#
# Youngs Moduli (GPa) = 125.38813 60.36889 91.68068
#
# Poissons Ratio (x) = 0.26924 0.05440
# Poissons Ratio (y) = 0.55922 0.54392
# Poissons Ratio (z) = 0.07441 0.35815
#
# Static dielectric constant tensor:
#      x y z
#    x 3.781720 0.000000 0.000000 
#    y 0.000000 3.409270 0.000000 
#    z 0.000000 0.000000 4.149660 
# 
# 
# High freq. dielectric constant tensor:
#      x y z
#    x 1.790680 0.000000 0.000000 
#    y 0.000000 1.735370 0.000000 
#    z 0.000000 0.000000 1.774790 
# 
# From -- ./inp_files/20603.got.cif
#   From: 2010.03.12/outbox.cif.g09.slc.cpg/sg40_11_cif.got.tgz:20603.got - 2010.04.14 01:38:03.
