data_PCOD8182368
_publ_section_title
;
Structure prediction by ZEFSAII (Michael W. Deem and Ramdas Pophale) SiO2 
 PCOD8182368
Probable space group: A M A 2
;
_chemical_formula_sum "Si O2"
_cell_formula_units_Z 56
_cell_length_a 8.710541
_cell_length_b 13.732113
_cell_length_c 29.256274
_cell_angle_alpha 90.000000
_cell_angle_beta 90.000000
_cell_angle_gamma 90.000000
_cell_volume 3499.463858
_symmetry_space_group_name_H-M "A M A 2"
_symmetry_group_IT_number 40
_symmetry_cell_setting 'orthorhombic'
loop_
_space_group_symop_operation_xyz
x,y,z
-x,-y,z
1/2-x,y,z
1/2+x,-y,z
x,1/2+y,1/2+z
-x,1/2-y,1/2+z
1/2-x,1/2+y,1/2+z
1/2+x,1/2-y,1/2+z
loop_
_atom_site_type_symbol
_atom_site_label
_atom_site_fract_x
_atom_site_fract_y
_atom_site_fract_z
Si Si1 0.069728 0.397322 0.364510
Si Si2 0.567353 0.607887 0.094569
Si Si3 0.432545 0.705654 0.910471
Si Si4 0.070633 0.601163 0.821515
Si Si5 0.067267 0.607156 0.002679
Si Si6 0.929042 0.704013 0.271529
Si Si7 0.069362 0.606308 0.186636
O O1 0.250000 0.406068 0.368422
O O2 0.008317 0.315099 0.399865
O O3 0.023772 0.366824 0.313145
O O4 0.000000 0.500000 0.378477
O O5 0.500000 0.500000 0.094627
O O6 0.750000 0.608280 0.093708
O O7 0.504800 0.656338 0.141241
O O8 0.501072 0.658131 0.048534
O O9 0.250000 0.704821 0.907479
O O10 0.496063 0.632710 0.871222
O O11 0.489777 0.672230 0.960139
O O12 0.250000 0.586243 0.825623
O O13 0.032695 0.684663 0.784571
O O14 0.000000 0.500000 0.804730
O O15 0.250000 0.601098 0.005988
O O16 0.000000 0.500000 0.995827
O O17 0.750000 0.691090 0.259487
O O18 0.032699 0.677156 0.228449
O O19 0.250000 0.595657 0.179738
O O20 0.000000 0.500000 0.196462
#
# Coordination Sequence:
#
# PCOD8182368 Si02
#       7
#     8   8   8   8   8   8   8
#     4   9  17  30  45  62  86 116 148 180 215 253
#     4  10  18  29  43  61  87 115 143 175 215 259
#     4   8  16  29  44  62  87 119 148 175 213 258
#     4   9  17  30  46  64  89 119 149 182 217 254
#     4  10  17  27  43  63  88 116 145 176 212 253
#     4   9  18  31  45  63  89 119 149 180 217 258
#     4  11  20  30  45  65  89 116 147 180 217 261
#
# _framework density 16.002451000000001
#
# number of rings (size 3 to 8) (size 9 to 14) (size 15 to 20)
#    0.000    2.571    0.000    7.286    0.000    2.286 
#    0.000    4.286    0.000    0.000    0.000    1.000 
#    0.000    4.571    0.000    0.000    0.000    0.000 
#
# Total GULP energy -347063.161152 kJ/mol
# GULP energy per Si atom -12395.112898 kJ/mol
# Density = 1.596603 g / cm^3
# Si number density = 16.002451 Si / 1000 Ang^3
#
#
#
# Elastic Constant Matrix: (Units=GPa)
#
#
# Indices 1 2 3 4 5 6 
#
# 1 76.0737 27.7599 48.7151 0.0000 0.0000 0.0000
# 2 27.7599 93.9907 52.7141 0.0000 0.0000 0.0000
# 3 48.7151 52.7141 134.8443 0.0000 0.0000 0.0000
# 4 0.0000 0.0000 0.0000 19.1854 0.0000 0.0000
# 5 0.0000 0.0000 0.0000 0.0000 -174.6494 0.0000
# 6 0.0000 0.0000 0.0000 0.0000 0.0000 22.6493
#
#
#
# Elastic Compliance Matrix: (Units=1/GPa)
#
#
# Indices 1 2 3 4 5 6 
#
# 1 0.017410 -0.002068 -0.005481 0.000000 0.000000 0.000000
# 2 -0.002068 0.013873 -0.004676 0.000000 0.000000 0.000000
# 3 -0.005481 -0.004676 0.011224 0.000000 0.000000 0.000000
# 4 0.000000 0.000000 0.000000 0.052123 0.000000 0.000000
# 5 0.000000 0.000000 0.000000 0.000000 -0.005726 0.000000
# 6 0.000000 0.000000 0.000000 0.000000 0.000000 0.044152
#
#
# Mechanical properties :
#
#
# Convention : Reuss Voigt Hill
#
# Bulk Modulus (GPa) = 55.38264 62.58742 58.98503
# Shear Modulus (GPa) = 30.57647 -14.84830 7.86408
#
# Velocity S-wave (km/s) = 4.37594 -3.04941 2.21923
# Velocity P-wave (km/s) = 7.75988 5.17663 6.59596
#
# Compressibility (1/GPa) = 0.01805620
#
# Stress axis : x y z
#
# Youngs Moduli (GPa) = 57.43926 72.08429 89.09333
#
# Poissons Ratio (x) = 0.14905 0.48834
# Poissons Ratio (y) = 0.11877 0.41661
# Poissons Ratio (z) = 0.31484 0.33708
#
# Static dielectric constant tensor:
#      x y z
#    x 2.922430 0.000000 0.000000 
#    y 0.000000 6.519990 0.000000 
#    z 0.000000 0.000000 3.553640 
# 
# 
# High freq. dielectric constant tensor:
#      x y z
#    x 1.612090 0.000000 0.000000 
#    y 0.000000 1.581190 0.000000 
#    z 0.000000 0.000000 1.618680 
# 
# From -- ./inp_files/26405.got.cif
#   From: 2010.03.12/outbox.cif.g09.slc.cpg/sg40_14_cif.got.tgz:26405.got - 2010.04.14 01:38:03.
