data_PCOD8182722
_publ_section_title
;
Structure prediction by ZEFSAII (Michael W. Deem and Ramdas Pophale) SiO2 
 PCOD8182722
Probable space group: A M A 2
;
_chemical_formula_sum "Si O2"
_cell_formula_units_Z 52
_cell_length_a 15.500371
_cell_length_b 17.626798
_cell_length_c 10.802608
_cell_angle_alpha 90.000000
_cell_angle_beta 90.000000
_cell_angle_gamma 90.000000
_cell_volume 2951.509175
_symmetry_space_group_name_H-M "A M A 2"
_symmetry_group_IT_number 40
_symmetry_cell_setting 'orthorhombic'
loop_
_space_group_symop_operation_xyz
x,y,z
-x,-y,z
1/2-x,y,z
1/2+x,-y,z
x,1/2+y,1/2+z
-x,1/2-y,1/2+z
1/2-x,1/2+y,1/2+z
1/2+x,1/2-y,1/2+z
loop_
_atom_site_type_symbol
_atom_site_label
_atom_site_fract_x
_atom_site_fract_y
_atom_site_fract_z
Si Si1 0.000000 0.000000 0.445550
Si Si2 0.152791 0.560963 0.795921
Si Si3 0.942539 0.151124 0.871217
Si Si4 0.845051 0.295164 0.967675
Si Si5 0.049299 0.111102 0.644659
Si Si6 0.848112 0.998240 0.817928
Si Si7 0.064710 0.568633 0.541278
O O1 0.087040 0.001323 0.361167
O O2 0.995080 0.076215 0.529539
O O3 0.250000 0.525278 0.781631
O O4 0.160259 0.635806 0.874708
O O5 0.114173 0.589078 0.665912
O O6 0.896961 0.229232 0.900584
O O7 0.874882 0.083524 0.850754
O O8 0.992005 0.157538 0.741222
O O9 0.007401 0.137026 0.986237
O O10 0.750000 0.264170 0.999501
O O11 0.885469 0.324861 0.095691
O O12 0.095339 0.038145 0.707922
O O13 0.750000 0.996254 0.774114
O O14 0.861490 0.949817 0.941530
O O15 0.000000 0.500000 0.565447
#
# Coordination Sequence:
#
# PCOD8182722 Si02
#       7
#     4   8   8   8   8   8   8
#     4  10  18  36  54  78 110 140 184 226 270 322
#     4  10  20  34  55  80 109 143 179 221 273 331
#     4  10  20  34  55  79 105 143 184 222 281 326
#     4  10  22  35  52  78 107 141 181 224 276 333
#     4  10  19  36  54  79 107 144 185 224 276 331
#     4  10  18  32  57  82 107 137 180 235 273 320
#     4   9  18  33  53  79 106 135 173 221 272 325
#
# _framework density 17.618106000000001
#
# number of rings (size 3 to 8) (size 9 to 14) (size 15 to 20)
#    0.000    2.154    2.308    2.308    2.154    0.615 
#    0.000    0.000    0.000    0.000    0.000    0.000 
#    0.000    0.000    0.000    0.000    0.000    0.000 
#
# Total GULP energy -322261.605793 kJ/mol
# GULP energy per Si atom -12394.677146 kJ/mol
# Density = 1.757801 g / cm^3
# Si number density = 17.618106 Si / 1000 Ang^3
#
#
#
# Elastic Constant Matrix: (Units=GPa)
#
#
# Indices 1 2 3 4 5 6 
#
# 1 127.8980 33.4676 46.8548 0.0000 0.0000 0.0000
# 2 33.4676 50.7809 16.4214 0.0000 0.0000 0.0000
# 3 46.8548 16.4214 84.7514 0.0000 0.0000 0.0000
# 4 0.0000 0.0000 0.0000 23.1855 0.0000 0.0000
# 5 0.0000 0.0000 0.0000 0.0000 16.2262 0.0000
# 6 0.0000 0.0000 0.0000 0.0000 0.0000 23.6227
#
#
#
# Elastic Compliance Matrix: (Units=1/GPa)
#
#
# Indices 1 2 3 4 5 6 
#
# 1 0.011173 -0.005725 -0.005068 0.000000 0.000000 0.000000
# 2 -0.005725 0.023942 -0.001474 0.000000 0.000000 0.000000
# 3 -0.005068 -0.001474 0.014887 0.000000 0.000000 0.000000
# 4 0.000000 0.000000 0.000000 0.043130 0.000000 0.000000
# 5 0.000000 0.000000 0.000000 0.000000 0.061629 0.000000
# 6 0.000000 0.000000 0.000000 0.000000 0.000000 0.042332
#
#
# Mechanical properties :
#
#
# Convention : Reuss Voigt Hill
#
# Bulk Modulus (GPa) = 39.26435 50.76865 45.01650
# Shear Modulus (GPa) = 21.72810 23.71934 22.72372
#
# Velocity S-wave (km/s) = 3.51562 3.67318 3.59527
# Velocity P-wave (km/s) = 6.23010 6.84605 6.54533
#
# Compressibility (1/GPa) = 0.02546840
#
# Stress axis : x y z
#
# Youngs Moduli (GPa) = 89.49780 41.76713 67.17445
#
# Poissons Ratio (x) = 0.23912 0.34044
# Poissons Ratio (y) = 0.51239 0.09901
# Poissons Ratio (z) = 0.45357 0.06156
#
# Static dielectric constant tensor:
#      x y z
#    x 3.517130 0.000000 0.000000 
#    y 0.000000 2.960050 0.000000 
#    z 0.000000 0.000000 3.442270 
# 
# 
# High freq. dielectric constant tensor:
#      x y z
#    x 1.686720 0.000000 0.000000 
#    y 0.000000 1.652790 0.000000 
#    z 0.000000 0.000000 1.692520 
# 
# From -- ./inp_files/12316.got.cif
#   From: 2010.03.12/outbox.cif.g09.slc.cpg/sg40_7_cif.got.tgz:12316.got - 2010.04.14 01:38:03.
