data_PCOD8182577
_publ_section_title
;
Structure prediction by ZEFSAII (Michael W. Deem and Ramdas Pophale) SiO2 
 PCOD8182577
Probable space group: A M A 2
;
_chemical_formula_sum "Si O2"
_cell_formula_units_Z 64
_cell_length_a 8.728581
_cell_length_b 18.535816
_cell_length_c 26.682681
_cell_angle_alpha 90.000000
_cell_angle_beta 90.000000
_cell_angle_gamma 90.000000
_cell_volume 4317.027550
_symmetry_space_group_name_H-M "A M A 2"
_symmetry_group_IT_number 40
_symmetry_cell_setting 'orthorhombic'
loop_
_space_group_symop_operation_xyz
x,y,z
-x,-y,z
1/2-x,y,z
1/2+x,-y,z
x,1/2+y,1/2+z
-x,1/2-y,1/2+z
1/2-x,1/2+y,1/2+z
1/2+x,1/2-y,1/2+z
loop_
_atom_site_type_symbol
_atom_site_label
_atom_site_fract_x
_atom_site_fract_y
_atom_site_fract_z
Si Si1 0.569668 0.923980 0.943960
Si Si2 0.419243 0.300948 0.797947
Si Si3 0.433236 0.577874 0.256444
Si Si4 0.933743 0.655698 0.647260
Si Si5 0.431094 0.576778 0.557283
Si Si6 0.067750 0.665007 0.351611
Si Si7 0.430583 0.076466 0.241035
Si Si8 0.082766 0.708145 0.198438
O O1 0.750000 0.932576 0.939788
O O2 0.509376 0.862032 0.906023
O O3 0.500000 0.000000 0.927554
O O4 0.521317 0.903231 0.000460
O O5 0.250000 0.330446 0.813146
O O6 0.489624 0.247407 0.840963
O O7 0.530409 0.367860 0.786050
O O8 0.399915 0.251384 0.749773
O O9 0.500000 0.500000 0.245676
O O10 0.250000 0.575752 0.254958
O O11 0.492061 0.607966 0.309974
O O12 0.497502 0.631732 0.212175
O O13 0.750000 0.653598 0.649655
O O14 0.998709 0.736996 0.659262
O O15 0.994461 0.637081 0.592368
O O16 0.997055 0.599714 0.688067
O O17 0.500000 0.500000 0.572813
O O18 0.250000 0.574419 0.564792
O O19 0.250000 0.667096 0.349160
O O20 0.250000 0.070799 0.234567
O O21 0.500000 0.000000 0.256748
O O22 0.250000 0.690330 0.176417
#
# Coordination Sequence:
#
# PCOD8182577 Si02
#       8
#     8   8   8   8   8   8   8   8
#     4   9  17  28  41  58  81 109 138 168 200 232
#     4   8  14  27  43  57  75 102 134 163 192 229
#     4   9  15  24  38  57  79 102 129 157 186 223
#     4  10  18  30  45  57  73 103 139 168 200 239
#     4  10  19  29  40  57  81 106 135 170 203 234
#     4   8  14  26  43  58  77 108 139 162 190 230
#     4  11  20  29  41  59  82 105 131 162 197 236
#     4   7  13  25  39  53  72  99 127 156 190 231
#
# _framework density 14.825016
#
# number of rings (size 3 to 8) (size 9 to 14) (size 15 to 20)
#    0.000    3.000    0.000    4.875    0.000    0.500 
#    0.000    6.875    0.000    0.000    0.000    0.000 
#    0.000    1.000    0.000    7.500    0.000    2.500 
#
# Total GULP energy -396427.983961 kJ/mol
# GULP energy per Si atom -12388.374499 kJ/mol
# Density = 1.479127 g / cm^3
# Si number density = 14.825016 Si / 1000 Ang^3
#
#
#
# Elastic Constant Matrix: (Units=GPa)
#
#
# Indices 1 2 3 4 5 6 
#
# 1 47.9662 28.6663 21.5498 0.0000 0.0000 0.0000
# 2 28.6663 114.1734 60.6614 0.0000 0.0000 0.0000
# 3 21.5498 60.6614 86.0321 0.0000 0.0000 0.0000
# 4 0.0000 0.0000 0.0000 28.2377 0.0000 0.0000
# 5 0.0000 0.0000 0.0000 0.0000 -2.6214 0.0000
# 6 0.0000 0.0000 0.0000 0.0000 0.0000 19.9334
#
#
#
# Elastic Compliance Matrix: (Units=1/GPa)
#
#
# Indices 1 2 3 4 5 6 
#
# 1 0.024983 -0.004714 -0.002934 0.000000 0.000000 0.000000
# 2 -0.004714 0.014895 -0.009322 0.000000 0.000000 0.000000
# 3 -0.002934 -0.009322 0.018931 0.000000 0.000000 0.000000
# 4 0.000000 0.000000 0.000000 0.035414 0.000000 0.000000
# 5 0.000000 0.000000 0.000000 0.000000 -0.381480 0.000000
# 6 0.000000 0.000000 0.000000 0.000000 0.000000 0.050167
#
#
# Mechanical properties :
#
#
# Convention : Reuss Voigt Hill
#
# Bulk Modulus (GPa) = 40.20890 52.21408 46.21149
# Shear Modulus (GPa) = -25.65941 18.26289 -3.69826
#
# Velocity S-wave (km/s) = -4.16482 3.51365 -1.58115
# Velocity P-wave (km/s) = 2.01334 7.19428 5.28257
#
# Compressibility (1/GPa) = 0.02487012
#
# Stress axis : x y z
#
# Youngs Moduli (GPa) = 40.02652 67.13765 52.82266
#
# Poissons Ratio (x) = 0.31647 0.15500
# Poissons Ratio (y) = 0.18867 0.49239
# Poissons Ratio (z) = 0.11745 0.62583
#
# Static dielectric constant tensor:
#      x y z
#    x 2.723610 0.000000 0.000000 
#    y 0.000000 3.121730 0.000000 
#    z 0.000000 0.000000 2.939780 
# 
# 
# High freq. dielectric constant tensor:
#      x y z
#    x 1.553240 0.000000 0.000000 
#    y 0.000000 1.560630 0.000000 
#    z 0.000000 0.000000 1.536970 
# 
# From -- ./inp_files/25522.got.cif
#   From: 2010.03.12/outbox.cif.g09.slc.cpg/sg40_13_cif.got.tgz:25522.got - 2010.04.14 01:38:03.
