data_PCOD8182021
_publ_section_title
;
Structure prediction by ZEFSAII (Michael W. Deem and Ramdas Pophale) SiO2 
 PCOD8182021
Probable space group: A B M 2
;
_chemical_formula_sum "Si O2"
_cell_formula_units_Z 56
_cell_length_a 11.191395
_cell_length_b 19.545474
_cell_length_c 12.976375
_cell_angle_alpha 90.000000
_cell_angle_beta 90.000000
_cell_angle_gamma 90.000000
_cell_volume 2838.466801
_symmetry_space_group_name_H-M "A B M 2"
_symmetry_group_IT_number 39
_symmetry_cell_setting 'orthorhombic'
loop_
_space_group_symop_operation_xyz
x,y,z
-x,-y,z
-x,1/2+y,z
x,1/2-y,z
x,1/2+y,1/2+z
-x,1/2-y,1/2+z
-x,y,1/2+z
x,-y,1/2+z
loop_
_atom_site_type_symbol
_atom_site_label
_atom_site_fract_x
_atom_site_fract_y
_atom_site_fract_z
Si Si1 0.807403 0.113256 0.843510
Si Si2 0.259082 0.959088 0.339059
Si Si3 0.539581 0.072223 0.472373
Si Si4 0.033173 0.577441 0.220649
Si Si5 0.594686 0.106412 0.165587
Si Si6 0.431347 0.173115 0.321236
Si Si7 0.825919 0.830861 0.566618
O O1 0.700416 0.151389 0.783447
O O2 0.918543 0.114393 0.767108
O O3 0.764706 0.036850 0.870417
O O4 0.841959 0.154103 0.946313
O O5 0.319660 0.921735 0.439522
O O6 0.133967 0.923466 0.310225
O O7 0.347831 0.951677 0.239930
O O8 0.507835 0.072367 0.593492
O O9 0.462014 0.131922 0.423840
O O10 0.500000 0.000000 0.422868
O O11 0.075080 0.623670 0.125378
O O12 0.000000 0.500000 0.183945
O O13 0.528463 0.163413 0.232684
O O14 0.694899 0.145251 0.100732
O O15 0.430980 0.250000 0.358359
O O16 0.844028 0.750000 0.588787
#
# Coordination Sequence:
#
# PCOD8182021 Si02
#       7
#     8   8   8   8   8   8   8
#     4  11  21  40  61  88 123 159 205 252 306 364
#     4   9  20  39  59  90 120 156 204 258 305 355
#     4  11  20  35  61  91 119 158 199 248 301 369
#     4   9  22  42  64  89 118 161 210 265 303 357
#     4  10  22  36  61  89 124 158 202 251 313 369
#     4  11  23  37  57  87 124 160 198 249 307 370
#     4  11  22  40  64  90 121 167 210 246 311 380
#
# _framework density 19.728960000000001
#
# number of rings (size 3 to 8) (size 9 to 14) (size 15 to 20)
#    0.000    1.714    2.857    0.857    2.000    3.429 
#    5.143    0.000    0.000    0.000    0.000    0.000 
#    0.000    0.000    0.000    0.000    0.000    0.000 
#
# Total GULP energy -347092.072523 kJ/mol
# GULP energy per Si atom -12396.145447 kJ/mol
# Density = 1.968406 g / cm^3
# Si number density = 19.728960 Si / 1000 Ang^3
#
#
#
# Elastic Constant Matrix: (Units=GPa)
#
#
# Indices 1 2 3 4 5 6 
#
# 1 99.0970 32.8181 31.2411 0.0000 0.0000 0.0000
# 2 32.8181 104.7559 23.5466 0.0000 0.0000 0.0000
# 3 31.2411 23.5466 63.1234 0.0000 0.0000 0.0000
# 4 0.0000 0.0000 0.0000 25.4779 0.0000 0.0000
# 5 0.0000 0.0000 0.0000 0.0000 29.5160 0.0000
# 6 0.0000 0.0000 0.0000 0.0000 0.0000 22.1559
#
#
#
# Elastic Compliance Matrix: (Units=1/GPa)
#
#
# Indices 1 2 3 4 5 6 
#
# 1 0.012663 -0.002793 -0.005226 0.000000 0.000000 0.000000
# 2 -0.002793 0.011036 -0.002734 0.000000 0.000000 0.000000
# 3 -0.005226 -0.002734 0.019448 0.000000 0.000000 0.000000
# 4 0.000000 0.000000 0.000000 0.039250 0.000000 0.000000
# 5 0.000000 0.000000 0.000000 0.000000 0.033880 0.000000
# 6 0.000000 0.000000 0.000000 0.000000 0.000000 0.045135
#
#
# Mechanical properties :
#
#
# Convention : Reuss Voigt Hill
#
# Bulk Modulus (GPa) = 46.20681 49.13199 47.66940
# Shear Modulus (GPa) = 26.29770 27.38800 26.84285
#
# Velocity S-wave (km/s) = 3.65492 3.72992 3.69261
# Velocity P-wave (km/s) = 6.42518 6.59600 6.51115
#
# Compressibility (1/GPa) = 0.02164183
#
# Stress axis : x y z
#
# Youngs Moduli (GPa) = 78.96785 90.61663 51.41846
#
# Poissons Ratio (x) = 0.25306 0.26870
# Poissons Ratio (y) = 0.22053 0.14060
# Poissons Ratio (z) = 0.41266 0.24778
#
# Static dielectric constant tensor:
#      x y z
#    x 3.835630 0.000000 0.000000 
#    y 0.000000 3.496500 0.000000 
#    z 0.000000 0.000000 3.416550 
# 
# 
# High freq. dielectric constant tensor:
#      x y z
#    x 1.777060 0.000000 0.000000 
#    y 0.000000 1.761510 0.000000 
#    z 0.000000 0.000000 1.756930 
# 
# From -- ./inp_files/5947.got.cif
#   From: 2010.03.12/outbox.cif.g09.slc.cpg/sg39_3_cif.got.tgz:5947.got - 2010.04.14 02:53:20.
