data_PCOD8182839
_publ_section_title
;
Structure prediction by ZEFSAII (Michael W. Deem and Ramdas Pophale) SiO2 
 PCOD8182839
Probable space group: A M A 2
;
_chemical_formula_sum "Si O2"
_cell_formula_units_Z 64
_cell_length_a 8.842366
_cell_length_b 34.097209
_cell_length_c 13.492266
_cell_angle_alpha 90.000000
_cell_angle_beta 90.000000
_cell_angle_gamma 90.000000
_cell_volume 4067.918220
_symmetry_space_group_name_H-M "A M A 2"
_symmetry_group_IT_number 40
_symmetry_cell_setting 'orthorhombic'
loop_
_space_group_symop_operation_xyz
x,y,z
-x,-y,z
1/2-x,y,z
1/2+x,-y,z
x,1/2+y,1/2+z
-x,1/2-y,1/2+z
1/2-x,1/2+y,1/2+z
1/2+x,1/2-y,1/2+z
loop_
_atom_site_type_symbol
_atom_site_label
_atom_site_fract_x
_atom_site_fract_y
_atom_site_fract_z
Si Si1 0.070905 0.806929 0.382520
Si Si2 0.571614 0.381119 0.976147
Si Si3 0.421295 0.461035 0.975200
Si Si4 0.581303 0.038496 0.711061
Si Si5 0.072545 0.728663 0.695807
Si Si6 0.074083 0.617222 0.203801
Si Si7 0.078073 0.809806 0.793372
Si Si8 0.074301 0.764544 0.991331
O O1 0.250000 0.802433 0.390267
O O2 0.020384 0.850334 0.411081
O O3 0.016833 0.799330 0.270752
O O4 0.993655 0.776874 0.458339
O O5 0.750000 0.376272 0.959405
O O6 0.519088 0.423913 0.939484
O O7 0.524890 0.374786 0.090672
O O8 0.500000 0.500000 0.931275
O O9 0.250000 0.457909 0.934864
O O10 0.421594 0.463154 0.093115
O O11 0.750000 0.038541 0.753185
O O12 0.502648 0.078300 0.748072
O O13 0.500000 0.000000 0.755131
O O14 0.250000 0.719780 0.705886
O O15 0.037233 0.773895 0.720977
O O16 0.014006 0.719302 0.586330
O O17 0.250000 0.609569 0.210086
O O18 0.030976 0.654220 0.270635
O O19 0.250000 0.823284 0.775620
O O20 0.052149 0.796880 0.906389
O O21 0.250000 0.757900 0.016143
#
# Coordination Sequence:
#
# PCOD8182839 Si02
#       8
#     8   8   8   8   8   8   8   8
#     4  11  21  32  47  67  90 118 151 186 224 267
#     4  10  19  30  43  62  89 119 151 189 225 261
#     4   9  16  26  40  59  83 114 148 180 217 263
#     4   9  16  26  40  57  82 113 145 178 214 257
#     4  10  20  34  50  67  88 116 149 186 227 269
#     4  10  19  28  42  63  87 116 150 184 219 258
#     4   9  19  32  45  63  88 115 145 181 220 261
#     4  10  20  34  49  66  89 117 149 186 226 268
#
# _framework density 15.732863999999999
#
# number of rings (size 3 to 8) (size 9 to 14) (size 15 to 20)
#    0.000    2.250    0.000    4.875    0.000    9.500 
#    0.000    0.000    0.000    0.000    0.000    0.000 
#    0.000    1.000    0.000    5.500    0.000    5.875 
#
# Total GULP energy -396870.887121 kJ/mol
# GULP energy per Si atom -12402.215223 kJ/mol
# Density = 1.569705 g / cm^3
# Si number density = 15.732864 Si / 1000 Ang^3
#
#
#
# Elastic Constant Matrix: (Units=GPa)
#
#
# Indices 1 2 3 4 5 6 
#
# 1 78.3152 40.1797 15.7537 0.0000 0.0000 0.0000
# 2 40.1797 107.4671 26.1122 0.0000 0.0000 0.0000
# 3 15.7537 26.1122 51.8603 0.0000 0.0000 0.0000
# 4 0.0000 0.0000 0.0000 14.3497 0.0000 0.0000
# 5 0.0000 0.0000 0.0000 0.0000 22.5760 0.0000
# 6 0.0000 0.0000 0.0000 0.0000 0.0000 33.4281
#
#
#
# Elastic Compliance Matrix: (Units=1/GPa)
#
#
# Indices 1 2 3 4 5 6 
#
# 1 0.015999 -0.005470 -0.002106 0.000000 0.000000 0.000000
# 2 -0.005470 0.012472 -0.004618 0.000000 0.000000 0.000000
# 3 -0.002106 -0.004618 0.022248 0.000000 0.000000 0.000000
# 4 0.000000 0.000000 0.000000 0.069688 0.000000 0.000000
# 5 0.000000 0.000000 0.000000 0.000000 0.044295 0.000000
# 6 0.000000 0.000000 0.000000 0.000000 0.000000 0.029915
#
#
# Mechanical properties :
#
#
# Convention : Reuss Voigt Hill
#
# Bulk Modulus (GPa) = 37.97856 44.63708 41.30782
# Shear Modulus (GPa) = 21.95084 24.44390 23.19737
#
# Velocity S-wave (km/s) = 3.73932 3.94596 3.84403
# Velocity P-wave (km/s) = 6.54488 7.01386 6.78342
#
# Compressibility (1/GPa) = 0.02633064
#
# Stress axis : x y z
#
# Youngs Moduli (GPa) = 62.50433 80.17668 44.94857
#
# Poissons Ratio (x) = 0.43857 0.09465
# Poissons Ratio (y) = 0.34190 0.20759
# Poissons Ratio (z) = 0.13162 0.37029
#
# Static dielectric constant tensor:
#      x y z
#    x 3.138870 0.000000 0.000000 
#    y 0.000000 3.002630 0.000000 
#    z 0.000000 0.000000 2.691480 
# 
# 
# High freq. dielectric constant tensor:
#      x y z
#    x 1.624240 0.000000 0.000000 
#    y 0.000000 1.603350 0.000000 
#    z 0.000000 0.000000 1.555160 
# 
# From -- ./inp_files/10683.got.cif
#   From: 2010.03.12/outbox.cif.g09.slc.cpg/sg40_6_cif.got.tgz:10683.got - 2010.04.14 01:38:03.
