data_PCOD8182469
_publ_section_title
;
Structure prediction by ZEFSAII (Michael W. Deem and Ramdas Pophale) SiO2 
 PCOD8182469
Probable space group: A M A 2
;
_chemical_formula_sum "Si O2"
_cell_formula_units_Z 64
_cell_length_a 8.892705
_cell_length_b 26.601660
_cell_length_c 18.621119
_cell_angle_alpha 90.000000
_cell_angle_beta 90.000000
_cell_angle_gamma 90.000000
_cell_volume 4405.025223
_symmetry_space_group_name_H-M "A M A 2"
_symmetry_group_IT_number 40
_symmetry_cell_setting 'orthorhombic'
loop_
_space_group_symop_operation_xyz
x,y,z
-x,-y,z
1/2-x,y,z
1/2+x,-y,z
x,1/2+y,1/2+z
-x,1/2-y,1/2+z
1/2-x,1/2+y,1/2+z
1/2+x,1/2-y,1/2+z
loop_
_atom_site_type_symbol
_atom_site_label
_atom_site_fract_x
_atom_site_fract_y
_atom_site_fract_z
Si Si1 0.923392 0.650775 0.618430
Si Si2 0.927974 0.253515 0.547824
Si Si3 0.072717 0.448041 0.381643
Si Si4 0.572440 0.354325 0.305912
Si Si5 0.924370 0.697303 0.182680
Si Si6 0.926351 0.551117 0.546513
Si Si7 0.077776 0.789354 0.249160
Si Si8 0.924097 0.255440 0.389898
O O1 0.750000 0.652924 0.595533
O O2 0.989537 0.596775 0.595392
O O3 0.942248 0.658409 0.705305
O O4 0.004417 0.694610 0.575589
O O5 0.750000 0.260285 0.548353
O O6 0.969682 0.205463 0.598494
O O7 0.996141 0.243901 0.467809
O O8 0.250000 0.451211 0.371085
O O9 0.027925 0.437878 0.464290
O O10 0.000000 0.500000 0.355029
O O11 0.007690 0.403927 0.333361
O O12 0.750000 0.361604 0.309385
O O13 0.522853 0.345190 0.222790
O O14 0.514991 0.307031 0.353832
O O15 0.750000 0.683301 0.191467
O O16 0.956753 0.751065 0.218089
O O17 0.750000 0.544528 0.555008
O O18 0.000000 0.500000 0.574995
O O19 0.250000 0.769016 0.237720
O O20 0.047499 0.791870 0.335303
O O21 0.750000 0.263672 0.403876
#
# Coordination Sequence:
#
# PCOD8182469 Si02
#       8
#     8   8   8   8   8   8   8   8
#     4   9  16  26  39  55  75 100 130 160 192 227
#     4   9  16  25  38  56  77 101 129 158 188 225
#     4  10  19  30  42  57  78 102 130 163 195 226
#     4  10  18  28  42  57  76 104 134 161 192 229
#     4   9  16  25  37  54  76 100 126 158 191 225
#     4   9  18  29  40  56  78 103 131 163 195 227
#     4   8  14  25  39  53  73 100 127 158 192 228
#     4   8  14  24  38  56  76 100 129 157 187 225
#
# _framework density 14.528860999999999
#
# number of rings (size 3 to 8) (size 9 to 14) (size 15 to 20)
#    0.000    3.000    0.000    2.625    0.000    1.500 
#    0.000    2.500    0.000    0.000    0.000    0.000 
#    0.000    1.000    0.000    4.000    0.000    2.125 
#
# Total GULP energy -396424.497911 kJ/mol
# GULP energy per Si atom -12388.265560 kJ/mol
# Density = 1.449579 g / cm^3
# Si number density = 14.528861 Si / 1000 Ang^3
#
#
#
# Elastic Constant Matrix: (Units=GPa)
#
#
# Indices 1 2 3 4 5 6 
#
# 1 34.4709 25.0562 26.2404 0.0000 0.0000 0.0000
# 2 25.0562 91.2105 63.5915 0.0000 0.0000 0.0000
# 3 26.2404 63.5915 121.3261 0.0000 0.0000 0.0000
# 4 0.0000 0.0000 0.0000 24.6003 0.0000 0.0000
# 5 0.0000 0.0000 0.0000 0.0000 15.2942 0.0000
# 6 0.0000 0.0000 0.0000 0.0000 0.0000 19.9223
#
#
#
# Elastic Compliance Matrix: (Units=1/GPa)
#
#
# Indices 1 2 3 4 5 6 
#
# 1 0.037610 -0.007344 -0.004285 0.000000 0.000000 0.000000
# 2 -0.007344 0.018711 -0.008219 0.000000 0.000000 0.000000
# 3 -0.004285 -0.008219 0.013477 0.000000 0.000000 0.000000
# 4 0.000000 0.000000 0.000000 0.040650 0.000000 0.000000
# 5 0.000000 0.000000 0.000000 0.000000 0.065384 0.000000
# 6 0.000000 0.000000 0.000000 0.000000 0.000000 0.050195
#
#
# Mechanical properties :
#
#
# Convention : Reuss Voigt Hill
#
# Bulk Modulus (GPa) = 33.22028 52.97597 43.09813
# Shear Modulus (GPa) = 18.13184 20.77132 19.45158
#
# Velocity S-wave (km/s) = 3.53652 3.78519 3.66296
# Velocity P-wave (km/s) = 6.29211 7.45957 6.90057
#
# Compressibility (1/GPa) = 0.03010209
#
# Stress axis : x y z
#
# Youngs Moduli (GPa) = 26.58851 53.44342 74.20162
#
# Poissons Ratio (x) = 0.39251 0.31794
# Poissons Ratio (y) = 0.19528 0.60985
# Poissons Ratio (z) = 0.11393 0.43924
#
# Static dielectric constant tensor:
#      x y z
#    x 2.780080 0.000000 0.000000 
#    y 0.000000 2.706140 0.000000 
#    z 0.000000 0.000000 3.247210 
# 
# 
# High freq. dielectric constant tensor:
#      x y z
#    x 1.553920 0.000000 0.000000 
#    y 0.000000 1.519540 0.000000 
#    z 0.000000 0.000000 1.550710 
# 
# From -- ./inp_files/19760.got.cif
#   From: 2010.03.12/outbox.cif.g09.slc.cpg/sg40_10_cif.got.tgz:19760.got - 2010.04.14 01:38:03.
